data_PCOD8211243
_publ_section_title
;
Structure prediction by ZEFSAII (Michael W. Deem and Ramdas Pophale) SiO2 
 PCOD8211243
Probable space group: P M M A
;
_chemical_formula_sum "Si O2"
_cell_formula_units_Z 44
_cell_length_a 9.427095
_cell_length_b 8.317113
_cell_length_c 30.323938
_cell_angle_alpha 90.000000
_cell_angle_beta 90.000000
_cell_angle_gamma 90.000000
_cell_volume 2377.585184
_symmetry_space_group_name_H-M "P M M A"
_symmetry_group_IT_number 51
_symmetry_cell_setting 'orthorhombic'
loop_
_space_group_symop_operation_xyz
x,y,z
1/2-x,-y,z
1/2+x,-y,-z
-x,y,-z
-x,-y,-z
1/2+x,y,-z
1/2-x,y,z
x,-y,z
loop_
_atom_site_type_symbol
_atom_site_label
_atom_site_fract_x
_atom_site_fract_y
_atom_site_fract_z
Si Si1 0.907900 0.311233 0.960351
Si Si2 0.582497 0.182860 0.869410
Si Si3 0.918189 0.682557 0.778679
Si Si4 0.418544 0.820292 0.311721
Si Si5 0.080328 0.000000 0.454266
Si Si6 0.081748 0.320257 0.401572
O O1 0.750000 0.235363 0.962999
O O2 0.899313 0.500000 0.966510
O O3 0.977827 0.272850 0.912712
O O4 0.000000 0.234778 0.000000
O O5 0.750000 0.210501 0.867227
O O6 0.514849 0.248945 0.823985
O O7 0.538329 0.000000 0.874052
O O8 0.750000 0.706347 0.779601
O O9 0.963649 0.500000 0.774870
O O10 0.983017 0.769939 0.735634
O O11 0.250000 0.810289 0.308937
O O12 0.472131 0.705504 0.351266
O O13 0.468667 0.000000 0.322849
O O14 0.029772 0.166132 0.430184
O O15 0.000000 0.000000 0.500000
O O16 0.250000 0.000000 0.460330
O O17 0.250000 0.319984 0.402853
O O18 0.027485 0.500000 0.417320
#
# Coordination Sequence:
#
# PCOD8211243 Si02
#       6
#     8   8   8   8   4   8
#     4   9  17  29  44  60  79 105 137 172 210 252
#     4   9  16  25  36  52  76 106 137 170 210 254
#     4   9  15  21  31  50  77 110 144 174 209 258
#     4   9  14  21  34  54  82 115 149 182 218 265
#     4  10  20  34  50  70  96 126 160 198 237 276
#     4   9  16  27  43  63  89 122 157 192 233 278
#
# _framework density 18.506170999999998
#
# number of rings (size 3 to 8) (size 9 to 14) (size 15 to 20)
#    0.000    2.909    0.909    1.636    0.000    7.273 
#    0.000    0.000    0.000    0.000    0.000    0.000 
#    0.000    1.455    0.000    2.000    0.000    1.273 
#
# Total GULP energy -545093.830163 kJ/mol
# GULP energy per Si atom -12388.496140 kJ/mol
# Density = 1.846405 g / cm^3
# Si number density = 18.506171 Si / 1000 Ang^3
#
#
#
# Elastic Constant Matrix: (Units=GPa)
#
#
# Indices 1 2 3 4 5 6 
#
# 1 11.3797 9.1706 23.1874 0.0000 0.0000 0.0000
# 2 9.1706 99.5063 73.3533 0.0000 0.0000 0.0000
# 3 23.1874 73.3533 155.4512 0.0000 0.0000 0.0000
# 4 0.0000 0.0000 0.0000 34.4668 0.0000 0.0000
# 5 0.0000 0.0000 0.0000 0.0000 16.0988 0.0000
# 6 0.0000 0.0000 0.0000 0.0000 0.0000 5.1383
#
#
#
# Elastic Compliance Matrix: (Units=1/GPa)
#
#
# Indices 1 2 3 4 5 6 
#
# 1 0.127022 0.003466 -0.020582 0.000000 0.000000 0.000000
# 2 0.003466 0.015505 -0.007833 0.000000 0.000000 0.000000
# 3 -0.020582 -0.007833 0.013199 0.000000 0.000000 0.000000
# 4 0.000000 0.000000 0.000000 0.029013 0.000000 0.000000
# 5 0.000000 0.000000 0.000000 0.000000 0.062117 0.000000
# 6 0.000000 0.000000 0.000000 0.000000 0.000000 0.194618
#
#
# Mechanical properties :
#
#
# Convention : Reuss Voigt Hill
#
# Bulk Modulus (GPa) = 9.44940 53.08439 31.26690
# Shear Modulus (GPa) = 9.49401 21.84915 15.67158
#
# Velocity S-wave (km/s) = 2.26745 3.43977 2.91319
# Velocity P-wave (km/s) = 3.46010 6.67256 5.31485
#
# Compressibility (1/GPa) = 0.10582686
#
# Stress axis : x y z
#
# Youngs Moduli (GPa) = 7.87267 64.49691 75.76158
#
# Poissons Ratio (x) = -0.22357 1.55936
# Poissons Ratio (y) = -0.02729 0.59346
# Poissons Ratio (z) = 0.16204 0.50522
#
# Static dielectric constant tensor:
#      x y z
#    x 2.637950 0.000000 0.000000 
#    y 0.000000 3.589340 0.000000 
#    z 0.000000 0.000000 3.751210 
# 
# 
# High freq. dielectric constant tensor:
#      x y z
#    x 1.612170 0.000000 0.000000 
#    y 0.000000 1.729170 0.000000 
#    z 0.000000 0.000000 1.737780 
# 
# From -- ./inp_files/36516.got.cif
#   From: 2010.03.12/outbox.cif.g09.slc.cpg/sg51_19_cif.got.tgz:36516.got - 2010.04.16 13:43:02.
