data_PCOD8211074
_publ_section_title
;
Structure prediction by ZEFSAII (Michael W. Deem and Ramdas Pophale) SiO2 
 PCOD8211074
Probable space group: P M M A
;
_chemical_formula_sum "Si O2"
_cell_formula_units_Z 48
_cell_length_a 26.101638
_cell_length_b 13.439673
_cell_length_c 8.071662
_cell_angle_alpha 90.000000
_cell_angle_beta 90.000000
_cell_angle_gamma 90.000000
_cell_volume 2831.518685
_symmetry_space_group_name_H-M "P M M A"
_symmetry_group_IT_number 51
_symmetry_cell_setting 'orthorhombic'
loop_
_space_group_symop_operation_xyz
x,y,z
1/2-x,-y,z
1/2+x,-y,-z
-x,y,-z
-x,-y,-z
1/2+x,y,-z
1/2-x,y,z
x,-y,z
loop_
_atom_site_type_symbol
_atom_site_label
_atom_site_fract_x
_atom_site_fract_y
_atom_site_fract_z
Si Si1 0.858371 0.881908 0.349574
Si Si2 0.010731 0.606394 0.186684
Si Si3 0.310142 0.113719 0.994681
Si Si4 0.548336 0.248552 0.394729
Si Si5 0.810601 0.222579 0.668657
Si Si6 0.610043 0.614667 0.633261
O O1 0.834834 0.843415 0.175029
O O2 0.917389 0.846655 0.350648
O O3 0.827812 0.839658 0.507589
O O4 0.855893 0.000000 0.361200
O O5 0.998726 0.500000 0.280206
O O6 0.071049 0.628939 0.213359
O O7 0.974872 0.697820 0.235456
O O8 0.000000 0.587370 0.000000
O O9 0.250000 0.124970 0.972149
O O10 0.326877 0.000000 0.018496
O O11 0.328546 0.169550 0.160950
O O12 0.500000 0.210103 0.500000
O O13 0.582580 0.333381 0.478743
O O14 0.750000 0.236138 0.662432
O O15 0.836378 0.331060 0.670894
O O16 0.622560 0.500000 0.593342
#
# Coordination Sequence:
#
# PCOD8211074 Si02
#       6
#     8   8   8   8   8   8
#     4  10  20  33  52  74  99 132 169 207 250 299
#     4   9  17  29  49  74  96 126 166 206 246 292
#     4   9  18  32  50  72  96 123 161 208 250 291
#     4   9  18  32  49  71  99 132 162 205 249 296
#     4  10  20  33  52  75 100 132 166 206 253 299
#     4   9  18  32  49  72  99 129 166 203 247 298
#
# _framework density 16.952034000000001
#
# number of rings (size 3 to 8) (size 9 to 14) (size 15 to 20)
#    0.000    2.667    0.000    1.500    2.333    4.333 
#    0.000    0.000    0.000    0.500    0.000    2.333 
#    0.000    0.000    0.000    0.000    0.000    0.000 
#
# Total GULP energy -594793.366926 kJ/mol
# GULP energy per Si atom -12391.528478 kJ/mol
# Density = 1.691345 g / cm^3
# Si number density = 16.952034 Si / 1000 Ang^3
#
#
#
# Elastic Constant Matrix: (Units=GPa)
#
#
# Indices 1 2 3 4 5 6 
#
# 1 90.3373 43.5127 39.7943 0.0000 0.0000 0.0000
# 2 43.5127 75.3632 33.9540 0.0000 0.0000 0.0000
# 3 39.7943 33.9540 101.7116 0.0000 0.0000 0.0000
# 4 0.0000 0.0000 0.0000 23.2904 0.0000 0.0000
# 5 0.0000 0.0000 0.0000 0.0000 16.9940 0.0000
# 6 0.0000 0.0000 0.0000 0.0000 0.0000 28.7137
#
#
#
# Elastic Compliance Matrix: (Units=1/GPa)
#
#
# Indices 1 2 3 4 5 6 
#
# 1 0.016530 -0.007804 -0.003862 0.000000 0.000000 0.000000
# 2 -0.007804 0.019302 -0.003390 0.000000 0.000000 0.000000
# 3 -0.003862 -0.003390 0.012475 0.000000 0.000000 0.000000
# 4 0.000000 0.000000 0.000000 0.042936 0.000000 0.000000
# 5 0.000000 0.000000 0.000000 0.000000 0.058844 0.000000
# 6 0.000000 0.000000 0.000000 0.000000 0.000000 0.034827
#
#
# Mechanical properties :
#
#
# Convention : Reuss Voigt Hill
#
# Bulk Modulus (GPa) = 54.96318 55.77046 55.36682
# Shear Modulus (GPa) = 22.61514 23.80970 23.21242
#
# Velocity S-wave (km/s) = 3.65645 3.75178 3.70442
# Velocity P-wave (km/s) = 7.09361 7.19292 7.14344
#
# Compressibility (1/GPa) = 0.01819400
#
# Stress axis : x y z
#
# Youngs Moduli (GPa) = 60.49692 51.80726 80.16319
#
# Poissons Ratio (x) = 0.40429 0.30960
# Poissons Ratio (y) = 0.47211 0.27179
# Poissons Ratio (z) = 0.23364 0.17565
#
# Static dielectric constant tensor:
#      x y z
#    x 2.819830 0.000000 0.000000 
#    y 0.000000 3.179780 0.000000 
#    z 0.000000 0.000000 3.221330 
# 
# 
# High freq. dielectric constant tensor:
#      x y z
#    x 1.651200 0.000000 0.000000 
#    y 0.000000 1.648550 0.000000 
#    z 0.000000 0.000000 1.655670 
# 
# From -- ./inp_files/11640.got.cif
#   From: 2010.03.12/outbox.cif.g09.slc.cpg/sg51_6_cif.got.tgz:11640.got - 2010.04.16 13:43:02.
