data_PCOD8211433
_publ_section_title
;
Structure prediction by ZEFSAII (Michael W. Deem and Ramdas Pophale) SiO2 
 PCOD8211433
Probable space group: P M M A
;
_chemical_formula_sum "Si O2"
_cell_formula_units_Z 56
_cell_length_a 14.409329
_cell_length_b 9.107933
_cell_length_c 21.220263
_cell_angle_alpha 90.000000
_cell_angle_beta 90.000000
_cell_angle_gamma 90.000000
_cell_volume 2784.930406
_symmetry_space_group_name_H-M "P M M A"
_symmetry_group_IT_number 51
_symmetry_cell_setting 'orthorhombic'
loop_
_space_group_symop_operation_xyz
x,y,z
1/2-x,-y,z
1/2+x,-y,-z
-x,y,-z
-x,-y,-z
1/2+x,y,-z
1/2-x,y,z
x,-y,z
loop_
_atom_site_type_symbol
_atom_site_label
_atom_site_fract_x
_atom_site_fract_y
_atom_site_fract_z
Si Si1 0.400514 0.164979 0.968098
Si Si2 0.147583 0.340902 0.082011
Si Si3 0.359732 0.169276 0.200701
Si Si4 0.142452 0.670521 0.843459
Si Si5 0.476677 0.173785 0.599507
Si Si6 0.511485 0.672495 0.272322
Si Si7 0.353557 0.173618 0.482981
O O1 0.402892 0.235610 0.899395
O O2 0.360389 0.000000 0.963963
O O3 0.500000 0.166649 0.000000
O O4 0.339496 0.264117 0.014425
O O5 0.250000 0.372014 0.107313
O O6 0.095219 0.500000 0.077327
O O7 0.101458 0.236413 0.134629
O O8 0.250000 0.187486 0.211086
O O9 0.412932 0.252325 0.256451
O O10 0.388597 0.000000 0.200408
O O11 0.250000 0.713492 0.834943
O O12 0.131236 0.500000 0.860379
O O13 0.089153 0.710901 0.779521
O O14 0.452501 0.262050 0.662301
O O15 0.398017 0.221246 0.549505
O O16 0.578276 0.223005 0.573646
O O17 0.474429 0.000000 0.612482
O O18 0.495364 0.500000 0.278359
O O19 0.250000 0.242548 0.475044
O O20 0.346813 0.000000 0.481777
#
# Coordination Sequence:
#
# PCOD8211433 Si02
#       7
#     8   8   8   8   8   8   8
#     4  11  23  36  53  79 107 135 175 231 288 338
#     4  10  20  34  53  76 102 133 170 215 271 334
#     4  10  21  37  57  81 110 145 187 236 287 340
#     4  10  23  42  59  77 107 150 197 239 282 336
#     4   9  18  33  55  83 112 144 186 230 270 323
#     4  11  23  38  57  81 114 153 189 231 282 336
#     4   8  15  31  56  84 113 145 182 226 274 322
#
# _framework density 20.108222000000001
#
# number of rings (size 3 to 8) (size 9 to 14) (size 15 to 20)
#    0.000    2.143    0.000    3.857    0.000    9.429 
#    0.000    2.857    0.000    0.857    0.000    0.000 
#    0.000    0.000    0.000    0.000    0.000    0.000 
#
# Total GULP energy -694213.409282 kJ/mol
# GULP energy per Si atom -12396.668023 kJ/mol
# Density = 2.006245 g / cm^3
# Si number density = 20.108222 Si / 1000 Ang^3
#
#
#
# Elastic Constant Matrix: (Units=GPa)
#
#
# Indices 1 2 3 4 5 6 
#
# 1 93.6958 27.6080 31.5475 0.0000 0.0000 0.0000
# 2 27.6080 107.3122 52.7360 0.0000 0.0000 0.0000
# 3 31.5475 52.7360 123.9212 0.0000 0.0000 0.0000
# 4 0.0000 0.0000 0.0000 29.8853 0.0000 0.0000
# 5 0.0000 0.0000 0.0000 0.0000 23.2320 0.0000
# 6 0.0000 0.0000 0.0000 0.0000 0.0000 10.5017
#
#
#
# Elastic Compliance Matrix: (Units=1/GPa)
#
#
# Indices 1 2 3 4 5 6 
#
# 1 0.012006 -0.002006 -0.002203 0.000000 0.000000 0.000000
# 2 -0.002006 0.012118 -0.004646 0.000000 0.000000 0.000000
# 3 -0.002203 -0.004646 0.010608 0.000000 0.000000 0.000000
# 4 0.000000 0.000000 0.000000 0.033461 0.000000 0.000000
# 5 0.000000 0.000000 0.000000 0.000000 0.043044 0.000000
# 6 0.000000 0.000000 0.000000 0.000000 0.000000 0.095223
#
#
# Mechanical properties :
#
#
# Convention : Reuss Voigt Hill
#
# Bulk Modulus (GPa) = 58.75039 60.96803 59.85921
# Shear Modulus (GPa) = 21.75400 26.92633 24.34016
#
# Velocity S-wave (km/s) = 3.29271 3.66330 3.48294
# Velocity P-wave (km/s) = 6.61335 6.94829 6.78289
#
# Compressibility (1/GPa) = 0.01702116
#
# Stress axis : x y z
#
# Youngs Moduli (GPa) = 83.29443 82.52180 94.27194
#
# Poissons Ratio (x) = 0.16556 0.20764
# Poissons Ratio (y) = 0.16711 0.43801
# Poissons Ratio (z) = 0.18346 0.38341
#
# Static dielectric constant tensor:
#      x y z
#    x 3.543200 0.000000 0.000000 
#    y 0.000000 3.680450 0.000000 
#    z 0.000000 0.000000 3.598280 
# 
# 
# High freq. dielectric constant tensor:
#      x y z
#    x 1.787300 0.000000 0.000000 
#    y 0.000000 1.774350 0.000000 
#    z 0.000000 0.000000 1.778990 
# 
# From -- ./inp_files/33388.got.cif
#   From: 2010.03.12/outbox.cif.g09.slc.cpg/sg51_17_cif.got.tgz:33388.got - 2010.04.16 13:43:02.
