data_PCOD8211587
_publ_section_title
;
Structure prediction by ZEFSAII (Michael W. Deem and Ramdas Pophale) SiO2 
 PCOD8211587
Probable space group: P M M A
;
_chemical_formula_sum "Si O2"
_cell_formula_units_Z 56
_cell_length_a 15.455669
_cell_length_b 19.782720
_cell_length_c 9.189738
_cell_angle_alpha 90.000000
_cell_angle_beta 90.000000
_cell_angle_gamma 90.000000
_cell_volume 2809.809925
_symmetry_space_group_name_H-M "P M M A"
_symmetry_group_IT_number 51
_symmetry_cell_setting 'orthorhombic'
loop_
_space_group_symop_operation_xyz
x,y,z
1/2-x,-y,z
1/2+x,-y,-z
-x,y,-z
-x,-y,-z
1/2+x,y,-z
1/2-x,y,z
x,-y,z
loop_
_atom_site_type_symbol
_atom_site_label
_atom_site_fract_x
_atom_site_fract_y
_atom_site_fract_z
Si Si1 0.151999 0.324986 0.138251
Si Si2 0.087933 0.923928 0.085778
Si Si3 0.653579 0.073659 0.211407
Si Si4 0.852926 0.200646 0.376862
Si Si5 0.504318 0.575093 0.827653
Si Si6 0.648979 0.186899 0.705061
Si Si7 0.150149 0.667469 0.797190
O O1 0.250000 0.346924 0.177410
O O2 0.127814 0.253365 0.204789
O O3 0.088464 0.380120 0.210495
O O4 0.140452 0.315220 0.966540
O O5 0.098613 0.875315 0.223226
O O6 0.092203 0.000000 0.147474
O O7 0.160102 0.911062 0.961594
O O8 0.000000 0.909088 0.000000
O O9 0.750000 0.068111 0.273207
O O10 0.606128 0.134747 0.296465
O O11 0.606509 0.000000 0.235888
O O12 0.750000 0.198631 0.366053
O O13 0.886017 0.199330 0.542237
O O14 0.883354 0.268717 0.296046
O O15 0.515390 0.500000 0.760759
O O16 0.415477 0.606124 0.761578
O O17 0.500000 0.570246 0.000000
O O18 0.750000 0.169435 0.703499
O O19 0.250000 0.647430 0.759879
#
# Coordination Sequence:
#
# PCOD8211587 Si02
#       7
#     8   8   8   8   8   8   8
#     4   9  18  32  51  76 105 138 175 216 266 322
#     4  10  21  35  50  72 103 137 173 215 262 311
#     4   9  17  31  51  72  96 130 170 210 254 305
#     4   9  18  32  51  76 104 133 169 215 263 310
#     4   9  18  32  52  80 107 131 169 218 263 313
#     4  10  20  34  54  78 102 132 173 218 260 306
#     4   9  17  31  52  76 105 140 174 214 266 323
#
# _framework density 19.930174000000001
#
# number of rings (size 3 to 8) (size 9 to 14) (size 15 to 20)
#    0.000    2.714    0.000    1.286    0.000    7.143 
#    0.000    7.143    0.000    4.286    0.000    4.000 
#    0.000    0.000    0.000    0.000    0.000    0.000 
#
# Total GULP energy -694061.370051 kJ/mol
# GULP energy per Si atom -12393.953037 kJ/mol
# Density = 1.988481 g / cm^3
# Si number density = 19.930174 Si / 1000 Ang^3
#
#
#
# Elastic Constant Matrix: (Units=GPa)
#
#
# Indices 1 2 3 4 5 6 
#
# 1 79.9651 67.8692 29.8919 0.0000 0.0000 0.0000
# 2 67.8692 171.8346 65.1394 0.0000 0.0000 0.0000
# 3 29.8919 65.1394 77.7048 0.0000 0.0000 0.0000
# 4 0.0000 0.0000 0.0000 3.3618 0.0000 0.0000
# 5 0.0000 0.0000 0.0000 0.0000 15.2747 0.0000
# 6 0.0000 0.0000 0.0000 0.0000 0.0000 25.9165
#
#
#
# Elastic Compliance Matrix: (Units=1/GPa)
#
#
# Indices 1 2 3 4 5 6 
#
# 1 0.018928 -0.006912 -0.001487 0.000000 0.000000 0.000000
# 2 -0.006912 0.011055 -0.006608 0.000000 0.000000 0.000000
# 3 -0.001487 -0.006608 0.018981 0.000000 0.000000 0.000000
# 4 0.000000 0.000000 0.000000 0.297462 0.000000 0.000000
# 5 0.000000 0.000000 0.000000 0.000000 0.065468 0.000000
# 6 0.000000 0.000000 0.000000 0.000000 0.000000 0.038585
#
#
# Mechanical properties :
#
#
# Convention : Reuss Voigt Hill
#
# Bulk Modulus (GPa) = 52.77302 72.81172 62.79237
# Shear Modulus (GPa) = 10.27098 20.01753 15.14425
#
# Velocity S-wave (km/s) = 2.27259 3.17264 2.75956
# Velocity P-wave (km/s) = 5.78123 7.07344 6.45973
#
# Compressibility (1/GPa) = 0.01894908
#
# Stress axis : x y z
#
# Youngs Moduli (GPa) = 52.83180 90.45944 52.68555
#
# Poissons Ratio (x) = 0.62529 0.07833
# Poissons Ratio (y) = 0.36519 0.34814
# Poissons Ratio (z) = 0.07855 0.59775
#
# Static dielectric constant tensor:
#      x y z
#    x 3.614150 0.000000 0.000000 
#    y 0.000000 3.850550 0.000000 
#    z 0.000000 0.000000 3.501720 
# 
# 
# High freq. dielectric constant tensor:
#      x y z
#    x 1.771410 0.000000 0.000000 
#    y 0.000000 1.777580 0.000000 
#    z 0.000000 0.000000 1.749020 
# 
# From -- ./inp_files/8575.got.cif
#   From: 2010.03.12/outbox.cif.g09.slc.cpg/sg51_5_cif.got.tgz:8575.got - 2010.04.16 13:43:02.
