data_PCOD8211026
_publ_section_title
;
Structure prediction by ZEFSAII (Michael W. Deem and Ramdas Pophale) SiO2 
 PCOD8211026
Probable space group: P M M A
;
_chemical_formula_sum "Si O2"
_cell_formula_units_Z 48
_cell_length_a 9.087717
_cell_length_b 9.410569
_cell_length_c 30.955687
_cell_angle_alpha 90.000000
_cell_angle_beta 90.000000
_cell_angle_gamma 90.000000
_cell_volume 2647.348550
_symmetry_space_group_name_H-M "P M M A"
_symmetry_group_IT_number 51
_symmetry_cell_setting 'orthorhombic'
loop_
_space_group_symop_operation_xyz
x,y,z
1/2-x,-y,z
1/2+x,-y,-z
-x,y,-z
-x,-y,-z
1/2+x,y,-z
1/2-x,y,z
x,-y,z
loop_
_atom_site_type_symbol
_atom_site_label
_atom_site_fract_x
_atom_site_fract_y
_atom_site_fract_z
Si Si1 0.921041 0.165839 0.135781
Si Si2 0.421361 0.833299 0.371954
Si Si3 0.078955 0.666272 0.703541
Si Si4 0.911762 0.168387 0.040008
Si Si5 0.916172 0.830949 0.458087
Si Si6 0.419706 0.334652 0.209175
O O1 0.750000 0.208300 0.141404
O O2 0.977306 0.204453 0.087312
O O3 0.023508 0.251587 0.167835
O O4 0.941766 0.000000 0.145171
O O5 0.250000 0.795978 0.374922
O O6 0.493119 0.751930 0.332515
O O7 0.498170 0.778708 0.415690
O O8 0.447639 0.000000 0.365124
O O9 0.250000 0.707159 0.702329
O O10 0.053401 0.500000 0.695389
O O11 0.013916 0.713269 0.749517
O O12 0.750000 0.234414 0.037042
O O13 0.904162 0.000000 0.034831
O O14 0.000000 0.236921 0.000000
O O15 0.750000 0.770853 0.457158
O O16 0.000000 0.769534 0.500000
O O17 0.914104 0.000000 0.460090
O O18 0.250000 0.296778 0.217916
O O19 0.441755 0.500000 0.199754
#
# Coordination Sequence:
#
# PCOD8211026 Si02
#       6
#     8   8   8   8   8   8
#     4   9  18  32  50  74 102 130 162 201 244 290
#     4  10  20  33  51  77 106 134 166 205 248 292
#     4  10  21  37  56  75  96 128 168 205 246 299
#     4   8  14  25  42  66  96 127 158 193 235 284
#     4   9  16  27  45  70 101 135 169 205 245 290
#     4  10  21  36  53  73  97 127 164 204 246 294
#
# _framework density 18.131350000000001
#
# number of rings (size 3 to 8) (size 9 to 14) (size 15 to 20)
#    0.000    2.667    0.000    3.000    0.000    6.667 
#    0.000    1.667    0.000    1.000    0.000    0.000 
#    0.000    0.000    0.000    0.000    0.000    0.000 
#
# Total GULP energy -595122.651059 kJ/mol
# GULP energy per Si atom -12398.388564 kJ/mol
# Density = 1.809008 g / cm^3
# Si number density = 18.131350 Si / 1000 Ang^3
#
#
#
# Elastic Constant Matrix: (Units=GPa)
#
#
# Indices 1 2 3 4 5 6 
#
# 1 132.0931 36.3065 83.1349 0.0000 0.0000 0.0000
# 2 36.3065 28.6918 43.4173 0.0000 0.0000 0.0000
# 3 83.1349 43.4173 162.8096 0.0000 0.0000 0.0000
# 4 0.0000 0.0000 0.0000 -25.8497 0.0000 0.0000
# 5 0.0000 0.0000 0.0000 0.0000 43.5429 0.0000
# 6 0.0000 0.0000 0.0000 0.0000 0.0000 23.2817
#
#
#
# Elastic Compliance Matrix: (Units=1/GPa)
#
#
# Indices 1 2 3 4 5 6 
#
# 1 0.012826 -0.010595 -0.003724 0.000000 0.000000 0.000000
# 2 -0.010595 0.067185 -0.012507 0.000000 0.000000 0.000000
# 3 -0.003724 -0.012507 0.011379 0.000000 0.000000 0.000000
# 4 0.000000 0.000000 0.000000 -0.038685 0.000000 0.000000
# 5 0.000000 0.000000 0.000000 0.000000 0.022966 0.000000
# 6 0.000000 0.000000 0.000000 0.000000 0.000000 0.042952
#
#
# Mechanical properties :
#
#
# Convention : Reuss Voigt Hill
#
# Bulk Modulus (GPa) = 26.49752 72.14577 49.32164
# Shear Modulus (GPa) = 27.04827 18.91069 22.97948
#
# Velocity S-wave (km/s) = 3.86657 3.23303 3.56390
# Velocity P-wave (km/s) = 5.88045 7.33578 6.64806
#
# Compressibility (1/GPa) = 0.03773938
#
# Stress axis : x y z
#
# Youngs Moduli (GPa) = 77.96480 14.88417 87.88196
#
# Poissons Ratio (x) = 0.15770 0.32727
# Poissons Ratio (y) = 0.82605 1.09910
# Poissons Ratio (z) = 0.29034 0.18615
#
# Static dielectric constant tensor:
#      x y z
#    x 3.722200 0.000000 0.000000 
#    y 0.000000 2.924280 0.000000 
#    z 0.000000 0.000000 3.563120 
# 
# 
# High freq. dielectric constant tensor:
#      x y z
#    x 1.713410 0.000000 0.000000 
#    y 0.000000 1.655530 0.000000 
#    z 0.000000 0.000000 1.720230 
# 
# From -- ./inp_files/37009.got.cif
#   From: 2010.03.12/outbox.cif.g09.slc.cpg/sg51_19_cif.got.tgz:37009.got - 2010.04.16 13:43:02.
