data_PCOD8211165
_publ_section_title
;
Structure prediction by ZEFSAII (Michael W. Deem and Ramdas Pophale) SiO2 
 PCOD8211165
Probable space group: P M M A
;
_chemical_formula_sum "Si O2"
_cell_formula_units_Z 64
_cell_length_a 24.068755
_cell_length_b 9.053732
_cell_length_c 14.966803
_cell_angle_alpha 90.000000
_cell_angle_beta 90.000000
_cell_angle_gamma 90.000000
_cell_volume 3261.446834
_symmetry_space_group_name_H-M "P M M A"
_symmetry_group_IT_number 51
_symmetry_cell_setting 'orthorhombic'
loop_
_space_group_symop_operation_xyz
x,y,z
1/2-x,-y,z
1/2+x,-y,-z
-x,y,-z
-x,-y,-z
1/2+x,y,-z
1/2-x,y,z
x,-y,z
loop_
_atom_site_type_symbol
_atom_site_label
_atom_site_fract_x
_atom_site_fract_y
_atom_site_fract_z
Si Si1 0.012841 0.166459 0.161351
Si Si2 0.096781 0.326613 0.825544
Si Si3 0.186393 0.671252 0.967657
Si Si4 0.483490 0.166940 0.369002
Si Si5 0.906196 0.325632 0.376827
Si Si6 0.133085 0.827077 0.458157
Si Si7 0.134156 0.825807 0.132763
Si Si8 0.814018 0.330419 0.700163
O O1 0.027954 0.185351 0.264746
O O2 0.069496 0.210540 0.109359
O O3 0.960593 0.265379 0.132863
O O4 0.995550 0.000000 0.138162
O O5 0.090519 0.500000 0.825491
O O6 0.148563 0.274216 0.885286
O O7 0.106797 0.270818 0.724271
O O8 0.250000 0.698100 0.939785
O O9 0.175219 0.500000 0.990204
O O10 0.172956 0.766114 0.054568
O O11 0.531213 0.277720 0.401883
O O12 0.427656 0.208116 0.419905
O O13 0.502679 0.000000 0.391899
O O14 0.899567 0.500000 0.387401
O O15 0.863129 0.244137 0.442934
O O16 0.178052 0.748831 0.395120
O O17 0.146330 0.000000 0.463008
O O18 0.149727 0.749846 0.225364
O O19 0.143080 0.000000 0.144397
O O20 0.750000 0.319315 0.728045
O O21 0.833383 0.500000 0.692820
#
# Coordination Sequence:
#
# PCOD8211165 Si02
#       8
#     8   8   8   8   8   8   8   8
#     4   9  18  34  55  82 117 152 184 223 281 346
#     4   9  20  38  58  82 114 151 193 240 288 339
#     4  10  22  41  62  83 109 146 193 240 286 338
#     4   9  17  32  51  76 111 151 188 223 272 336
#     4  10  20  33  52  82 114 146 190 238 285 335
#     4  11  21  35  55  80 112 152 193 232 280 338
#     4  11  22  38  60  88 118 148 184 229 286 349
#     4  11  24  40  58  82 114 152 193 238 286 339
#
# _framework density 19.623193000000001
#
# number of rings (size 3 to 8) (size 9 to 14) (size 15 to 20)
#    0.000    2.000    1.250    2.250    0.000    7.750 
#    0.000    3.125    0.000    2.250    0.000    0.000 
#    0.000    0.000    0.000    0.000    0.000    0.000 
#
# Total GULP energy -793712.306965 kJ/mol
# GULP energy per Si atom -12401.754796 kJ/mol
# Density = 1.957853 g / cm^3
# Si number density = 19.623193 Si / 1000 Ang^3
#
#
#
# Elastic Constant Matrix: (Units=GPa)
#
#
# Indices 1 2 3 4 5 6 
#
# 1 90.2935 39.8199 39.8589 0.0000 0.0000 0.0000
# 2 39.8199 83.1294 32.9712 0.0000 0.0000 0.0000
# 3 39.8589 32.9712 62.6861 0.0000 0.0000 0.0000
# 4 0.0000 0.0000 0.0000 26.5011 0.0000 0.0000
# 5 0.0000 0.0000 0.0000 0.0000 31.3215 0.0000
# 6 0.0000 0.0000 0.0000 0.0000 0.0000 18.2491
#
#
#
# Elastic Compliance Matrix: (Units=1/GPa)
#
#
# Indices 1 2 3 4 5 6 
#
# 1 0.016794 -0.004813 -0.008147 0.000000 0.000000 0.000000
# 2 -0.004813 0.016580 -0.005660 0.000000 0.000000 0.000000
# 3 -0.008147 -0.005660 0.024110 0.000000 0.000000 0.000000
# 4 0.000000 0.000000 0.000000 0.037734 0.000000 0.000000
# 5 0.000000 0.000000 0.000000 0.000000 0.031927 0.000000
# 6 0.000000 0.000000 0.000000 0.000000 0.000000 0.054797
#
#
# Mechanical properties :
#
#
# Convention : Reuss Voigt Hill
#
# Bulk Modulus (GPa) = 49.39901 51.26766 50.33333
# Shear Modulus (GPa) = 22.13074 23.44495 22.78785
#
# Velocity S-wave (km/s) = 3.36189 3.46028 3.41144
# Velocity P-wave (km/s) = 6.34809 6.49211 6.42050
#
# Compressibility (1/GPa) = 0.02024332
#
# Stress axis : x y z
#
# Youngs Moduli (GPa) = 59.54528 60.31365 41.47714
#
# Poissons Ratio (x) = 0.29031 0.33790
# Poissons Ratio (y) = 0.28661 0.23477
# Poissons Ratio (z) = 0.48510 0.34138
#
# Static dielectric constant tensor:
#      x y z
#    x 3.518650 0.000000 0.000000 
#    y 0.000000 3.559990 0.000000 
#    z 0.000000 0.000000 3.737920 
# 
# 
# High freq. dielectric constant tensor:
#      x y z
#    x 1.752060 0.000000 0.000000 
#    y 0.000000 1.764680 0.000000 
#    z 0.000000 0.000000 1.765310 
# 
# From -- ./inp_files/26328.got.cif
#   From: 2010.03.12/outbox.cif.g09.slc.cpg/sg51_14_cif.got.tgz:26328.got - 2010.04.16 13:43:02.
