data_PCOD8211632
_publ_section_title
;
Structure prediction by ZEFSAII (Michael W. Deem and Ramdas Pophale) SiO2 
 PCOD8211632
Probable space group: P M M A
;
_chemical_formula_sum "Si O2"
_cell_formula_units_Z 40
_cell_length_a 9.533622
_cell_length_b 13.925915
_cell_length_c 15.323330
_cell_angle_alpha 90.000000
_cell_angle_beta 90.000000
_cell_angle_gamma 90.000000
_cell_volume 2034.392861
_symmetry_space_group_name_H-M "P M M A"
_symmetry_group_IT_number 51
_symmetry_cell_setting 'orthorhombic'
loop_
_space_group_symop_operation_xyz
x,y,z
1/2-x,-y,z
1/2+x,-y,-z
-x,y,-z
-x,-y,-z
1/2+x,y,-z
1/2-x,y,z
x,-y,z
loop_
_atom_site_type_symbol
_atom_site_label
_atom_site_fract_x
_atom_site_fract_y
_atom_site_fract_z
Si Si1 0.593678 0.895582 0.264058
Si Si2 0.088374 0.610782 0.583246
Si Si3 0.902906 0.109939 0.572176
Si Si4 0.909420 0.688869 0.228933
Si Si5 0.592931 0.612507 0.921579
O O1 0.750000 0.892449 0.306862
O O2 0.474746 0.884168 0.335013
O O3 0.578504 0.802202 0.202410
O O4 0.574509 0.000000 0.215823
O O5 0.250000 0.624024 0.558433
O O6 0.052908 0.500000 0.604676
O O7 0.049956 0.673106 0.669292
O O8 0.000000 0.647284 0.500000
O O9 0.750000 0.160338 0.576295
O O10 0.000000 0.162692 0.500000
O O11 0.882219 0.000000 0.543583
O O12 0.750000 0.651705 0.212618
O O13 0.017345 0.630843 0.170120
O O14 0.750000 0.657869 0.922118
O O15 0.606363 0.500000 0.935888
O O16 0.500000 0.657879 0.000000
#
# Coordination Sequence:
#
# PCOD8211632 Si02
#       5
#     8   8   8   8   8
#     4   9  18  32  48  68  97 133 173 217 265 314
#     4   9  18  32  49  70  99 136 176 217 261 311
#     4   9  16  26  41  60  84 119 165 217 269 315
#     4  10  20  34  54  79 107 141 179 220 267 316
#     4  10  21  37  59  87 115 140 167 206 259 317
#
# _framework density 19.661884000000001
#
# number of rings (size 3 to 8) (size 9 to 14) (size 15 to 20)
#    0.000    2.600    0.000    1.800    0.000    6.800 
#    0.000    4.000    0.000    0.600    0.000    0.000 
#    0.000    0.000    0.000    0.000    0.000    0.000 
#
# Total GULP energy -495665.501659 kJ/mol
# GULP energy per Si atom -12391.637541 kJ/mol
# Density = 1.961713 g / cm^3
# Si number density = 19.661884 Si / 1000 Ang^3
#
#
#
# Elastic Constant Matrix: (Units=GPa)
#
#
# Indices 1 2 3 4 5 6 
#
# 1 140.0003 14.8048 52.3315 0.0000 0.0000 0.0000
# 2 14.8048 57.7099 10.7362 0.0000 0.0000 0.0000
# 3 52.3315 10.7362 84.4853 0.0000 0.0000 0.0000
# 4 0.0000 0.0000 0.0000 8.9429 0.0000 0.0000
# 5 0.0000 0.0000 0.0000 0.0000 29.4986 0.0000
# 6 0.0000 0.0000 0.0000 0.0000 0.0000 14.9783
#
#
#
# Elastic Compliance Matrix: (Units=1/GPa)
#
#
# Indices 1 2 3 4 5 6 
#
# 1 0.009398 -0.001360 -0.005648 0.000000 0.000000 0.000000
# 2 -0.001360 0.017944 -0.001438 0.000000 0.000000 0.000000
# 3 -0.005648 -0.001438 0.015518 0.000000 0.000000 0.000000
# 4 0.000000 0.000000 0.000000 0.111821 0.000000 0.000000
# 5 0.000000 0.000000 0.000000 0.000000 0.033900 0.000000
# 6 0.000000 0.000000 0.000000 0.000000 0.000000 0.066763
#
#
# Mechanical properties :
#
#
# Convention : Reuss Voigt Hill
#
# Bulk Modulus (GPa) = 38.50970 48.66004 43.58487
# Shear Modulus (GPa) = 17.80037 24.30550 21.05293
#
# Velocity S-wave (km/s) = 3.01212 3.51974 3.27578
# Velocity P-wave (km/s) = 5.63255 6.42808 6.04342
#
# Compressibility (1/GPa) = 0.02596748
#
# Stress axis : x y z
#
# Youngs Moduli (GPa) = 106.40516 55.72746 64.44201
#
# Poissons Ratio (x) = 0.07580 0.36400
# Poissons Ratio (y) = 0.14473 0.09266
# Poissons Ratio (z) = 0.60102 0.08013
#
# Static dielectric constant tensor:
#      x y z
#    x 3.876620 0.000000 0.000000 
#    y 0.000000 3.690390 0.000000 
#    z 0.000000 0.000000 3.118780 
# 
# 
# High freq. dielectric constant tensor:
#      x y z
#    x 1.778920 0.000000 0.000000 
#    y 0.000000 1.758790 0.000000 
#    z 0.000000 0.000000 1.717630 
# 
# From -- ./inp_files/20487.got.cif
#   From: 2010.03.12/outbox.cif.g09.slc.cpg/sg51_11_cif.got.tgz:20487.got - 2010.04.16 13:43:02.
