data_PCOD8211934
_publ_section_title
;
Structure prediction by ZEFSAII (Michael W. Deem and Ramdas Pophale) SiO2 
 PCOD8211934
Probable space group: P M M A
;
_chemical_formula_sum "Si O2"
_cell_formula_units_Z 64
_cell_length_a 8.916439
_cell_length_b 14.693736
_cell_length_c 23.458521
_cell_angle_alpha 90.000000
_cell_angle_beta 90.000000
_cell_angle_gamma 90.000000
_cell_volume 3073.436913
_symmetry_space_group_name_H-M "P M M A"
_symmetry_group_IT_number 51
_symmetry_cell_setting 'orthorhombic'
loop_
_space_group_symop_operation_xyz
x,y,z
1/2-x,-y,z
1/2+x,-y,-z
-x,y,-z
-x,-y,-z
1/2+x,y,-z
1/2-x,y,z
x,-y,z
loop_
_atom_site_type_symbol
_atom_site_label
_atom_site_fract_x
_atom_site_fract_y
_atom_site_fract_z
Si Si1 0.425433 0.272218 0.057666
Si Si2 0.575412 0.396479 0.279613
Si Si3 0.577652 0.594174 0.442165
Si Si4 0.921159 0.394296 0.148823
Si Si5 0.420964 0.105289 0.761049
Si Si6 0.427406 0.794167 0.560621
Si Si7 0.576813 0.103224 0.106740
Si Si8 0.426267 0.775710 0.329716
O O1 0.250000 0.274960 0.049276
O O2 0.469016 0.336136 0.110141
O O3 0.476190 0.168807 0.068548
O O4 0.500000 0.309967 0.000000
O O5 0.750000 0.390963 0.296791
O O6 0.516901 0.500000 0.287643
O O7 0.551545 0.366437 0.214299
O O8 0.488890 0.327620 0.321455
O O9 0.500000 0.570317 0.500000
O O10 0.750000 0.610269 0.455575
O O11 0.555191 0.500000 0.403822
O O12 0.519458 0.691383 0.421400
O O13 0.750000 0.372374 0.131873
O O14 0.956808 0.500000 0.139599
O O15 0.250000 0.132231 0.745213
O O16 0.451063 0.124837 0.827131
O O17 0.536276 0.166925 0.726392
O O18 0.449754 0.000000 0.746916
O O19 0.500000 0.824683 0.500000
O O20 0.250000 0.812935 0.557318
O O21 0.501011 0.836410 0.617542
O O22 0.750000 0.119772 0.091465
O O23 0.529737 0.000000 0.092732
O O24 0.250000 0.769658 0.339350
#
# Coordination Sequence:
#
# PCOD8211934 Si02
#       8
#     8   8   8   8   8   8   8   8
#     4  12  25  38  55  81 115 155 196 238 282 333
#     4   9  19  37  60  84 112 150 193 235 283 338
#     4   8  14  25  42  63  86 117 160 208 254 299
#     4   9  19  38  62  84 109 145 190 241 294 343
#     4   9  19  38  64  90 114 144 183 227 279 338
#     4  10  20  35  53  73 102 142 187 230 274 330
#     4   9  19  38  63  88 115 147 183 227 281 340
#     4  12  24  35  53  84 119 152 185 227 280 334
#
# _framework density 20.823592999999999
#
# number of rings (size 3 to 8) (size 9 to 14) (size 15 to 20)
#    0.000    2.250    0.000    4.875    0.000    6.500 
#    0.000    3.750    0.000    1.875    0.000    0.000 
#    0.000    0.000    0.000    0.000    0.000    0.000 
#
# Total GULP energy -792923.837541 kJ/mol
# GULP energy per Si atom -12389.434962 kJ/mol
# Density = 2.077620 g / cm^3
# Si number density = 20.823593 Si / 1000 Ang^3
#
#
#
# Elastic Constant Matrix: (Units=GPa)
#
#
# Indices 1 2 3 4 5 6 
#
# 1 110.7813 20.6330 52.4363 0.0000 0.0000 0.0000
# 2 20.6330 39.5461 20.2137 0.0000 0.0000 0.0000
# 3 52.4363 20.2137 97.0269 0.0000 0.0000 0.0000
# 4 0.0000 0.0000 0.0000 1.2533 0.0000 0.0000
# 5 0.0000 0.0000 0.0000 0.0000 32.2031 0.0000
# 6 0.0000 0.0000 0.0000 0.0000 0.0000 25.3496
#
#
#
# Elastic Compliance Matrix: (Units=1/GPa)
#
#
# Indices 1 2 3 4 5 6 
#
# 1 0.012535 -0.003444 -0.006057 0.000000 0.000000 0.000000
# 2 -0.003444 0.029247 -0.004232 0.000000 0.000000 0.000000
# 3 -0.006057 -0.004232 0.014461 0.000000 0.000000 0.000000
# 4 0.000000 0.000000 0.000000 0.797921 0.000000 0.000000
# 5 0.000000 0.000000 0.000000 0.000000 0.031053 0.000000
# 6 0.000000 0.000000 0.000000 0.000000 0.000000 0.039448
#
#
# Mechanical properties :
#
#
# Convention : Reuss Voigt Hill
#
# Bulk Modulus (GPa) = 34.74886 48.21336 41.48111
# Shear Modulus (GPa) = 5.19900 22.03261 13.61580
#
# Velocity S-wave (km/s) = 1.58180 3.25631 2.55985
# Velocity P-wave (km/s) = 4.47880 6.11078 5.35729
#
# Compressibility (1/GPa) = 0.02877793
#
# Stress axis : x y z
#
# Youngs Moduli (GPa) = 79.77545 34.19156 69.15004
#
# Poissons Ratio (x) = 0.11776 0.41883
# Poissons Ratio (y) = 0.27477 0.29262
# Poissons Ratio (z) = 0.48319 0.14469
#
# Static dielectric constant tensor:
#      x y z
#    x 3.518770 0.000000 0.000000 
#    y 0.000000 3.795010 0.000000 
#    z 0.000000 0.000000 3.752700 
# 
# 
# High freq. dielectric constant tensor:
#      x y z
#    x 1.797070 0.000000 0.000000 
#    y 0.000000 1.807010 0.000000 
#    z 0.000000 0.000000 1.824660 
# 
# From -- ./inp_files/34923.got.cif
#   From: 2010.03.12/outbox.cif.g09.slc.cpg/sg51_18_cif.got.tgz:34923.got - 2010.04.16 13:43:02.
