data_PCOD8211219
_publ_section_title
;
Structure prediction by ZEFSAII (Michael W. Deem and Ramdas Pophale) SiO2 
 PCOD8211219
Probable space group: P M M A
;
_chemical_formula_sum "Si O2"
_cell_formula_units_Z 64
_cell_length_a 9.175708
_cell_length_b 14.069022
_cell_length_c 25.812658
_cell_angle_alpha 90.000000
_cell_angle_beta 90.000000
_cell_angle_gamma 90.000000
_cell_volume 3332.239595
_symmetry_space_group_name_H-M "P M M A"
_symmetry_group_IT_number 51
_symmetry_cell_setting 'orthorhombic'
loop_
_space_group_symop_operation_xyz
x,y,z
1/2-x,-y,z
1/2+x,-y,-z
-x,y,-z
-x,-y,-z
1/2+x,y,-z
1/2-x,y,z
x,-y,z
loop_
_atom_site_type_symbol
_atom_site_label
_atom_site_fract_x
_atom_site_fract_y
_atom_site_fract_z
Si Si1 0.917580 0.611319 0.248421
Si Si2 0.916687 0.894092 0.305358
Si Si3 0.920196 0.390188 0.551841
Si Si4 0.419003 0.706804 0.947961
Si Si5 0.917033 0.706262 0.356055
Si Si6 0.583133 0.612849 0.853126
Si Si7 0.416490 0.106581 0.893376
Si Si8 0.587178 0.886969 0.794105
O O1 0.750000 0.634680 0.235046
O O2 0.942621 0.500000 0.256510
O O3 0.965521 0.661357 0.301532
O O4 0.016679 0.650623 0.201294
O O5 0.750000 0.897596 0.287124
O O6 0.935774 0.820870 0.352873
O O7 0.005303 0.851488 0.257025
O O8 0.969784 0.000000 0.322207
O O9 0.750000 0.371995 0.544613
O O10 0.956038 0.500000 0.562959
O O11 0.000000 0.355250 0.500000
O O12 0.977025 0.329325 0.599574
O O13 0.250000 0.677840 0.952137
O O14 0.489160 0.652005 0.900265
O O15 0.436812 0.820945 0.940987
O O16 0.500000 0.675236 0.000000
O O17 0.750000 0.678106 0.368955
O O18 0.750000 0.647560 0.857536
O O19 0.571912 0.500000 0.854763
O O20 0.250000 0.103843 0.874586
O O21 0.509682 0.149631 0.846051
O O22 0.467501 0.000000 0.909936
O O23 0.750000 0.846151 0.793399
O O24 0.583520 0.000000 0.794626
#
# Coordination Sequence:
#
# PCOD8211219 Si02
#       8
#     8   8   8   8   8   8   8   8
#     4   9  18  33  53  79 111 144 178 219 270 328
#     4   9  18  32  49  73 110 153 192 228 268 318
#     4  10  21  37  58  84 115 150 187 230 280 332
#     4  11  24  40  59  81 105 135 175 221 270 325
#     4  10  20  33  54  83 114 151 192 231 274 322
#     4  10  22  40  60  81 107 140 177 220 271 325
#     4   9  19  36  56  77 104 139 175 212 260 322
#     4   9  17  29  47  73 103 136 176 221 266 312
#
# _framework density 19.206302999999998
#
# number of rings (size 3 to 8) (size 9 to 14) (size 15 to 20)
#    0.000    2.375    0.000    1.875    1.750    6.000 
#    0.000    1.250    0.000    0.375    0.000    0.000 
#    0.000    0.000    0.000    0.000    0.000    0.000 
#
# Total GULP energy -793647.204890 kJ/mol
# GULP energy per Si atom -12400.737576 kJ/mol
# Density = 1.916259 g / cm^3
# Si number density = 19.206303 Si / 1000 Ang^3
#
#
#
# Elastic Constant Matrix: (Units=GPa)
#
#
# Indices 1 2 3 4 5 6 
#
# 1 113.2072 32.1618 69.3413 0.0000 0.0000 0.0000
# 2 32.1618 45.6444 46.3266 0.0000 0.0000 0.0000
# 3 69.3413 46.3266 128.3632 0.0000 0.0000 0.0000
# 4 0.0000 0.0000 0.0000 24.9890 0.0000 0.0000
# 5 0.0000 0.0000 0.0000 0.0000 38.5964 0.0000
# 6 0.0000 0.0000 0.0000 0.0000 0.0000 21.3814
#
#
#
# Elastic Compliance Matrix: (Units=1/GPa)
#
#
# Indices 1 2 3 4 5 6 
#
# 1 0.013516 -0.003335 -0.006098 0.000000 0.000000 0.000000
# 2 -0.003335 0.035395 -0.010973 0.000000 0.000000 0.000000
# 3 -0.006098 -0.010973 0.015044 0.000000 0.000000 0.000000
# 4 0.000000 0.000000 0.000000 0.040018 0.000000 0.000000
# 5 0.000000 0.000000 0.000000 0.000000 0.025909 0.000000
# 6 0.000000 0.000000 0.000000 0.000000 0.000000 0.046770
#
#
# Mechanical properties :
#
#
# Convention : Reuss Voigt Hill
#
# Bulk Modulus (GPa) = 43.20601 64.76380 53.98490
# Shear Modulus (GPa) = 22.20484 26.28569 24.24527
#
# Velocity S-wave (km/s) = 3.40387 3.70347 3.55683
# Velocity P-wave (km/s) = 6.16385 7.21671 6.71096
#
# Compressibility (1/GPa) = 0.02314493
#
# Stress axis : x y z
#
# Youngs Moduli (GPa) = 73.98869 28.25274 66.47002
#
# Poissons Ratio (x) = 0.09421 0.40531
# Poissons Ratio (y) = 0.24672 0.72936
# Poissons Ratio (z) = 0.45115 0.31001
#
# Static dielectric constant tensor:
#      x y z
#    x 3.643500 0.000000 0.000000 
#    y 0.000000 3.608130 0.000000 
#    z 0.000000 0.000000 3.310120 
# 
# 
# High freq. dielectric constant tensor:
#      x y z
#    x 1.750090 0.000000 0.000000 
#    y 0.000000 1.751260 0.000000 
#    z 0.000000 0.000000 1.725350 
# 
# From -- ./inp_files/35025.got.cif
#   From: 2010.03.12/outbox.cif.g09.slc.cpg/sg51_18_cif.got.tgz:35025.got - 2010.04.16 13:43:02.
