data_PCOD8211772
_publ_section_title
;
Structure prediction by ZEFSAII (Michael W. Deem and Ramdas Pophale) SiO2 
 PCOD8211772
Probable space group: P M M A
;
_chemical_formula_sum "Si O2"
_cell_formula_units_Z 64
_cell_length_a 30.466128
_cell_length_b 9.370306
_cell_length_c 11.961178
_cell_angle_alpha 90.000000
_cell_angle_beta 90.000000
_cell_angle_gamma 90.000000
_cell_volume 3414.640518
_symmetry_space_group_name_H-M "P M M A"
_symmetry_group_IT_number 51
_symmetry_cell_setting 'orthorhombic'
loop_
_space_group_symop_operation_xyz
x,y,z
1/2-x,-y,z
1/2+x,-y,-z
-x,y,-z
-x,-y,-z
1/2+x,y,-z
1/2-x,y,z
x,-y,z
loop_
_atom_site_type_symbol
_atom_site_label
_atom_site_fract_x
_atom_site_fract_y
_atom_site_fract_z
Si Si1 0.547982 0.162369 0.951282
Si Si2 0.822921 0.337275 0.750702
Si Si3 0.549901 0.163960 0.529575
Si Si4 0.800551 0.666620 0.503092
Si Si5 0.574720 0.336386 0.744891
Si Si6 0.701406 0.837308 0.959536
Si Si7 0.123824 0.830729 0.887478
Si Si8 0.372193 0.166776 0.636129
O O1 0.547848 0.256651 0.840530
O O2 0.560698 0.000000 0.919424
O O3 0.500000 0.170731 0.000000
O O4 0.581709 0.224315 0.043370
O O5 0.807271 0.500000 0.762584
O O6 0.809324 0.278909 0.629047
O O7 0.874315 0.320886 0.771281
O O8 0.798340 0.246527 0.843582
O O9 0.500000 0.201119 0.500000
O O10 0.564967 0.267283 0.626642
O O11 0.581377 0.194666 0.424278
O O12 0.554100 0.000000 0.568919
O O13 0.750000 0.695321 0.470256
O O14 0.812549 0.500000 0.494120
O O15 0.831827 0.752583 0.420617
O O16 0.559653 0.500000 0.741159
O O17 0.750000 0.826669 0.012308
O O18 0.688482 0.000000 0.932053
O O19 0.667460 0.773568 0.049911
O O20 0.122702 0.770737 0.761509
O O21 0.123170 0.000000 0.880564
O O22 0.360330 0.000000 0.635872
#
# Coordination Sequence:
#
# PCOD8211772 Si02
#       8
#     8   8   8   8   8   8   8   8
#     4  10  21  37  62  87 112 149 190 231 278 333
#     4  10  20  36  57  81 113 149 184 225 278 334
#     4  10  22  38  60  87 116 149 191 238 281 335
#     4  10  21  38  58  80 111 150 188 229 281 339
#     4  11  22  37  60  87 118 151 186 230 283 338
#     4  10  20  34  55  82 110 142 181 229 283 333
#     4   9  19  36  55  80 112 144 182 229 279 329
#     4  10  21  37  58  83 112 147 188 236 282 330
#
# _framework density 18.742822
#
# number of rings (size 3 to 8) (size 9 to 14) (size 15 to 20)
#    0.000    2.000    2.500    0.750    1.750    3.000 
#    0.000    2.500    0.000    0.000    0.000    0.000 
#    0.000    0.000    0.000    0.000    0.000    0.000 
#
# Total GULP energy -793742.038597 kJ/mol
# GULP energy per Si atom -12402.219353 kJ/mol
# Density = 1.870016 g / cm^3
# Si number density = 18.742822 Si / 1000 Ang^3
#
#
#
# Elastic Constant Matrix: (Units=GPa)
#
#
# Indices 1 2 3 4 5 6 
#
# 1 100.5366 28.0717 44.0366 0.0000 0.0000 0.0000
# 2 28.0717 59.0451 43.5117 0.0000 0.0000 0.0000
# 3 44.0366 43.5117 135.9159 0.0000 0.0000 0.0000
# 4 0.0000 0.0000 0.0000 2.0912 0.0000 0.0000
# 5 0.0000 0.0000 0.0000 0.0000 22.8442 0.0000
# 6 0.0000 0.0000 0.0000 0.0000 0.0000 6.0046
#
#
#
# Elastic Compliance Matrix: (Units=1/GPa)
#
#
# Indices 1 2 3 4 5 6 
#
# 1 0.012204 -0.003780 -0.002744 0.000000 0.000000 0.000000
# 2 -0.003780 0.023336 -0.006246 0.000000 0.000000 0.000000
# 3 -0.002744 -0.006246 0.010246 0.000000 0.000000 0.000000
# 4 0.000000 0.000000 0.000000 0.478187 0.000000 0.000000
# 5 0.000000 0.000000 0.000000 0.000000 0.043775 0.000000
# 6 0.000000 0.000000 0.000000 0.000000 0.000000 0.166538
#
#
# Mechanical properties :
#
#
# Convention : Reuss Voigt Hill
#
# Bulk Modulus (GPa) = 49.39192 58.52642 53.95917
# Shear Modulus (GPa) = 6.52251 18.17984 12.35118
#
# Velocity S-wave (km/s) = 1.86750 3.11780 2.56985
# Velocity P-wave (km/s) = 5.57313 6.65242 6.13655
#
# Compressibility (1/GPa) = 0.02024623
#
# Stress axis : x y z
#
# Youngs Moduli (GPa) = 81.94053 42.85183 97.59790
#
# Poissons Ratio (x) = 0.16198 0.26780
# Poissons Ratio (y) = 0.30974 0.60960
# Poissons Ratio (z) = 0.22484 0.26766
#
# Static dielectric constant tensor:
#      x y z
#    x -1.041530 0.000000 0.000000 
#    y 0.000000 3.316610 0.000000 
#    z 0.000000 0.000000 3.507870 
# 
# 
# High freq. dielectric constant tensor:
#      x y z
#    x 1.740830 0.000000 0.000000 
#    y 0.000000 1.707450 0.000000 
#    z 0.000000 0.000000 1.730090 
# 
# From -- ./inp_files/19445.got.cif
#   From: 2010.03.12/outbox.cif.g09.slc.cpg/sg51_10_cif.got.tgz:19445.got - 2010.04.16 13:43:02.
