data_PCOD8211095
_publ_section_title
;
Structure prediction by ZEFSAII (Michael W. Deem and Ramdas Pophale) SiO2 
 PCOD8211095
Probable space group: P M M A
;
_chemical_formula_sum "Si O2"
_cell_formula_units_Z 64
_cell_length_a 19.384696
_cell_length_b 9.459366
_cell_length_c 18.815727
_cell_angle_alpha 90.000000
_cell_angle_beta 90.000000
_cell_angle_gamma 90.000000
_cell_volume 3450.182176
_symmetry_space_group_name_H-M "P M M A"
_symmetry_group_IT_number 51
_symmetry_cell_setting 'orthorhombic'
loop_
_space_group_symop_operation_xyz
x,y,z
1/2-x,-y,z
1/2+x,-y,-z
-x,y,-z
-x,-y,-z
1/2+x,y,-z
1/2-x,y,z
x,-y,z
loop_
_atom_site_type_symbol
_atom_site_label
_atom_site_fract_x
_atom_site_fract_y
_atom_site_fract_z
Si Si1 0.454725 0.333541 0.432783
Si Si2 0.588831 0.838497 0.217130
Si Si3 0.448553 0.839146 0.293295
Si Si4 0.675488 0.667065 0.486638
Si Si5 0.831556 0.340681 0.329576
Si Si6 0.670196 0.833827 0.811226
Si Si7 0.908693 0.662936 0.927419
Si Si8 0.068039 0.337228 0.913454
O O1 0.500000 0.283481 0.500000
O O2 0.464563 0.500000 0.420187
O O3 0.472096 0.255619 0.359818
O O4 0.376635 0.288539 0.451608
O O5 0.507853 0.824283 0.234399
O O6 0.634141 0.769927 0.277983
O O7 0.606168 0.760238 0.143667
O O8 0.611579 0.000000 0.209450
O O9 0.376917 0.787963 0.256522
O O10 0.441548 0.000000 0.320081
O O11 0.750000 0.736272 0.503798
O O12 0.683171 0.500000 0.483562
O O13 0.648375 0.712444 0.408820
O O14 0.750000 0.338009 0.319630
O O15 0.859558 0.500000 0.315825
O O16 0.750000 0.793118 0.795911
O O17 0.644057 0.756439 0.882099
O O18 0.661738 0.000000 0.824727
O O19 0.895594 0.500000 0.907540
O O20 0.987695 0.704629 0.913633
O O21 0.895192 0.689570 0.010982
O O22 0.076244 0.500000 0.891136
#
# Coordination Sequence:
#
# PCOD8211095 Si02
#       8
#     8   8   8   8   8   8   8   8
#     4  10  20  33  52  78 103 131 172 223 273 319
#     4  11  21  33  52  79 109 142 178 220 262 310
#     4  10  22  37  51  75 109 143 182 220 266 321
#     4   8  15  30  51  73  97 127 167 214 264 319
#     4   9  18  34  56  78 102 136 173 213 269 328
#     4  10  21  38  57  77 110 153 190 226 270 322
#     4   9  18  34  56  82 107 133 174 225 269 314
#     4   9  18  33  55  81 108 137 171 216 269 319
#
# _framework density 18.549745999999999
#
# number of rings (size 3 to 8) (size 9 to 14) (size 15 to 20)
#    0.000    2.500    1.250    2.625    0.000    4.250 
#    0.000    2.500    0.000    1.500    0.000    0.000 
#    0.000    0.000    0.000    0.000    0.000    0.000 
#
# Total GULP energy -793426.589509 kJ/mol
# GULP energy per Si atom -12397.290461 kJ/mol
# Density = 1.850753 g / cm^3
# Si number density = 18.549746 Si / 1000 Ang^3
#
#
#
# Elastic Constant Matrix: (Units=GPa)
#
#
# Indices 1 2 3 4 5 6 
#
# 1 41.5267 21.6236 21.5858 0.0000 0.0000 0.0000
# 2 21.6236 65.0541 41.4578 0.0000 0.0000 0.0000
# 3 21.5858 41.4578 87.7711 0.0000 0.0000 0.0000
# 4 0.0000 0.0000 0.0000 20.3084 0.0000 0.0000
# 5 0.0000 0.0000 0.0000 0.0000 14.2437 0.0000
# 6 0.0000 0.0000 0.0000 0.0000 0.0000 24.3984
#
#
#
# Elastic Compliance Matrix: (Units=1/GPa)
#
#
# Indices 1 2 3 4 5 6 
#
# 1 0.029989 -0.007537 -0.003815 0.000000 0.000000 0.000000
# 2 -0.007537 0.023886 -0.009429 0.000000 0.000000 0.000000
# 3 -0.003815 -0.009429 0.016785 0.000000 0.000000 0.000000
# 4 0.000000 0.000000 0.000000 0.049241 0.000000 0.000000
# 5 0.000000 0.000000 0.000000 0.000000 0.070206 0.000000
# 6 0.000000 0.000000 0.000000 0.000000 0.000000 0.040986
#
#
# Mechanical properties :
#
#
# Convention : Reuss Voigt Hill
#
# Bulk Modulus (GPa) = 34.36641 40.40959 37.38800
# Shear Modulus (GPa) = 17.70831 19.10241 18.40536
#
# Velocity S-wave (km/s) = 3.09308 3.21252 3.15336
# Velocity P-wave (km/s) = 5.59669 5.96591 5.78425
#
# Compressibility (1/GPa) = 0.02909818
#
# Stress axis : x y z
#
# Youngs Moduli (GPa) = 33.34603 41.86613 59.57658
#
# Poissons Ratio (x) = 0.31553 0.22731
# Poissons Ratio (y) = 0.25131 0.56173
# Poissons Ratio (z) = 0.12723 0.39474
#
# Static dielectric constant tensor:
#      x y z
#    x 4.200100 0.000000 0.000000 
#    y 0.000000 3.263980 0.000000 
#    z 0.000000 0.000000 3.395000 
# 
# 
# High freq. dielectric constant tensor:
#      x y z
#    x 1.713120 0.000000 0.000000 
#    y 0.000000 1.700730 0.000000 
#    z 0.000000 0.000000 1.721330 
# 
# From -- ./inp_files/30614.got.cif
#   From: 2010.03.12/outbox.cif.g09.slc.cpg/sg51_16_cif.got.tgz:30614.got - 2010.04.16 13:43:02.
