data_PCOD8211278
_publ_section_title
;
Structure prediction by ZEFSAII (Michael W. Deem and Ramdas Pophale) SiO2 
 PCOD8211278
Probable space group: P M M A
;
_chemical_formula_sum "Si O2"
_cell_formula_units_Z 48
_cell_length_a 30.236905
_cell_length_b 9.161513
_cell_length_c 9.490196
_cell_angle_alpha 90.000000
_cell_angle_beta 90.000000
_cell_angle_gamma 90.000000
_cell_volume 2628.934220
_symmetry_space_group_name_H-M "P M M A"
_symmetry_group_IT_number 51
_symmetry_cell_setting 'orthorhombic'
loop_
_space_group_symop_operation_xyz
x,y,z
1/2-x,-y,z
1/2+x,-y,-z
-x,y,-z
-x,-y,-z
1/2+x,y,-z
1/2-x,y,z
x,-y,z
loop_
_atom_site_type_symbol
_atom_site_label
_atom_site_fract_x
_atom_site_fract_y
_atom_site_fract_z
Si Si1 0.623423 0.827342 0.655236
Si Si2 0.300086 0.668909 0.856654
Si Si3 0.051039 0.672493 0.161500
Si Si4 0.450930 0.671553 0.845411
Si Si5 0.700004 0.170770 0.863661
Si Si6 0.625007 0.671854 0.359407
O O1 0.581220 0.761280 0.732493
O O2 0.668135 0.782211 0.736714
O O3 0.626890 0.761388 0.501413
O O4 0.617775 0.000000 0.645708
O O5 0.250000 0.713587 0.817618
O O6 0.304185 0.500000 0.895138
O O7 0.330130 0.708319 0.723684
O O8 0.316994 0.753819 0.993895
O O9 0.060081 0.500000 0.177050
O O10 0.000484 0.711154 0.202323
O O11 0.059856 0.729984 0.002506
O O12 0.445519 0.500000 0.855931
O O13 0.416260 0.732778 0.731897
O O14 0.750000 0.221232 0.826206
O O15 0.697843 0.000000 0.891150
O O16 0.620252 0.500000 0.391694
#
# Coordination Sequence:
#
# PCOD8211278 Si02
#       6
#     8   8   8   8   8   8
#     4  11  23  35  48  73 106 136 169 207 247 293
#     4   9  18  33  55  82 105 125 160 212 259 296
#     4   9  17  34  58  78  97 126 167 211 254 298
#     4   8  16  32  56  80  97 124 170 212 244 296
#     4   9  19  36  55  73  97 132 170 205 244 295
#     4  10  20  34  51  73 104 138 167 199 246 300
#
# _framework density 18.258348000000002
#
# number of rings (size 3 to 8) (size 9 to 14) (size 15 to 20)
#    0.000    2.667    0.000    2.500    0.000    4.667 
#    0.000    6.667    0.000    0.000    0.000    0.000 
#    0.000    0.000    0.000    0.000    0.000    0.000 
#
# Total GULP energy -595175.744150 kJ/mol
# GULP energy per Si atom -12399.494670 kJ/mol
# Density = 1.821679 g / cm^3
# Si number density = 18.258348 Si / 1000 Ang^3
#
#
#
# Elastic Constant Matrix: (Units=GPa)
#
#
# Indices 1 2 3 4 5 6 
#
# 1 122.9264 47.0194 89.0837 0.0000 0.0000 0.0000
# 2 47.0194 47.7242 55.8553 0.0000 0.0000 0.0000
# 3 89.0837 55.8553 155.8717 0.0000 0.0000 0.0000
# 4 0.0000 0.0000 0.0000 11.3089 0.0000 0.0000
# 5 0.0000 0.0000 0.0000 0.0000 19.4920 0.0000
# 6 0.0000 0.0000 0.0000 0.0000 0.0000 21.6819
#
#
#
# Elastic Compliance Matrix: (Units=1/GPa)
#
#
# Indices 1 2 3 4 5 6 
#
# 1 0.015677 -0.008541 -0.005899 0.000000 0.000000 0.000000
# 2 -0.008541 0.040743 -0.009718 0.000000 0.000000 0.000000
# 3 -0.005899 -0.009718 0.013269 0.000000 0.000000 0.000000
# 4 0.000000 0.000000 0.000000 0.088426 0.000000 0.000000
# 5 0.000000 0.000000 0.000000 0.000000 0.051303 0.000000
# 6 0.000000 0.000000 0.000000 0.000000 0.000000 0.046122
#
#
# Mechanical properties :
#
#
# Convention : Reuss Voigt Hill
#
# Bulk Modulus (GPa) = 46.79013 78.93766 62.86389
# Shear Modulus (GPa) = 16.07812 19.46747 17.77280
#
# Velocity S-wave (km/s) = 2.97069 3.26885 3.12333
# Velocity P-wave (km/s) = 6.11956 7.58780 6.89289
#
# Compressibility (1/GPa) = 0.02137203
#
# Stress axis : x y z
#
# Youngs Moduli (GPa) = 63.78791 24.54397 75.36151
#
# Poissons Ratio (x) = 0.20964 0.44455
# Poissons Ratio (y) = 0.54484 0.73239
# Poissons Ratio (z) = 0.37628 0.23853
#
# Static dielectric constant tensor:
#      x y z
#    x 3.883320 0.000000 0.000000 
#    y 0.000000 3.132180 0.000000 
#    z 0.000000 0.000000 3.423900 
# 
# 
# High freq. dielectric constant tensor:
#      x y z
#    x 1.722790 0.000000 0.000000 
#    y 0.000000 1.684040 0.000000 
#    z 0.000000 0.000000 1.706080 
# 
# From -- ./inp_files/12796.got.cif
#   From: 2010.03.12/outbox.cif.g09.slc.cpg/sg51_7_cif.got.tgz:12796.got - 2010.04.16 13:43:02.
