data_PCOD8211683
_publ_section_title
;
Structure prediction by ZEFSAII (Michael W. Deem and Ramdas Pophale) SiO2 
 PCOD8211683
Probable space group: P M M A
;
_chemical_formula_sum "Si O2"
_cell_formula_units_Z 56
_cell_length_a 15.544349
_cell_length_b 14.032358
_cell_length_c 12.167830
_cell_angle_alpha 90.000000
_cell_angle_beta 90.000000
_cell_angle_gamma 90.000000
_cell_volume 2654.094170
_symmetry_space_group_name_H-M "P M M A"
_symmetry_group_IT_number 51
_symmetry_cell_setting 'orthorhombic'
loop_
_space_group_symop_operation_xyz
x,y,z
1/2-x,-y,z
1/2+x,-y,-z
-x,y,-z
-x,-y,-z
1/2+x,y,-z
1/2-x,y,z
x,-y,z
loop_
_atom_site_type_symbol
_atom_site_label
_atom_site_fract_x
_atom_site_fract_y
_atom_site_fract_z
Si Si1 0.547989 0.389853 0.251437
Si Si2 0.847088 0.206143 0.578747
Si Si3 0.154444 0.109721 0.654328
Si Si4 0.346869 0.396055 0.960380
Si Si5 0.441177 0.726709 0.105261
Si Si6 0.973024 0.111634 0.750690
Si Si7 0.849312 0.607941 0.467956
O O1 0.521844 0.500000 0.252431
O O2 0.465439 0.324988 0.221143
O O3 0.590598 0.360644 0.366476
O O4 0.612096 0.362384 0.153509
O O5 0.750000 0.189528 0.625271
O O6 0.853834 0.170138 0.454954
O O7 0.916318 0.150447 0.650276
O O8 0.867138 0.320086 0.569643
O O9 0.250000 0.127392 0.708457
O O10 0.074838 0.136328 0.735063
O O11 0.144647 0.000000 0.620149
O O12 0.250000 0.408263 0.928210
O O13 0.384954 0.500000 0.997010
O O14 0.352898 0.319372 0.060992
O O15 0.439888 0.838751 0.135898
O O16 0.500000 0.702678 0.000000
O O17 0.956995 0.000000 0.763570
O O18 0.750000 0.615089 0.429656
O O19 0.871382 0.500000 0.506342
#
# Coordination Sequence:
#
# PCOD8211683 Si02
#       7
#     8   8   8   8   8   8   8
#     4   9  16  29  52  80 108 138 173 215 265 320
#     4  10  20  34  54  80 112 147 180 215 258 316
#     4   9  18  34  57  83 105 127 166 224 282 329
#     4   9  17  31  53  80 109 142 180 221 266 319
#     4  10  21  36  53  76 106 139 178 225 275 321
#     4  11  23  38  57  78 103 140 185 230 276 327
#     4   9  17  30  50  79 114 147 178 215 260 311
#
# _framework density 21.099477
#
# number of rings (size 3 to 8) (size 9 to 14) (size 15 to 20)
#    0.000    2.429    0.000    2.571    0.000    6.286 
#    0.000    4.286    0.000    5.143    0.000    2.000 
#    0.000    0.000    0.000    0.000    0.000    0.000 
#
# Total GULP energy -693763.619338 kJ/mol
# GULP energy per Si atom -12388.636060 kJ/mol
# Density = 2.105145 g / cm^3
# Si number density = 21.099477 Si / 1000 Ang^3
#
#
#
# Elastic Constant Matrix: (Units=GPa)
#
#
# Indices 1 2 3 4 5 6 
#
# 1 56.4752 26.2111 9.8535 0.0000 0.0000 0.0000
# 2 26.2111 92.2387 24.6395 0.0000 0.0000 0.0000
# 3 9.8535 24.6395 38.3929 0.0000 0.0000 0.0000
# 4 0.0000 0.0000 0.0000 33.6857 0.0000 0.0000
# 5 0.0000 0.0000 0.0000 0.0000 10.9643 0.0000
# 6 0.0000 0.0000 0.0000 0.0000 0.0000 25.4723
#
#
#
# Elastic Compliance Matrix: (Units=1/GPa)
#
#
# Indices 1 2 3 4 5 6 
#
# 1 0.020504 -0.005335 -0.001838 0.000000 0.000000 0.000000
# 2 -0.005335 0.014473 -0.007919 0.000000 0.000000 0.000000
# 3 -0.001838 -0.007919 0.031600 0.000000 0.000000 0.000000
# 4 0.000000 0.000000 0.000000 0.029686 0.000000 0.000000
# 5 0.000000 0.000000 0.000000 0.000000 0.091205 0.000000
# 6 0.000000 0.000000 0.000000 0.000000 0.000000 0.039258
#
#
# Mechanical properties :
#
#
# Convention : Reuss Voigt Hill
#
# Bulk Modulus (GPa) = 27.47852 34.27943 30.87898
# Shear Modulus (GPa) = 18.58437 22.45129 20.51783
#
# Velocity S-wave (km/s) = 2.97104 3.26555 3.12177
# Velocity P-wave (km/s) = 4.98207 5.52270 5.25934
#
# Compressibility (1/GPa) = 0.03639206
#
# Stress axis : x y z
#
# Youngs Moduli (GPa) = 48.77121 69.09426 31.64510
#
# Poissons Ratio (x) = 0.36865 0.05817
# Poissons Ratio (y) = 0.26022 0.25060
# Poissons Ratio (z) = 0.08965 0.54716
#
# Static dielectric constant tensor:
#      x y z
#    x 3.970010 0.000000 0.000000 
#    y 0.000000 4.156720 0.000000 
#    z 0.000000 0.000000 3.493830 
# 
# 
# High freq. dielectric constant tensor:
#      x y z
#    x 1.820890 0.000000 0.000000 
#    y 0.000000 1.839950 0.000000 
#    z 0.000000 0.000000 1.793800 
# 
# From -- ./inp_files/16594.got.cif
#   From: 2010.03.12/outbox.cif.g09.slc.cpg/sg51_9_cif.got.tgz:16594.got - 2010.04.16 13:43:02.
