data_PCOD8211525
_publ_section_title
;
Structure prediction by ZEFSAII (Michael W. Deem and Ramdas Pophale) SiO2 
 PCOD8211525
Probable space group: P M M A
;
_chemical_formula_sum "Si O2"
_cell_formula_units_Z 48
_cell_length_a 8.790709
_cell_length_b 19.272745
_cell_length_c 15.406511
_cell_angle_alpha 90.000000
_cell_angle_beta 90.000000
_cell_angle_gamma 90.000000
_cell_volume 2610.187932
_symmetry_space_group_name_H-M "P M M A"
_symmetry_group_IT_number 51
_symmetry_cell_setting 'orthorhombic'
loop_
_space_group_symop_operation_xyz
x,y,z
1/2-x,-y,z
1/2+x,-y,-z
-x,y,-z
-x,-y,-z
1/2+x,y,-z
1/2-x,y,z
x,-y,z
loop_
_atom_site_type_symbol
_atom_site_label
_atom_site_fract_x
_atom_site_fract_y
_atom_site_fract_z
Si Si1 0.075806 0.917893 0.737010
Si Si2 0.071868 0.580717 0.274145
Si Si3 0.930248 0.171926 0.592075
Si Si4 0.570210 0.682056 0.408452
Si Si5 0.421487 0.917417 0.086809
Si Si6 0.083425 0.417862 0.082798
O O1 0.250000 0.894093 0.726445
O O2 0.972843 0.885706 0.662056
O O3 0.015571 0.891238 0.829966
O O4 0.059231 0.000000 0.729677
O O5 0.250000 0.599672 0.283577
O O6 0.047005 0.500000 0.294423
O O7 0.010920 0.598979 0.176898
O O8 0.968426 0.623432 0.339297
O O9 0.750000 0.177825 0.583148
O O10 0.000000 0.149294 0.500000
O O11 0.998201 0.245443 0.622367
O O12 0.500000 0.658880 0.500000
O O13 0.750000 0.690489 0.418067
O O14 0.250000 0.888544 0.092625
O O15 0.420748 0.000000 0.083519
O O16 0.500000 0.887503 0.000000
O O17 0.250000 0.385055 0.081407
O O18 0.092238 0.500000 0.071423
O O19 0.000000 0.383939 0.000000
#
# Coordination Sequence:
#
# PCOD8211525 Si02
#       6
#     8   8   8   8   8   8
#     4  10  20  34  53  79 109 138 171 213 258 303
#     4   9  18  33  52  76 106 137 170 210 255 300
#     4  11  22  38  58  77 101 134 172 211 255 309
#     4  11  22  37  56  76 100 132 171 211 255 308
#     4   9  16  27  45  71 103 138 174 211 253 301
#     4   8  14  25  43  68  99 133 166 202 244 291
#
# _framework density 18.389481
#
# number of rings (size 3 to 8) (size 9 to 14) (size 15 to 20)
#    0.000    2.333    0.000    6.000    0.000    4.667 
#    0.000    1.667    0.000    1.000    0.000    4.667 
#    0.000    0.000    0.000    0.000    0.000    0.000 
#
# Total GULP energy -595090.208633 kJ/mol
# GULP energy per Si atom -12397.712680 kJ/mol
# Density = 1.834763 g / cm^3
# Si number density = 18.389481 Si / 1000 Ang^3
#
#
#
# Elastic Constant Matrix: (Units=GPa)
#
#
# Indices 1 2 3 4 5 6 
#
# 1 142.3411 34.1020 64.3962 0.0000 0.0000 0.0000
# 2 34.1020 35.8498 46.3389 0.0000 0.0000 0.0000
# 3 64.3962 46.3389 137.5871 0.0000 0.0000 0.0000
# 4 0.0000 0.0000 0.0000 -6.4990 0.0000 0.0000
# 5 0.0000 0.0000 0.0000 0.0000 38.4469 0.0000
# 6 0.0000 0.0000 0.0000 0.0000 0.0000 23.0620
#
#
#
# Elastic Compliance Matrix: (Units=1/GPa)
#
#
# Indices 1 2 3 4 5 6 
#
# 1 0.009561 -0.005863 -0.002500 0.000000 0.000000 0.000000
# 2 -0.005863 0.052995 -0.015104 0.000000 0.000000 0.000000
# 3 -0.002500 -0.015104 0.013525 0.000000 0.000000 0.000000
# 4 0.000000 0.000000 0.000000 -0.153870 0.000000 0.000000
# 5 0.000000 0.000000 0.000000 0.000000 0.026010 0.000000
# 6 0.000000 0.000000 0.000000 0.000000 0.000000 0.043361
#
#
# Mechanical properties :
#
#
# Convention : Reuss Voigt Hill
#
# Bulk Modulus (GPa) = 34.30993 67.27246 50.79120
# Shear Modulus (GPa) = 103.65907 22.39804 63.02856
#
# Velocity S-wave (km/s) = 7.51605 3.49374 5.86077
# Velocity P-wave (km/s) = 9.69635 7.27574 8.57192
#
# Compressibility (1/GPa) = 0.02914608
#
# Stress axis : x y z
#
# Youngs Moduli (GPa) = 104.58876 18.86961 73.93455
#
# Poissons Ratio (x) = 0.11064 0.18486
# Poissons Ratio (y) = 0.61323 1.11674
# Poissons Ratio (z) = 0.26151 0.28501
#
# Static dielectric constant tensor:
#      x y z
#    x 3.576980 0.000000 0.000000 
#    y 0.000000 2.957140 0.000000 
#    z 0.000000 0.000000 3.599430 
# 
# 
# High freq. dielectric constant tensor:
#      x y z
#    x 1.722920 0.000000 0.000000 
#    y 0.000000 1.666580 0.000000 
#    z 0.000000 0.000000 1.729470 
# 
# From -- ./inp_files/21094.got.cif
#   From: 2010.03.12/outbox.cif.g09.slc.cpg/sg51_11_cif.got.tgz:21094.got - 2010.04.16 13:43:02.
