data_PCOD8211036
_publ_section_title
;
Structure prediction by ZEFSAII (Michael W. Deem and Ramdas Pophale) SiO2 
 PCOD8211036
Probable space group: P M M A
;
_chemical_formula_sum "Si O2"
_cell_formula_units_Z 48
_cell_length_a 9.245371
_cell_length_b 9.036002
_cell_length_c 30.895302
_cell_angle_alpha 90.000000
_cell_angle_beta 90.000000
_cell_angle_gamma 90.000000
_cell_volume 2581.030321
_symmetry_space_group_name_H-M "P M M A"
_symmetry_group_IT_number 51
_symmetry_cell_setting 'orthorhombic'
loop_
_space_group_symop_operation_xyz
x,y,z
1/2-x,-y,z
1/2+x,-y,-z
-x,y,-z
-x,-y,-z
1/2+x,y,-z
1/2-x,y,z
x,-y,z
loop_
_atom_site_type_symbol
_atom_site_label
_atom_site_fract_x
_atom_site_fract_y
_atom_site_fract_z
Si Si1 0.422007 0.332717 0.134960
Si Si2 0.083659 0.171285 0.790794
Si Si3 0.418679 0.172964 0.373583
Si Si4 0.086176 0.176070 0.541390
Si Si5 0.909277 0.324388 0.960528
Si Si6 0.415587 0.325445 0.702788
O O1 0.250000 0.322696 0.136981
O O2 0.472725 0.500000 0.145767
O O3 0.489530 0.219274 0.168505
O O4 0.475714 0.286434 0.086723
O O5 0.250000 0.204407 0.801704
O O6 0.033809 0.261980 0.748793
O O7 0.055842 0.000000 0.781079
O O8 0.250000 0.207306 0.380087
O O9 0.503590 0.230383 0.415793
O O10 0.478007 0.261174 0.332889
O O11 0.446507 0.000000 0.365840
O O12 0.250000 0.238511 0.541481
O O13 0.000000 0.239629 0.500000
O O14 0.088584 0.000000 0.539397
O O15 0.750000 0.255143 0.964267
O O16 0.900629 0.500000 0.965161
O O17 0.000000 0.254424 0.000000
O O18 0.250000 0.277977 0.692729
O O19 0.432663 0.500000 0.704086
#
# Coordination Sequence:
#
# PCOD8211036 Si02
#       6
#     8   8   8   8   8   8
#     4   9  18  32  50  74 104 135 167 205 250 300
#     4  10  21  36  54  76 101 130 167 210 254 302
#     4  10  20  33  51  77 107 138 173 211 252 300
#     4   9  16  27  46  73 105 139 174 213 254 295
#     4   8  14  25  42  67  98 129 162 201 244 290
#     4  10  21  37  56  76  99 130 168 209 255 306
#
# _framework density 18.597225999999999
#
# number of rings (size 3 to 8) (size 9 to 14) (size 15 to 20)
#    0.000    2.667    0.000    3.000    0.000    6.667 
#    0.000    1.667    0.000    1.000    0.000    0.000 
#    0.000    0.000    0.000    0.000    0.000    0.000 
#
# Total GULP energy -595167.048994 kJ/mol
# GULP energy per Si atom -12399.313521 kJ/mol
# Density = 1.855490 g / cm^3
# Si number density = 18.597226 Si / 1000 Ang^3
#
#
#
# Elastic Constant Matrix: (Units=GPa)
#
#
# Indices 1 2 3 4 5 6 
#
# 1 94.8761 31.9437 73.3551 0.0000 0.0000 0.0000
# 2 31.9437 44.2359 39.6529 0.0000 0.0000 0.0000
# 3 73.3551 39.6529 157.8111 0.0000 0.0000 0.0000
# 4 0.0000 0.0000 0.0000 33.6276 0.0000 0.0000
# 5 0.0000 0.0000 0.0000 0.0000 38.9260 0.0000
# 6 0.0000 0.0000 0.0000 0.0000 0.0000 22.4362
#
#
#
# Elastic Compliance Matrix: (Units=1/GPa)
#
#
# Indices 1 2 3 4 5 6 
#
# 1 0.018034 -0.007110 -0.006596 0.000000 0.000000 0.000000
# 2 -0.007110 0.031981 -0.004731 0.000000 0.000000 0.000000
# 3 -0.006596 -0.004731 0.010592 0.000000 0.000000 0.000000
# 4 0.000000 0.000000 0.000000 0.029737 0.000000 0.000000
# 5 0.000000 0.000000 0.000000 0.000000 0.025690 0.000000
# 6 0.000000 0.000000 0.000000 0.000000 0.000000 0.044571
#
#
# Mechanical properties :
#
#
# Convention : Reuss Voigt Hill
#
# Bulk Modulus (GPa) = 42.13637 65.20296 53.66967
# Shear Modulus (GPa) = 24.34403 29.12938 26.73670
#
# Velocity S-wave (km/s) = 3.62195 3.96198 3.79578
# Velocity P-wave (km/s) = 6.34018 7.48775 6.93774
#
# Compressibility (1/GPa) = 0.02373247
#
# Stress axis : x y z
#
# Youngs Moduli (GPa) = 55.45149 31.26850 94.41523
#
# Poissons Ratio (x) = 0.22231 0.62278
# Poissons Ratio (y) = 0.39425 0.44668
# Poissons Ratio (z) = 0.36577 0.14793
#
# Static dielectric constant tensor:
#      x y z
#    x 3.516560 0.000000 0.000000 
#    y 0.000000 3.038480 0.000000 
#    z 0.000000 0.000000 3.622490 
# 
# 
# High freq. dielectric constant tensor:
#      x y z
#    x 1.720910 0.000000 0.000000 
#    y 0.000000 1.682050 0.000000 
#    z 0.000000 0.000000 1.737720 
# 
# From -- ./inp_files/36986.got.cif
#   From: 2010.03.12/outbox.cif.g09.slc.cpg/sg51_19_cif.got.tgz:36986.got - 2010.04.16 13:43:02.
