data_PCOD8211520
_publ_section_title
;
Structure prediction by ZEFSAII (Michael W. Deem and Ramdas Pophale) SiO2 
 PCOD8211520
Probable space group: P M M A
;
_chemical_formula_sum "Si O2"
_cell_formula_units_Z 56
_cell_length_a 8.717337
_cell_length_b 15.216677
_cell_length_c 20.248361
_cell_angle_alpha 90.000000
_cell_angle_beta 90.000000
_cell_angle_gamma 90.000000
_cell_volume 2685.922842
_symmetry_space_group_name_H-M "P M M A"
_symmetry_group_IT_number 51
_symmetry_cell_setting 'orthorhombic'
loop_
_space_group_symop_operation_xyz
x,y,z
1/2-x,-y,z
1/2+x,-y,-z
-x,y,-z
-x,-y,-z
1/2+x,y,-z
1/2-x,y,z
x,-y,z
loop_
_atom_site_type_symbol
_atom_site_label
_atom_site_fract_x
_atom_site_fract_y
_atom_site_fract_z
Si Si1 0.927492 0.598225 0.886769
Si Si2 0.923869 0.344777 0.742414
Si Si3 0.928943 0.829439 0.297908
Si Si4 0.073142 0.406958 0.398064
Si Si5 0.567247 0.782764 0.567399
Si Si6 0.930014 0.226819 0.068196
Si Si7 0.427393 0.098339 0.174862
O O1 0.750000 0.617782 0.902686
O O2 0.973303 0.500000 0.910703
O O3 0.958603 0.601887 0.808542
O O4 0.029002 0.670321 0.923983
O O5 0.750000 0.306510 0.742198
O O6 0.946693 0.409362 0.680935
O O7 0.041199 0.264461 0.735977
O O8 0.750000 0.846142 0.307117
O O9 0.008312 0.837671 0.369806
O O10 0.998972 0.901021 0.248016
O O11 0.250000 0.406173 0.417959
O O12 0.999257 0.500000 0.424002
O O13 0.000167 0.317778 0.427722
O O14 0.500000 0.824234 0.500000
O O15 0.750000 0.785402 0.567161
O O16 0.750000 0.215030 0.065786
O O17 0.994004 0.169581 0.128078
O O18 0.000000 0.190835 0.000000
O O19 0.250000 0.123780 0.180093
O O20 0.449797 0.000000 0.146145
#
# Coordination Sequence:
#
# PCOD8211520 Si02
#       7
#     8   8   8   8   8   8   8
#     4  10  20  35  59  89 123 166 214 262 312 365
#     4   9  16  29  52  79 113 154 200 251 304 359
#     4  11  21  35  59  89 122 158 198 247 303 363
#     4   8  14  25  43  70 104 145 194 247 301 355
#     4  10  20  34  53  78 112 156 205 254 306 369
#     4  12  26  44  66  92 128 170 209 257 310 368
#     4  11  24  44  71 100 128 159 199 249 307 374
#
# _framework density 20.849444999999999
#
# number of rings (size 3 to 8) (size 9 to 14) (size 15 to 20)
#    0.000    1.857    1.429    4.714    0.000    4.000 
#    0.000    0.000    0.000   14.143    0.000    0.000 
#    0.000    0.000    0.000    0.000    0.000    0.000 
#
# Total GULP energy -694183.002182 kJ/mol
# GULP energy per Si atom -12396.125039 kJ/mol
# Density = 2.080199 g / cm^3
# Si number density = 20.849445 Si / 1000 Ang^3
#
#
#
# Elastic Constant Matrix: (Units=GPa)
#
#
# Indices 1 2 3 4 5 6 
#
# 1 127.2181 32.9627 50.6479 0.0000 0.0000 0.0000
# 2 32.9627 77.8869 27.9855 0.0000 0.0000 0.0000
# 3 50.6479 27.9855 125.2457 0.0000 0.0000 0.0000
# 4 0.0000 0.0000 0.0000 7.3725 0.0000 0.0000
# 5 0.0000 0.0000 0.0000 0.0000 33.4522 0.0000
# 6 0.0000 0.0000 0.0000 0.0000 0.0000 12.4366
#
#
#
# Elastic Compliance Matrix: (Units=1/GPa)
#
#
# Indices 1 2 3 4 5 6 
#
# 1 0.009980 -0.003016 -0.003362 0.000000 0.000000 0.000000
# 2 -0.003016 0.014871 -0.002103 0.000000 0.000000 0.000000
# 3 -0.003362 -0.002103 0.009814 0.000000 0.000000 0.000000
# 4 0.000000 0.000000 0.000000 0.135640 0.000000 0.000000
# 5 0.000000 0.000000 0.000000 0.000000 0.029893 0.000000
# 6 0.000000 0.000000 0.000000 0.000000 0.000000 0.080408
#
#
# Mechanical properties :
#
#
# Convention : Reuss Voigt Hill
#
# Bulk Modulus (GPa) = 56.48754 61.50478 58.99616
# Shear Modulus (GPa) = 16.47610 25.23589 20.85600
#
# Velocity S-wave (km/s) = 2.81417 3.48284 3.16621
# Velocity P-wave (km/s) = 6.14095 6.76292 6.45943
#
# Compressibility (1/GPa) = 0.01770302
#
# Stress axis : x y z
#
# Youngs Moduli (GPa) = 100.19591 67.24403 101.89645
#
# Poissons Ratio (x) = 0.20280 0.34259
# Poissons Ratio (y) = 0.30217 0.21432
# Poissons Ratio (z) = 0.33687 0.14144
#
# Static dielectric constant tensor:
#      x y z
#    x 3.545310 0.000000 0.000000 
#    y 0.000000 3.669980 0.000000 
#    z 0.000000 0.000000 3.726300 
# 
# 
# High freq. dielectric constant tensor:
#      x y z
#    x 1.797770 0.000000 0.000000 
#    y 0.000000 1.797400 0.000000 
#    z 0.000000 0.000000 1.822110 
# 
# From -- ./inp_files/32027.got.cif
#   From: 2010.03.12/outbox.cif.g09.slc.cpg/sg51_17_cif.got.tgz:32027.got - 2010.04.16 13:43:02.
