data_PCOD8211284
_publ_section_title
;
Structure prediction by ZEFSAII (Michael W. Deem and Ramdas Pophale) SiO2 
 PCOD8211284
Probable space group: P M M A
;
_chemical_formula_sum "Si O2"
_cell_formula_units_Z 32
_cell_length_a 15.234395
_cell_length_b 13.655075
_cell_length_c 9.270268
_cell_angle_alpha 90.000000
_cell_angle_beta 90.000000
_cell_angle_gamma 90.000000
_cell_volume 1928.464246
_symmetry_space_group_name_H-M "P M M A"
_symmetry_group_IT_number 51
_symmetry_cell_setting 'orthorhombic'
loop_
_space_group_symop_operation_xyz
x,y,z
1/2-x,-y,z
1/2+x,-y,-z
-x,y,-z
-x,-y,-z
1/2+x,y,-z
1/2-x,y,z
x,-y,z
loop_
_atom_site_type_symbol
_atom_site_label
_atom_site_fract_x
_atom_site_fract_y
_atom_site_fract_z
Si Si1 0.150655 0.206129 0.140729
Si Si2 0.504555 0.774254 0.329828
Si Si3 0.351160 0.885802 0.835760
Si Si4 0.053339 0.608861 0.146103
O O1 0.250000 0.181243 0.187429
O O2 0.082175 0.170845 0.264422
O O3 0.139814 0.324009 0.118605
O O4 0.123694 0.151173 0.994758
O O5 0.500000 0.772312 0.500000
O O6 0.592030 0.830577 0.283778
O O7 0.506515 0.662738 0.267971
O O8 0.250000 0.862352 0.802060
O O9 0.371609 0.000000 0.826955
O O10 0.080183 0.500000 0.199101
O O11 0.000000 0.601418 0.000000
#
# Coordination Sequence:
#
# PCOD8211284 Si02
#       4
#     8   8   8   8
#     4   9  18  34  53  77 101 134 177 214 254 300
#     4  10  20  34  51  78 109 141 163 211 261 310
#     4  10  20  36  57  76  99 134 176 220 261 302
#     4   9  17  33  54  77 104 137 176 212 253 297
#
# _framework density 16.593513999999999
#
# number of rings (size 3 to 8) (size 9 to 14) (size 15 to 20)
#    1.500    1.000    2.500    0.750    0.000    4.500 
#    0.000    0.000    0.000    3.750    0.000    0.000 
#    0.000    0.000    0.000    0.000    0.000    0.000 
#
# Total GULP energy -396462.330122 kJ/mol
# GULP energy per Si atom -12389.447816 kJ/mol
# Density = 1.655575 g / cm^3
# Si number density = 16.593514 Si / 1000 Ang^3
#
#
#
# Elastic Constant Matrix: (Units=GPa)
#
#
# Indices 1 2 3 4 5 6 
#
# 1 74.9388 28.2154 50.8324 0.0000 0.0000 0.0000
# 2 28.2154 75.4429 41.5229 0.0000 0.0000 0.0000
# 3 50.8324 41.5229 135.7729 0.0000 0.0000 0.0000
# 4 0.0000 0.0000 0.0000 -3.4201 0.0000 0.0000
# 5 0.0000 0.0000 0.0000 0.0000 19.1379 0.0000
# 6 0.0000 0.0000 0.0000 0.0000 0.0000 18.8098
#
#
#
# Elastic Compliance Matrix: (Units=1/GPa)
#
#
# Indices 1 2 3 4 5 6 
#
# 1 0.018744 -0.003785 -0.005860 0.000000 0.000000 0.000000
# 2 -0.003785 0.016702 -0.003691 0.000000 0.000000 0.000000
# 3 -0.005860 -0.003691 0.010688 0.000000 0.000000 0.000000
# 4 0.000000 0.000000 0.000000 -0.292388 0.000000 0.000000
# 5 0.000000 0.000000 0.000000 0.000000 0.052252 0.000000
# 6 0.000000 0.000000 0.000000 0.000000 0.000000 0.053164
#
#
# Mechanical properties :
#
#
# Convention : Reuss Voigt Hill
#
# Bulk Modulus (GPa) = 51.38118 58.58844 54.98481
# Shear Modulus (GPa) = -46.43468 17.94445 -14.24511
#
# Velocity S-wave (km/s) = -5.29569 3.29205 -2.93315
# Velocity P-wave (km/s) = 2.52204 7.05938 4.66230
#
# Compressibility (1/GPa) = 0.01946238
#
# Stress axis : x y z
#
# Youngs Moduli (GPa) = 53.34917 59.87300 93.56256
#
# Poissons Ratio (x) = 0.22662 0.54830
# Poissons Ratio (y) = 0.20192 0.34533
# Poissons Ratio (z) = 0.31264 0.22098
#
# Static dielectric constant tensor:
#      x y z
#    x 3.013790 0.000000 0.000000 
#    y 0.000000 3.267290 0.000000 
#    z 0.000000 0.000000 2.846200 
# 
# 
# High freq. dielectric constant tensor:
#      x y z
#    x 1.633440 0.000000 0.000000 
#    y 0.000000 1.634760 0.000000 
#    z 0.000000 0.000000 1.622680 
# 
# From -- ./inp_files/7718.got.cif
#   From: 2010.03.12/outbox.cif.g09.slc.cpg/sg51_4_cif.got.tgz:7718.got - 2010.04.16 13:43:02.
