data_PCOD8211844
_publ_section_title
;
Structure prediction by ZEFSAII (Michael W. Deem and Ramdas Pophale) SiO2 
 PCOD8211844
Probable space group: P M M A
;
_chemical_formula_sum "Si O2"
_cell_formula_units_Z 48
_cell_length_a 23.477631
_cell_length_b 9.030574
_cell_length_c 11.514476
_cell_angle_alpha 90.000000
_cell_angle_beta 90.000000
_cell_angle_gamma 90.000000
_cell_volume 2441.258718
_symmetry_space_group_name_H-M "P M M A"
_symmetry_group_IT_number 51
_symmetry_cell_setting 'orthorhombic'
loop_
_space_group_symop_operation_xyz
x,y,z
1/2-x,-y,z
1/2+x,-y,-z
-x,y,-z
-x,-y,-z
1/2+x,y,-z
1/2-x,y,z
x,-y,z
loop_
_atom_site_type_symbol
_atom_site_label
_atom_site_fract_x
_atom_site_fract_y
_atom_site_fract_z
Si Si1 0.381381 0.174036 0.094728
Si Si2 0.184391 0.175361 0.865561
Si Si3 0.023673 0.673806 0.225171
Si Si4 0.087143 0.667264 0.449038
Si Si5 0.813827 0.667123 0.712996
Si Si6 0.098820 0.325827 0.704061
O O1 0.442937 0.249718 0.118199
O O2 0.337616 0.216911 0.195146
O O3 0.390915 0.000000 0.093263
O O4 0.352611 0.229652 0.975627
O O5 0.250000 0.230385 0.875941
O O6 0.154672 0.245862 0.753033
O O7 0.182945 0.000000 0.853980
O O8 0.037980 0.500000 0.219202
O O9 0.046518 0.738584 0.349456
O O10 0.956356 0.705507 0.214577
O O11 0.065846 0.500000 0.465635
O O12 0.152288 0.677711 0.407374
O O13 0.084456 0.741999 0.576228
O O14 0.750000 0.712318 0.683068
O O15 0.818584 0.500000 0.763939
O O16 0.112013 0.500000 0.696141
#
# Coordination Sequence:
#
# PCOD8211844 Si02
#       6
#     8   8   8   8   8   8
#     4  10  20  35  55  76 100 135 178 218 257 306
#     4  10  23  41  55  70 101 143 178 211 256 305
#     4   9  18  34  56  82 109 133 163 210 264 308
#     4   8  15  30  52  78 107 137 168 205 254 308
#     4   9  17  30  51  78 105 133 168 216 269 310
#     4  10  20  34  56  82 105 135 174 211 248 302
#
# _framework density 19.661987
#
# number of rings (size 3 to 8) (size 9 to 14) (size 15 to 20)
#    0.000    2.667    0.000    2.500    0.000    6.667 
#    0.000    8.333    0.000    5.000    0.000    0.000 
#    0.000    0.000    0.000    0.000    0.000    0.000 
#
# Total GULP energy -594940.273170 kJ/mol
# GULP energy per Si atom -12394.589024 kJ/mol
# Density = 1.961724 g / cm^3
# Si number density = 19.661987 Si / 1000 Ang^3
#
#
#
# Elastic Constant Matrix: (Units=GPa)
#
#
# Indices 1 2 3 4 5 6 
#
# 1 104.7702 23.2578 31.2793 0.0000 0.0000 0.0000
# 2 23.2578 30.3947 19.8054 0.0000 0.0000 0.0000
# 3 31.2793 19.8054 77.8125 0.0000 0.0000 0.0000
# 4 0.0000 0.0000 0.0000 10.1348 0.0000 0.0000
# 5 0.0000 0.0000 0.0000 0.0000 22.8552 0.0000
# 6 0.0000 0.0000 0.0000 0.0000 0.0000 27.4138
#
#
#
# Elastic Compliance Matrix: (Units=1/GPa)
#
#
# Indices 1 2 3 4 5 6 
#
# 1 0.012053 -0.007272 -0.002994 0.000000 0.000000 0.000000
# 2 -0.007272 0.043829 -0.008233 0.000000 0.000000 0.000000
# 3 -0.002994 -0.008233 0.016150 0.000000 0.000000 0.000000
# 4 0.000000 0.000000 0.000000 0.098670 0.000000 0.000000
# 5 0.000000 0.000000 0.000000 0.000000 0.043754 0.000000
# 6 0.000000 0.000000 0.000000 0.000000 0.000000 0.036478
#
#
# Mechanical properties :
#
#
# Convention : Reuss Voigt Hill
#
# Bulk Modulus (GPa) = 28.54251 40.18469 34.36360
# Shear Modulus (GPa) = 16.68836 21.32309 19.00573
#
# Velocity S-wave (km/s) = 2.91651 3.29672 3.11243
# Velocity P-wave (km/s) = 5.08817 5.91382 5.51647
#
# Compressibility (1/GPa) = 0.03503547
#
# Stress axis : x y z
#
# Youngs Moduli (GPa) = 82.96784 22.81584 61.91779
#
# Poissons Ratio (x) = 0.16591 0.18539
# Poissons Ratio (y) = 0.60332 0.50974
# Poissons Ratio (z) = 0.24842 0.18783
#
# Static dielectric constant tensor:
#      x y z
#    x 3.726060 0.000000 0.000000 
#    y 0.000000 3.204200 0.000000 
#    z 0.000000 0.000000 3.613100 
# 
# 
# High freq. dielectric constant tensor:
#      x y z
#    x 1.778280 0.000000 0.000000 
#    y 0.000000 1.727900 0.000000 
#    z 0.000000 0.000000 1.759550 
# 
# From -- ./inp_files/18609.got.cif
#   From: 2010.03.12/outbox.cif.g09.slc.cpg/sg51_10_cif.got.tgz:18609.got - 2010.04.16 13:43:02.
