data_PCOD8211507
_publ_section_title
;
Structure prediction by ZEFSAII (Michael W. Deem and Ramdas Pophale) SiO2 
 PCOD8211507
Probable space group: P M M A
;
_chemical_formula_sum "Si O2"
_cell_formula_units_Z 56
_cell_length_a 8.828653
_cell_length_b 18.442233
_cell_length_c 18.919694
_cell_angle_alpha 90.000000
_cell_angle_beta 90.000000
_cell_angle_gamma 90.000000
_cell_volume 3080.506009
_symmetry_space_group_name_H-M "P M M A"
_symmetry_group_IT_number 51
_symmetry_cell_setting 'orthorhombic'
loop_
_space_group_symop_operation_xyz
x,y,z
1/2-x,-y,z
1/2+x,-y,-z
-x,y,-z
-x,-y,-z
1/2+x,y,-z
1/2-x,y,z
x,-y,z
loop_
_atom_site_type_symbol
_atom_site_label
_atom_site_fract_x
_atom_site_fract_y
_atom_site_fract_z
Si Si1 0.071763 0.082741 0.356214
Si Si2 0.927217 0.847087 0.786381
Si Si3 0.080424 0.586046 0.069482
Si Si4 0.428402 0.083628 0.072258
Si Si5 0.926851 0.415883 0.213728
Si Si6 0.571998 0.707344 0.704006
Si Si7 0.070565 0.785109 0.573454
O O1 0.250000 0.099695 0.362990
O O2 0.014533 0.101082 0.276946
O O3 0.983315 0.132789 0.411534
O O4 0.033359 0.000000 0.374193
O O5 0.750000 0.859184 0.793597
O O6 0.998386 0.870874 0.861606
O O7 0.967091 0.763994 0.767080
O O8 0.250000 0.618084 0.075512
O O9 0.087053 0.500000 0.063473
O O10 0.985139 0.610042 0.137400
O O11 0.000000 0.618731 0.000000
O O12 0.250000 0.093514 0.066162
O O13 0.473613 0.000000 0.083979
O O14 0.500000 0.114049 0.000000
O O15 0.750000 0.399704 0.218198
O O16 0.964102 0.500000 0.226604
O O17 0.013954 0.371677 0.274015
O O18 0.750000 0.705639 0.688642
O O19 0.487208 0.730220 0.633090
O O20 0.250000 0.782389 0.569321
O O21 0.000000 0.758438 0.500000
#
# Coordination Sequence:
#
# PCOD8211507 Si02
#       7
#     8   8   8   8   8   8   8
#     4   9  17  31  52  77 103 133 172 215 257 302
#     4   8  15  29  49  70  94 129 170 210 253 303
#     4   9  16  27  45  70 100 133 168 207 252 301
#     4   9  16  27  44  66  93 127 168 212 255 296
#     4  10  20  34  53  78 107 138 173 213 258 310
#     4  10  20  36  57  79 102 130 169 212 256 308
#     4  11  22  37  56  78 106 138 171 205 248 303
#
# _framework density 18.178832
#
# number of rings (size 3 to 8) (size 9 to 14) (size 15 to 20)
#    0.000    2.571    0.000    3.857    0.000    4.857 
#    0.000    4.286    0.000    5.571    0.000    0.000 
#    0.000    0.000    0.000    0.000    0.000    0.000 
#
# Total GULP energy -694349.184551 kJ/mol
# GULP energy per Si atom -12399.092581 kJ/mol
# Density = 1.813746 g / cm^3
# Si number density = 18.178832 Si / 1000 Ang^3
#
#
#
# Elastic Constant Matrix: (Units=GPa)
#
#
# Indices 1 2 3 4 5 6 
#
# 1 91.2108 41.1573 48.7907 0.0000 0.0000 0.0000
# 2 41.1573 68.7676 47.2927 0.0000 0.0000 0.0000
# 3 48.7907 47.2927 130.2081 0.0000 0.0000 0.0000
# 4 0.0000 0.0000 0.0000 13.0635 0.0000 0.0000
# 5 0.0000 0.0000 0.0000 0.0000 32.2003 0.0000
# 6 0.0000 0.0000 0.0000 0.0000 0.0000 22.4694
#
#
#
# Elastic Compliance Matrix: (Units=1/GPa)
#
#
# Indices 1 2 3 4 5 6 
#
# 1 0.016056 -0.007294 -0.003367 0.000000 0.000000 0.000000
# 2 -0.007294 0.022697 -0.005511 0.000000 0.000000 0.000000
# 3 -0.003367 -0.005511 0.010943 0.000000 0.000000 0.000000
# 4 0.000000 0.000000 0.000000 0.076549 0.000000 0.000000
# 5 0.000000 0.000000 0.000000 0.000000 0.031056 0.000000
# 6 0.000000 0.000000 0.000000 0.000000 0.000000 0.044505
#
#
# Mechanical properties :
#
#
# Convention : Reuss Voigt Hill
#
# Bulk Modulus (GPa) = 57.62748 62.74088 60.18418
# Shear Modulus (GPa) = 20.83910 23.74302 22.29106
#
# Velocity S-wave (km/s) = 3.38944 3.61789 3.50553
# Velocity P-wave (km/s) = 6.86199 7.21390 7.04014
#
# Compressibility (1/GPa) = 0.01735283
#
# Stress axis : x y z
#
# Youngs Moduli (GPa) = 62.28193 44.05908 91.38047
#
# Poissons Ratio (x) = 0.32136 0.30770
# Poissons Ratio (y) = 0.45427 0.50356
# Poissons Ratio (z) = 0.20972 0.24279
#
# Static dielectric constant tensor:
#      x y z
#    x 3.261400 0.000000 0.000000 
#    y 0.000000 3.151910 0.000000 
#    z 0.000000 0.000000 3.479480 
# 
# 
# High freq. dielectric constant tensor:
#      x y z
#    x 1.696970 0.000000 0.000000 
#    y 0.000000 1.678660 0.000000 
#    z 0.000000 0.000000 1.706160 
# 
# From -- ./inp_files/28227.got.cif
#   From: 2010.03.12/outbox.cif.g09.slc.cpg/sg51_15_cif.got.tgz:28227.got - 2010.04.16 13:43:02.
