data_PCOD8211625
_publ_section_title
;
Structure prediction by ZEFSAII (Michael W. Deem and Ramdas Pophale) SiO2 
 PCOD8211625
Probable space group: P M M A
;
_chemical_formula_sum "Si O2"
_cell_formula_units_Z 44
_cell_length_a 9.353500
_cell_length_b 7.837909
_cell_length_c 29.869449
_cell_angle_alpha 90.000000
_cell_angle_beta 90.000000
_cell_angle_gamma 90.000000
_cell_volume 2189.785515
_symmetry_space_group_name_H-M "P M M A"
_symmetry_group_IT_number 51
_symmetry_cell_setting 'orthorhombic'
loop_
_space_group_symop_operation_xyz
x,y,z
1/2-x,-y,z
1/2+x,-y,-z
-x,y,-z
-x,-y,-z
1/2+x,y,-z
1/2-x,y,z
x,-y,z
loop_
_atom_site_type_symbol
_atom_site_label
_atom_site_fract_x
_atom_site_fract_y
_atom_site_fract_z
Si Si1 0.083792 0.000000 0.545763
Si Si2 0.407930 0.304182 0.780250
Si Si3 0.416033 0.304099 0.611309
Si Si4 0.588151 0.195913 0.861491
Si Si5 0.410117 0.701958 0.301057
Si Si6 0.912430 0.298603 0.958128
O O1 0.042264 0.172986 0.572123
O O2 0.000000 0.000000 0.500000
O O3 0.250000 0.000000 0.534408
O O4 0.250000 0.217582 0.782278
O O5 0.387456 0.500000 0.767588
O O6 0.485013 0.294515 0.828006
O O7 0.504566 0.218283 0.741329
O O8 0.250000 0.285975 0.624393
O O9 0.450358 0.500000 0.596607
O O10 0.507974 0.247178 0.653898
O O11 0.750000 0.270197 0.858194
O O12 0.529208 0.219612 0.911862
O O13 0.586077 0.000000 0.847752
O O14 0.250000 0.779756 0.301955
O O15 0.400880 0.500000 0.296309
O O16 0.750000 0.241950 0.965683
O O17 0.930218 0.500000 0.955033
O O18 0.000000 0.223512 0.000000
#
# Coordination Sequence:
#
# PCOD8211625 Si02
#       6
#     4   8   8   8   8   8
#     4  10  22  38  56  82 114 148 188 232 279 330
#     4  10  20  34  54  79 106 139 178 219 265 319
#     4   9  18  35  57  80 110 147 186 230 280 332
#     4  10  21  36  52  73 104 139 175 215 261 314
#     4   9  17  31  54  82 108 137 177 222 267 318
#     4   9  18  33  53  75  98 127 166 212 260 311
#
# _framework density 20.093291000000001
#
# number of rings (size 3 to 8) (size 9 to 14) (size 15 to 20)
#    0.000    2.545    0.000    1.636    0.000    6.545 
#    1.636    1.818    0.000    0.000    0.000    0.000 
#    0.000    0.000    0.000    0.000    0.000    0.000 
#
# Total GULP energy -545545.179236 kJ/mol
# GULP energy per Si atom -12398.754074 kJ/mol
# Density = 2.004756 g / cm^3
# Si number density = 20.093291 Si / 1000 Ang^3
#
#
#
# Elastic Constant Matrix: (Units=GPa)
#
#
# Indices 1 2 3 4 5 6 
#
# 1 131.1462 25.8340 99.6741 0.0000 0.0000 0.0000
# 2 25.8340 49.2984 40.8334 0.0000 0.0000 0.0000
# 3 99.6741 40.8334 171.4483 0.0000 0.0000 0.0000
# 4 0.0000 0.0000 0.0000 5.1926 0.0000 0.0000
# 5 0.0000 0.0000 0.0000 0.0000 44.4690 0.0000
# 6 0.0000 0.0000 0.0000 0.0000 0.0000 11.6626
#
#
#
# Elastic Compliance Matrix: (Units=1/GPa)
#
#
# Indices 1 2 3 4 5 6 
#
# 1 0.013682 -0.000724 -0.007782 0.000000 0.000000 0.000000
# 2 -0.000724 0.025308 -0.005606 0.000000 0.000000 0.000000
# 3 -0.007782 -0.005606 0.011692 0.000000 0.000000 0.000000
# 4 0.000000 0.000000 0.000000 0.192581 0.000000 0.000000
# 5 0.000000 0.000000 0.000000 0.000000 0.022488 0.000000
# 6 0.000000 0.000000 0.000000 0.000000 0.000000 0.085744
#
#
# Mechanical properties :
#
#
# Convention : Reuss Voigt Hill
#
# Bulk Modulus (GPa) = 44.52959 76.06397 60.29678
# Shear Modulus (GPa) = 12.91304 24.63495 18.77399
#
# Velocity S-wave (km/s) = 2.53781 3.50527 3.06002
# Velocity P-wave (km/s) = 5.54949 7.37022 6.52369
#
# Compressibility (1/GPa) = 0.02245698
#
# Stress axis : x y z
#
# Youngs Moduli (GPa) = 73.08827 39.51332 85.52858
#
# Poissons Ratio (x) = 0.02862 0.66557
# Poissons Ratio (y) = 0.05294 0.47951
# Poissons Ratio (z) = 0.56876 0.22153
#
# Static dielectric constant tensor:
#      x y z
#    x 3.875150 0.000000 0.000000 
#    y 0.000000 3.435650 0.000000 
#    z 0.000000 0.000000 3.591740 
# 
# 
# High freq. dielectric constant tensor:
#      x y z
#    x 1.783990 0.000000 0.000000 
#    y 0.000000 1.765580 0.000000 
#    z 0.000000 0.000000 1.784010 
# 
# From -- ./inp_files/36730.got.cif
#   From: 2010.03.12/outbox.cif.g09.slc.cpg/sg51_19_cif.got.tgz:36730.got - 2010.04.16 13:43:02.
