data_PCOD8211286
_publ_section_title
;
Structure prediction by ZEFSAII (Michael W. Deem and Ramdas Pophale) SiO2 
 PCOD8211286
Probable space group: P M M A
;
_chemical_formula_sum "Si O2"
_cell_formula_units_Z 56
_cell_length_a 23.649073
_cell_length_b 9.742900
_cell_length_c 13.816530
_cell_angle_alpha 90.000000
_cell_angle_beta 90.000000
_cell_angle_gamma 90.000000
_cell_volume 3183.474322
_symmetry_space_group_name_H-M "P M M A"
_symmetry_group_IT_number 51
_symmetry_cell_setting 'orthorhombic'
loop_
_space_group_symop_operation_xyz
x,y,z
1/2-x,-y,z
1/2+x,-y,-z
-x,y,-z
-x,-y,-z
1/2+x,y,-z
1/2-x,y,z
x,-y,z
loop_
_atom_site_type_symbol
_atom_site_label
_atom_site_fract_x
_atom_site_fract_y
_atom_site_fract_z
Si Si1 0.814429 0.156509 0.152379
Si Si2 0.184336 0.841057 0.270770
Si Si3 0.027028 0.658991 0.767561
Si Si4 0.102817 0.656483 0.947572
Si Si5 0.904828 0.342511 0.832231
Si Si6 0.812566 0.162712 0.510714
Si Si7 0.110721 0.841263 0.661295
O O1 0.750000 0.201852 0.164080
O O2 0.842630 0.249536 0.070348
O O3 0.843360 0.179436 0.255408
O O4 0.820023 0.000000 0.117891
O O5 0.250000 0.815035 0.247063
O O6 0.147076 0.751908 0.198460
O O7 0.170509 0.794710 0.380555
O O8 0.168985 0.000000 0.255610
O O9 0.037074 0.500000 0.741763
O O10 0.960704 0.694715 0.771026
O O11 0.053295 0.694896 0.872396
O O12 0.055139 0.751606 0.683878
O O13 0.122077 0.500000 0.933164
O O14 0.080346 0.682776 0.055393
O O15 0.887314 0.500000 0.814741
O O16 0.750000 0.222414 0.485610
O O17 0.860239 0.216746 0.436644
O O18 0.808918 0.000000 0.502080
O O19 0.092307 0.000000 0.651232
#
# Coordination Sequence:
#
# PCOD8211286 Si02
#       7
#     8   8   8   8   8   8   8
#     4   9  17  28  43  68 100 126 149 185 235 284
#     4   9  19  35  53  73  96 122 155 195 235 274
#     4   9  18  33  50  69  95 124 155 193 235 278
#     4   9  18  32  49  67  89 122 163 199 229 271
#     4  10  20  34  52  70  90 123 162 196 233 275
#     4   8  14  28  51  74  95 123 158 192 228 274
#     4   9  16  28  49  74  96 121 155 192 229 274
#
# _framework density 17.590843
#
# number of rings (size 3 to 8) (size 9 to 14) (size 15 to 20)
#    0.000    3.000    0.000    1.714    0.000    5.714 
#    0.000    4.286    0.000   10.714    0.000    0.000 
#    0.000    0.000    0.000    0.000    0.000    0.000 
#
# Total GULP energy -694316.526352 kJ/mol
# GULP energy per Si atom -12398.509399 kJ/mol
# Density = 1.755081 g / cm^3
# Si number density = 17.590843 Si / 1000 Ang^3
#
#
#
# Elastic Constant Matrix: (Units=GPa)
#
#
# Indices 1 2 3 4 5 6 
#
# 1 85.3195 44.9400 28.0161 0.0000 0.0000 0.0000
# 2 44.9400 57.6796 28.0060 0.0000 0.0000 0.0000
# 3 28.0161 28.0060 61.4249 0.0000 0.0000 0.0000
# 4 0.0000 0.0000 0.0000 19.7252 0.0000 0.0000
# 5 0.0000 0.0000 0.0000 0.0000 26.4262 0.0000
# 6 0.0000 0.0000 0.0000 0.0000 0.0000 30.4630
#
#
#
# Elastic Compliance Matrix: (Units=1/GPa)
#
#
# Indices 1 2 3 4 5 6 
#
# 1 0.020201 -0.014469 -0.002617 0.000000 0.000000 0.000000
# 2 -0.014469 0.032629 -0.008278 0.000000 0.000000 0.000000
# 3 -0.002617 -0.008278 0.021248 0.000000 0.000000 0.000000
# 4 0.000000 0.000000 0.000000 0.050697 0.000000 0.000000
# 5 0.000000 0.000000 0.000000 0.000000 0.037841 0.000000
# 6 0.000000 0.000000 0.000000 0.000000 0.000000 0.032827
#
#
# Mechanical properties :
#
#
# Convention : Reuss Voigt Hill
#
# Bulk Modulus (GPa) = 42.82389 45.14979 43.98684
# Shear Modulus (GPa) = 19.68870 22.22035 20.95453
#
# Velocity S-wave (km/s) = 3.34916 3.55798 3.45515
# Velocity P-wave (km/s) = 6.27321 6.52697 6.40134
#
# Compressibility (1/GPa) = 0.02335145
#
# Stress axis : x y z
#
# Youngs Moduli (GPa) = 49.50271 30.64738 47.06373
#
# Poissons Ratio (x) = 0.44342 0.12316
# Poissons Ratio (y) = 0.71623 0.38958
# Poissons Ratio (z) = 0.12955 0.25369
#
# Static dielectric constant tensor:
#      x y z
#    x 3.241650 0.000000 0.000000 
#    y 0.000000 3.130150 0.000000 
#    z 0.000000 0.000000 3.254620 
# 
# 
# High freq. dielectric constant tensor:
#      x y z
#    x 1.676550 0.000000 0.000000 
#    y 0.000000 1.661180 0.000000 
#    z 0.000000 0.000000 1.672350 
# 
# From -- ./inp_files/18251.got.cif
#   From: 2010.03.12/outbox.cif.g09.slc.cpg/sg51_10_cif.got.tgz:18251.got - 2010.04.16 13:43:02.
