data_PCOD8211383
_publ_section_title
;
Structure prediction by ZEFSAII (Michael W. Deem and Ramdas Pophale) SiO2 
 PCOD8211383
Probable space group: P M M A
;
_chemical_formula_sum "Si O2"
_cell_formula_units_Z 64
_cell_length_a 8.761820
_cell_length_b 24.519269
_cell_length_c 15.275262
_cell_angle_alpha 90.000000
_cell_angle_beta 90.000000
_cell_angle_gamma 90.000000
_cell_volume 3281.636800
_symmetry_space_group_name_H-M "P M M A"
_symmetry_group_IT_number 51
_symmetry_cell_setting 'orthorhombic'
loop_
_space_group_symop_operation_xyz
x,y,z
1/2-x,-y,z
1/2+x,-y,-z
-x,y,-z
-x,-y,-z
1/2+x,y,-z
1/2-x,y,z
x,-y,z
loop_
_atom_site_type_symbol
_atom_site_label
_atom_site_fract_x
_atom_site_fract_y
_atom_site_fract_z
Si Si1 0.574306 0.562316 0.774600
Si Si2 0.570601 0.397526 0.585067
Si Si3 0.929864 0.358203 0.089230
Si Si4 0.571036 0.265550 0.813739
Si Si5 0.927127 0.142798 0.778460
Si Si6 0.930135 0.286042 0.367351
Si Si7 0.929925 0.826670 0.586624
Si Si8 0.928932 0.061860 0.089606
O O1 0.750000 0.579300 0.790639
O O2 0.545433 0.500000 0.801873
O O3 0.531812 0.568828 0.672517
O O4 0.466888 0.600399 0.832515
O O5 0.500000 0.428675 0.500000
O O6 0.750000 0.389453 0.574226
O O7 0.486634 0.339522 0.584264
O O8 0.750000 0.351009 0.080703
O O9 0.008404 0.298750 0.103041
O O10 0.000000 0.382552 0.000000
O O11 0.750000 0.275766 0.799095
O O12 0.537330 0.201241 0.822860
O O13 0.480069 0.291077 0.733071
O O14 0.750000 0.128346 0.787220
O O15 0.978111 0.142724 0.676333
O O16 0.023020 0.097046 0.827148
O O17 0.750000 0.279344 0.374641
O O18 0.009800 0.234678 0.412226
O O19 0.750000 0.825444 0.578769
O O20 0.000000 0.856134 0.500000
O O21 0.750000 0.064739 0.078959
O O22 0.985904 0.000000 0.105145
O O23 0.000000 0.085544 0.000000
#
# Coordination Sequence:
#
# PCOD8211383 Si02
#       8
#     8   8   8   8   8   8   8   8
#     4  10  23  44  66  85 111 148 188 237 292 343
#     4  11  22  36  57  83 115 149 187 233 282 339
#     4  12  25  41  64  90 116 150 189 233 287 346
#     4  10  20  37  58  84 119 153 188 232 284 342
#     4   9  20  36  57  85 118 156 194 237 289 340
#     4  11  20  32  53  81 113 150 191 231 280 337
#     4  10  20  34  52  79 116 156 197 240 287 337
#     4  10  21  37  59  86 116 152 195 243 292 342
#
# _framework density 19.502464
#
# number of rings (size 3 to 8) (size 9 to 14) (size 15 to 20)
#    0.000    1.625    1.250    4.875    0.000    5.500 
#    0.000    0.000    0.000    0.375    0.000    0.000 
#    0.000    0.000    0.000    0.000    0.000    0.000 
#
# Total GULP energy -793691.729690 kJ/mol
# GULP energy per Si atom -12401.433276 kJ/mol
# Density = 1.945808 g / cm^3
# Si number density = 19.502464 Si / 1000 Ang^3
#
#
#
# Elastic Constant Matrix: (Units=GPa)
#
#
# Indices 1 2 3 4 5 6 
#
# 1 80.8476 38.0516 45.6773 0.0000 0.0000 0.0000
# 2 38.0516 74.1177 46.0979 0.0000 0.0000 0.0000
# 3 45.6773 46.0979 117.9055 0.0000 0.0000 0.0000
# 4 0.0000 0.0000 0.0000 15.6893 0.0000 0.0000
# 5 0.0000 0.0000 0.0000 0.0000 39.2945 0.0000
# 6 0.0000 0.0000 0.0000 0.0000 0.0000 21.6888
#
#
#
# Elastic Compliance Matrix: (Units=1/GPa)
#
#
# Indices 1 2 3 4 5 6 
#
# 1 0.017895 -0.006442 -0.004414 0.000000 0.000000 0.000000
# 2 -0.006442 0.020146 -0.005381 0.000000 0.000000 0.000000
# 3 -0.004414 -0.005381 0.012295 0.000000 0.000000 0.000000
# 4 0.000000 0.000000 0.000000 0.063738 0.000000 0.000000
# 5 0.000000 0.000000 0.000000 0.000000 0.025449 0.000000
# 6 0.000000 0.000000 0.000000 0.000000 0.000000 0.046107
#
#
# Mechanical properties :
#
#
# Convention : Reuss Voigt Hill
#
# Bulk Modulus (GPa) = 55.98333 59.16937 57.57635
# Shear Modulus (GPa) = 22.31580 24.87077 23.59329
#
# Velocity S-wave (km/s) = 3.38635 3.57496 3.48193
# Velocity P-wave (km/s) = 6.63762 6.88809 6.76401
#
# Compressibility (1/GPa) = 0.01786246
#
# Stress axis : x y z
#
# Youngs Moduli (GPa) = 55.88280 49.63788 81.33279
#
# Poissons Ratio (x) = 0.31975 0.35900
# Poissons Ratio (y) = 0.35998 0.43765
# Poissons Ratio (z) = 0.24666 0.26710
#
# Static dielectric constant tensor:
#      x y z
#    x 3.556110 0.000000 0.000000 
#    y 0.000000 3.375000 0.000000 
#    z 0.000000 0.000000 3.787760 
# 
# 
# High freq. dielectric constant tensor:
#      x y z
#    x 1.766700 0.000000 0.000000 
#    y 0.000000 1.732680 0.000000 
#    z 0.000000 0.000000 1.771520 
# 
# From -- ./inp_files/22409.got.cif
#   From: 2010.03.12/outbox.cif.g09.slc.cpg/sg51_12_cif.got.tgz:22409.got - 2010.04.16 13:43:02.
