data_PCOD8211629
_publ_section_title
;
Structure prediction by ZEFSAII (Michael W. Deem and Ramdas Pophale) SiO2 
 PCOD8211629
Probable space group: P M M A
;
_chemical_formula_sum "Si O2"
_cell_formula_units_Z 48
_cell_length_a 8.778252
_cell_length_b 30.545816
_cell_length_c 9.430089
_cell_angle_alpha 90.000000
_cell_angle_beta 90.000000
_cell_angle_gamma 90.000000
_cell_volume 2528.573412
_symmetry_space_group_name_H-M "P M M A"
_symmetry_group_IT_number 51
_symmetry_cell_setting 'orthorhombic'
loop_
_space_group_symop_operation_xyz
x,y,z
1/2-x,-y,z
1/2+x,-y,-z
-x,y,-z
-x,-y,-z
1/2+x,y,-z
1/2-x,y,z
x,-y,z
loop_
_atom_site_type_symbol
_atom_site_label
_atom_site_fract_x
_atom_site_fract_y
_atom_site_fract_z
Si Si1 0.071063 0.950813 0.646335
Si Si2 0.431021 0.373940 0.847673
Si Si3 0.928327 0.715749 0.848613
Si Si4 0.429953 0.873329 0.845079
Si Si5 0.428523 0.798171 0.345138
Si Si6 0.929417 0.548688 0.350496
O O1 0.250000 0.949918 0.624332
O O2 0.022804 0.919929 0.776755
O O3 0.000000 0.933067 0.500000
O O4 0.012373 0.000000 0.679878
O O5 0.250000 0.371286 0.853770
O O6 0.496164 0.328401 0.786224
O O7 0.490435 0.414863 0.756864
O O8 0.500000 0.382117 0.000000
O O9 0.750000 0.708125 0.872643
O O10 0.962099 0.752865 0.734102
O O11 0.000000 0.729016 0.000000
O O12 0.250000 0.867924 0.857538
O O13 0.493723 0.836080 0.744222
O O14 0.500000 0.869626 0.000000
O O15 0.500000 0.795799 0.500000
O O16 0.250000 0.807859 0.357552
O O17 0.750000 0.551278 0.365676
O O18 0.979975 0.500000 0.299584
O O19 0.000000 0.560413 0.500000
#
# Coordination Sequence:
#
# PCOD8211629 Si02
#       6
#     8   8   8   8   8   8
#     4   9  19  36  57  82 112 146 184 226 273 324
#     4  10  20  34  54  79 107 139 175 217 263 314
#     4  10  21  37  57  80 107 140 177 218 266 319
#     4  11  23  38  58  83 113 148 186 229 275 325
#     4  11  24  40  59  83 111 144 182 225 273 325
#     4   9  19  35  53  75 104 138 176 217 262 312
#
# _framework density 18.983035999999998
#
# number of rings (size 3 to 8) (size 9 to 14) (size 15 to 20)
#    0.000    2.000    0.000    4.000    0.000    9.333 
#    0.000    3.333    0.000    0.000    0.000    0.000 
#    0.000    0.000    0.000    0.000    0.000    0.000 
#
# Total GULP energy -595238.786180 kJ/mol
# GULP energy per Si atom -12400.808045 kJ/mol
# Density = 1.893983 g / cm^3
# Si number density = 18.983036 Si / 1000 Ang^3
#
#
#
# Elastic Constant Matrix: (Units=GPa)
#
#
# Indices 1 2 3 4 5 6 
#
# 1 81.4836 63.1957 56.8134 0.0000 0.0000 0.0000
# 2 63.1957 148.8703 96.8363 0.0000 0.0000 0.0000
# 3 56.8134 96.8363 137.0776 0.0000 0.0000 0.0000
# 4 0.0000 0.0000 0.0000 43.2119 0.0000 0.0000
# 5 0.0000 0.0000 0.0000 0.0000 35.6982 0.0000
# 6 0.0000 0.0000 0.0000 0.0000 0.0000 35.6422
#
#
#
# Elastic Compliance Matrix: (Units=1/GPa)
#
#
# Indices 1 2 3 4 5 6 
#
# 1 0.019483 -0.005584 -0.004130 0.000000 0.000000 0.000000
# 2 -0.005584 0.014029 -0.007596 0.000000 0.000000 0.000000
# 3 -0.004130 -0.007596 0.014373 0.000000 0.000000 0.000000
# 4 0.000000 0.000000 0.000000 0.023142 0.000000 0.000000
# 5 0.000000 0.000000 0.000000 0.000000 0.028013 0.000000
# 6 0.000000 0.000000 0.000000 0.000000 0.000000 0.028057
#
#
# Mechanical properties :
#
#
# Convention : Reuss Voigt Hill
#
# Bulk Modulus (GPa) = 75.39059 89.01358 82.20209
# Shear Modulus (GPa) = 30.09561 32.94953 31.52257
#
# Velocity S-wave (km/s) = 3.98602 4.17074 4.07942
# Velocity P-wave (km/s) = 7.80932 8.37773 8.09851
#
# Compressibility (1/GPa) = 0.01326425
#
# Stress axis : x y z
#
# Youngs Moduli (GPa) = 51.32729 71.28278 69.57464
#
# Poissons Ratio (x) = 0.39803 0.28736
# Poissons Ratio (y) = 0.28660 0.52849
# Poissons Ratio (z) = 0.21199 0.54146
#
# Static dielectric constant tensor:
#      x y z
#    x 3.558280 0.000000 0.000000 
#    y 0.000000 3.998050 0.000000 
#    z 0.000000 0.000000 3.481030 
# 
# 
# High freq. dielectric constant tensor:
#      x y z
#    x 1.746260 0.000000 0.000000 
#    y 0.000000 1.754850 0.000000 
#    z 0.000000 0.000000 1.736260 
# 
# From -- ./inp_files/6031.got.cif
#   From: 2010.03.12/outbox.cif.g09.slc.cpg/sg51_4_cif.got.tgz:6031.got - 2010.04.16 13:43:02.
