data_PCOD8211621
_publ_section_title
;
Structure prediction by ZEFSAII (Michael W. Deem and Ramdas Pophale) SiO2 
 PCOD8211621
Probable space group: P M M A
;
_chemical_formula_sum "Si O2"
_cell_formula_units_Z 64
_cell_length_a 18.410178
_cell_length_b 9.031373
_cell_length_c 20.473903
_cell_angle_alpha 90.000000
_cell_angle_beta 90.000000
_cell_angle_gamma 90.000000
_cell_volume 3404.179156
_symmetry_space_group_name_H-M "P M M A"
_symmetry_group_IT_number 51
_symmetry_cell_setting 'orthorhombic'
loop_
_space_group_symop_operation_xyz
x,y,z
1/2-x,-y,z
1/2+x,-y,-z
-x,y,-z
-x,-y,-z
1/2+x,y,-z
1/2-x,y,z
x,-y,z
loop_
_atom_site_type_symbol
_atom_site_label
_atom_site_fract_x
_atom_site_fract_y
_atom_site_fract_z
Si Si1 0.417625 0.826613 0.697578
Si Si2 0.585046 0.826369 0.678884
Si Si3 0.074800 0.824590 0.075186
Si Si4 0.589105 0.824756 0.070727
Si Si5 0.333436 0.673911 0.813671
Si Si6 0.331435 0.823509 0.193521
Si Si7 0.832975 0.674653 0.563175
Si Si8 0.833899 0.829575 0.430670
O O1 0.501867 0.786613 0.692098
O O2 0.384350 0.740714 0.758192
O O3 0.379452 0.773572 0.631151
O O4 0.405031 0.000000 0.709787
O O5 0.630540 0.768164 0.740587
O O6 0.612776 0.742263 0.615515
O O7 0.596179 0.000000 0.667163
O O8 0.126208 0.756638 0.131160
O O9 0.992520 0.771358 0.087894
O O10 0.074434 0.000000 0.078685
O O11 0.104824 0.777177 0.004197
O O12 0.646037 0.741522 0.116312
O O13 0.597985 0.000000 0.080674
O O14 0.250000 0.714004 0.798379
O O15 0.345987 0.500000 0.816335
O O16 0.250000 0.760644 0.192291
O O17 0.332147 0.000000 0.190697
O O18 0.750000 0.724747 0.577901
O O19 0.840495 0.500000 0.563880
O O20 0.857578 0.732834 0.492510
O O21 0.750000 0.805621 0.413166
O O22 0.851160 0.000000 0.446977
#
# Coordination Sequence:
#
# PCOD8211621 Si02
#       8
#     8   8   8   8   8   8   8   8
#     4  10  21  37  58  81 103 133 177 225 269 316
#     4  10  20  34  54  79 106 136 172 218 268 313
#     4   8  15  29  50  78 107 132 167 218 267 308
#     4   9  17  32  55  78 102 135 174 218 266 315
#     4  11  24  38  52  75 109 145 179 219 267 319
#     4   9  16  26  44  72 103 132 164 206 257 309
#     4  10  21  36  54  77 107 143 178 210 250 308
#     4   9  18  34  56  79 102 130 168 216 266 314
#
# _framework density 18.800421
#
# number of rings (size 3 to 8) (size 9 to 14) (size 15 to 20)
#    0.000    2.500    0.000    3.000    0.000    6.750 
#    0.000    6.250    0.000    0.750    0.000    1.750 
#    0.000    0.000    0.000    0.000    0.000    0.000 
#
# Total GULP energy -793683.001539 kJ/mol
# GULP energy per Si atom -12401.296899 kJ/mol
# Density = 1.875763 g / cm^3
# Si number density = 18.800421 Si / 1000 Ang^3
#
#
#
# Elastic Constant Matrix: (Units=GPa)
#
#
# Indices 1 2 3 4 5 6 
#
# 1 94.8542 31.8905 61.2507 0.0000 0.0000 0.0000
# 2 31.8905 45.3607 35.6492 0.0000 0.0000 0.0000
# 3 61.2507 35.6492 127.9599 0.0000 0.0000 0.0000
# 4 0.0000 0.0000 0.0000 3.3436 0.0000 0.0000
# 5 0.0000 0.0000 0.0000 0.0000 41.2058 0.0000
# 6 0.0000 0.0000 0.0000 0.0000 0.0000 17.7543
#
#
#
# Elastic Compliance Matrix: (Units=1/GPa)
#
#
# Indices 1 2 3 4 5 6 
#
# 1 0.016855 -0.007053 -0.006103 0.000000 0.000000 0.000000
# 2 -0.007053 0.031177 -0.005310 0.000000 0.000000 0.000000
# 3 -0.006103 -0.005310 0.012215 0.000000 0.000000 0.000000
# 4 0.000000 0.000000 0.000000 0.299082 0.000000 0.000000
# 5 0.000000 0.000000 0.000000 0.000000 0.024268 0.000000
# 6 0.000000 0.000000 0.000000 0.000000 0.000000 0.056324
#
#
# Mechanical properties :
#
#
# Convention : Reuss Voigt Hill
#
# Bulk Modulus (GPa) = 42.88947 58.41730 50.65338
# Shear Modulus (GPa) = 10.31725 21.75304 16.03515
#
# Velocity S-wave (km/s) = 2.34514 3.40523 2.92364
# Velocity P-wave (km/s) = 5.49504 6.82646 6.19662
#
# Compressibility (1/GPa) = 0.02331575
#
# Stress axis : x y z
#
# Youngs Moduli (GPa) = 59.33084 32.07473 81.86368
#
# Poissons Ratio (x) = 0.22623 0.49960
# Poissons Ratio (y) = 0.41848 0.43467
# Poissons Ratio (z) = 0.36208 0.17031
#
# Static dielectric constant tensor:
#      x y z
#    x 3.609790 0.000000 0.000000 
#    y 0.000000 3.091040 0.000000 
#    z 0.000000 0.000000 3.637560 
# 
# 
# High freq. dielectric constant tensor:
#      x y z
#    x 1.734430 0.000000 0.000000 
#    y 0.000000 1.693940 0.000000 
#    z 0.000000 0.000000 1.745950 
# 
# From -- ./inp_files/33861.got.cif
#   From: 2010.03.12/outbox.cif.g09.slc.cpg/sg51_17_cif.got.tgz:33861.got - 2010.04.16 13:43:02.
