data_PCOD8211919
_publ_section_title
;
Structure prediction by ZEFSAII (Michael W. Deem and Ramdas Pophale) SiO2 
 PCOD8211919
Probable space group: P M M A
;
_chemical_formula_sum "Si O2"
_cell_formula_units_Z 56
_cell_length_a 8.714900
_cell_length_b 29.922161
_cell_length_c 13.625009
_cell_angle_alpha 90.000000
_cell_angle_beta 90.000000
_cell_angle_gamma 90.000000
_cell_volume 3552.975079
_symmetry_space_group_name_H-M "P M M A"
_symmetry_group_IT_number 51
_symmetry_cell_setting 'orthorhombic'
loop_
_space_group_symop_operation_xyz
x,y,z
1/2-x,-y,z
1/2+x,-y,-z
-x,y,-z
-x,-y,-z
1/2+x,y,-z
1/2-x,y,z
x,-y,z
loop_
_atom_site_type_symbol
_atom_site_label
_atom_site_fract_x
_atom_site_fract_y
_atom_site_fract_z
Si Si1 0.068686 0.232135 0.608458
Si Si2 0.568772 0.598025 0.397718
Si Si3 0.428769 0.550515 0.220915
Si Si4 0.931704 0.142724 0.608140
Si Si5 0.568656 0.682612 0.701917
Si Si6 0.430049 0.047276 0.393186
Si Si7 0.428298 0.634074 0.102297
O O1 0.250000 0.232639 0.600270
O O2 0.000000 0.238809 0.500000
O O3 0.011752 0.185498 0.658808
O O4 0.012489 0.270775 0.680421
O O5 0.500000 0.580961 0.500000
O O6 0.750000 0.603810 0.404623
O O7 0.526597 0.560569 0.317815
O O8 0.492819 0.645509 0.372763
O O9 0.250000 0.558800 0.246243
O O10 0.460196 0.500000 0.185883
O O11 0.481184 0.584104 0.134304
O O12 0.750000 0.150870 0.605049
O O13 0.974267 0.094557 0.660449
O O14 0.000000 0.140547 0.500000
O O15 0.750000 0.686980 0.687610
O O16 0.523975 0.668924 0.812936
O O17 0.500000 0.046711 0.500000
O O18 0.250000 0.048022 0.408244
O O19 0.478035 0.000000 0.338666
O O20 0.250000 0.634887 0.085118
O O21 0.500000 0.648815 0.000000
#
# Coordination Sequence:
#
# PCOD8211919 Si02
#       7
#     8   8   8   8   8   8   8
#     4  11  20  29  42  61  85 113 144 179 217 256
#     4  11  21  33  49  69  92 118 147 177 210 247
#     4   9  19  36  53  70  94 121 147 174 204 239
#     4   9  15  23  34  49  72 102 136 175 216 255
#     4  10  20  35  50  66  88 113 142 174 210 250
#     4   8  13  20  30  44  63  91 130 174 215 251
#     4   9  19  34  53  73  92 113 136 168 207 248
#
# _framework density 15.761438
#
# number of rings (size 3 to 8) (size 9 to 14) (size 15 to 20)
#    0.000    2.429    0.000    5.571    0.000    4.286 
#    0.000    0.000    0.000    0.000    0.000    0.000 
#    0.000    0.000    0.000    0.000    0.000    0.714 
#
# Total GULP energy -693794.381560 kJ/mol
# GULP energy per Si atom -12389.185385 kJ/mol
# Density = 1.572556 g / cm^3
# Si number density = 15.761438 Si / 1000 Ang^3
#
#
#
# Elastic Constant Matrix: (Units=GPa)
#
#
# Indices 1 2 3 4 5 6 
#
# 1 78.8989 43.6094 26.8990 0.0000 0.0000 0.0000
# 2 43.6094 143.2391 31.3015 0.0000 0.0000 0.0000
# 3 26.8990 31.3015 65.4371 0.0000 0.0000 0.0000
# 4 0.0000 0.0000 0.0000 5.2168 0.0000 0.0000
# 5 0.0000 0.0000 0.0000 0.0000 20.0661 0.0000
# 6 0.0000 0.0000 0.0000 0.0000 0.0000 18.9894
#
#
#
# Elastic Compliance Matrix: (Units=1/GPa)
#
#
# Indices 1 2 3 4 5 6 
#
# 1 0.016536 -0.003963 -0.004902 0.000000 0.000000 0.000000
# 2 -0.003963 0.008746 -0.002555 0.000000 0.000000 0.000000
# 3 -0.004902 -0.002555 0.018519 0.000000 0.000000 0.000000
# 4 0.000000 0.000000 0.000000 0.191688 0.000000 0.000000
# 5 0.000000 0.000000 0.000000 0.000000 0.049835 0.000000
# 6 0.000000 0.000000 0.000000 0.000000 0.000000 0.052661
#
#
# Mechanical properties :
#
#
# Convention : Reuss Voigt Hill
#
# Bulk Modulus (GPa) = 47.70508 54.57723 51.14116
# Shear Modulus (GPa) = 13.59393 21.23881 17.41637
#
# Velocity S-wave (km/s) = 2.93999 3.67484 3.32776
# Velocity P-wave (km/s) = 6.46973 7.26004 6.87625
#
# Compressibility (1/GPa) = 0.02096213
#
# Stress axis : x y z
#
# Youngs Moduli (GPa) = 60.47339 114.33526 53.99954
#
# Poissons Ratio (x) = 0.45315 0.26469
# Poissons Ratio (y) = 0.23968 0.13794
# Poissons Ratio (z) = 0.29642 0.29207
#
# Static dielectric constant tensor:
#      x y z
#    x 3.046180 0.000000 0.000000 
#    y 0.000000 3.779910 0.000000 
#    z 0.000000 0.000000 2.653970 
# 
# 
# High freq. dielectric constant tensor:
#      x y z
#    x 1.617340 0.000000 0.000000 
#    y 0.000000 1.621490 0.000000 
#    z 0.000000 0.000000 1.542120 
# 
# From -- ./inp_files/22531.got.cif
#   From: 2010.03.12/outbox.cif.g09.slc.cpg/sg51_12_cif.got.tgz:22531.got - 2010.04.16 13:43:02.
