data_PCOD8211673
_publ_section_title
;
Structure prediction by ZEFSAII (Michael W. Deem and Ramdas Pophale) SiO2 
 PCOD8211673
Probable space group: P M M A
;
_chemical_formula_sum "Si O2"
_cell_formula_units_Z 44
_cell_length_a 9.563243
_cell_length_b 8.075488
_cell_length_c 29.761843
_cell_angle_alpha 90.000000
_cell_angle_beta 90.000000
_cell_angle_gamma 90.000000
_cell_volume 2298.443269
_symmetry_space_group_name_H-M "P M M A"
_symmetry_group_IT_number 51
_symmetry_cell_setting 'orthorhombic'
loop_
_space_group_symop_operation_xyz
x,y,z
1/2-x,-y,z
1/2+x,-y,-z
-x,y,-z
-x,-y,-z
1/2+x,y,-z
1/2-x,y,z
x,-y,z
loop_
_atom_site_type_symbol
_atom_site_label
_atom_site_fract_x
_atom_site_fract_y
_atom_site_fract_z
Si Si1 0.593789 0.309812 0.216691
Si Si2 0.909980 0.805830 0.960214
Si Si3 0.091507 0.808083 0.295480
Si Si4 0.084320 0.183467 0.396849
Si Si5 0.082752 0.500000 0.454009
Si Si6 0.596675 0.806901 0.862049
O O1 0.750000 0.234997 0.222042
O O2 0.602453 0.500000 0.204234
O O3 0.510717 0.290317 0.263024
O O4 0.517379 0.221853 0.175794
O O5 0.750000 0.766340 0.970963
O O6 0.949366 0.732421 0.910670
O O7 0.940987 0.000000 0.960028
O O8 0.000000 0.720428 0.000000
O O9 0.250000 0.739915 0.290635
O O10 0.034699 0.781075 0.346046
O O11 0.088414 0.000000 0.282190
O O12 0.250000 0.177428 0.396961
O O13 0.032145 0.333721 0.428162
O O14 0.028703 0.000000 0.412675
O O15 0.250000 0.500000 0.461511
O O16 0.000000 0.500000 0.500000
O O17 0.750000 0.734185 0.847876
O O18 0.615160 0.000000 0.869080
#
# Coordination Sequence:
#
# PCOD8211673 Si02
#       6
#     8   8   8   8   4   8
#     4  11  24  36  46  69 104 137 167 204 252 306
#     4   8  14  25  43  69  97 121 151 196 247 297
#     4   9  18  34  57  81 100 125 169 218 258 303
#     4   8  16  32  54  80 107 136 177 225 265 311
#     4  10  20  34  54  80 110 146 182 220 267 312
#     4   9  18  33  52  73  97 127 166 209 248 295
#
# _framework density 19.143394000000001
#
# number of rings (size 3 to 8) (size 9 to 14) (size 15 to 20)
#    0.000    2.909    0.000    3.273    1.273    5.455 
#    0.000    2.727    0.000    1.636    0.000    0.000 
#    0.000    0.000    0.000    0.000    0.000    0.000 
#
# Total GULP energy -545234.461232 kJ/mol
# GULP energy per Si atom -12391.692301 kJ/mol
# Density = 1.909982 g / cm^3
# Si number density = 19.143394 Si / 1000 Ang^3
#
#
#
# Elastic Constant Matrix: (Units=GPa)
#
#
# Indices 1 2 3 4 5 6 
#
# 1 79.4623 19.8959 57.2141 0.0000 0.0000 0.0000
# 2 19.8959 63.0031 43.8051 0.0000 0.0000 0.0000
# 3 57.2141 43.8051 138.4980 0.0000 0.0000 0.0000
# 4 0.0000 0.0000 0.0000 -29.0612 0.0000 0.0000
# 5 0.0000 0.0000 0.0000 0.0000 34.0597 0.0000
# 6 0.0000 0.0000 0.0000 0.0000 0.0000 15.9274
#
#
#
# Elastic Compliance Matrix: (Units=1/GPa)
#
#
# Indices 1 2 3 4 5 6 
#
# 1 0.017934 -0.000657 -0.007201 0.000000 0.000000 0.000000
# 2 -0.000657 0.020371 -0.006172 0.000000 0.000000 0.000000
# 3 -0.007201 -0.006172 0.012147 0.000000 0.000000 0.000000
# 4 0.000000 0.000000 0.000000 -0.034410 0.000000 0.000000
# 5 0.000000 0.000000 0.000000 0.000000 0.029360 0.000000
# 6 0.000000 0.000000 0.000000 0.000000 0.000000 0.062785
#
#
# Mechanical properties :
#
#
# Convention : Reuss Voigt Hill
#
# Bulk Modulus (GPa) = 44.65673 58.08816 51.37245
# Shear Modulus (GPa) = 34.79247 14.85505 24.82376
#
# Velocity S-wave (km/s) = 4.26780 2.78868 3.60492
# Velocity P-wave (km/s) = 6.90388 6.38581 6.64989
#
# Compressibility (1/GPa) = 0.02239304
#
# Stress axis : x y z
#
# Youngs Moduli (GPa) = 55.76094 49.09013 82.32475
#
# Poissons Ratio (x) = 0.03224 0.59280
# Poissons Ratio (y) = 0.03662 0.50808
# Poissons Ratio (z) = 0.40152 0.30297
#
# Static dielectric constant tensor:
#      x y z
#    x 3.670960 0.000000 0.000000 
#    y 0.000000 3.494040 0.000000 
#    z 0.000000 0.000000 3.693000 
# 
# 
# High freq. dielectric constant tensor:
#      x y z
#    x 1.718330 0.000000 0.000000 
#    y 0.000000 1.726460 0.000000 
#    z 0.000000 0.000000 1.751520 
# 
# From -- ./inp_files/36797.got.cif
#   From: 2010.03.12/outbox.cif.g09.slc.cpg/sg51_19_cif.got.tgz:36797.got - 2010.04.16 13:43:02.
