data_PCOD8211871
_publ_section_title
;
Structure prediction by ZEFSAII (Michael W. Deem and Ramdas Pophale) SiO2 
 PCOD8211871
Probable space group: P M M A
;
_chemical_formula_sum "Si O2"
_cell_formula_units_Z 48
_cell_length_a 8.897977
_cell_length_b 9.734711
_cell_length_c 28.977203
_cell_angle_alpha 90.000000
_cell_angle_beta 90.000000
_cell_angle_gamma 90.000000
_cell_volume 2509.983144
_symmetry_space_group_name_H-M "P M M A"
_symmetry_group_IT_number 51
_symmetry_cell_setting 'orthorhombic'
loop_
_space_group_symop_operation_xyz
x,y,z
1/2-x,-y,z
1/2+x,-y,-z
-x,y,-z
-x,-y,-z
1/2+x,y,-z
1/2-x,y,z
x,-y,z
loop_
_atom_site_type_symbol
_atom_site_label
_atom_site_fract_x
_atom_site_fract_y
_atom_site_fract_z
Si Si1 0.426527 0.156515 0.049131
Si Si2 0.424138 0.500000 0.450309
Si Si3 0.927463 0.339375 0.126997
Si Si4 0.925675 0.841481 0.795899
Si Si5 0.424411 0.265425 0.604045
Si Si6 0.079537 0.842565 0.702015
Si Si7 0.423341 0.000000 0.548733
O O1 0.250000 0.181681 0.045168
O O2 0.494413 0.266357 0.083965
O O3 0.460195 0.000000 0.065745
O O4 0.500000 0.184444 0.000000
O O5 0.250000 0.500000 0.460706
O O6 0.500000 0.500000 0.500000
O O7 0.467338 0.372967 0.419050
O O8 0.750000 0.322890 0.122123
O O9 0.973781 0.500000 0.128705
O O10 0.981183 0.263228 0.173012
O O11 0.750000 0.817143 0.804379
O O12 0.965661 0.806685 0.743097
O O13 0.969145 0.000000 0.807261
O O14 0.250000 0.303742 0.596033
O O15 0.458535 0.253967 0.658577
O O16 0.471655 0.127430 0.579105
O O17 0.250000 0.816222 0.719075
O O18 0.061751 0.000000 0.686012
O O19 0.500000 0.000000 0.500000
O O20 0.250000 0.000000 0.537716
#
# Coordination Sequence:
#
# PCOD8211871 Si02
#       7
#     8   4   8   8   8   8   4
#     4  10  21  38  62  91 121 156 199 245 294 348
#     4  12  26  42  58  80 112 152 194 232 277 336
#     4  11  24  40  58  84 118 157 202 246 292 347
#     4  10  21  37  59  87 117 150 190 238 290 345
#     4  10  20  38  61  85 114 147 185 231 282 338
#     4   9  17  34  61  89 115 146 185 231 283 342
#     4  10  20  34  56  86 114 142 182 228 279 336
#
# _framework density 19.123635
#
# number of rings (size 3 to 8) (size 9 to 14) (size 15 to 20)
#    0.000    1.833    0.833    3.250    0.000    8.333 
#    1.500    0.000    0.000    0.000    0.000    0.000 
#    0.000    0.000    0.000    0.000    0.000    0.000 
#
# Total GULP energy -595216.111674 kJ/mol
# GULP energy per Si atom -12400.335660 kJ/mol
# Density = 1.908011 g / cm^3
# Si number density = 19.123635 Si / 1000 Ang^3
#
#
#
# Elastic Constant Matrix: (Units=GPa)
#
#
# Indices 1 2 3 4 5 6 
#
# 1 92.8883 64.9536 55.4850 0.0000 0.0000 0.0000
# 2 64.9536 127.0031 70.9384 0.0000 0.0000 0.0000
# 3 55.4850 70.9384 125.0036 0.0000 0.0000 0.0000
# 4 0.0000 0.0000 0.0000-2766.8260 0.0000 0.0000
# 5 0.0000 0.0000 0.0000 0.0000 39.2687 0.0000
# 6 0.0000 0.0000 0.0000 0.0000 0.0000 32.4750
#
#
#
# Elastic Compliance Matrix: (Units=1/GPa)
#
#
# Indices 1 2 3 4 5 6 
#
# 1 0.018067 -0.006970 -0.004064 0.000000 0.000000 0.000000
# 2 -0.006970 0.014217 -0.004974 0.000000 0.000000 0.000000
# 3 -0.004064 -0.004974 0.012626 0.000000 0.000000 0.000000
# 4 0.000000 0.000000 0.000000 -0.000361 0.000000 0.000000
# 5 0.000000 0.000000 0.000000 0.000000 0.025466 0.000000
# 6 0.000000 0.000000 0.000000 0.000000 0.000000 0.030793
#
#
# Mechanical properties :
#
#
# Convention : Reuss Voigt Hill
#
# Bulk Modulus (GPa) = 77.55552 80.84990 79.20271
# Shear Modulus (GPa) = 36.46389 -528.78191 -246.15901
#
# Velocity S-wave (km/s) = 4.37137 -16.64654 -11.35778
# Velocity P-wave (km/s) = 8.13150 18.08610 11.42335
#
# Compressibility (1/GPa) = 0.01289399
#
# Stress axis : x y z
#
# Youngs Moduli (GPa) = 55.34912 70.33850 79.19940
#
# Poissons Ratio (x) = 0.49028 0.32186
# Poissons Ratio (y) = 0.38580 0.39395
# Poissons Ratio (z) = 0.22493 0.34987
#
# Static dielectric constant tensor:
#      x y z
#    x 3.501540 0.000000 0.000000 
#    y 0.000000 3.454350 0.000000 
#    z 0.000000 0.000000 3.434220 
# 
# 
# High freq. dielectric constant tensor:
#      x y z
#    x 1.745530 0.000000 0.000000 
#    y 0.000000 1.739210 0.000000 
#    z 0.000000 0.000000 1.756970 
# 
# From -- ./inp_files/37223.got.cif
#   From: 2010.03.12/outbox.cif.g09.slc.cpg/sg51_19_cif.got.tgz:37223.got - 2010.04.16 13:43:02.
