data_PCOD8211935
_publ_section_title
;
Structure prediction by ZEFSAII (Michael W. Deem and Ramdas Pophale) SiO2 
 PCOD8211935
Probable space group: P M M A
;
_chemical_formula_sum "Si O2"
_cell_formula_units_Z 56
_cell_length_a 15.168142
_cell_length_b 8.970813
_cell_length_c 21.181161
_cell_angle_alpha 90.000000
_cell_angle_beta 90.000000
_cell_angle_gamma 90.000000
_cell_volume 2882.132554
_symmetry_space_group_name_H-M "P M M A"
_symmetry_group_IT_number 51
_symmetry_cell_setting 'orthorhombic'
loop_
_space_group_symop_operation_xyz
x,y,z
1/2-x,-y,z
1/2+x,-y,-z
-x,y,-z
-x,-y,-z
1/2+x,y,-z
1/2-x,y,z
x,-y,z
loop_
_atom_site_type_symbol
_atom_site_label
_atom_site_fract_x
_atom_site_fract_y
_atom_site_fract_z
Si Si1 0.353896 0.164621 0.503896
Si Si2 0.653936 0.669191 0.078719
Si Si3 0.482676 0.676148 0.150103
Si Si4 0.092242 0.167198 0.035492
Si Si5 0.145845 0.327962 0.380297
Si Si6 0.981642 0.177102 0.716528
Si Si7 0.651761 0.822646 0.356943
O O1 0.250000 0.148342 0.500050
O O2 0.387594 0.275251 0.449369
O O3 0.377847 0.231172 0.572939
O O4 0.396396 0.000000 0.493788
O O5 0.750000 0.681592 0.111596
O O6 0.630366 0.500000 0.059964
O O7 0.580721 0.726541 0.127946
O O8 0.660254 0.761725 0.013820
O O9 0.472872 0.500000 0.157695
O O10 0.411900 0.735162 0.099160
O O11 0.462754 0.753922 0.215724
O O12 0.121911 0.000000 0.053113
O O13 0.000000 0.168756 0.000000
O O14 0.250000 0.301644 0.371887
O O15 0.120688 0.500000 0.371891
O O16 0.096344 0.230437 0.328513
O O17 0.077703 0.233806 0.692080
O O18 0.979325 0.000000 0.720932
O O19 0.750000 0.760606 0.338988
O O20 0.656011 0.000000 0.358201
#
# Coordination Sequence:
#
# PCOD8211935 Si02
#       7
#     8   8   8   8   8   8   8
#     4   8  14  29  54  78 100 131 173 220 268 318
#     4   9  18  33  54  80 108 138 171 206 249 303
#     4  10  20  35  53  73 104 143 176 208 252 307
#     4   9  17  31  52  76 100 127 163 206 247 287
#     4  10  21  37  55  75 102 135 173 222 278 330
#     4  11  22  35  54  79 107 142 183 223 263 312
#     4   8  16  32  53  78 108 141 177 217 263 317
#
# _framework density 19.430057000000001
#
# number of rings (size 3 to 8) (size 9 to 14) (size 15 to 20)
#    0.000    2.714    0.000    2.571    0.000    4.571 
#    0.000    5.000    0.000    7.286    0.000    0.000 
#    0.000    0.000    0.000    0.000    0.000    0.000 
#
# Total GULP energy -694163.875588 kJ/mol
# GULP energy per Si atom -12395.783493 kJ/mol
# Density = 1.938583 g / cm^3
# Si number density = 19.430057 Si / 1000 Ang^3
#
#
#
# Elastic Constant Matrix: (Units=GPa)
#
#
# Indices 1 2 3 4 5 6 
#
# 1 31.4782 9.2651 1.7573 0.0000 0.0000 0.0000
# 2 9.2651 77.3490 29.0321 0.0000 0.0000 0.0000
# 3 1.7573 29.0321 94.5301 0.0000 0.0000 0.0000
# 4 0.0000 0.0000 0.0000 19.1167 0.0000 0.0000
# 5 0.0000 0.0000 0.0000 0.0000 21.8338 0.0000
# 6 0.0000 0.0000 0.0000 0.0000 0.0000 18.6620
#
#
#
# Elastic Compliance Matrix: (Units=1/GPa)
#
#
# Indices 1 2 3 4 5 6 
#
# 1 0.032967 -0.004203 0.000678 0.000000 0.000000 0.000000
# 2 -0.004203 0.015149 -0.004574 0.000000 0.000000 0.000000
# 3 0.000678 -0.004574 0.011971 0.000000 0.000000 0.000000
# 4 0.000000 0.000000 0.000000 0.052310 0.000000 0.000000
# 5 0.000000 0.000000 0.000000 0.000000 0.045801 0.000000
# 6 0.000000 0.000000 0.000000 0.000000 0.000000 0.053585
#
#
# Mechanical properties :
#
#
# Convention : Reuss Voigt Hill
#
# Bulk Modulus (GPa) = 22.78543 31.49627 27.14085
# Shear Modulus (GPa) = 20.60908 22.80935 21.70922
#
# Velocity S-wave (km/s) = 3.26034 3.42997 3.34623
# Velocity P-wave (km/s) = 5.09171 5.65080 5.37852
#
# Compressibility (1/GPa) = 0.04388769
#
# Stress axis : x y z
#
# Youngs Moduli (GPa) = 30.33302 66.01159 83.53575
#
# Poissons Ratio (x) = 0.27748 -0.05665
# Poissons Ratio (y) = 0.12750 0.38212
# Poissons Ratio (z) = -0.02057 0.30196
#
# Static dielectric constant tensor:
#      x y z
#    x 3.462690 0.000000 0.000000 
#    y 0.000000 3.523790 0.000000 
#    z 0.000000 0.000000 3.595100 
# 
# 
# High freq. dielectric constant tensor:
#      x y z
#    x 1.743290 0.000000 0.000000 
#    y 0.000000 1.744790 0.000000 
#    z 0.000000 0.000000 1.751170 
# 
# From -- ./inp_files/33376.got.cif
#   From: 2010.03.12/outbox.cif.g09.slc.cpg/sg51_17_cif.got.tgz:33376.got - 2010.04.16 13:43:02.
