data_PCOD8211184
_publ_section_title
;
Structure prediction by ZEFSAII (Michael W. Deem and Ramdas Pophale) SiO2 
 PCOD8211184
Probable space group: P M M A
;
_chemical_formula_sum "Si O2"
_cell_formula_units_Z 64
_cell_length_a 14.480694
_cell_length_b 9.629196
_cell_length_c 24.290479
_cell_angle_alpha 90.000000
_cell_angle_beta 90.000000
_cell_angle_gamma 90.000000
_cell_volume 3387.002226
_symmetry_space_group_name_H-M "P M M A"
_symmetry_group_IT_number 51
_symmetry_cell_setting 'orthorhombic'
loop_
_space_group_symop_operation_xyz
x,y,z
1/2-x,-y,z
1/2+x,-y,-z
-x,y,-z
-x,-y,-z
1/2+x,y,-z
1/2-x,y,z
x,-y,z
loop_
_atom_site_type_symbol
_atom_site_label
_atom_site_fract_x
_atom_site_fract_y
_atom_site_fract_z
Si Si1 0.522853 0.658754 0.253918
Si Si2 0.003684 0.336046 0.937823
Si Si3 0.858249 0.159418 0.462824
Si Si4 0.645949 0.341580 0.567037
Si Si5 0.146110 0.664772 0.847067
Si Si6 0.039151 0.343971 0.622840
Si Si7 0.147828 0.848467 0.110678
Si Si8 0.851606 0.845643 0.759411
O O1 0.499598 0.500000 0.238979
O O2 0.589776 0.721544 0.206323
O O3 0.570314 0.671344 0.313613
O O4 0.427234 0.738320 0.260453
O O5 0.994334 0.500000 0.937137
O O6 0.915018 0.276814 0.908063
O O7 0.095251 0.289598 0.903899
O O8 0.000000 0.278238 0.000000
O O9 0.750000 0.169593 0.452659
O O10 0.886594 0.241383 0.517783
O O11 0.906393 0.228857 0.410697
O O12 0.890839 0.000000 0.468470
O O13 0.750000 0.302884 0.587442
O O14 0.644428 0.500000 0.545242
O O15 0.571937 0.321229 0.616106
O O16 0.250000 0.727625 0.847190
O O17 0.151815 0.500000 0.843197
O O18 0.064590 0.500000 0.602427
O O19 0.250000 0.822995 0.086392
O O20 0.151333 0.847569 0.175524
O O21 0.111134 0.000000 0.090495
O O22 0.750000 0.801525 0.737161
O O23 0.876392 0.000000 0.737426
#
# Coordination Sequence:
#
# PCOD8211184 Si02
#       8
#     8   8   8   8   8   8   8   8
#     4  10  20  34  54  79 104 137 182 224 263 313
#     4  10  20  33  53  81 108 137 177 224 272 321
#     4  10  21  36  54  77 105 138 178 222 266 314
#     4   9  18  34  54  75 104 140 172 210 265 322
#     4   9  18  34  53  73 103 141 177 217 266 316
#     4  10  21  34  52  80 108 136 176 222 266 317
#     4   9  18  33  53  76 104 138 172 210 260 317
#     4   9  18  33  53  76 103 137 173 210 261 319
#
# _framework density 18.895765999999998
#
# number of rings (size 3 to 8) (size 9 to 14) (size 15 to 20)
#    0.000    2.500    1.250    1.500    0.000    5.500 
#    0.000    5.000    0.000    3.000    0.000    0.000 
#    0.000    0.000    0.000    0.000    0.000    0.000 
#
# Total GULP energy -793264.000043 kJ/mol
# GULP energy per Si atom -12394.750001 kJ/mol
# Density = 1.885276 g / cm^3
# Si number density = 18.895766 Si / 1000 Ang^3
#
#
#
# Elastic Constant Matrix: (Units=GPa)
#
#
# Indices 1 2 3 4 5 6 
#
# 1 84.7438 34.3989 39.1964 0.0000 0.0000 0.0000
# 2 34.3989 58.0819 28.1735 0.0000 0.0000 0.0000
# 3 39.1964 28.1735 88.0239 0.0000 0.0000 0.0000
# 4 0.0000 0.0000 0.0000 14.6501 0.0000 0.0000
# 5 0.0000 0.0000 0.0000 0.0000 13.3902 0.0000
# 6 0.0000 0.0000 0.0000 0.0000 0.0000 196.4439
#
#
#
# Elastic Compliance Matrix: (Units=1/GPa)
#
#
# Indices 1 2 3 4 5 6 
#
# 1 0.017374 -0.007739 -0.005260 0.000000 0.000000 0.000000
# 2 -0.007739 0.023828 -0.004181 0.000000 0.000000 0.000000
# 3 -0.005260 -0.004181 0.015041 0.000000 0.000000 0.000000
# 4 0.000000 0.000000 0.000000 0.068259 0.000000 0.000000
# 5 0.000000 0.000000 0.000000 0.000000 0.074682 0.000000
# 6 0.000000 0.000000 0.000000 0.000000 0.000000 0.005091
#
#
# Mechanical properties :
#
#
# Convention : Reuss Voigt Hill
#
# Bulk Modulus (GPa) = 45.69303 48.26524 46.97914
# Shear Modulus (GPa) = 20.33122 53.50223 36.91673
#
# Velocity S-wave (km/s) = 3.28375 5.32690 4.42487
# Velocity P-wave (km/s) = 6.21381 7.96447 7.14298
#
# Compressibility (1/GPa) = 0.02188518
#
# Stress axis : x y z
#
# Youngs Moduli (GPa) = 57.55636 41.96725 66.48594
#
# Poissons Ratio (x) = 0.32477 0.34970
# Poissons Ratio (y) = 0.44540 0.27796
# Poissons Ratio (z) = 0.30273 0.17545
#
# Static dielectric constant tensor:
#      x y z
#    x 0.194850 0.000000 0.000000 
#    y 0.000000 3.485410 0.000000 
#    z 0.000000 0.000000 3.471460 
# 
# 
# High freq. dielectric constant tensor:
#      x y z
#    x 1.734930 0.000000 0.000000 
#    y 0.000000 1.718860 0.000000 
#    z 0.000000 0.000000 1.723700 
# 
# From -- ./inp_files/35657.got.cif
#   From: 2010.03.12/outbox.cif.g09.slc.cpg/sg51_18_cif.got.tgz:35657.got - 2010.04.16 13:43:02.
