data_PCOD8211536
_publ_section_title
;
Structure prediction by ZEFSAII (Michael W. Deem and Ramdas Pophale) SiO2 
 PCOD8211536
Probable space group: P M M A
;
_chemical_formula_sum "Si O2"
_cell_formula_units_Z 64
_cell_length_a 8.739990
_cell_length_b 19.326065
_cell_length_c 20.728011
_cell_angle_alpha 90.000000
_cell_angle_beta 90.000000
_cell_angle_gamma 90.000000
_cell_volume 3501.160354
_symmetry_space_group_name_H-M "P M M A"
_symmetry_group_IT_number 51
_symmetry_cell_setting 'orthorhombic'
loop_
_space_group_symop_operation_xyz
x,y,z
1/2-x,-y,z
1/2+x,-y,-z
-x,y,-z
-x,-y,-z
1/2+x,y,-z
1/2-x,y,z
x,-y,z
loop_
_atom_site_type_symbol
_atom_site_label
_atom_site_fract_x
_atom_site_fract_y
_atom_site_fract_z
Si Si1 0.070669 0.921735 0.731005
Si Si2 0.424680 0.576528 0.750269
Si Si3 0.072559 0.421598 0.384682
Si Si4 0.426623 0.718442 0.806249
Si Si5 0.569655 0.796678 0.065728
Si Si6 0.072708 0.921274 0.131738
Si Si7 0.429211 0.290015 0.565629
Si Si8 0.070907 0.790043 0.315268
O O1 0.250000 0.908637 0.724521
O O2 0.023193 0.905919 0.804117
O O3 0.981715 0.870106 0.683378
O O4 0.025759 0.000000 0.711705
O O5 0.250000 0.581345 0.725114
O O6 0.456727 0.500000 0.780007
O O7 0.534755 0.590787 0.690227
O O8 0.455491 0.635494 0.803775
O O9 0.250000 0.404504 0.394984
O O10 0.032385 0.500000 0.404902
O O11 0.973760 0.370801 0.428987
O O12 0.250000 0.736646 0.792047
O O13 0.475333 0.744178 0.876904
O O14 0.527446 0.756523 0.752944
O O15 0.750000 0.805970 0.059110
O O16 0.492129 0.871422 0.076621
O O17 0.500000 0.765407 0.000000
O O18 0.250000 0.905575 0.146047
O O19 0.049230 0.000000 0.108340
O O20 0.500000 0.258998 0.500000
O O21 0.250000 0.281592 0.562088
O O22 0.489602 0.249230 0.627024
O O23 0.250000 0.784975 0.326139
#
# Coordination Sequence:
#
# PCOD8211536 Si02
#       8
#     8   8   8   8   8   8   8   8
#     4  10  20  35  57  85 116 149 186 230 278 327
#     4   9  17  31  54  82 110 142 182 230 282 333
#     4  10  20  34  53  81 116 151 189 230 276 333
#     4  10  20  35  56  82 110 145 187 234 281 334
#     4  11  23  37  54  76 109 148 190 234 285 340
#     4  10  20  34  53  79 111 146 185 227 274 332
#     4  12  25  41  59  81 114 152 194 237 283 339
#     4  12  23  36  59  87 115 149 188 232 282 332
#
# _framework density 18.279655000000002
#
# number of rings (size 3 to 8) (size 9 to 14) (size 15 to 20)
#    0.000    1.500    2.500    3.750    0.000    3.250 
#    0.000    0.000    0.000    0.750    0.000    0.000 
#    0.000    0.000    0.000    0.000    0.000    0.125 
#
# Total GULP energy -793763.049255 kJ/mol
# GULP energy per Si atom -12402.547645 kJ/mol
# Density = 1.823805 g / cm^3
# Si number density = 18.279655 Si / 1000 Ang^3
#
#
#
# Elastic Constant Matrix: (Units=GPa)
#
#
# Indices 1 2 3 4 5 6 
#
# 1 107.8792 40.3859 44.8031 0.0000 0.0000 0.0000
# 2 40.3859 102.2066 48.3008 0.0000 0.0000 0.0000
# 3 44.8031 48.3008 94.8824 0.0000 0.0000 0.0000
# 4 0.0000 0.0000 0.0000 8.4009 0.0000 0.0000
# 5 0.0000 0.0000 0.0000 0.0000 30.0721 0.0000
# 6 0.0000 0.0000 0.0000 0.0000 0.0000 25.6308
#
#
#
# Elastic Compliance Matrix: (Units=1/GPa)
#
#
# Indices 1 2 3 4 5 6 
#
# 1 0.012086 -0.002737 -0.004313 0.000000 0.000000 0.000000
# 2 -0.002737 0.013503 -0.005582 0.000000 0.000000 0.000000
# 3 -0.004313 -0.005582 0.015418 0.000000 0.000000 0.000000
# 4 0.000000 0.000000 0.000000 0.119035 0.000000 0.000000
# 5 0.000000 0.000000 0.000000 0.000000 0.033253 0.000000
# 6 0.000000 0.000000 0.000000 0.000000 0.000000 0.039016
#
#
# Mechanical properties :
#
#
# Convention : Reuss Voigt Hill
#
# Bulk Modulus (GPa) = 63.52304 63.54975 63.53639
# Shear Modulus (GPa) = 19.02428 24.25265 21.63846
#
# Velocity S-wave (km/s) = 3.22954 3.64642 3.44429
# Velocity P-wave (km/s) = 6.98088 7.25047 7.11695
#
# Compressibility (1/GPa) = 0.01574232
#
# Stress axis : x y z
#
# Youngs Moduli (GPa) = 82.74233 74.05549 64.86119
#
# Poissons Ratio (x) = 0.20270 0.27978
# Poissons Ratio (y) = 0.22647 0.36203
# Poissons Ratio (z) = 0.35691 0.41335
#
# Static dielectric constant tensor:
#      x y z
#    x 3.485700 0.000000 0.000000 
#    y 0.000000 3.667010 0.000000 
#    z 0.000000 0.000000 3.173240 
# 
# 
# High freq. dielectric constant tensor:
#      x y z
#    x 1.720650 0.000000 0.000000 
#    y 0.000000 1.713940 0.000000 
#    z 0.000000 0.000000 1.679450 
# 
# From -- ./inp_files/28480.got.cif
#   From: 2010.03.12/outbox.cif.g09.slc.cpg/sg51_15_cif.got.tgz:28480.got - 2010.04.16 13:43:02.
