data_PCOD8211565
_publ_section_title
;
Structure prediction by ZEFSAII (Michael W. Deem and Ramdas Pophale) SiO2 
 PCOD8211565
Probable space group: P M M A
;
_chemical_formula_sum "Si O2"
_cell_formula_units_Z 44
_cell_length_a 26.696711
_cell_length_b 9.744679
_cell_length_c 8.554170
_cell_angle_alpha 90.000000
_cell_angle_beta 90.000000
_cell_angle_gamma 90.000000
_cell_volume 2225.374845
_symmetry_space_group_name_H-M "P M M A"
_symmetry_group_IT_number 51
_symmetry_cell_setting 'orthorhombic'
loop_
_space_group_symop_operation_xyz
x,y,z
1/2-x,-y,z
1/2+x,-y,-z
-x,y,-z
-x,-y,-z
1/2+x,y,-z
1/2-x,y,z
x,-y,z
loop_
_atom_site_type_symbol
_atom_site_label
_atom_site_fract_x
_atom_site_fract_y
_atom_site_fract_z
Si Si1 0.000000 0.732659 0.000000
Si Si2 0.896444 0.337613 0.509209
Si Si3 0.100857 0.650116 0.134708
Si Si4 0.848444 0.148899 0.076849
Si Si5 0.448211 0.850780 0.722664
Si Si6 0.806202 0.160040 0.390740
O O1 0.993760 0.821199 0.158327
O O2 0.050254 0.645450 0.030276
O O3 0.892821 0.500000 0.468502
O O4 0.911776 0.310515 0.687653
O O5 0.940906 0.267778 0.407583
O O6 0.843373 0.262828 0.480073
O O7 0.124992 0.500000 0.129036
O O8 0.144429 0.747280 0.066377
O O9 0.899068 0.141239 0.174000
O O10 0.806611 0.193014 0.203752
O O11 0.835528 0.000000 0.003894
O O12 0.457888 0.000000 0.643182
O O13 0.750000 0.186179 0.452848
O O14 0.822108 0.000000 0.417263
#
# Coordination Sequence:
#
# PCOD8211565 Si02
#       6
#     4   8   8   8   8   8
#     4  10  20  34  54  76  98 134 182 226 260 302
#     4  10  21  35  51  76 109 140 170 210 260 309
#     4  10  21  35  51  73 104 139 174 213 257 306
#     4   8  16  31  52  75  99 128 163 206 251 296
#     4   9  18  34  53  74 101 133 171 213 257 303
#     4   9  18  35  58  81 103 130 168 210 253 307
#
# _framework density 19.77195
#
# number of rings (size 3 to 8) (size 9 to 14) (size 15 to 20)
#    0.000    2.727    0.000    2.182    0.000   10.545 
#    0.000    3.636    0.000    3.273    0.000    0.000 
#    0.000    0.000    0.000    0.000    0.000    0.000 
#
# Total GULP energy -545173.059661 kJ/mol
# GULP energy per Si atom -12390.296810 kJ/mol
# Density = 1.972695 g / cm^3
# Si number density = 19.771950 Si / 1000 Ang^3
#
#
#
# Elastic Constant Matrix: (Units=GPa)
#
#
# Indices 1 2 3 4 5 6 
#
# 1 46.3142 22.5643 17.8214 0.0000 0.0000 0.0000
# 2 22.5643 132.0643 64.0352 0.0000 0.0000 0.0000
# 3 17.8214 64.0352 98.2938 0.0000 0.0000 0.0000
# 4 0.0000 0.0000 0.0000 25.9148 0.0000 0.0000
# 5 0.0000 0.0000 0.0000 0.0000 21.7417 0.0000
# 6 0.0000 0.0000 0.0000 0.0000 0.0000 9.8629
#
#
#
# Elastic Compliance Matrix: (Units=1/GPa)
#
#
# Indices 1 2 3 4 5 6 
#
# 1 0.023949 -0.002904 -0.002451 0.000000 0.000000 0.000000
# 2 -0.002904 0.011420 -0.006914 0.000000 0.000000 0.000000
# 3 -0.002451 -0.006914 0.015122 0.000000 0.000000 0.000000
# 4 0.000000 0.000000 0.000000 0.038588 0.000000 0.000000
# 5 0.000000 0.000000 0.000000 0.000000 0.045995 0.000000
# 6 0.000000 0.000000 0.000000 0.000000 0.000000 0.101390
#
#
# Mechanical properties :
#
#
# Convention : Reuss Voigt Hill
#
# Bulk Modulus (GPa) = 38.52680 53.94600 46.23640
# Shear Modulus (GPa) = 18.54245 22.98732 20.76488
#
# Velocity S-wave (km/s) = 3.06570 3.41342 3.24422
# Velocity P-wave (km/s) = 5.66209 6.54818 6.12119
#
# Compressibility (1/GPa) = 0.02595596
#
# Stress axis : x y z
#
# Youngs Moduli (GPa) = 41.75486 87.56239 66.12959
#
# Poissons Ratio (x) = 0.25426 0.16205
# Poissons Ratio (y) = 0.12125 0.45719
# Poissons Ratio (z) = 0.10232 0.60537
#
# Static dielectric constant tensor:
#      x y z
#    x 3.590210 0.000000 0.000000 
#    y 0.000000 3.823320 0.000000 
#    z 0.000000 0.000000 3.616240 
# 
# 
# High freq. dielectric constant tensor:
#      x y z
#    x 1.743300 0.000000 0.000000 
#    y 0.000000 1.772820 0.000000 
#    z 0.000000 0.000000 1.760650 
# 
# From -- ./inp_files/12665.got.cif
#   From: 2010.03.12/outbox.cif.g09.slc.cpg/sg51_7_cif.got.tgz:12665.got - 2010.04.16 13:43:02.
