data_PCOD8211369
_publ_section_title
;
Structure prediction by ZEFSAII (Michael W. Deem and Ramdas Pophale) SiO2 
 PCOD8211369
Probable space group: P M M A
;
_chemical_formula_sum "Si O2"
_cell_formula_units_Z 52
_cell_length_a 9.762180
_cell_length_b 8.120112
_cell_length_c 35.508083
_cell_angle_alpha 90.000000
_cell_angle_beta 90.000000
_cell_angle_gamma 90.000000
_cell_volume 2814.725561
_symmetry_space_group_name_H-M "P M M A"
_symmetry_group_IT_number 51
_symmetry_cell_setting 'orthorhombic'
loop_
_space_group_symop_operation_xyz
x,y,z
1/2-x,-y,z
1/2+x,-y,-z
-x,y,-z
-x,-y,-z
1/2+x,y,-z
1/2-x,y,z
x,-y,z
loop_
_atom_site_type_symbol
_atom_site_label
_atom_site_fract_x
_atom_site_fract_y
_atom_site_fract_z
Si Si1 0.586268 0.000000 0.462268
Si Si2 0.903615 0.302870 0.808889
Si Si3 0.587140 0.814156 0.336093
Si Si4 0.412801 0.682454 0.109484
Si Si5 0.912435 0.317280 0.414121
Si Si6 0.901612 0.809320 0.968607
Si Si7 0.903519 0.694316 0.256501
O O1 0.500000 0.000000 0.500000
O O2 0.539079 0.833712 0.440457
O O3 0.750000 0.000000 0.469677
O O4 0.750000 0.236399 0.801310
O O5 0.902316 0.500000 0.808815
O O6 0.959915 0.242919 0.850022
O O7 0.002441 0.230477 0.776580
O O8 0.750000 0.804381 0.335620
O O9 0.530715 0.710991 0.371723
O O10 0.530838 0.741677 0.296835
O O11 0.535478 0.000000 0.340835
O O12 0.250000 0.676852 0.111136
O O13 0.473590 0.500000 0.104088
O O14 0.463251 0.787438 0.073525
O O15 0.750000 0.314250 0.413226
O O16 0.963251 0.500000 0.427943
O O17 0.750000 0.727378 0.971291
O O18 0.888547 0.000000 0.977639
O O19 0.000000 0.726156 0.000000
O O20 0.750000 0.767693 0.252354
O O21 0.898910 0.500000 0.253088
#
# Coordination Sequence:
#
# PCOD8211369 Si02
#       7
#     4   8   8   8   8   8   8
#     4  10  20  34  52  76 104 132 164 204 248 290
#     4   8  14  26  43  60  81 112 146 176 209 255
#     4   9  15  25  42  65  93 121 151 191 235 273
#     4   8  14  26  44  62  79 105 141 175 206 246
#     4   9  16  28  48  73  99 128 165 205 242 285
#     4   9  17  29  44  61  81 104 131 165 207 253
#     4   9  16  25  40  64  89 111 139 178 221 261
#
# _framework density 18.474270000000001
#
# number of rings (size 3 to 8) (size 9 to 14) (size 15 to 20)
#    0.000    3.231    0.769    1.385    0.000    2.462 
#    0.000    1.538    0.000    3.231    0.000    0.000 
#    0.000    0.000    0.000    0.000    0.000    0.000 
#
# Total GULP energy -644196.798843 kJ/mol
# GULP energy per Si atom -12388.399978 kJ/mol
# Density = 1.843222 g / cm^3
# Si number density = 18.474270 Si / 1000 Ang^3
#
#
#
# Elastic Constant Matrix: (Units=GPa)
#
#
# Indices 1 2 3 4 5 6 
#
# 1 42.0303 17.1472 52.9392 0.0000 0.0000 0.0000
# 2 17.1472 66.7701 45.7066 0.0000 0.0000 0.0000
# 3 52.9392 45.7066 183.1263 0.0000 0.0000 0.0000
# 4 0.0000 0.0000 0.0000 26.4880 0.0000 0.0000
# 5 0.0000 0.0000 0.0000 0.0000 29.4067 0.0000
# 6 0.0000 0.0000 0.0000 0.0000 0.0000 7.3026
#
#
#
# Elastic Compliance Matrix: (Units=1/GPa)
#
#
# Indices 1 2 3 4 5 6 
#
# 1 0.037812 -0.002687 -0.010260 0.000000 0.000000 0.000000
# 2 -0.002687 0.018254 -0.003779 0.000000 0.000000 0.000000
# 3 -0.010260 -0.003779 0.009370 0.000000 0.000000 0.000000
# 4 0.000000 0.000000 0.000000 0.037753 0.000000 0.000000
# 5 0.000000 0.000000 0.000000 0.000000 0.034006 0.000000
# 6 0.000000 0.000000 0.000000 0.000000 0.000000 0.136938
#
#
# Mechanical properties :
#
#
# Convention : Reuss Voigt Hill
#
# Bulk Modulus (GPa) = 31.26669 58.16807 44.71738
# Shear Modulus (GPa) = 15.71113 24.38171 20.04642
#
# Velocity S-wave (km/s) = 2.91938 3.63680 3.29766
# Velocity P-wave (km/s) = 5.32212 7.01352 6.22553
#
# Compressibility (1/GPa) = 0.03198292
#
# Stress axis : x y z
#
# Youngs Moduli (GPa) = 26.44682 54.78310 106.72297
#
# Poissons Ratio (x) = 0.14720 1.09500
# Poissons Ratio (y) = 0.07106 0.40333
# Poissons Ratio (z) = 0.27135 0.20704
#
# Static dielectric constant tensor:
#      x y z
#    x 3.128210 0.000000 0.000000 
#    y 0.000000 3.327630 0.000000 
#    z 0.000000 0.000000 3.758690 
# 
# 
# High freq. dielectric constant tensor:
#      x y z
#    x 1.650870 0.000000 0.000000 
#    y 0.000000 1.700560 0.000000 
#    z 0.000000 0.000000 1.731830 
# 
# From -- ./inp_files/37703.got.cif
#   From: 2010.03.12/outbox.cif.g09.slc.cpg/sg51_19_cif.got.tgz:37703.got - 2010.04.16 13:43:02.
