data_PCOD8211717
_publ_section_title
;
Structure prediction by ZEFSAII (Michael W. Deem and Ramdas Pophale) SiO2 
 PCOD8211717
Probable space group: P M M A
;
_chemical_formula_sum "Si O2"
_cell_formula_units_Z 64
_cell_length_a 17.941728
_cell_length_b 9.140577
_cell_length_c 21.323563
_cell_angle_alpha 90.000000
_cell_angle_beta 90.000000
_cell_angle_gamma 90.000000
_cell_volume 3497.016275
_symmetry_space_group_name_H-M "P M M A"
_symmetry_group_IT_number 51
_symmetry_cell_setting 'orthorhombic'
loop_
_space_group_symop_operation_xyz
x,y,z
1/2-x,-y,z
1/2+x,-y,-z
-x,y,-z
-x,-y,-z
1/2+x,y,-z
1/2-x,y,z
x,-y,z
loop_
_atom_site_type_symbol
_atom_site_label
_atom_site_fract_x
_atom_site_fract_y
_atom_site_fract_z
Si Si1 0.546332 0.166657 0.809944
Si Si2 0.336175 0.169665 0.389540
Si Si3 0.587998 0.334317 0.499819
Si Si4 0.335650 0.670877 0.263962
Si Si5 0.836899 0.669031 0.370050
Si Si6 0.165170 0.331408 0.871422
Si Si7 0.963188 0.829174 0.064500
Si Si8 0.109899 0.829639 0.751900
O O1 0.614933 0.271467 0.793444
O O2 0.521646 0.204657 0.880430
O O3 0.477795 0.195719 0.762902
O O4 0.573805 0.000000 0.804986
O O5 0.250000 0.202507 0.402582
O O6 0.381823 0.224856 0.448505
O O7 0.363410 0.252483 0.327454
O O8 0.352501 0.000000 0.379148
O O9 0.500000 0.321472 0.500000
O O10 0.613845 0.500000 0.515124
O O11 0.620111 0.285515 0.432913
O O12 0.250000 0.710014 0.249323
O O13 0.347960 0.500000 0.272330
O O14 0.750000 0.700934 0.379899
O O15 0.851377 0.500000 0.352796
O O16 0.869309 0.769704 0.315765
O O17 0.250000 0.315596 0.894614
O O18 0.142297 0.500000 0.863142
O O19 0.113104 0.258426 0.924144
O O20 0.157341 0.253534 0.804402
O O21 0.942562 0.000000 0.062865
O O22 0.000000 0.775789 0.000000
O O23 0.130354 0.000000 0.756439
#
# Coordination Sequence:
#
# PCOD8211717 Si02
#       8
#     8   8   8   8   8   8   8   8
#     4   9  19  35  55  81 110 140 175 219 270 316
#     4  10  21  37  57  79 104 137 176 222 275 325
#     4  10  22  38  55  78 105 138 181 225 270 322
#     4  10  21  36  56  81 107 139 180 224 270 322
#     4  10  21  36  53  75 107 143 176 218 272 326
#     4  10  20  34  54  82 114 147 185 226 269 319
#     4   9  19  37  59  83 112 147 187 226 266 318
#     4  10  21  35  54  81 110 141 179 224 271 322
#
# _framework density 18.301317000000001
#
# number of rings (size 3 to 8) (size 9 to 14) (size 15 to 20)
#    0.000    2.250    0.000    3.000    1.750    8.250 
#    0.000    0.625    0.000    3.750    0.000    0.000 
#    0.000    0.000    0.000    0.000    0.000    0.000 
#
# Total GULP energy -793876.889882 kJ/mol
# GULP energy per Si atom -12404.326404 kJ/mol
# Density = 1.825966 g / cm^3
# Si number density = 18.301317 Si / 1000 Ang^3
#
#
#
# Elastic Constant Matrix: (Units=GPa)
#
#
# Indices 1 2 3 4 5 6 
#
# 1 95.5101 59.6912 71.5747 0.0000 0.0000 0.0000
# 2 59.6912 99.3032 58.2478 0.0000 0.0000 0.0000
# 3 71.5747 58.2478 123.2319 0.0000 0.0000 0.0000
# 4 0.0000 0.0000 0.0000 30.2810 0.0000 0.0000
# 5 0.0000 0.0000 0.0000 0.0000 25.1591 0.0000
# 6 0.0000 0.0000 0.0000 0.0000 0.0000 26.7619
#
#
#
# Elastic Compliance Matrix: (Units=1/GPa)
#
#
# Indices 1 2 3 4 5 6 
#
# 1 0.022411 -0.008075 -0.009200 0.000000 0.000000 0.000000
# 2 -0.008075 0.016843 -0.003271 0.000000 0.000000 0.000000
# 3 -0.009200 -0.003271 0.015004 0.000000 0.000000 0.000000
# 4 0.000000 0.000000 0.000000 0.033024 0.000000 0.000000
# 5 0.000000 0.000000 0.000000 0.000000 0.039747 0.000000
# 6 0.000000 0.000000 0.000000 0.000000 0.000000 0.037367
#
#
# Mechanical properties :
#
#
# Convention : Reuss Voigt Hill
#
# Bulk Modulus (GPa) = 75.95074 77.45250 76.70162
# Shear Modulus (GPa) = 23.82359 25.00916 24.41638
#
# Velocity S-wave (km/s) = 3.61188 3.70066 3.65654
# Velocity P-wave (km/s) = 7.68014 7.78925 7.73489
#
# Compressibility (1/GPa) = 0.01316643
#
# Stress axis : x y z
#
# Youngs Moduli (GPa) = 44.62077 59.37305 66.64775
#
# Poissons Ratio (x) = 0.47944 0.61315
# Poissons Ratio (y) = 0.36031 0.21800
# Poissons Ratio (z) = 0.41051 0.19420
#
# Static dielectric constant tensor:
#      x y z
#    x 3.341380 0.000000 0.000000 
#    y 0.000000 3.416750 0.000000 
#    z 0.000000 0.000000 3.344570 
# 
# 
# High freq. dielectric constant tensor:
#      x y z
#    x 1.711120 0.000000 0.000000 
#    y 0.000000 1.715620 0.000000 
#    z 0.000000 0.000000 1.703170 
# 
# From -- ./inp_files/33851.got.cif
#   From: 2010.03.12/outbox.cif.g09.slc.cpg/sg51_17_cif.got.tgz:33851.got - 2010.04.16 13:43:02.
