data_PCOD8211916
_publ_section_title
;
Structure prediction by ZEFSAII (Michael W. Deem and Ramdas Pophale) SiO2 
 PCOD8211916
Probable space group: P M M A
;
_chemical_formula_sum "Si O2"
_cell_formula_units_Z 48
_cell_length_a 16.394708
_cell_length_b 8.733028
_cell_length_c 16.581382
_cell_angle_alpha 90.000000
_cell_angle_beta 90.000000
_cell_angle_gamma 90.000000
_cell_volume 2374.046730
_symmetry_space_group_name_H-M "P M M A"
_symmetry_group_IT_number 51
_symmetry_cell_setting 'orthorhombic'
loop_
_space_group_symop_operation_xyz
x,y,z
1/2-x,-y,z
1/2+x,-y,-z
-x,y,-z
-x,-y,-z
1/2+x,y,-z
1/2-x,y,z
x,-y,z
loop_
_atom_site_type_symbol
_atom_site_label
_atom_site_fract_x
_atom_site_fract_y
_atom_site_fract_z
Si Si1 0.580220 0.316743 0.951829
Si Si2 0.250000 0.320342 0.973111
Si Si3 0.845600 0.676190 0.621114
Si Si4 0.114456 0.673326 0.703263
Si Si5 0.845747 0.177526 0.455676
Si Si6 0.937429 0.326299 0.773099
Si Si7 0.750000 0.175541 0.197406
O O1 0.578137 0.500000 0.953060
O O2 0.576133 0.249727 0.860636
O O3 0.500000 0.255674 0.000000
O O4 0.665781 0.253820 0.988796
O O5 0.250000 0.500000 0.986432
O O6 0.250000 0.285128 0.879101
O O7 0.750000 0.691767 0.631518
O O8 0.873288 0.500000 0.610513
O O9 0.876332 0.769089 0.543352
O O10 0.885459 0.751810 0.701232
O O11 0.148982 0.500000 0.705282
O O12 0.104475 0.726482 0.610799
O O13 0.172381 0.791949 0.747818
O O14 0.031184 0.682416 0.750997
O O15 0.750000 0.212668 0.444864
O O16 0.865610 0.000000 0.445163
O O17 0.906389 0.500000 0.779924
O O18 0.750000 0.000000 0.169469
#
# Coordination Sequence:
#
# PCOD8211916 Si02
#       7
#     8   4   8   8   8   8   4
#     4   9  17  31  53  84 118 143 180 237 288 334
#     4  10  20  34  60  87 108 149 190 225 282 345
#     4   9  18  33  55  80 111 150 191 231 276 331
#     4  11  21  35  58  83 111 146 187 230 280 336
#     4  10  20  35  54  78 112 149 188 234 281 327
#     4   9  19  33  53  85 117 144 182 239 286 326
#     4  12  24  38  56  81 114 145 182 233 284 337
#
# _framework density 20.218641999999999
#
# number of rings (size 3 to 8) (size 9 to 14) (size 15 to 20)
#    0.000    2.167    0.833    2.750    1.167    4.000 
#    0.000    5.000    0.000    6.500    0.000    0.000 
#    0.000    0.000    0.000    0.000    0.000    0.000 
#
# Total GULP energy -595125.066881 kJ/mol
# GULP energy per Si atom -12398.438893 kJ/mol
# Density = 2.017262 g / cm^3
# Si number density = 20.218642 Si / 1000 Ang^3
#
#
#
# Elastic Constant Matrix: (Units=GPa)
#
#
# Indices 1 2 3 4 5 6 
#
# 1 84.6853 17.3843 53.7243 0.0000 0.0000 0.0000
# 2 17.3843 39.6418 15.3162 0.0000 0.0000 0.0000
# 3 53.7243 15.3162 168.6173 0.0000 0.0000 0.0000
# 4 0.0000 0.0000 0.0000 10.4130 0.0000 0.0000
# 5 0.0000 0.0000 0.0000 0.0000 31.8668 0.0000
# 6 0.0000 0.0000 0.0000 0.0000 0.0000 5.4341
#
#
#
# Elastic Compliance Matrix: (Units=1/GPa)
#
#
# Indices 1 2 3 4 5 6 
#
# 1 0.015753 -0.005150 -0.004551 0.000000 0.000000 0.000000
# 2 -0.005150 0.027827 -0.000887 0.000000 0.000000 0.000000
# 3 -0.004551 -0.000887 0.007461 0.000000 0.000000 0.000000
# 4 0.000000 0.000000 0.000000 0.096034 0.000000 0.000000
# 5 0.000000 0.000000 0.000000 0.000000 0.031381 0.000000
# 6 0.000000 0.000000 0.000000 0.000000 0.000000 0.184024
#
#
# Mechanical properties :
#
#
# Convention : Reuss Voigt Hill
#
# Bulk Modulus (GPa) = 33.48373 51.75488 42.61930
# Shear Modulus (GPa) = 12.70289 23.31075 18.00682
#
# Velocity S-wave (km/s) = 2.50926 3.39917 2.98754
# Velocity P-wave (km/s) = 4.99920 6.40773 5.74678
#
# Compressibility (1/GPa) = 0.02986525
#
# Stress axis : x y z
#
# Youngs Moduli (GPa) = 63.48018 35.93646 134.02507
#
# Poissons Ratio (x) = 0.18506 0.61000
# Poissons Ratio (y) = 0.32690 0.11886
# Poissons Ratio (z) = 0.28892 0.03187
#
# Static dielectric constant tensor:
#      x y z
#    x 3.920310 0.000000 0.000000 
#    y 0.000000 3.261220 0.000000 
#    z 0.000000 0.000000 3.965490 
# 
# 
# High freq. dielectric constant tensor:
#      x y z
#    x 1.787180 0.000000 0.000000 
#    y 0.000000 1.742320 0.000000 
#    z 0.000000 0.000000 1.810010 
# 
# From -- ./inp_files/24873.got.cif
#   From: 2010.03.12/outbox.cif.g09.slc.cpg/sg51_13_cif.got.tgz:24873.got - 2010.04.16 13:43:02.
