data_PCOD8211055
_publ_section_title
;
Structure prediction by ZEFSAII (Michael W. Deem and Ramdas Pophale) SiO2 
 PCOD8211055
Probable space group: P M M A
;
_chemical_formula_sum "Si O2"
_cell_formula_units_Z 56
_cell_length_a 20.496324
_cell_length_b 9.246390
_cell_length_c 15.139334
_cell_angle_alpha 90.000000
_cell_angle_beta 90.000000
_cell_angle_gamma 90.000000
_cell_volume 2869.161241
_symmetry_space_group_name_H-M "P M M A"
_symmetry_group_IT_number 51
_symmetry_cell_setting 'orthorhombic'
loop_
_space_group_symop_operation_xyz
x,y,z
1/2-x,-y,z
1/2+x,-y,-z
-x,y,-z
-x,-y,-z
1/2+x,y,-z
1/2-x,y,z
x,-y,z
loop_
_atom_site_type_symbol
_atom_site_label
_atom_site_fract_x
_atom_site_fract_y
_atom_site_fract_z
Si Si1 0.558471 0.328260 0.566953
Si Si2 0.679300 0.671564 0.947327
Si Si3 0.964711 0.671033 0.906461
Si Si4 0.631984 0.842921 0.294686
Si Si5 0.176780 0.659192 0.858405
Si Si6 0.323895 0.831185 0.519004
Si Si7 0.012623 0.837432 0.268714
O O1 0.500000 0.282334 0.500000
O O2 0.560540 0.500000 0.576746
O O3 0.627965 0.271625 0.533906
O O4 0.554350 0.260047 0.664631
O O5 0.750000 0.724750 0.905414
O O6 0.682732 0.500000 0.954544
O O7 0.612352 0.717841 0.899851
O O8 0.674331 0.735455 0.046291
O O9 0.972592 0.500000 0.890376
O O10 0.996366 0.760860 0.826792
O O11 0.000000 0.712138 0.000000
O O12 0.633878 0.743097 0.210311
O O13 0.671497 0.783228 0.378504
O O14 0.556153 0.851899 0.318395
O O15 0.660426 0.000000 0.269246
O O16 0.250000 0.652357 0.822044
O O17 0.145531 0.500000 0.865568
O O18 0.250000 0.805799 0.485694
O O19 0.344200 0.000000 0.509048
O O20 0.042235 0.000000 0.256663
#
# Coordination Sequence:
#
# PCOD8211055 Si02
#       7
#     8   8   8   8   8   8   8
#     4  11  23  40  63  89 116 150 195 246 293 345
#     4   8  15  30  51  74 103 143 187 231 285 342
#     4  10  20  35  57  85 116 150 192 246 298 346
#     4  10  20  33  51  77 111 149 186 227 282 349
#     4   9  17  29  48  75 106 142 185 231 281 341
#     4  10  21  38  60  85 117 156 194 236 290 353
#     4  11  23  38  59  84 113 153 197 241 292 355
#
# _framework density 19.517900000000001
#
# number of rings (size 3 to 8) (size 9 to 14) (size 15 to 20)
#    0.000    2.143    1.429    3.000    0.000    4.857 
#    0.000    1.429    0.000    3.857    0.000    0.000 
#    0.000    0.000    0.000    0.000    0.000    0.000 
#
# Total GULP energy -693812.889917 kJ/mol
# GULP energy per Si atom -12389.515891 kJ/mol
# Density = 1.947348 g / cm^3
# Si number density = 19.517900 Si / 1000 Ang^3
#
#
#
# Elastic Constant Matrix: (Units=GPa)
#
#
# Indices 1 2 3 4 5 6 
#
# 1 101.2295 28.3164 23.8776 0.0000 0.0000 0.0000
# 2 28.3164 76.2958 46.1531 0.0000 0.0000 0.0000
# 3 23.8776 46.1531 88.5301 0.0000 0.0000 0.0000
# 4 0.0000 0.0000 0.0000 39.9616 0.0000 0.0000
# 5 0.0000 0.0000 0.0000 0.0000 29.1176 0.0000
# 6 0.0000 0.0000 0.0000 0.0000 0.0000 19.8977
#
#
#
# Elastic Compliance Matrix: (Units=1/GPa)
#
#
# Indices 1 2 3 4 5 6 
#
# 1 0.011115 -0.003377 -0.001238 0.000000 0.000000 0.000000
# 2 -0.003377 0.020170 -0.009604 0.000000 0.000000 0.000000
# 3 -0.001238 -0.009604 0.016636 0.000000 0.000000 0.000000
# 4 0.000000 0.000000 0.000000 0.025024 0.000000 0.000000
# 5 0.000000 0.000000 0.000000 0.000000 0.034343 0.000000
# 6 0.000000 0.000000 0.000000 0.000000 0.000000 0.050257
#
#
# Mechanical properties :
#
#
# Convention : Reuss Voigt Hill
#
# Bulk Modulus (GPa) = 51.32350 51.41662 51.37006
# Shear Modulus (GPa) = 25.97703 28.97596 27.47649
#
# Velocity S-wave (km/s) = 3.65215 3.85721 3.75608
# Velocity P-wave (km/s) = 6.64357 6.79985 6.72216
#
# Compressibility (1/GPa) = 0.01948425
#
# Stress axis : x y z
#
# Youngs Moduli (GPa) = 89.96883 49.57853 60.10910
#
# Poissons Ratio (x) = 0.16741 0.07439
# Poissons Ratio (y) = 0.30379 0.57731
# Poissons Ratio (z) = 0.11134 0.47617
#
# Static dielectric constant tensor:
#      x y z
#    x 3.769620 0.000000 0.000000 
#    y 0.000000 3.387270 0.000000 
#    z 0.000000 0.000000 3.347300 
# 
# 
# High freq. dielectric constant tensor:
#      x y z
#    x 1.767050 0.000000 0.000000 
#    y 0.000000 1.738450 0.000000 
#    z 0.000000 0.000000 1.742740 
# 
# From -- ./inp_files/25726.got.cif
#   From: 2010.03.12/outbox.cif.g09.slc.cpg/sg51_13_cif.got.tgz:25726.got - 2010.04.16 13:43:02.
