data_PCOD8211489
_publ_section_title
;
Structure prediction by ZEFSAII (Michael W. Deem and Ramdas Pophale) SiO2 
 PCOD8211489
Probable space group: P M M A
;
_chemical_formula_sum "Si O2"
_cell_formula_units_Z 40
_cell_length_a 14.611182
_cell_length_b 14.233740
_cell_length_c 9.564147
_cell_angle_alpha 90.000000
_cell_angle_beta 90.000000
_cell_angle_gamma 90.000000
_cell_volume 1989.072539
_symmetry_space_group_name_H-M "P M M A"
_symmetry_group_IT_number 51
_symmetry_cell_setting 'orthorhombic'
loop_
_space_group_symop_operation_xyz
x,y,z
1/2-x,-y,z
1/2+x,-y,-z
-x,y,-z
-x,-y,-z
1/2+x,y,-z
1/2-x,y,z
x,-y,z
loop_
_atom_site_type_symbol
_atom_site_label
_atom_site_fract_x
_atom_site_fract_y
_atom_site_fract_z
Si Si1 0.350607 0.177515 0.256736
Si Si2 0.899979 0.733281 0.468214
Si Si3 0.952246 0.106625 0.260743
Si Si4 0.647015 0.602465 0.230273
Si Si5 0.644076 0.230141 0.051008
O O1 0.250000 0.126544 0.248721
O O2 0.346752 0.248769 0.387462
O O3 0.436621 0.107561 0.271712
O O4 0.366156 0.237040 0.115334
O O5 0.905997 0.830837 0.381476
O O6 0.851102 0.651089 0.382509
O O7 0.000000 0.694227 0.500000
O O8 0.915737 0.143286 0.110713
O O9 0.919842 0.000000 0.281799
O O10 0.750000 0.584995 0.182668
O O11 0.596923 0.500000 0.232702
O O12 0.601973 0.673990 0.117875
O O13 0.750000 0.216310 0.096911
#
# Coordination Sequence:
#
# PCOD8211489 Si02
#       5
#     8   8   8   8   8
#     4  10  20  34  53  77 107 139 171 215 265 305
#     4   9  19  34  53  74 102 135 171 214 259 309
#     4  10  21  37  55  75 103 141 180 214 254 310
#     4   9  17  32  54  76 100 134 173 210 253 309
#     4   9  19  35  54  77 106 139 175 215 259 307
#
# _framework density 20.109876
#
# number of rings (size 3 to 8) (size 9 to 14) (size 15 to 20)
#    0.000    2.600    0.000    1.200    0.000    7.200 
#    0.000    3.000    0.000   19.200    0.000    0.000 
#    0.000    0.000    0.000    0.000    0.000    0.000 
#
# Total GULP energy -495655.874883 kJ/mol
# GULP energy per Si atom -12391.396872 kJ/mol
# Density = 2.006410 g / cm^3
# Si number density = 20.109876 Si / 1000 Ang^3
#
#
#
# Elastic Constant Matrix: (Units=GPa)
#
#
# Indices 1 2 3 4 5 6 
#
# 1 70.3527 20.1636 15.9026 0.0000 0.0000 0.0000
# 2 20.1636 135.0434 39.5209 0.0000 0.0000 0.0000
# 3 15.9026 39.5209 132.3558 0.0000 0.0000 0.0000
# 4 0.0000 0.0000 0.0000 5.9121 0.0000 0.0000
# 5 0.0000 0.0000 0.0000 0.0000 23.8755 0.0000
# 6 0.0000 0.0000 0.0000 0.0000 0.0000 15.0828
#
#
#
# Elastic Compliance Matrix: (Units=1/GPa)
#
#
# Indices 1 2 3 4 5 6 
#
# 1 0.015034 -0.001881 -0.001245 0.000000 0.000000 0.000000
# 2 -0.001881 0.008349 -0.002267 0.000000 0.000000 0.000000
# 3 -0.001245 -0.002267 0.008382 0.000000 0.000000 0.000000
# 4 0.000000 0.000000 0.000000 0.169144 0.000000 0.000000
# 5 0.000000 0.000000 0.000000 0.000000 0.041884 0.000000
# 6 0.000000 0.000000 0.000000 0.000000 0.000000 0.066301
#
#
# Mechanical properties :
#
#
# Convention : Reuss Voigt Hill
#
# Bulk Modulus (GPa) = 47.66296 54.32511 50.99404
# Shear Modulus (GPa) = 15.29645 26.45173 20.87409
#
# Velocity S-wave (km/s) = 2.76097 3.63072 3.22530
# Velocity P-wave (km/s) = 5.82380 6.68199 6.26760
#
# Compressibility (1/GPa) = 0.02098065
#
# Stress axis : x y z
#
# Youngs Moduli (GPa) = 66.51385 119.77074 119.30446
#
# Poissons Ratio (x) = 0.22523 0.14852
# Poissons Ratio (y) = 0.12508 0.27048
# Poissons Ratio (z) = 0.08280 0.27153
#
# Static dielectric constant tensor:
#      x y z
#    x 3.736850 0.000000 0.000000 
#    y 0.000000 3.549320 0.000000 
#    z 0.000000 0.000000 3.773440 
# 
# 
# High freq. dielectric constant tensor:
#      x y z
#    x 1.782080 0.000000 0.000000 
#    y 0.000000 1.750070 0.000000 
#    z 0.000000 0.000000 1.793760 
# 
# From -- ./inp_files/7956.got.cif
#   From: 2010.03.12/outbox.cif.g09.slc.cpg/sg51_4_cif.got.tgz:7956.got - 2010.04.16 13:43:02.
