data_PCOD8212216
_publ_section_title
;
Structure prediction by ZEFSAII (Michael W. Deem and Ramdas Pophale) SiO2 
 PCOD8212216
Probable space group: P M M A
;
_chemical_formula_sum "Si O2"
_cell_formula_units_Z 40
_cell_length_a 25.260743
_cell_length_b 8.988556
_cell_length_c 9.139794
_cell_angle_alpha 90.000000
_cell_angle_beta 90.000000
_cell_angle_gamma 90.000000
_cell_volume 2075.259718
_symmetry_space_group_name_H-M "P M M A"
_symmetry_group_IT_number 51
_symmetry_cell_setting 'orthorhombic'
loop_
_space_group_symop_operation_xyz
x,y,z
1/2-x,-y,z
1/2+x,-y,-z
-x,y,-z
-x,-y,-z
1/2+x,y,-z
1/2-x,y,z
x,-y,z
loop_
_atom_site_type_symbol
_atom_site_label
_atom_site_fract_x
_atom_site_fract_y
_atom_site_fract_z
Si Si1 0.188636 0.170789 0.830730
Si Si2 0.900513 0.324683 0.338369
Si Si3 0.095500 0.174258 0.354013
Si Si4 0.691471 0.176991 0.840446
Si Si5 0.007966 0.828630 0.831416
O O1 0.250000 0.185826 0.789417
O O2 0.156405 0.269023 0.716129
O O3 0.170014 0.000000 0.817094
O O4 0.178236 0.231395 0.995125
O O5 0.899883 0.500000 0.349669
O O6 0.913529 0.259478 0.496434
O O7 0.945346 0.274355 0.225966
O O8 0.148021 0.237184 0.273230
O O9 0.046018 0.208646 0.251349
O O10 0.101152 0.000000 0.387372
O O11 0.750000 0.234000 0.793152
O O12 0.690967 0.000000 0.843722
O O13 0.024423 0.000000 0.808627
O O14 0.000000 0.790584 0.000000
#
# Coordination Sequence:
#
# PCOD8212216 Si02
#       5
#     8   8   8   8   8
#     4   9  18  36  62  86 108 140 186 235 277 322
#     4  12  25  37  52  79 118 154 182 220 272 333
#     4  10  20  35  57  83 111 144 183 227 273 323
#     4   8  15  31  58  88 110 132 174 231 281 323
#     4  10  21  39  63  85 105 136 185 239 281 324
#
# _framework density 19.274697
#
# number of rings (size 3 to 8) (size 9 to 14) (size 15 to 20)
#    0.000    2.200    0.000    4.800    0.000    8.000 
#    0.000    5.000    0.000    1.200    0.000    0.000 
#    0.000    0.000    0.000    0.000    0.000    0.000 
#
# Total GULP energy -496085.776357 kJ/mol
# GULP energy per Si atom -12402.144409 kJ/mol
# Density = 1.923083 g / cm^3
# Si number density = 19.274697 Si / 1000 Ang^3
#
#
#
# Elastic Constant Matrix: (Units=GPa)
#
#
# Indices 1 2 3 4 5 6 
#
# 1 110.8492 46.1853 59.1884 0.0000 0.0000 0.0000
# 2 46.1853 71.3870 45.7658 0.0000 0.0000 0.0000
# 3 59.1884 45.7658 122.5470 0.0000 0.0000 0.0000
# 4 0.0000 0.0000 0.0000 -3.4662 0.0000 0.0000
# 5 0.0000 0.0000 0.0000 0.0000 22.9885 0.0000
# 6 0.0000 0.0000 0.0000 0.0000 0.0000 15.2802
#
#
#
# Elastic Compliance Matrix: (Units=1/GPa)
#
#
# Indices 1 2 3 4 5 6 
#
# 1 0.013970 -0.006196 -0.004433 0.000000 0.000000 0.000000
# 2 -0.006196 0.021166 -0.004912 0.000000 0.000000 0.000000
# 3 -0.004433 -0.004912 0.012136 0.000000 0.000000 0.000000
# 4 0.000000 0.000000 0.000000 -0.288498 0.000000 0.000000
# 5 0.000000 0.000000 0.000000 0.000000 0.043500 0.000000
# 6 0.000000 0.000000 0.000000 0.000000 0.000000 0.065444
#
#
# Mechanical properties :
#
#
# Convention : Reuss Voigt Hill
#
# Bulk Modulus (GPa) = 61.77025 67.45136 64.61080
# Shear Modulus (GPa) = -52.19042 17.20340 -17.49351
#
# Velocity S-wave (km/s) = -5.20922 2.99078 -3.01589
# Velocity P-wave (km/s) = 2.01603 6.85544 4.63318
#
# Compressibility (1/GPa) = 0.01618902
#
# Stress axis : x y z
#
# Youngs Moduli (GPa) = 71.58163 47.24612 82.40092
#
# Poissons Ratio (x) = 0.29274 0.36532
# Poissons Ratio (y) = 0.44352 0.40474
# Poissons Ratio (z) = 0.31735 0.23207
#
# Static dielectric constant tensor:
#      x y z
#    x 3.790850 0.000000 0.000000 
#    y 0.000000 3.171810 0.000000 
#    z 0.000000 0.000000 3.585840 
# 
# 
# High freq. dielectric constant tensor:
#      x y z
#    x 1.766790 0.000000 0.000000 
#    y 0.000000 1.709650 0.000000 
#    z 0.000000 0.000000 1.758200 
# 
# From -- ./inp_files/11418.got.cif
#   From: 2010.03.12/outbox.cif.g09.slc.cpg/sg51_6_cif.got.tgz:11418.got - 2010.04.16 13:43:02.
