data_PCOD8212341
_publ_section_title
;
Structure prediction by ZEFSAII (Michael W. Deem and Ramdas Pophale) SiO2 
 PCOD8212341
Probable space group: P M M A
;
_chemical_formula_sum "Si O2"
_cell_formula_units_Z 40
_cell_length_a 8.711675
_cell_length_b 25.139804
_cell_length_c 10.115205
_cell_angle_alpha 90.000000
_cell_angle_beta 90.000000
_cell_angle_gamma 90.000000
_cell_volume 2215.329044
_symmetry_space_group_name_H-M "P M M A"
_symmetry_group_IT_number 51
_symmetry_cell_setting 'orthorhombic'
loop_
_space_group_symop_operation_xyz
x,y,z
1/2-x,-y,z
1/2+x,-y,-z
-x,y,-z
-x,-y,-z
1/2+x,y,-z
1/2-x,y,z
x,-y,z
loop_
_atom_site_type_symbol
_atom_site_label
_atom_site_fract_x
_atom_site_fract_y
_atom_site_fract_z
Si Si1 0.068199 0.836289 0.647007
Si Si2 0.930313 0.636998 0.863856
Si Si3 0.431507 0.560147 0.362221
Si Si4 0.929584 0.057594 0.643926
Si Si5 0.931451 0.240942 0.860520
O O1 0.250000 0.833752 0.639181
O O2 0.000000 0.829656 0.500000
O O3 0.014510 0.892639 0.713428
O O4 0.006651 0.789842 0.739366
O O5 0.750000 0.630861 0.873606
O O6 0.997640 0.599679 0.748744
O O7 0.977529 0.697816 0.836964
O O8 0.000000 0.616024 0.000000
O O9 0.500000 0.579871 0.500000
O O10 0.250000 0.563864 0.371246
O O11 0.485102 0.500000 0.329818
O O12 0.750000 0.070660 0.633769
O O13 0.000000 0.052854 0.500000
O O14 0.955883 0.000000 0.716282
O O15 0.750000 0.231818 0.861766
O O16 0.000000 0.220776 0.000000
#
# Coordination Sequence:
#
# PCOD8212341 Si02
#       5
#     8   8   8   8   8
#     4  11  21  33  51  76 104 134 170 211 254 299
#     4   9  19  34  52  74  99 129 165 206 248 294
#     4   9  18  33  51  73 102 133 165 202 246 295
#     4   9  16  27  45  70 100 132 165 204 250 297
#     4  10  20  36  54  73 100 133 170 209 254 306
#
# _framework density 18.056007999999999
#
# number of rings (size 3 to 8) (size 9 to 14) (size 15 to 20)
#    0.000    2.400    0.000    4.200    0.000    4.000 
#    0.000    2.000    0.000    0.600    0.000    0.000 
#    0.000    0.000    0.000    0.000    0.000    0.000 
#
# Total GULP energy -495831.340593 kJ/mol
# GULP energy per Si atom -12395.783515 kJ/mol
# Density = 1.801491 g / cm^3
# Si number density = 18.056008 Si / 1000 Ang^3
#
#
#
# Elastic Constant Matrix: (Units=GPa)
#
#
# Indices 1 2 3 4 5 6 
#
# 1 84.4721 43.5335 44.5342 0.0000 0.0000 0.0000
# 2 43.5335 113.9299 84.9109 0.0000 0.0000 0.0000
# 3 44.5342 84.9109 122.1426 0.0000 0.0000 0.0000
# 4 0.0000 0.0000 0.0000 8.3720 0.0000 0.0000
# 5 0.0000 0.0000 0.0000 0.0000 30.3986 0.0000
# 6 0.0000 0.0000 0.0000 0.0000 0.0000 21.9138
#
#
#
# Elastic Compliance Matrix: (Units=1/GPa)
#
#
# Indices 1 2 3 4 5 6 
#
# 1 0.015301 -0.003504 -0.003143 0.000000 0.000000 0.000000
# 2 -0.003504 0.019017 -0.011942 0.000000 0.000000 0.000000
# 3 -0.003143 -0.011942 0.017635 0.000000 0.000000 0.000000
# 4 0.000000 0.000000 0.000000 0.119446 0.000000 0.000000
# 5 0.000000 0.000000 0.000000 0.000000 0.032896 0.000000
# 6 0.000000 0.000000 0.000000 0.000000 0.000000 0.045633
#
#
# Mechanical properties :
#
#
# Convention : Reuss Voigt Hill
#
# Bulk Modulus (GPa) = 67.68620 74.05575 70.87097
# Shear Modulus (GPa) = 17.12133 21.97459 19.54796
#
# Velocity S-wave (km/s) = 3.08268 3.49237 3.29390
# Velocity P-wave (km/s) = 7.08793 7.57402 7.33500
#
# Compressibility (1/GPa) = 0.01477406
#
# Stress axis : x y z
#
# Youngs Moduli (GPa) = 65.35463 52.58447 56.70490
#
# Poissons Ratio (x) = 0.18428 0.17821
# Poissons Ratio (y) = 0.22903 0.67720
# Poissons Ratio (z) = 0.20539 0.62799
#
# Static dielectric constant tensor:
#      x y z
#    x 3.323580 0.000000 0.000000 
#    y 0.000000 3.929560 0.000000 
#    z 0.000000 0.000000 2.506630 
# 
# 
# High freq. dielectric constant tensor:
#      x y z
#    x 1.707110 0.000000 0.000000 
#    y 0.000000 1.711770 0.000000 
#    z 0.000000 0.000000 1.671850 
# 
# From -- ./inp_files/5494.got.cif
#   From: 2010.03.12/outbox.cif.g09.slc.cpg/sg51_3_cif.got.tgz:5494.got - 2010.04.16 13:43:02.
