data_PCOD8212220
_publ_section_title
;
Structure prediction by ZEFSAII (Michael W. Deem and Ramdas Pophale) SiO2 
 PCOD8212220
Probable space group: P M M A
;
_chemical_formula_sum "Si O2"
_cell_formula_units_Z 48
_cell_length_a 18.932263
_cell_length_b 9.151253
_cell_length_c 14.938400
_cell_angle_alpha 90.000000
_cell_angle_beta 90.000000
_cell_angle_gamma 90.000000
_cell_volume 2588.136487
_symmetry_space_group_name_H-M "P M M A"
_symmetry_group_IT_number 51
_symmetry_cell_setting 'orthorhombic'
loop_
_space_group_symop_operation_xyz
x,y,z
1/2-x,-y,z
1/2+x,-y,-z
-x,y,-z
-x,-y,-z
1/2+x,y,-z
1/2-x,y,z
x,-y,z
loop_
_atom_site_type_symbol
_atom_site_label
_atom_site_fract_x
_atom_site_fract_y
_atom_site_fract_z
Si Si1 0.426623 0.672877 0.543715
Si Si2 0.331191 0.830862 0.886812
Si Si3 0.167654 0.830341 0.406120
Si Si4 0.168868 0.671651 0.065820
Si Si5 0.933582 0.168005 0.271573
Si Si6 0.406286 0.832038 0.224249
O O1 0.500000 0.726116 0.500000
O O2 0.420170 0.500000 0.543340
O O3 0.361535 0.738554 0.488874
O O4 0.422064 0.728990 0.644248
O O5 0.250000 0.797463 0.863264
O O6 0.376978 0.782269 0.802008
O O7 0.343564 0.000000 0.909741
O O8 0.356699 0.739404 0.972270
O O9 0.250000 0.797968 0.395938
O O10 0.129365 0.777426 0.315912
O O11 0.151857 0.000000 0.424401
O O12 0.250000 0.714910 0.084663
O O13 0.158147 0.500000 0.060402
O O14 0.121055 0.733381 0.144328
O O15 0.010386 0.190522 0.229752
O O16 0.922278 0.000000 0.300903
O O17 0.385729 0.000000 0.205618
#
# Coordination Sequence:
#
# PCOD8212220 Si02
#       6
#     8   8   8   8   8   8
#     4  11  23  38  57  82 115 153 187 225 282 344
#     4   9  19  37  59  82 109 143 186 233 277 326
#     4  10  21  37  59  85 111 146 193 238 280 331
#     4  10  21  36  55  80 112 150 186 225 279 337
#     4  10  21  37  60  85 110 146 190 235 281 331
#     4  10  20  35  57  83 112 146 186 233 281 332
#
# _framework density 18.546164000000001
#
# number of rings (size 3 to 8) (size 9 to 14) (size 15 to 20)
#    0.000    2.000    1.667    1.500    0.000    6.000 
#    0.000    5.000    0.000    0.000    0.000    0.000 
#    0.000    0.000    0.000    0.000    0.000    0.000 
#
# Total GULP energy -595480.432038 kJ/mol
# GULP energy per Si atom -12405.842334 kJ/mol
# Density = 1.850395 g / cm^3
# Si number density = 18.546164 Si / 1000 Ang^3
#
#
#
# Elastic Constant Matrix: (Units=GPa)
#
#
# Indices 1 2 3 4 5 6 
#
# 1 83.8461 37.6361 56.0191 0.0000 0.0000 0.0000
# 2 37.6361 66.5483 59.0408 0.0000 0.0000 0.0000
# 3 56.0191 59.0408 135.4585 0.0000 0.0000 0.0000
# 4 0.0000 0.0000 0.0000 11.4729 0.0000 0.0000
# 5 0.0000 0.0000 0.0000 0.0000 35.0320 0.0000
# 6 0.0000 0.0000 0.0000 0.0000 0.0000 21.7133
#
#
#
# Elastic Compliance Matrix: (Units=1/GPa)
#
#
# Indices 1 2 3 4 5 6 
#
# 1 0.017731 -0.005743 -0.004830 0.000000 0.000000 0.000000
# 2 -0.005743 0.026361 -0.009115 0.000000 0.000000 0.000000
# 3 -0.004830 -0.009115 0.013352 0.000000 0.000000 0.000000
# 4 0.000000 0.000000 0.000000 0.087162 0.000000 0.000000
# 5 0.000000 0.000000 0.000000 0.000000 0.028545 0.000000
# 6 0.000000 0.000000 0.000000 0.000000 0.000000 0.046055
#
#
# Mechanical properties :
#
#
# Convention : Reuss Voigt Hill
#
# Bulk Modulus (GPa) = 55.34043 65.69389 60.51716
# Shear Modulus (GPa) = 18.89614 22.52079 20.70846
#
# Velocity S-wave (km/s) = 3.19544 3.48848 3.34517
# Velocity P-wave (km/s) = 6.59686 7.19199 6.90084
#
# Compressibility (1/GPa) = 0.01806997
#
# Stress axis : x y z
#
# Youngs Moduli (GPa) = 56.39755 37.93481 74.89335
#
# Poissons Ratio (x) = 0.21786 0.36171
# Poissons Ratio (y) = 0.32389 0.68262
# Poissons Ratio (z) = 0.27238 0.34576
#
# Static dielectric constant tensor:
#      x y z
#    x 3.474590 0.000000 0.000000 
#    y 0.000000 3.338050 0.000000 
#    z 0.000000 0.000000 3.416610 
# 
# 
# High freq. dielectric constant tensor:
#      x y z
#    x 1.723910 0.000000 0.000000 
#    y 0.000000 1.715160 0.000000 
#    z 0.000000 0.000000 1.726850 
# 
# From -- ./inp_files/24695.got.cif
#   From: 2010.03.12/outbox.cif.g09.slc.cpg/sg51_13_cif.got.tgz:24695.got - 2010.04.16 13:43:02.
