data_PCOD8212770
_publ_section_title
;
Structure prediction by ZEFSAII (Michael W. Deem and Ramdas Pophale) SiO2 
 PCOD8212770
Probable space group: P M M A
;
_chemical_formula_sum "Si O2"
_cell_formula_units_Z 40
_cell_length_a 22.869883
_cell_length_b 9.066254
_cell_length_c 10.115360
_cell_angle_alpha 90.000000
_cell_angle_beta 90.000000
_cell_angle_gamma 90.000000
_cell_volume 2097.360906
_symmetry_space_group_name_H-M "P M M A"
_symmetry_group_IT_number 51
_symmetry_cell_setting 'orthorhombic'
loop_
_space_group_symop_operation_xyz
x,y,z
1/2-x,-y,z
1/2+x,-y,-z
-x,y,-z
-x,-y,-z
1/2+x,y,-z
1/2-x,y,z
x,-y,z
loop_
_atom_site_type_symbol
_atom_site_label
_atom_site_fract_x
_atom_site_fract_y
_atom_site_fract_z
Si Si1 0.876666 0.829812 0.964985
Si Si2 0.250000 0.833025 0.119616
Si Si3 0.750000 0.325949 0.606336
Si Si4 0.129419 0.671605 0.516793
Si Si5 0.570247 0.826064 0.244734
Si Si6 0.553499 0.671742 0.738823
O O1 0.806963 0.803065 0.970079
O O2 0.903627 0.729184 0.851602
O O3 0.891999 0.000000 0.934549
O O4 0.903108 0.780220 0.104166
O O5 0.250000 0.729041 0.245042
O O6 0.250000 0.000000 0.172900
O O7 0.750000 0.500000 0.616654
O O8 0.692608 0.270124 0.530044
O O9 0.131245 0.500000 0.555174
O O10 0.113214 0.765408 0.644098
O O11 0.082304 0.700618 0.402779
O O12 0.506862 0.756978 0.258261
O O13 0.564876 0.000000 0.260169
O O14 0.541694 0.500000 0.762754
#
# Coordination Sequence:
#
# PCOD8212770 Si02
#       6
#     8   4   4   8   8   8
#     4  10  22  39  59  86 118 152 191 239 290 342
#     4  10  20  37  62  86 112 148 192 237 284 344
#     4  10  20  39  62  86 116 148 190 241 290 342
#     4  10  22  39  60  86 117 151 191 240 290 343
#     4  11  24  39  57  85 122 157 193 239 290 344
#     4  11  22  38  62  87 115 154 198 241 287 345
#
# _framework density 19.071587999999998
#
# number of rings (size 3 to 8) (size 9 to 14) (size 15 to 20)
#    0.000    1.600    2.000    2.400    0.000    9.600 
#    0.000    1.000    0.000    0.000    0.000    0.000 
#    0.000    0.000    0.000    0.000    0.000    0.000 
#
# Total GULP energy -496186.240743 kJ/mol
# GULP energy per Si atom -12404.656019 kJ/mol
# Density = 1.902818 g / cm^3
# Si number density = 19.071588 Si / 1000 Ang^3
#
#
#
# Elastic Constant Matrix: (Units=GPa)
#
#
# Indices 1 2 3 4 5 6 
#
# 1 94.6320 9.6634 -2.6653 0.0000 0.0000 0.0000
# 2 9.6634 46.3692 22.1812 0.0000 0.0000 0.0000
# 3 -2.6653 22.1812 57.7302 0.0000 0.0000 0.0000
# 4 0.0000 0.0000 0.0000 41.1678 0.0000 0.0000
# 5 0.0000 0.0000 0.0000 0.0000 65.1856 0.0000
# 6 0.0000 0.0000 0.0000 0.0000 0.0000 -8.6477
#
#
#
# Elastic Compliance Matrix: (Units=1/GPa)
#
#
# Indices 1 2 3 4 5 6 
#
# 1 0.010930 -0.003087 0.001691 0.000000 0.000000 0.000000
# 2 -0.003087 0.027294 -0.010629 0.000000 0.000000 0.000000
# 3 0.001691 -0.010629 0.021484 0.000000 0.000000 0.000000
# 4 0.000000 0.000000 0.000000 0.024291 0.000000 0.000000
# 5 0.000000 0.000000 0.000000 0.000000 0.015341 0.000000
# 6 0.000000 0.000000 0.000000 0.000000 0.000000 -0.115638
#
#
# Mechanical properties :
#
#
# Convention : Reuss Voigt Hill
#
# Bulk Modulus (GPa) = 28.04482 28.56558 28.30520
# Shear Modulus (GPa) = 254.60218 30.84462 142.72340
#
# Velocity S-wave (km/s) = 11.56667 4.02594 8.66014
# Velocity P-wave (km/s) = 13.89679 6.05157 10.71780
#
# Compressibility (1/GPa) = 0.03565720
#
# Stress axis : x y z
#
# Youngs Moduli (GPa) = 91.49097 36.63812 46.54610
#
# Poissons Ratio (x) = 0.11308 -0.07869
# Poissons Ratio (y) = 0.28239 0.49476
# Poissons Ratio (z) = -0.15467 0.38944
#
# Static dielectric constant tensor:
#      x y z
#    x 3.835870 0.000000 0.000000 
#    y 0.000000 3.516070 0.000000 
#    z 0.000000 0.000000 3.497190 
# 
# 
# High freq. dielectric constant tensor:
#      x y z
#    x 1.761530 0.000000 0.000000 
#    y 0.000000 1.743420 0.000000 
#    z 0.000000 0.000000 1.743090 
# 
# From -- ./inp_files/18007.got.cif
#   From: 2010.03.12/outbox.cif.g09.slc.cpg/sg51_10_cif.got.tgz:18007.got - 2010.04.16 13:43:02.
