data_PCOD8212575
_publ_section_title
;
Structure prediction by ZEFSAII (Michael W. Deem and Ramdas Pophale) SiO2 
 PCOD8212575
Probable space group: P M M A
;
_chemical_formula_sum "Si O2"
_cell_formula_units_Z 48
_cell_length_a 7.669705
_cell_length_b 9.234590
_cell_length_c 34.331018
_cell_angle_alpha 90.000000
_cell_angle_beta 90.000000
_cell_angle_gamma 90.000000
_cell_volume 2431.548630
_symmetry_space_group_name_H-M "P M M A"
_symmetry_group_IT_number 51
_symmetry_cell_setting 'orthorhombic'
loop_
_space_group_symop_operation_xyz
x,y,z
1/2-x,-y,z
1/2+x,-y,-z
-x,y,-z
-x,-y,-z
1/2+x,y,-z
1/2-x,y,z
x,-y,z
loop_
_atom_site_type_symbol
_atom_site_label
_atom_site_fract_x
_atom_site_fract_y
_atom_site_fract_z
Si Si1 0.949841 0.157725 0.612325
Si Si2 0.057340 0.671882 0.771439
Si Si3 0.455070 0.662045 0.685282
Si Si4 0.250000 0.173476 0.090532
Si Si5 0.454859 0.339046 0.458169
Si Si6 0.250000 0.672497 0.172480
Si Si7 0.452355 0.666983 0.955386
O O1 0.750000 0.136957 0.601215
O O2 0.040232 0.247260 0.577152
O O3 0.958663 0.236266 0.653596
O O4 0.040603 0.000000 0.615391
O O5 0.250000 0.732394 0.782491
O O6 0.065224 0.500000 0.769571
O O7 0.000313 0.724973 0.728327
O O8 0.919958 0.722852 0.803608
O O9 0.250000 0.659561 0.679062
O O10 0.531501 0.500000 0.680381
O O11 0.250000 0.235709 0.133625
O O12 0.425533 0.229396 0.069882
O O13 0.250000 0.000000 0.090594
O O14 0.500000 0.267070 0.500000
O O15 0.250000 0.348721 0.452241
O O16 0.537880 0.500000 0.456542
O O17 0.250000 0.500000 0.164137
O O18 0.250000 0.706843 0.947935
O O19 0.488415 0.500000 0.943865
O O20 0.500000 0.693096 0.000000
#
# Coordination Sequence:
#
# PCOD8212575 Si02
#       7
#     8   8   8   4   8   4   8
#     4  10  21  34  48  72 105 137 170 208 252 314
#     4   8  16  32  55  84 111 136 182 245 293 334
#     4   9  18  33  54  80 106 132 169 221 276 323
#     4  12  26  40  56  88 134 170 202 246 302 372
#     4   9  18  33  51  70  93 125 166 211 257 306
#     4  10  20  36  60  84 110 154 206 246 292 346
#     4  10  20  39  67  93 119 156 207 262 308 355
#
# _framework density 19.740507000000001
#
# number of rings (size 3 to 8) (size 9 to 14) (size 15 to 20)
#    0.000    2.500    0.833    2.250    1.167    3.667 
#    0.000    4.167    0.000    1.000    0.000    0.000 
#    0.000    0.000    0.000    0.000    0.000    0.000 
#
# Total GULP energy -594994.245710 kJ/mol
# GULP energy per Si atom -12395.713452 kJ/mol
# Density = 1.969558 g / cm^3
# Si number density = 19.740507 Si / 1000 Ang^3
#
#
#
# Elastic Constant Matrix: (Units=GPa)
#
#
# Indices 1 2 3 4 5 6 
#
# 1 90.4424 44.3807 63.0914 0.0000 0.0000 0.0000
# 2 44.3807 109.1523 76.8568 0.0000 0.0000 0.0000
# 3 63.0914 76.8568 159.8518 0.0000 0.0000 0.0000
# 4 0.0000 0.0000 0.0000 0.7324 0.0000 0.0000
# 5 0.0000 0.0000 0.0000 0.0000 27.1391 0.0000
# 6 0.0000 0.0000 0.0000 0.0000 0.0000 14.5160
#
#
#
# Elastic Compliance Matrix: (Units=1/GPa)
#
#
# Indices 1 2 3 4 5 6 
#
# 1 0.015921 -0.003097 -0.004795 0.000000 0.000000 0.000000
# 2 -0.003097 0.014453 -0.005727 0.000000 0.000000 0.000000
# 3 -0.004795 -0.005727 0.010902 0.000000 0.000000 0.000000
# 4 0.000000 0.000000 0.000000 1.365343 0.000000 0.000000
# 5 0.000000 0.000000 0.000000 0.000000 0.036847 0.000000
# 6 0.000000 0.000000 0.000000 0.000000 0.000000 0.068889
#
#
# Mechanical properties :
#
#
# Convention : Reuss Voigt Hill
#
# Bulk Modulus (GPa) = 71.23206 80.90050 76.06628
# Shear Modulus (GPa) = 3.23777 20.15200 11.69489
#
# Velocity S-wave (km/s) = 1.28208 3.19853 2.43663
# Velocity P-wave (km/s) = 6.19308 7.39674 6.82151
#
# Compressibility (1/GPa) = 0.01403862
#
# Stress axis : x y z
#
# Youngs Moduli (GPa) = 62.80834 69.18920 91.73026
#
# Poissons Ratio (x) = 0.21431 0.43982
# Poissons Ratio (y) = 0.19455 0.52530
# Poissons Ratio (z) = 0.30115 0.39621
#
# Static dielectric constant tensor:
#      x y z
#    x 4.563290 0.000000 0.000000 
#    y 0.000000 3.565500 0.000000 
#    z 0.000000 0.000000 3.710970 
# 
# 
# High freq. dielectric constant tensor:
#      x y z
#    x 1.768820 0.000000 0.000000 
#    y 0.000000 1.737140 0.000000 
#    z 0.000000 0.000000 1.775110 
# 
# From -- ./inp_files/37112.got.cif
#   From: 2010.03.12/outbox.cif.g09.slc.cpg/sg51_19_cif.got.tgz:37112.got - 2010.04.16 13:43:02.
