data_PCOD8212654
_publ_section_title
;
Structure prediction by ZEFSAII (Michael W. Deem and Ramdas Pophale) SiO2 
 PCOD8212654
Probable space group: P M M A
;
_chemical_formula_sum "Si O2"
_cell_formula_units_Z 48
_cell_length_a 17.486618
_cell_length_b 17.883961
_cell_length_c 7.745694
_cell_angle_alpha 90.000000
_cell_angle_beta 90.000000
_cell_angle_gamma 90.000000
_cell_volume 2422.310841
_symmetry_space_group_name_H-M "P M M A"
_symmetry_group_IT_number 51
_symmetry_cell_setting 'orthorhombic'
loop_
_space_group_symop_operation_xyz
x,y,z
1/2-x,-y,z
1/2+x,-y,-z
-x,y,-z
-x,-y,-z
1/2+x,y,-z
1/2-x,y,z
x,-y,z
loop_
_atom_site_type_symbol
_atom_site_label
_atom_site_fract_x
_atom_site_fract_y
_atom_site_fract_z
Si Si1 0.404871 0.847792 0.649085
Si Si2 0.838884 0.147742 0.991626
Si Si3 0.065649 0.914966 0.305660
Si Si4 0.339227 0.316147 0.019847
Si Si5 0.839600 0.312501 0.364193
Si Si6 0.659065 0.416423 0.675017
O O1 0.493377 0.859455 0.700980
O O2 0.384963 0.895394 0.477190
O O3 0.389412 0.761301 0.604865
O O4 0.352932 0.875085 0.809164
O O5 0.750000 0.140381 0.950350
O O6 0.883689 0.092950 0.864901
O O7 0.870734 0.231802 0.960341
O O8 0.036470 0.000000 0.316161
O O9 0.250000 0.312475 0.057239
O O10 0.355634 0.345946 0.826619
O O11 0.376320 0.371708 0.160891
O O12 0.750000 0.291339 0.384268
O O13 0.865864 0.374868 0.500082
O O14 0.750000 0.420508 0.687990
O O15 0.624500 0.500000 0.673700
#
# Coordination Sequence:
#
# PCOD8212654 Si02
#       6
#     8   8   8   8   8   8
#     4  10  20  37  58  77 105 146 185 224 270 320
#     4  10  21  37  58  82 107 140 182 227 274 324
#     4  11  24  39  56  81 111 141 177 224 276 334
#     4   8  15  28  45  67  96 130 169 211 255 307
#     4   9  17  30  50  75 102 137 184 230 265 306
#     4   9  16  25  41  70 108 143 171 211 270 322
#
# _framework density 19.815788000000001
#
# number of rings (size 3 to 8) (size 9 to 14) (size 15 to 20)
#    0.000    2.500    0.000    4.000    0.000    5.667 
#    0.000    3.333    0.000    4.500    0.000    9.333 
#    0.000   26.667    0.000    0.000    0.000    0.000 
#
# Total GULP energy -595065.606056 kJ/mol
# GULP energy per Si atom -12397.200126 kJ/mol
# Density = 1.977069 g / cm^3
# Si number density = 19.815788 Si / 1000 Ang^3
#
#
#
# Elastic Constant Matrix: (Units=GPa)
#
#
# Indices 1 2 3 4 5 6 
#
# 1 41.0381 36.7136 21.0832 0.0000 0.0000 0.0000
# 2 36.7136 121.4355 65.7410 0.0000 0.0000 0.0000
# 3 21.0832 65.7410 129.1169 0.0000 0.0000 0.0000
# 4 0.0000 0.0000 0.0000 20.8422 0.0000 0.0000
# 5 0.0000 0.0000 0.0000 0.0000 22.7607 0.0000
# 6 0.0000 0.0000 0.0000 0.0000 0.0000 21.3468
#
#
#
# Elastic Compliance Matrix: (Units=1/GPa)
#
#
# Indices 1 2 3 4 5 6 
#
# 1 0.033419 -0.009870 -0.000432 0.000000 0.000000 0.000000
# 2 -0.009870 0.014283 -0.005661 0.000000 0.000000 0.000000
# 3 -0.000432 -0.005661 0.010698 0.000000 0.000000 0.000000
# 4 0.000000 0.000000 0.000000 0.047980 0.000000 0.000000
# 5 0.000000 0.000000 0.000000 0.000000 0.043935 0.000000
# 6 0.000000 0.000000 0.000000 0.000000 0.000000 0.046845
#
#
# Mechanical properties :
#
#
# Convention : Reuss Voigt Hill
#
# Bulk Modulus (GPa) = 37.77085 59.85178 48.81132
# Shear Modulus (GPa) = 21.01630 24.19347 22.60489
#
# Velocity S-wave (km/s) = 3.26019 3.49796 3.38117
# Velocity P-wave (km/s) = 5.76838 6.82524 6.31894
#
# Compressibility (1/GPa) = 0.02647544
#
# Stress axis : x y z
#
# Youngs Moduli (GPa) = 29.92293 70.01127 93.47831
#
# Poissons Ratio (x) = 0.69101 0.04034
# Poissons Ratio (y) = 0.29534 0.52917
# Poissons Ratio (z) = 0.01291 0.39633
#
# Static dielectric constant tensor:
#      x y z
#    x 3.135200 0.000000 0.000000 
#    y 0.000000 3.660300 0.000000 
#    z 0.000000 0.000000 3.933690 
# 
# 
# High freq. dielectric constant tensor:
#      x y z
#    x 1.725260 0.000000 0.000000 
#    y 0.000000 1.761650 0.000000 
#    z 0.000000 0.000000 1.794470 
# 
# From -- ./inp_files/8216.got.cif
#   From: 2010.03.12/outbox.cif.g09.slc.cpg/sg51_5_cif.got.tgz:8216.got - 2010.04.16 13:43:02.
