data_PCOD8212572
_publ_section_title
;
Structure prediction by ZEFSAII (Michael W. Deem and Ramdas Pophale) SiO2 
 PCOD8212572
Probable space group: P M M A
;
_chemical_formula_sum "Si O2"
_cell_formula_units_Z 56
_cell_length_a 19.189078
_cell_length_b 13.722328
_cell_length_c 11.904081
_cell_angle_alpha 90.000000
_cell_angle_beta 90.000000
_cell_angle_gamma 90.000000
_cell_volume 3134.568590
_symmetry_space_group_name_H-M "P M M A"
_symmetry_group_IT_number 51
_symmetry_cell_setting 'orthorhombic'
loop_
_space_group_symop_operation_xyz
x,y,z
1/2-x,-y,z
1/2+x,-y,-z
-x,y,-z
-x,-y,-z
1/2+x,y,-z
1/2-x,y,z
x,-y,z
loop_
_atom_site_type_symbol
_atom_site_label
_atom_site_fract_x
_atom_site_fract_y
_atom_site_fract_z
Si Si1 0.578497 0.724393 0.503919
Si Si2 0.451748 0.389258 0.894737
Si Si3 0.070270 0.224741 0.740712
Si Si4 0.438411 0.112051 0.318027
Si Si5 0.829616 0.736254 0.076907
Si Si6 0.671205 0.787425 0.824733
Si Si7 0.669228 0.610221 0.670412
O O1 0.500000 0.682931 0.500000
O O2 0.604900 0.746665 0.378185
O O3 0.579971 0.825509 0.572308
O O4 0.627553 0.643916 0.560015
O O5 0.459960 0.500000 0.855488
O O6 0.472428 0.318664 0.790669
O O7 0.371134 0.366738 0.928859
O O8 0.500000 0.363941 0.000000
O O9 0.132688 0.196610 0.827350
O O10 0.015334 0.137360 0.728530
O O11 0.380703 0.131356 0.222773
O O12 0.436933 0.000000 0.353224
O O13 0.750000 0.715786 0.110192
O O14 0.835675 0.790217 0.958468
O O15 0.750000 0.814488 0.788713
O O16 0.652024 0.680067 0.776130
O O17 0.750000 0.615187 0.638057
O O18 0.647409 0.500000 0.703403
#
# Coordination Sequence:
#
# PCOD8212572 Si02
#       7
#     8   8   8   8   8   8   8
#     4   9  19  35  52  77 105 137 173 224 276 317
#     4   9  18  32  52  77 109 146 185 223 260 311
#     4   9  20  34  52  77 109 140 176 221 273 321
#     4  10  20  36  60  82 100 133 182 228 275 331
#     4   9  19  34  54  77 110 149 179 217 266 321
#     4   9  18  34  54  79 111 138 172 224 273 318
#     4   9  18  32  51  75 104 141 180 217 262 318
#
# _framework density 17.865297999999999
#
# number of rings (size 3 to 8) (size 9 to 14) (size 15 to 20)
#    0.857    2.000    0.000    0.857    0.000    5.143 
#    0.000   11.429    0.000    1.286    0.000    4.000 
#    0.000    0.000    0.000    0.000    0.000    0.000 
#
# Total GULP energy -694056.293840 kJ/mol
# GULP energy per Si atom -12393.862390 kJ/mol
# Density = 1.782464 g / cm^3
# Si number density = 17.865298 Si / 1000 Ang^3
#
#
#
# Elastic Constant Matrix: (Units=GPa)
#
#
# Indices 1 2 3 4 5 6 
#
# 1 80.8226 24.4268 41.7634 0.0000 0.0000 0.0000
# 2 24.4268 80.9771 22.7112 0.0000 0.0000 0.0000
# 3 41.7634 22.7112 112.6697 0.0000 0.0000 0.0000
# 4 0.0000 0.0000 0.0000 13.5387 0.0000 0.0000
# 5 0.0000 0.0000 0.0000 0.0000 31.2285 0.0000
# 6 0.0000 0.0000 0.0000 0.0000 0.0000 16.5697
#
#
#
# Elastic Compliance Matrix: (Units=1/GPa)
#
#
# Indices 1 2 3 4 5 6 
#
# 1 0.016132 -0.003380 -0.005298 0.000000 0.000000 0.000000
# 2 -0.003380 0.013797 -0.001528 0.000000 0.000000 0.000000
# 3 -0.005298 -0.001528 0.011148 0.000000 0.000000 0.000000
# 4 0.000000 0.000000 0.000000 0.073862 0.000000 0.000000
# 5 0.000000 0.000000 0.000000 0.000000 0.032022 0.000000
# 6 0.000000 0.000000 0.000000 0.000000 0.000000 0.060351
#
#
# Mechanical properties :
#
#
# Convention : Reuss Voigt Hill
#
# Bulk Modulus (GPa) = 48.39474 50.25247 49.32361
# Shear Modulus (GPa) = 21.31159 24.63859 22.97509
#
# Velocity S-wave (km/s) = 3.45759 3.71769 3.59000
# Velocity P-wave (km/s) = 6.56410 6.82773 6.69721
#
# Compressibility (1/GPa) = 0.02066340
#
# Stress axis : x y z
#
# Youngs Moduli (GPa) = 61.98777 72.47712 89.70621
#
# Poissons Ratio (x) = 0.24499 0.47530
# Poissons Ratio (y) = 0.20954 0.13709
# Poissons Ratio (z) = 0.32843 0.11076
#
# Static dielectric constant tensor:
#      x y z
#    x 3.362780 0.000000 0.000000 
#    y 0.000000 2.968530 0.000000 
#    z 0.000000 0.000000 3.305040 
# 
# 
# High freq. dielectric constant tensor:
#      x y z
#    x 1.693950 0.000000 0.000000 
#    y 0.000000 1.659200 0.000000 
#    z 0.000000 0.000000 1.694690 
# 
# From -- ./inp_files/18771.got.cif
#   From: 2010.03.12/outbox.cif.g09.slc.cpg/sg51_10_cif.got.tgz:18771.got - 2010.04.16 13:43:02.
