data_PCOD8212804
_publ_section_title
;
Structure prediction by ZEFSAII (Michael W. Deem and Ramdas Pophale) SiO2 
 PCOD8212804
Probable space group: P M M A
;
_chemical_formula_sum "Si O2"
_cell_formula_units_Z 48
_cell_length_a 18.222231
_cell_length_b 17.334196
_cell_length_c 7.776321
_cell_angle_alpha 90.000000
_cell_angle_beta 90.000000
_cell_angle_gamma 90.000000
_cell_volume 2456.288813
_symmetry_space_group_name_H-M "P M M A"
_symmetry_group_IT_number 51
_symmetry_cell_setting 'orthorhombic'
loop_
_space_group_symop_operation_xyz
x,y,z
1/2-x,-y,z
1/2+x,-y,-z
-x,y,-z
-x,-y,-z
1/2+x,y,-z
1/2-x,y,z
x,-y,z
loop_
_atom_site_type_symbol
_atom_site_label
_atom_site_fract_x
_atom_site_fract_y
_atom_site_fract_z
Si Si1 0.337129 0.913797 0.064044
Si Si2 0.835453 0.187126 0.627876
Si Si3 0.664494 0.500000 0.761306
Si Si4 0.579091 0.500000 0.091200
Si Si5 0.907147 0.341931 0.659635
Si Si6 0.337139 0.200254 0.761734
Si Si7 0.934692 0.658612 0.262833
O O1 0.250000 0.916520 0.075935
O O2 0.370151 0.874491 0.237807
O O3 0.369827 0.000000 0.049834
O O4 0.359605 0.867278 0.892571
O O5 0.750000 0.174893 0.630870
O O6 0.852172 0.272239 0.702091
O O7 0.862547 0.174641 0.431000
O O8 0.750000 0.500000 0.726283
O O9 0.630310 0.575865 0.678556
O O10 0.646692 0.500000 0.961365
O O11 0.591740 0.425231 0.206542
O O12 0.500000 0.500000 0.000000
O O13 0.930116 0.334129 0.464792
O O14 0.978544 0.332973 0.784044
O O15 0.250000 0.219281 0.767133
O O16 0.382730 0.276016 0.821244
#
# Coordination Sequence:
#
# PCOD8212804 Si02
#       7
#     8   8   4   4   8   8   8
#     4   9  18  32  53  81 111 143 180 227 282 338
#     4   9  18  33  53  79 110 142 181 229 280 332
#     4  12  25  37  55  83 113 146 184 232 281 325
#     4  12  23  37  52  81 114 147 187 232 277 333
#     4  10  20  38  58  80 106 146 190 229 274 335
#     4   9  19  34  54  81 111 143 185 234 279 329
#     4  10  21  37  59  78 108 149 188 228 279 330
#
# _framework density 19.541675999999999
#
# number of rings (size 3 to 8) (size 9 to 14) (size 15 to 20)
#    0.000    2.167    1.667    1.000    2.333    3.333 
#    0.000    4.167    0.000    2.000    0.000    4.667 
#    0.000    0.000    0.000    0.000    0.000    0.000 
#
# Total GULP energy -594925.359405 kJ/mol
# GULP energy per Si atom -12394.278321 kJ/mol
# Density = 1.949720 g / cm^3
# Si number density = 19.541676 Si / 1000 Ang^3
#
#
#
# Elastic Constant Matrix: (Units=GPa)
#
#
# Indices 1 2 3 4 5 6 
#
# 1 57.9257 31.7898 18.8518 0.0000 0.0000 0.0000
# 2 31.7898 181.3885 66.3877 0.0000 0.0000 0.0000
# 3 18.8518 66.3877 75.8662 0.0000 0.0000 0.0000
# 4 0.0000 0.0000 0.0000 30.1116 0.0000 0.0000
# 5 0.0000 0.0000 0.0000 0.0000 19.1435 0.0000
# 6 0.0000 0.0000 0.0000 0.0000 0.0000 14.3517
#
#
#
# Elastic Compliance Matrix: (Units=1/GPa)
#
#
# Indices 1 2 3 4 5 6 
#
# 1 0.019476 -0.002416 -0.002726 0.000000 0.000000 0.000000
# 2 -0.002416 0.008410 -0.006759 0.000000 0.000000 0.000000
# 3 -0.002726 -0.006759 0.019773 0.000000 0.000000 0.000000
# 4 0.000000 0.000000 0.000000 0.033210 0.000000 0.000000
# 5 0.000000 0.000000 0.000000 0.000000 0.052237 0.000000
# 6 0.000000 0.000000 0.000000 0.000000 0.000000 0.069678
#
#
# Mechanical properties :
#
#
# Convention : Reuss Voigt Hill
#
# Bulk Modulus (GPa) = 41.91394 61.02656 51.47025
# Shear Modulus (GPa) = 21.31844 25.93144 23.62494
#
# Velocity S-wave (km/s) = 3.30649 3.64673 3.48077
# Velocity P-wave (km/s) = 6.00602 7.00202 6.52305
#
# Compressibility (1/GPa) = 0.02385841
#
# Stress axis : x y z
#
# Youngs Moduli (GPa) = 51.34430 118.90211 50.57365
#
# Poissons Ratio (x) = 0.28724 0.13785
# Poissons Ratio (y) = 0.12404 0.34184
# Poissons Ratio (z) = 0.13995 0.80369
#
# Static dielectric constant tensor:
#      x y z
#    x 3.571350 0.000000 0.000000 
#    y 0.000000 3.597520 0.000000 
#    z 0.000000 0.000000 3.791370 
# 
# 
# High freq. dielectric constant tensor:
#      x y z
#    x 1.734770 0.000000 0.000000 
#    y 0.000000 1.762530 0.000000 
#    z 0.000000 0.000000 1.767840 
# 
# From -- ./inp_files/9684.got.cif
#   From: 2010.03.12/outbox.cif.g09.slc.cpg/sg51_5_cif.got.tgz:9684.got - 2010.04.16 13:43:02.
