data_PCOD8212229
_publ_section_title
;
Structure prediction by ZEFSAII (Michael W. Deem and Ramdas Pophale) SiO2 
 PCOD8212229
Probable space group: P M M A
;
_chemical_formula_sum "Si O2"
_cell_formula_units_Z 48
_cell_length_a 18.260774
_cell_length_b 13.998178
_cell_length_c 9.486645
_cell_angle_alpha 90.000000
_cell_angle_beta 90.000000
_cell_angle_gamma 90.000000
_cell_volume 2424.953094
_symmetry_space_group_name_H-M "P M M A"
_symmetry_group_IT_number 51
_symmetry_cell_setting 'orthorhombic'
loop_
_space_group_symop_operation_xyz
x,y,z
1/2-x,-y,z
1/2+x,-y,-z
-x,y,-z
-x,-y,-z
1/2+x,y,-z
1/2-x,y,z
x,-y,z
loop_
_atom_site_type_symbol
_atom_site_label
_atom_site_fract_x
_atom_site_fract_y
_atom_site_fract_z
Si Si1 0.101270 0.721581 0.780452
Si Si2 0.335491 0.112036 0.257818
Si Si3 0.830994 0.609146 0.989685
Si Si4 0.414573 0.893793 0.973987
Si Si5 0.451295 0.386272 0.235210
Si Si6 0.581513 0.753589 0.530480
O O1 0.099662 0.828946 0.838809
O O2 0.121380 0.727888 0.615999
O O3 0.025725 0.665430 0.810658
O O4 0.164183 0.665422 0.863224
O O5 0.250000 0.137281 0.251749
O O6 0.372480 0.167318 0.387133
O O7 0.349224 0.000000 0.282376
O O8 0.372510 0.146192 0.111854
O O9 0.750000 0.624451 0.925128
O O10 0.846005 0.500000 0.026250
O O11 0.890482 0.645179 0.877822
O O12 0.385131 0.000000 0.938872
O O13 0.500000 0.896336 0.000000
O O14 0.462039 0.500000 0.245135
O O15 0.424670 0.346186 0.385330
O O16 0.500000 0.794861 0.500000
#
# Coordination Sequence:
#
# PCOD8212229 Si02
#       6
#     8   8   8   8   8   8
#     4  11  21  34  56  84 111 143 181 227 285 333
#     4  10  22  41  63  85 113 153 196 235 280 340
#     4  10  21  36  55  80 108 142 186 233 281 334
#     4  10  20  35  57  84 112 143 184 232 280 333
#     4  10  21  38  58  80 110 150 193 233 275 333
#     4  10  22  36  56  86 116 150 189 230 282 340
#
# _framework density 19.794198000000002
#
# number of rings (size 3 to 8) (size 9 to 14) (size 15 to 20)
#    0.000    1.833    0.000    5.000    0.000    9.333 
#    0.000    0.000    0.000    4.000    0.000    0.000 
#    0.000    0.000    0.000    0.000    0.000    0.000 
#
# Total GULP energy -595271.511090 kJ/mol
# GULP energy per Si atom -12401.489814 kJ/mol
# Density = 1.974915 g / cm^3
# Si number density = 19.794198 Si / 1000 Ang^3
#
#
#
# Elastic Constant Matrix: (Units=GPa)
#
#
# Indices 1 2 3 4 5 6 
#
# 1 90.9228 40.0138 48.4843 0.0000 0.0000 0.0000
# 2 40.0138 97.3346 54.1016 0.0000 0.0000 0.0000
# 3 48.4843 54.1016 135.2946 0.0000 0.0000 0.0000
# 4 0.0000 0.0000 0.0000 31.5740 0.0000 0.0000
# 5 0.0000 0.0000 0.0000 0.0000 27.0610 0.0000
# 6 0.0000 0.0000 0.0000 0.0000 0.0000 25.3668
#
#
#
# Elastic Compliance Matrix: (Units=1/GPa)
#
#
# Indices 1 2 3 4 5 6 
#
# 1 0.014721 -0.004011 -0.003672 0.000000 0.000000 0.000000
# 2 -0.004011 0.014303 -0.004282 0.000000 0.000000 0.000000
# 3 -0.003672 -0.004282 0.010419 0.000000 0.000000 0.000000
# 4 0.000000 0.000000 0.000000 0.031672 0.000000 0.000000
# 5 0.000000 0.000000 0.000000 0.000000 0.036954 0.000000
# 6 0.000000 0.000000 0.000000 0.000000 0.000000 0.039422
#
#
# Mechanical properties :
#
#
# Convention : Reuss Voigt Hill
#
# Bulk Modulus (GPa) = 64.45725 67.63904 66.04815
# Shear Modulus (GPa) = 28.31396 28.86384 28.58890
#
# Velocity S-wave (km/s) = 3.78619 3.82278 3.80453
# Velocity P-wave (km/s) = 7.19361 7.33009 7.26217
#
# Compressibility (1/GPa) = 0.01551416
#
# Stress axis : x y z
#
# Youngs Moduli (GPa) = 67.92801 69.91602 95.97534
#
# Poissons Ratio (x) = 0.28044 0.35239
# Poissons Ratio (y) = 0.27247 0.41097
# Poissons Ratio (z) = 0.24941 0.29938
#
# Static dielectric constant tensor:
#      x y z
#    x 3.614650 0.000000 0.000000 
#    y 0.000000 3.758830 0.000000 
#    z 0.000000 0.000000 3.641990 
# 
# 
# High freq. dielectric constant tensor:
#      x y z
#    x 1.764460 0.000000 0.000000 
#    y 0.000000 1.783800 0.000000 
#    z 0.000000 0.000000 1.768760 
# 
# From -- ./inp_files/9602.got.cif
#   From: 2010.03.12/outbox.cif.g09.slc.cpg/sg51_5_cif.got.tgz:9602.got - 2010.04.16 13:43:02.
