data_PCOD8212388
_publ_section_title
;
Structure prediction by ZEFSAII (Michael W. Deem and Ramdas Pophale) SiO2 
 PCOD8212388
Probable space group: P M M A
;
_chemical_formula_sum "Si O2"
_cell_formula_units_Z 48
_cell_length_a 30.037953
_cell_length_b 9.254181
_cell_length_c 9.651529
_cell_angle_alpha 90.000000
_cell_angle_beta 90.000000
_cell_angle_gamma 90.000000
_cell_volume 2682.899737
_symmetry_space_group_name_H-M "P M M A"
_symmetry_group_IT_number 51
_symmetry_cell_setting 'orthorhombic'
loop_
_space_group_symop_operation_xyz
x,y,z
1/2-x,-y,z
1/2+x,-y,-z
-x,y,-z
-x,-y,-z
1/2+x,y,-z
1/2-x,y,z
x,-y,z
loop_
_atom_site_type_symbol
_atom_site_label
_atom_site_fract_x
_atom_site_fract_y
_atom_site_fract_z
Si Si1 0.355637 0.335015 0.083569
Si Si2 0.394640 0.332581 0.797309
Si Si3 0.134836 0.666986 0.495337
Si Si4 0.985223 0.829401 0.153176
Si Si5 0.301818 0.831743 0.297773
Si Si6 0.937214 0.335390 0.722712
O O1 0.341243 0.500000 0.110590
O O2 0.318490 0.233957 0.152176
O O3 0.403620 0.304833 0.151116
O O4 0.359758 0.300443 0.920718
O O5 0.409769 0.500000 0.799449
O O6 0.369122 0.293324 0.656243
O O7 0.437349 0.233267 0.812034
O O8 0.147488 0.500000 0.471658
O O9 0.173864 0.761467 0.429216
O O10 0.087631 0.699826 0.421450
O O11 0.020538 0.768635 0.263915
O O12 0.983217 0.000000 0.168049
O O13 0.000000 0.780652 0.000000
O O14 0.250000 0.799901 0.313495
O O15 0.312878 0.000000 0.296293
O O16 0.954343 0.500000 0.725958
#
# Coordination Sequence:
#
# PCOD8212388 Si02
#       6
#     8   8   8   8   8   8
#     4   9  18  33  56  81 103 134 175 218 262 307
#     4  10  20  36  56  78 107 140 178 222 268 313
#     4   9  20  37  57  81 106 138 178 221 269 316
#     4  11  22  32  47  75 108 144 186 224 263 308
#     4  10  21  37  58  82 107 138 172 208 259 323
#     4   9  17  32  52  74 101 138 182 222 262 305
#
# _framework density 17.891089999999998
#
# number of rings (size 3 to 8) (size 9 to 14) (size 15 to 20)
#    0.000    2.333    1.667    2.000    0.000    6.667 
#    0.000    4.167    0.000    5.000    0.000    0.000 
#    0.000    0.000    0.000    0.000    0.000    0.000 
#
# Total GULP energy -595311.842324 kJ/mol
# GULP energy per Si atom -12402.330048 kJ/mol
# Density = 1.785037 g / cm^3
# Si number density = 17.891090 Si / 1000 Ang^3
#
#
#
# Elastic Constant Matrix: (Units=GPa)
#
#
# Indices 1 2 3 4 5 6 
#
# 1 98.6824 72.0150 54.2949 0.0000 0.0000 0.0000
# 2 72.0150 95.7148 53.6434 0.0000 0.0000 0.0000
# 3 54.2949 53.6434 144.9234 0.0000 0.0000 0.0000
# 4 0.0000 0.0000 0.0000 13.4535 0.0000 0.0000
# 5 0.0000 0.0000 0.0000 0.0000 15.5303 0.0000
# 6 0.0000 0.0000 0.0000 0.0000 0.0000 33.5508
#
#
#
# Elastic Compliance Matrix: (Units=1/GPa)
#
#
# Indices 1 2 3 4 5 6 
#
# 1 0.023360 -0.015987 -0.002834 0.000000 0.000000 0.000000
# 2 -0.015987 0.024124 -0.002940 0.000000 0.000000 0.000000
# 3 -0.002834 -0.002940 0.009050 0.000000 0.000000 0.000000
# 4 0.000000 0.000000 0.000000 0.074330 0.000000 0.000000
# 5 0.000000 0.000000 0.000000 0.000000 0.064390 0.000000
# 6 0.000000 0.000000 0.000000 0.000000 0.000000 0.029806
#
#
# Mechanical properties :
#
#
# Convention : Reuss Voigt Hill
#
# Bulk Modulus (GPa) = 76.85475 77.69190 77.27332
# Shear Modulus (GPa) = 18.32041 23.13143 20.72592
#
# Velocity S-wave (km/s) = 3.20347 3.59960 3.40729
# Velocity P-wave (km/s) = 7.53214 7.79713 7.66578
#
# Compressibility (1/GPa) = 0.01301156
#
# Stress axis : x y z
#
# Youngs Moduli (GPa) = 42.80854 41.45211 110.49575
#
# Poissons Ratio (x) = 0.66271 0.31313
# Poissons Ratio (y) = 0.68440 0.32485
# Poissons Ratio (z) = 0.12131 0.12187
#
# Static dielectric constant tensor:
#      x y z
#    x 3.038720 0.000000 0.000000 
#    y 0.000000 3.268380 0.000000 
#    z 0.000000 0.000000 3.571610 
# 
# 
# High freq. dielectric constant tensor:
#      x y z
#    x 1.673120 0.000000 0.000000 
#    y 0.000000 1.691660 0.000000 
#    z 0.000000 0.000000 1.695940 
# 
# From -- ./inp_files/12770.got.cif
#   From: 2010.03.12/outbox.cif.g09.slc.cpg/sg51_7_cif.got.tgz:12770.got - 2010.04.16 13:43:02.
