data_PCOD8212874
_publ_section_title
;
Structure prediction by ZEFSAII (Michael W. Deem and Ramdas Pophale) SiO2 
 PCOD8212874
Probable space group: P M M A
;
_chemical_formula_sum "Si O2"
_cell_formula_units_Z 36
_cell_length_a 8.920002
_cell_length_b 14.366026
_cell_length_c 14.550786
_cell_angle_alpha 90.000000
_cell_angle_beta 90.000000
_cell_angle_gamma 90.000000
_cell_volume 1864.610190
_symmetry_space_group_name_H-M "P M M A"
_symmetry_group_IT_number 51
_symmetry_cell_setting 'orthorhombic'
loop_
_space_group_symop_operation_xyz
x,y,z
1/2-x,-y,z
1/2+x,-y,-z
-x,y,-z
-x,-y,-z
1/2+x,y,-z
1/2-x,y,z
x,-y,z
loop_
_atom_site_type_symbol
_atom_site_label
_atom_site_fract_x
_atom_site_fract_y
_atom_site_fract_z
Si Si1 0.928220 0.500000 0.400958
Si Si2 0.076729 0.000000 0.402332
Si Si3 0.573893 0.863154 0.754129
Si Si4 0.572644 0.349907 0.724708
Si Si5 0.090052 0.605278 0.080359
Si Si6 0.069575 0.000000 0.896930
O O1 0.750000 0.500000 0.406951
O O2 0.000000 0.500000 0.500000
O O3 0.982576 0.595391 0.353047
O O4 0.029993 0.911254 0.341783
O O5 0.000000 0.000000 0.500000
O O6 0.250000 0.000000 0.424733
O O7 0.750000 0.875176 0.775878
O O8 0.528070 0.757546 0.733518
O O9 0.484925 0.908079 0.840415
O O10 0.750000 0.365422 0.707961
O O11 0.513736 0.393620 0.820401
O O12 0.250000 0.657657 0.088840
O O13 0.115332 0.500000 0.047814
O O14 0.000000 0.658629 0.000000
O O15 0.250000 0.000000 0.903621
O O16 0.000000 0.000000 0.000000
#
# Coordination Sequence:
#
# PCOD8212874 Si02
#       6
#     4   4   8   8   8   4
#     4  12  26  42  61  84 115 156 203 252 300 358
#     4   9  18  34  55  81 109 139 175 223 286 346
#     4   9  20  38  60  86 116 150 192 242 296 351
#     4  10  20  39  62  84 115 152 193 245 298 347
#     4   9  17  30  50  76 107 142 179 220 268 322
#     4  11  22  38  61  87 123 163 201 245 292 352
#
# _framework density 19.306984
#
# number of rings (size 3 to 8) (size 9 to 14) (size 15 to 20)
#    0.000    2.222    1.111    2.667    0.000    5.333 
#    0.000    4.444    0.000    0.000    0.000    0.000 
#    0.000    0.000    0.000    0.000    0.000    0.000 
#
# Total GULP energy -446024.638474 kJ/mol
# GULP energy per Si atom -12389.573291 kJ/mol
# Density = 1.926304 g / cm^3
# Si number density = 19.306984 Si / 1000 Ang^3
#
#
#
# Elastic Constant Matrix: (Units=GPa)
#
#
# Indices 1 2 3 4 5 6 
#
# 1 107.2637 52.7437 81.5843 0.0000 0.0000 0.0000
# 2 52.7437 125.6702 60.2707 0.0000 0.0000 0.0000
# 3 81.5843 60.2707 188.3071 0.0000 0.0000 0.0000
# 4 0.0000 0.0000 0.0000 0.9804 0.0000 0.0000
# 5 0.0000 0.0000 0.0000 0.0000 38.4887 0.0000
# 6 0.0000 0.0000 0.0000 0.0000 0.0000 22.8072
#
#
#
# Elastic Compliance Matrix: (Units=1/GPa)
#
#
# Indices 1 2 3 4 5 6 
#
# 1 0.015326 -0.003837 -0.005412 0.000000 0.000000 0.000000
# 2 -0.003837 0.010361 -0.001654 0.000000 0.000000 0.000000
# 3 -0.005412 -0.001654 0.008185 0.000000 0.000000 0.000000
# 4 0.000000 0.000000 0.000000 1.019941 0.000000 0.000000
# 5 0.000000 0.000000 0.000000 0.000000 0.025982 0.000000
# 6 0.000000 0.000000 0.000000 0.000000 0.000000 0.043846
#
#
# Mechanical properties :
#
#
# Convention : Reuss Voigt Hill
#
# Bulk Modulus (GPa) = 82.87685 90.04871 86.46278
# Shear Modulus (GPa) = 4.34985 27.56475 15.95730
#
# Velocity S-wave (km/s) = 1.50263 3.78260 2.87802
# Velocity P-wave (km/s) = 6.78451 8.11290 7.47826
#
# Compressibility (1/GPa) = 0.01206610
#
# Stress axis : x y z
#
# Youngs Moduli (GPa) = 65.25028 96.51793 122.18169
#
# Poissons Ratio (x) = 0.37030 0.66123
# Poissons Ratio (y) = 0.25034 0.20208
# Poissons Ratio (z) = 0.35313 0.15963
#
# Static dielectric constant tensor:
#      x y z
#    x 3.687600 0.000000 0.000000 
#    y 0.000000 3.333730 0.000000 
#    z 0.000000 0.000000 3.612350 
# 
# 
# High freq. dielectric constant tensor:
#      x y z
#    x 1.739870 0.000000 0.000000 
#    y 0.000000 1.744460 0.000000 
#    z 0.000000 0.000000 1.761740 
# 
# From -- ./inp_files/20400.got.cif
#   From: 2010.03.12/outbox.cif.g09.slc.cpg/sg51_11_cif.got.tgz:20400.got - 2010.04.16 13:43:02.
