data_PCOD8212153
_publ_section_title
;
Structure prediction by ZEFSAII (Michael W. Deem and Ramdas Pophale) SiO2 
 PCOD8212153
Probable space group: P M M A
;
_chemical_formula_sum "Si O2"
_cell_formula_units_Z 48
_cell_length_a 8.925989
_cell_length_b 29.820029
_cell_length_c 9.475960
_cell_angle_alpha 90.000000
_cell_angle_beta 90.000000
_cell_angle_gamma 90.000000
_cell_volume 2522.247078
_symmetry_space_group_name_H-M "P M M A"
_symmetry_group_IT_number 51
_symmetry_cell_setting 'orthorhombic'
loop_
_space_group_symop_operation_xyz
x,y,z
1/2-x,-y,z
1/2+x,-y,-z
-x,y,-z
-x,-y,-z
1/2+x,y,-z
1/2-x,y,z
x,-y,z
loop_
_atom_site_type_symbol
_atom_site_label
_atom_site_fract_x
_atom_site_fract_y
_atom_site_fract_z
Si Si1 0.423120 0.447190 0.855264
Si Si2 0.925557 0.220526 0.646216
Si Si3 0.425560 0.297777 0.150997
Si Si4 0.925948 0.881408 0.645885
Si Si5 0.427203 0.619236 0.348362
Si Si6 0.422191 0.950113 0.850786
O O1 0.250000 0.432631 0.860021
O O2 0.441735 0.500000 0.836509
O O3 0.504990 0.425291 0.721839
O O4 0.500000 0.430628 0.000000
O O5 0.750000 0.226497 0.623390
O O6 0.982758 0.252382 0.772385
O O7 0.968480 0.169615 0.686469
O O8 0.000000 0.235452 0.500000
O O9 0.250000 0.295950 0.125704
O O10 0.471115 0.339191 0.249438
O O11 0.500000 0.302973 0.000000
O O12 0.750000 0.887991 0.632324
O O13 0.000000 0.895430 0.500000
O O14 0.989593 0.914093 0.761691
O O15 0.500000 0.627179 0.500000
O O16 0.250000 0.613698 0.365839
O O17 0.250000 0.935287 0.865874
O O18 0.433599 0.000000 0.782959
O O19 0.500000 0.950717 0.000000
#
# Coordination Sequence:
#
# PCOD8212153 Si02
#       6
#     8   8   8   8   8   8
#     4  10  21  38  60  85 114 148 185 227 275 326
#     4   9  19  36  56  80 109 141 178 219 266 319
#     4  10  22  38  56  81 111 143 181 223 269 322
#     4  10  20  35  56  81 110 143 180 223 269 320
#     4  11  23  38  58  83 112 147 186 229 276 326
#     4  10  21  37  56  78 106 141 180 223 272 324
#
# _framework density 19.030647999999999
#
# number of rings (size 3 to 8) (size 9 to 14) (size 15 to 20)
#    0.000    2.000    0.000    3.000    0.000    7.333 
#    0.000    1.667    0.000    0.000    0.000    0.000 
#    0.000    0.000    0.000    0.000    0.000    0.000 
#
# Total GULP energy -595337.903384 kJ/mol
# GULP energy per Si atom -12402.872987 kJ/mol
# Density = 1.898733 g / cm^3
# Si number density = 19.030648 Si / 1000 Ang^3
#
#
#
# Elastic Constant Matrix: (Units=GPa)
#
#
# Indices 1 2 3 4 5 6 
#
# 1 90.7846 47.7772 62.1766 0.0000 0.0000 0.0000
# 2 47.7772 88.0487 69.6158 0.0000 0.0000 0.0000
# 3 62.1766 69.6158 146.3466 0.0000 0.0000 0.0000
# 4 0.0000 0.0000 0.0000 56.5209 0.0000 0.0000
# 5 0.0000 0.0000 0.0000 0.0000 41.5303 0.0000
# 6 0.0000 0.0000 0.0000 0.0000 0.0000 27.7110
#
#
#
# Elastic Compliance Matrix: (Units=1/GPa)
#
#
# Indices 1 2 3 4 5 6 
#
# 1 0.017141 -0.005679 -0.004581 0.000000 0.000000 0.000000
# 2 -0.005679 0.020086 -0.007142 0.000000 0.000000 0.000000
# 3 -0.004581 -0.007142 0.012177 0.000000 0.000000 0.000000
# 4 0.000000 0.000000 0.000000 0.017693 0.000000 0.000000
# 5 0.000000 0.000000 0.000000 0.000000 0.024079 0.000000
# 6 0.000000 0.000000 0.000000 0.000000 0.000000 0.036087
#
#
# Mechanical properties :
#
#
# Convention : Reuss Voigt Hill
#
# Bulk Modulus (GPa) = 68.49499 76.03547 72.26523
# Shear Modulus (GPa) = 29.95224 34.85979 32.40602
#
# Velocity S-wave (km/s) = 3.97154 4.28456 4.13102
# Velocity P-wave (km/s) = 7.55651 8.03228 7.79803
#
# Compressibility (1/GPa) = 0.01459961
#
# Stress axis : x y z
#
# Youngs Moduli (GPa) = 58.33825 49.78685 82.12437
#
# Poissons Ratio (x) = 0.28275 0.37622
# Poissons Ratio (y) = 0.33132 0.58651
# Poissons Ratio (z) = 0.26725 0.35556
#
# Static dielectric constant tensor:
#      x y z
#    x 3.579990 0.000000 0.000000 
#    y 0.000000 3.689700 0.000000 
#    z 0.000000 0.000000 3.475720 
# 
# 
# High freq. dielectric constant tensor:
#      x y z
#    x 1.749560 0.000000 0.000000 
#    y 0.000000 1.750130 0.000000 
#    z 0.000000 0.000000 1.740030 
# 
# From -- ./inp_files/5959.got.cif
#   From: 2010.03.12/outbox.cif.g09.slc.cpg/sg51_3_cif.got.tgz:5959.got - 2010.04.16 13:43:02.
