data_PCOD8212068
_publ_section_title
;
Structure prediction by ZEFSAII (Michael W. Deem and Ramdas Pophale) SiO2 
 PCOD8212068
Probable space group: P M M A
;
_chemical_formula_sum "Si O2"
_cell_formula_units_Z 40
_cell_length_a 25.863334
_cell_length_b 8.973972
_cell_length_c 8.933230
_cell_angle_alpha 90.000000
_cell_angle_beta 90.000000
_cell_angle_gamma 90.000000
_cell_volume 2073.374411
_symmetry_space_group_name_H-M "P M M A"
_symmetry_group_IT_number 51
_symmetry_cell_setting 'orthorhombic'
loop_
_space_group_symop_operation_xyz
x,y,z
1/2-x,-y,z
1/2+x,-y,-z
-x,y,-z
-x,-y,-z
1/2+x,y,-z
1/2-x,y,z
x,-y,z
loop_
_atom_site_type_symbol
_atom_site_label
_atom_site_fract_x
_atom_site_fract_y
_atom_site_fract_z
Si Si1 0.250000 0.328770 0.597371
Si Si2 0.250000 0.176155 0.912115
Si Si3 0.449850 0.676803 0.583911
Si Si4 0.149247 0.823318 0.085297
Si Si5 0.445765 0.674418 0.922450
Si Si6 0.150232 0.674098 0.402760
O O1 0.250000 0.500000 0.648408
O O2 0.250000 0.228176 0.742584
O O3 0.299909 0.289952 0.500666
O O4 0.250000 0.000000 0.914697
O O5 0.300969 0.237583 0.995298
O O6 0.500000 0.743587 0.500000
O O7 0.453619 0.500000 0.588479
O O8 0.447772 0.736918 0.753361
O O9 0.399240 0.729634 0.495804
O O10 0.154002 0.768653 0.253786
O O11 0.146803 0.000000 0.083593
O O12 0.097876 0.760622 0.011433
O O13 0.432469 0.500000 0.926654
O O14 0.500000 0.708502 0.000000
O O15 0.145959 0.500000 0.361971
#
# Coordination Sequence:
#
# PCOD8212068 Si02
#       6
#     4   4   8   8   8   8
#     4  10  21  36  58  86 110 138 183 236 280 326
#     4  10  23  40  56  78 112 152 187 224 276 334
#     4   9  17  31  53  80 107 136 174 219 268 327
#     4  11  23  38  56  80 112 150 191 231 273 328
#     4  10  20  36  60  86 112 145 183 228 285 339
#     4  10  20  35  55  80 109 140 179 228 278 325
#
# _framework density 19.292223
#
# number of rings (size 3 to 8) (size 9 to 14) (size 15 to 20)
#    0.000    2.000    0.000    3.600    0.000    7.600 
#    0.000    1.000    0.000    2.400    0.000    0.000 
#    0.000    0.000    0.000    0.000    0.000    0.000 
#
# Total GULP energy -496153.757810 kJ/mol
# GULP energy per Si atom -12403.843945 kJ/mol
# Density = 1.924831 g / cm^3
# Si number density = 19.292223 Si / 1000 Ang^3
#
#
#
# Elastic Constant Matrix: (Units=GPa)
#
#
# Indices 1 2 3 4 5 6 
#
# 1 164.0949 41.5067 68.5563 0.0000 0.0000 0.0000
# 2 41.5067 36.3598 28.8010 0.0000 0.0000 0.0000
# 3 68.5563 28.8010 127.7877 0.0000 0.0000 0.0000
# 4 0.0000 0.0000 0.0000 26.7539 0.0000 0.0000
# 5 0.0000 0.0000 0.0000 0.0000 26.6568 0.0000
# 6 0.0000 0.0000 0.0000 0.0000 0.0000 11.5062
#
#
#
# Elastic Compliance Matrix: (Units=1/GPa)
#
#
# Indices 1 2 3 4 5 6 
#
# 1 0.009561 -0.008341 -0.003250 0.000000 0.000000 0.000000
# 2 -0.008341 0.040756 -0.004711 0.000000 0.000000 0.000000
# 3 -0.003250 -0.004711 0.010631 0.000000 0.000000 0.000000
# 4 0.000000 0.000000 0.000000 0.037378 0.000000 0.000000
# 5 0.000000 0.000000 0.000000 0.000000 0.037514 0.000000
# 6 0.000000 0.000000 0.000000 0.000000 0.000000 0.086910
#
#
# Mechanical properties :
#
#
# Convention : Reuss Voigt Hill
#
# Bulk Modulus (GPa) = 35.27933 67.33005 51.30469
# Shear Modulus (GPa) = 18.88210 25.60859 22.24534
#
# Velocity S-wave (km/s) = 3.13188 3.64731 3.39938
# Velocity P-wave (km/s) = 5.60399 7.26037 6.48528
#
# Compressibility (1/GPa) = 0.02834521
#
# Stress axis : x y z
#
# Youngs Moduli (GPa) = 104.58644 24.53624 94.06738
#
# Poissons Ratio (x) = 0.20465 0.30569
# Poissons Ratio (y) = 0.87234 0.44315
# Poissons Ratio (z) = 0.33988 0.11559
#
# Static dielectric constant tensor:
#      x y z
#    x 3.744280 0.000000 0.000000 
#    y 0.000000 3.204320 0.000000 
#    z 0.000000 0.000000 3.754620 
# 
# 
# High freq. dielectric constant tensor:
#      x y z
#    x 1.773730 0.000000 0.000000 
#    y 0.000000 1.718160 0.000000 
#    z 0.000000 0.000000 1.769790 
# 
# From -- ./inp_files/12162.got.cif
#   From: 2010.03.12/outbox.cif.g09.slc.cpg/sg51_7_cif.got.tgz:12162.got - 2010.04.16 13:43:02.
