data_PCOD8212923
_publ_section_title
;
Structure prediction by ZEFSAII (Michael W. Deem and Ramdas Pophale) SiO2 
 PCOD8212923
Probable space group: P M M A
;
_chemical_formula_sum "Si O2"
_cell_formula_units_Z 48
_cell_length_a 17.666142
_cell_length_b 7.558473
_cell_length_c 17.044138
_cell_angle_alpha 90.000000
_cell_angle_beta 90.000000
_cell_angle_gamma 90.000000
_cell_volume 2275.887680
_symmetry_space_group_name_H-M "P M M A"
_symmetry_group_IT_number 51
_symmetry_cell_setting 'orthorhombic'
loop_
_space_group_symop_operation_xyz
x,y,z
1/2-x,-y,z
1/2+x,-y,-z
-x,y,-z
-x,-y,-z
1/2+x,y,-z
1/2-x,y,z
x,-y,z
loop_
_atom_site_type_symbol
_atom_site_label
_atom_site_fract_x
_atom_site_fract_y
_atom_site_fract_z
Si Si1 0.834619 0.207471 0.063314
Si Si2 0.572447 0.802230 0.749901
Si Si3 0.664664 0.700381 0.894076
Si Si4 0.910212 0.500000 0.493927
Si Si5 0.838663 0.208738 0.600177
Si Si6 0.836172 0.500000 0.329334
Si Si7 0.405570 0.789046 0.774751
O O1 0.750000 0.282798 0.078715
O O2 0.888130 0.261535 0.135156
O O3 0.831586 0.000000 0.053111
O O4 0.868194 0.286443 0.982388
O O5 0.614024 0.807783 0.833412
O O6 0.623973 0.718803 0.681264
O O7 0.489891 0.714109 0.757558
O O8 0.556230 0.000000 0.723376
O O9 0.750000 0.778071 0.893246
O O10 0.663613 0.500000 0.864876
O O11 0.875815 0.320987 0.530645
O O12 0.891475 0.500000 0.402792
O O13 0.000000 0.500000 0.500000
O O14 0.750000 0.250048 0.605488
O O15 0.852762 0.000000 0.584983
O O16 0.750000 0.500000 0.358590
O O17 0.849145 0.320311 0.280146
O O18 0.394741 0.000000 0.760483
#
# Coordination Sequence:
#
# PCOD8212923 Si02
#       7
#     8   8   8   4   8   4   8
#     4   9  18  35  56  77 111 159 205 252 303 356
#     4  10  21  38  60  87 122 161 201 250 305 361
#     4  10  21  33  52  85 119 157 205 255 303 356
#     4  12  26  44  68  97 130 163 198 248 310 371
#     4  10  22  41  66  94 126 166 207 248 301 366
#     4  12  26  42  66  94 120 158 202 249 302 357
#     4  10  23  41  62  90 122 160 205 253 308 362
#
# _framework density 21.090671
#
# number of rings (size 3 to 8) (size 9 to 14) (size 15 to 20)
#    0.000    1.833    0.000    3.250    3.500    4.333 
#    0.000    3.333    0.000    0.000    0.000    0.000 
#    0.000    0.000    0.000    0.000    0.000    0.000 
#
# Total GULP energy -595141.367897 kJ/mol
# GULP energy per Si atom -12398.778498 kJ/mol
# Density = 2.104267 g / cm^3
# Si number density = 21.090671 Si / 1000 Ang^3
#
#
#
# Elastic Constant Matrix: (Units=GPa)
#
#
# Indices 1 2 3 4 5 6 
#
# 1 101.6418 25.8940 27.1202 0.0000 0.0000 0.0000
# 2 25.8940 66.3369 35.0975 0.0000 0.0000 0.0000
# 3 27.1202 35.0975 106.0229 0.0000 0.0000 0.0000
# 4 0.0000 0.0000 0.0000 29.9464 0.0000 0.0000
# 5 0.0000 0.0000 0.0000 0.0000 38.7741 0.0000
# 6 0.0000 0.0000 0.0000 0.0000 0.0000 24.3056
#
#
#
# Elastic Compliance Matrix: (Units=1/GPa)
#
#
# Indices 1 2 3 4 5 6 
#
# 1 0.011176 -0.003455 -0.001715 0.000000 0.000000 0.000000
# 2 -0.003455 0.019344 -0.005520 0.000000 0.000000 0.000000
# 3 -0.001715 -0.005520 0.011698 0.000000 0.000000 0.000000
# 4 0.000000 0.000000 0.000000 0.033393 0.000000 0.000000
# 5 0.000000 0.000000 0.000000 0.000000 0.025790 0.000000
# 6 0.000000 0.000000 0.000000 0.000000 0.000000 0.041143
#
#
# Mechanical properties :
#
#
# Convention : Reuss Voigt Hill
#
# Bulk Modulus (GPa) = 47.98922 50.02501 49.00712
# Shear Modulus (GPa) = 29.26208 30.99788 30.12998
#
# Velocity S-wave (km/s) = 3.72888 3.83788 3.78377
# Velocity P-wave (km/s) = 6.42982 6.58860 6.50969
#
# Compressibility (1/GPa) = 0.02083801
#
# Stress axis : x y z
#
# Youngs Moduli (GPa) = 89.47496 51.69672 85.48584
#
# Poissons Ratio (x) = 0.17862 0.14661
# Poissons Ratio (y) = 0.30915 0.47185
# Poissons Ratio (z) = 0.15346 0.28535
#
# Static dielectric constant tensor:
#      x y z
#    x 3.903000 0.000000 0.000000 
#    y 0.000000 3.687090 0.000000 
#    z 0.000000 0.000000 3.803600 
# 
# 
# High freq. dielectric constant tensor:
#      x y z
#    x 1.825190 0.000000 0.000000 
#    y 0.000000 1.825920 0.000000 
#    z 0.000000 0.000000 1.828070 
# 
# From -- ./inp_files/24901.got.cif
#   From: 2010.03.12/outbox.cif.g09.slc.cpg/sg51_13_cif.got.tgz:24901.got - 2010.04.16 13:43:02.
