data_PCOD8212641
_publ_section_title
;
Structure prediction by ZEFSAII (Michael W. Deem and Ramdas Pophale) SiO2 
 PCOD8212641
Probable space group: P M M A
;
_chemical_formula_sum "Si O2"
_cell_formula_units_Z 64
_cell_length_a 30.532785
_cell_length_b 8.863887
_cell_length_c 11.972899
_cell_angle_alpha 90.000000
_cell_angle_beta 90.000000
_cell_angle_gamma 90.000000
_cell_volume 3240.335281
_symmetry_space_group_name_H-M "P M M A"
_symmetry_group_IT_number 51
_symmetry_cell_setting 'orthorhombic'
loop_
_space_group_symop_operation_xyz
x,y,z
1/2-x,-y,z
1/2+x,-y,-z
-x,y,-z
-x,-y,-z
1/2+x,y,-z
1/2-x,y,z
x,-y,z
loop_
_atom_site_type_symbol
_atom_site_label
_atom_site_fract_x
_atom_site_fract_y
_atom_site_fract_z
Si Si1 0.546623 0.679128 0.963813
Si Si2 0.627877 0.321741 0.106914
Si Si3 0.318753 0.671003 0.262806
Si Si4 0.421246 0.670475 0.273732
Si Si5 0.299005 0.170794 0.036585
Si Si6 0.200283 0.825192 0.493863
Si Si7 0.875902 0.677759 0.364566
Si Si8 0.549947 0.823270 0.507046
O O1 0.546266 0.500000 0.973400
O O2 0.554177 0.728763 0.836476
O O3 0.500000 0.748213 0.000000
O O4 0.584759 0.742001 0.044371
O O5 0.631828 0.500000 0.091612
O O6 0.670724 0.248265 0.055012
O O7 0.625232 0.274629 0.235792
O O8 0.301956 0.500000 0.276739
O O9 0.370412 0.674702 0.247409
O O10 0.303335 0.765171 0.368735
O O11 0.297997 0.741796 0.153121
O O12 0.435713 0.500000 0.306428
O O13 0.432008 0.786150 0.371046
O O14 0.250000 0.173694 0.987151
O O15 0.315071 0.000000 0.057365
O O16 0.250000 0.800711 0.536948
O O17 0.167105 0.740028 0.575021
O O18 0.187334 0.000000 0.493640
O O19 0.876052 0.500000 0.381964
O O20 0.920946 0.740411 0.414771
O O21 0.500000 0.766125 0.500000
O O22 0.553429 0.000000 0.485085
#
# Coordination Sequence:
#
# PCOD8212641 Si02
#       8
#     8   8   8   8   8   8   8   8
#     4   9  18  35  61  90 119 151 189 239 295 348
#     4  10  22  41  62  88 120 155 201 252 301 355
#     4  11  21  37  62  93 125 156 198 252 304 356
#     4  10  20  36  63  93 121 155 199 249 301 356
#     4  11  24  40  60  88 122 162 204 245 300 366
#     4  11  24  41  62  88 121 161 202 248 306 371
#     4  11  24  41  64  91 120 158 205 257 309 361
#     4  11  25  42  61  88 126 166 203 248 304 366
#
# _framework density 19.751042999999999
#
# number of rings (size 3 to 8) (size 9 to 14) (size 15 to 20)
#    0.000    1.500    2.500    2.250    1.750    6.500 
#    0.000    2.500    0.000    0.750    0.000    0.000 
#    0.000    0.000    0.000    0.000    0.000    0.000 
#
# Total GULP energy -793827.581107 kJ/mol
# GULP energy per Si atom -12403.555955 kJ/mol
# Density = 1.970609 g / cm^3
# Si number density = 19.751043 Si / 1000 Ang^3
#
#
#
# Elastic Constant Matrix: (Units=GPa)
#
#
# Indices 1 2 3 4 5 6 
#
# 1 113.6023 31.9027 50.0899 0.0000 0.0000 0.0000
# 2 31.9027 62.1556 41.8367 0.0000 0.0000 0.0000
# 3 50.0899 41.8367 118.4989 0.0000 0.0000 0.0000
# 4 0.0000 0.0000 0.0000 11.2239 0.0000 0.0000
# 5 0.0000 0.0000 0.0000 0.0000 59.3760 0.0000
# 6 0.0000 0.0000 0.0000 0.0000 0.0000 26.4874
#
#
#
# Elastic Compliance Matrix: (Units=1/GPa)
#
#
# Indices 1 2 3 4 5 6 
#
# 1 0.011343 -0.003403 -0.003593 0.000000 0.000000 0.000000
# 2 -0.003403 0.022125 -0.006373 0.000000 0.000000 0.000000
# 3 -0.003593 -0.006373 0.012208 0.000000 0.000000 0.000000
# 4 0.000000 0.000000 0.000000 0.089096 0.000000 0.000000
# 5 0.000000 0.000000 0.000000 0.000000 0.016842 0.000000
# 6 0.000000 0.000000 0.000000 0.000000 0.000000 0.037754
#
#
# Mechanical properties :
#
#
# Convention : Reuss Voigt Hill
#
# Bulk Modulus (GPa) = 52.80677 60.21285 56.50981
# Shear Modulus (GPa) = 22.48029 30.77928 26.62978
#
# Velocity S-wave (km/s) = 3.37736 3.95189 3.67587
# Velocity P-wave (km/s) = 6.48097 7.16766 6.83295
#
# Compressibility (1/GPa) = 0.01893697
#
# Stress axis : x y z
#
# Youngs Moduli (GPa) = 88.16281 45.19776 81.91631
#
# Poissons Ratio (x) = 0.15383 0.29432
# Poissons Ratio (y) = 0.30006 0.52203
# Poissons Ratio (z) = 0.31677 0.28803
#
# Static dielectric constant tensor:
#      x y z
#    x 3.892860 0.000000 0.000000 
#    y 0.000000 3.561930 0.000000 
#    z 0.000000 0.000000 3.630260 
# 
# 
# High freq. dielectric constant tensor:
#      x y z
#    x 1.785870 0.000000 0.000000 
#    y 0.000000 1.762430 0.000000 
#    z 0.000000 0.000000 1.773490 
# 
# From -- ./inp_files/19514.got.cif
#   From: 2010.03.12/outbox.cif.g09.slc.cpg/sg51_10_cif.got.tgz:19514.got - 2010.04.16 13:43:02.
