data_PCOD8212907
_publ_section_title
;
Structure prediction by ZEFSAII (Michael W. Deem and Ramdas Pophale) SiO2 
 PCOD8212907
Probable space group: P M M A
;
_chemical_formula_sum "Si O2"
_cell_formula_units_Z 56
_cell_length_a 8.776220
_cell_length_b 16.435603
_cell_length_c 19.512532
_cell_angle_alpha 90.000000
_cell_angle_beta 90.000000
_cell_angle_gamma 90.000000
_cell_volume 2814.535768
_symmetry_space_group_name_H-M "P M M A"
_symmetry_group_IT_number 51
_symmetry_cell_setting 'orthorhombic'
loop_
_space_group_symop_operation_xyz
x,y,z
1/2-x,-y,z
1/2+x,-y,-z
-x,y,-z
-x,-y,-z
1/2+x,y,-z
1/2-x,y,z
x,-y,z
loop_
_atom_site_type_symbol
_atom_site_label
_atom_site_fract_x
_atom_site_fract_y
_atom_site_fract_z
Si Si1 0.427480 0.000000 0.250551
Si Si2 0.567704 0.826375 0.799581
Si Si3 0.920134 0.845431 0.561008
Si Si4 0.927174 0.412632 0.926156
Si Si5 0.574826 0.000000 0.392713
Si Si6 0.069969 0.253176 0.924473
Si Si7 0.079162 0.283382 0.323671
Si Si8 0.928439 0.593930 0.427186
O O1 0.495979 0.915860 0.220391
O O2 0.457896 0.000000 0.330321
O O3 0.250000 0.000000 0.236122
O O4 0.750000 0.824930 0.801702
O O5 0.496629 0.814965 0.874656
O O6 0.512174 0.753212 0.747935
O O7 0.750000 0.873728 0.542015
O O8 0.916620 0.796344 0.630364
O O9 0.000000 0.792189 0.500000
O O10 0.036540 0.920602 0.564071
O O11 0.750000 0.388964 0.932937
O O12 0.945656 0.500000 0.887200
O O13 0.017390 0.339327 0.889895
O O14 0.000000 0.422446 0.000000
O O15 0.750000 0.000000 0.368758
O O16 0.250000 0.247204 0.929036
O O17 0.000000 0.242421 0.000000
O O18 0.250000 0.317922 0.312814
O O19 0.983171 0.353964 0.361124
O O20 0.750000 0.606772 0.434717
O O21 0.971321 0.500000 0.412296
O O22 0.000000 0.621784 0.500000
#
# Coordination Sequence:
#
# PCOD8212907 Si02
#       8
#     4   8   8   8   4   8   8   8
#     4  10  20  41  66  85 112 151 190 235 290 353
#     4  10  21  40  64  88 114 148 189 235 293 353
#     4  11  22  37  54  79 113 149 188 231 284 335
#     4   9  16  28  50  80 113 148 184 222 268 326
#     4  12  23  35  54  81 112 149 188 231 278 333
#     4  11  22  37  59  87 119 154 193 240 291 348
#     4  10  21  37  60  85 112 147 189 237 288 346
#     4  10  21  37  58  84 117 157 201 248 295 342
#
# _framework density 19.896709000000001
#
# number of rings (size 3 to 8) (size 9 to 14) (size 15 to 20)
#    0.000    1.714    1.429    4.714    0.000    5.143 
#    0.000    1.071    0.000    0.857    0.000    0.000 
#    0.000    0.000    0.000    0.000    0.000    0.000 
#
# Total GULP energy -693865.144264 kJ/mol
# GULP energy per Si atom -12390.449005 kJ/mol
# Density = 1.985142 g / cm^3
# Si number density = 19.896709 Si / 1000 Ang^3
#
#
#
# Elastic Constant Matrix: (Units=GPa)
#
#
# Indices 1 2 3 4 5 6 
#
# 1 78.5866 41.1351 32.3775 0.0000 0.0000 0.0000
# 2 41.1351 102.9831 45.8688 0.0000 0.0000 0.0000
# 3 32.3775 45.8688 99.6880 0.0000 0.0000 0.0000
# 4 0.0000 0.0000 0.0000 -2.1003 0.0000 0.0000
# 5 0.0000 0.0000 0.0000 0.0000 29.9346 0.0000
# 6 0.0000 0.0000 0.0000 0.0000 0.0000 15.7047
#
#
#
# Elastic Compliance Matrix: (Units=1/GPa)
#
#
# Indices 1 2 3 4 5 6 
#
# 1 0.016761 -0.005371 -0.002972 0.000000 0.000000 0.000000
# 2 -0.005371 0.013934 -0.004667 0.000000 0.000000 0.000000
# 3 -0.002972 -0.004667 0.013144 0.000000 0.000000 0.000000
# 4 0.000000 0.000000 0.000000 -0.476116 0.000000 0.000000
# 5 0.000000 0.000000 0.000000 0.000000 0.033406 0.000000
# 6 0.000000 0.000000 0.000000 0.000000 0.000000 0.063675
#
#
# Mechanical properties :
#
#
# Convention : Reuss Voigt Hill
#
# Bulk Modulus (GPa) = 56.12177 57.78005 56.95091
# Shear Modulus (GPa) = -16.48886 19.49956 1.50535
#
# Velocity S-wave (km/s) = -2.88188 3.13395 0.87076
# Velocity P-wave (km/s) = 4.14659 6.49605 5.44944
#
# Compressibility (1/GPa) = 0.01781840
#
# Stress axis : x y z
#
# Youngs Moduli (GPa) = 59.66311 71.76475 76.07940
#
# Poissons Ratio (x) = 0.38544 0.22614
# Poissons Ratio (y) = 0.32045 0.35507
# Poissons Ratio (z) = 0.17734 0.33494
#
# Static dielectric constant tensor:
#      x y z
#    x 3.590110 0.000000 0.000000 
#    y 0.000000 4.066950 0.000000 
#    z 0.000000 0.000000 3.485740 
# 
# 
# High freq. dielectric constant tensor:
#      x y z
#    x 1.774860 0.000000 0.000000 
#    y 0.000000 1.779920 0.000000 
#    z 0.000000 0.000000 1.757770 
# 
# From -- ./inp_files/32084.got.cif
#   From: 2010.03.12/outbox.cif.g09.slc.cpg/sg51_17_cif.got.tgz:32084.got - 2010.04.16 13:43:02.
