data_PCOD8212104
_publ_section_title
;
Structure prediction by ZEFSAII (Michael W. Deem and Ramdas Pophale) SiO2 
 PCOD8212104
Probable space group: P M M A
;
_chemical_formula_sum "Si O2"
_cell_formula_units_Z 64
_cell_length_a 15.271415
_cell_length_b 9.272564
_cell_length_c 23.911472
_cell_angle_alpha 90.000000
_cell_angle_beta 90.000000
_cell_angle_gamma 90.000000
_cell_volume 3385.988128
_symmetry_space_group_name_H-M "P M M A"
_symmetry_group_IT_number 51
_symmetry_cell_setting 'orthorhombic'
loop_
_space_group_symop_operation_xyz
x,y,z
1/2-x,-y,z
1/2+x,-y,-z
-x,y,-z
-x,-y,-z
1/2+x,y,-z
1/2-x,y,z
x,-y,z
loop_
_atom_site_type_symbol
_atom_site_label
_atom_site_fract_x
_atom_site_fract_y
_atom_site_fract_z
Si Si1 0.894032 0.830023 0.441119
Si Si2 0.154181 0.335460 0.663789
Si Si3 0.348507 0.832534 0.318875
Si Si4 0.849589 0.333421 0.047309
Si Si5 0.850882 0.169213 0.934480
Si Si6 0.996488 0.667579 0.869670
Si Si7 0.001341 0.668898 0.258539
Si Si8 0.594844 0.830229 0.562801
O O1 0.838693 0.750810 0.394071
O O2 0.866072 0.774046 0.503428
O O3 0.994283 0.785930 0.431061
O O4 0.878740 0.000000 0.435047
O O5 0.250000 0.323571 0.692649
O O6 0.131102 0.500000 0.649515
O O7 0.081329 0.272010 0.705923
O O8 0.250000 0.810388 0.297282
O O9 0.410557 0.747258 0.277227
O O10 0.354834 0.771131 0.382574
O O11 0.375953 0.000000 0.318010
O O12 0.750000 0.303065 0.067515
O O13 0.861045 0.500000 0.029946
O O14 0.916013 0.290330 0.096471
O O15 0.874202 0.237151 0.994237
O O16 0.750000 0.201377 0.918340
O O17 0.912937 0.239586 0.888130
O O18 0.869453 0.000000 0.937576
O O19 0.972981 0.500000 0.877852
O O20 0.017326 0.705404 0.805736
O O21 0.014808 0.500000 0.267744
O O22 0.603501 0.000000 0.559765
#
# Coordination Sequence:
#
# PCOD8212104 Si02
#       8
#     8   8   8   8   8   8   8   8
#     4   9  16  30  54  79 102 131 169 213 262 318
#     4  10  21  36  53  75 105 139 174 215 266 319
#     4  10  20  35  56  78 102 135 174 218 267 317
#     4   9  18  34  57  84 112 140 173 215 259 305
#     4  10  21  36  55  82 115 146 174 208 257 313
#     4  10  21  36  56  80 105 139 183 222 258 304
#     4  10  22  39  55  74 104 141 179 221 264 306
#     4   8  15  29  51  79 105 129 163 212 264 314
#
# _framework density 18.901426000000001
#
# number of rings (size 3 to 8) (size 9 to 14) (size 15 to 20)
#    0.000    2.500    1.250    1.500    0.000    5.250 
#    0.000    8.125    0.000    0.000    0.000    3.500 
#    0.000    0.000    0.000    0.000    0.000    0.000 
#
# Total GULP energy -793433.986001 kJ/mol
# GULP energy per Si atom -12397.406031 kJ/mol
# Density = 1.885841 g / cm^3
# Si number density = 18.901426 Si / 1000 Ang^3
#
#
#
# Elastic Constant Matrix: (Units=GPa)
#
#
# Indices 1 2 3 4 5 6 
#
# 1 94.7732 37.2991 53.7356 0.0000 0.0000 0.0000
# 2 37.2991 52.1137 42.5541 0.0000 0.0000 0.0000
# 3 53.7356 42.5541 109.9402 0.0000 0.0000 0.0000
# 4 0.0000 0.0000 0.0000 21.2585 0.0000 0.0000
# 5 0.0000 0.0000 0.0000 0.0000 16.9200 0.0000
# 6 0.0000 0.0000 0.0000 0.0000 0.0000 22.9512
#
#
#
# Elastic Compliance Matrix: (Units=1/GPa)
#
#
# Indices 1 2 3 4 5 6 
#
# 1 0.016428 -0.007605 -0.005086 0.000000 0.000000 0.000000
# 2 -0.007605 0.031577 -0.008505 0.000000 0.000000 0.000000
# 3 -0.005086 -0.008505 0.014874 0.000000 0.000000 0.000000
# 4 0.000000 0.000000 0.000000 0.047040 0.000000 0.000000
# 5 0.000000 0.000000 0.000000 0.000000 0.059102 0.000000
# 6 0.000000 0.000000 0.000000 0.000000 0.000000 0.043571
#
#
# Mechanical properties :
#
#
# Convention : Reuss Voigt Hill
#
# Bulk Modulus (GPa) = 48.81269 58.22274 53.51772
# Shear Modulus (GPa) = 19.09758 20.44182 19.76970
#
# Velocity S-wave (km/s) = 3.18209 3.29218 3.23760
# Velocity P-wave (km/s) = 6.27550 6.73212 6.50782
#
# Compressibility (1/GPa) = 0.02048648
#
# Stress axis : x y z
#
# Youngs Moduli (GPa) = 60.87048 31.66854 67.23216
#
# Poissons Ratio (x) = 0.24084 0.34194
# Poissons Ratio (y) = 0.46293 0.57183
# Poissons Ratio (z) = 0.30959 0.26935
#
# Static dielectric constant tensor:
#      x y z
#    x 3.520560 0.000000 0.000000 
#    y 0.000000 3.248990 0.000000 
#    z 0.000000 0.000000 3.430360 
# 
# 
# High freq. dielectric constant tensor:
#      x y z
#    x 1.740560 0.000000 0.000000 
#    y 0.000000 1.709510 0.000000 
#    z 0.000000 0.000000 1.732920 
# 
# From -- ./inp_files/35713.got.cif
#   From: 2010.03.12/outbox.cif.g09.slc.cpg/sg51_18_cif.got.tgz:35713.got - 2010.04.16 13:43:02.
