data_PCOD8212393
_publ_section_title
;
Structure prediction by ZEFSAII (Michael W. Deem and Ramdas Pophale) SiO2 
 PCOD8212393
Probable space group: P M M A
;
_chemical_formula_sum "Si O2"
_cell_formula_units_Z 44
_cell_length_a 9.458009
_cell_length_b 7.963904
_cell_length_c 29.904669
_cell_angle_alpha 90.000000
_cell_angle_beta 90.000000
_cell_angle_gamma 90.000000
_cell_volume 2252.499685
_symmetry_space_group_name_H-M "P M M A"
_symmetry_group_IT_number 51
_symmetry_cell_setting 'orthorhombic'
loop_
_space_group_symop_operation_xyz
x,y,z
1/2-x,-y,z
1/2+x,-y,-z
-x,y,-z
-x,-y,-z
1/2+x,y,-z
1/2-x,y,z
x,-y,z
loop_
_atom_site_type_symbol
_atom_site_label
_atom_site_fract_x
_atom_site_fract_y
_atom_site_fract_z
Si Si1 0.093875 0.193836 0.717460
Si Si2 0.090206 0.307033 0.362137
Si Si3 0.911881 0.196847 0.541613
Si Si4 0.080951 0.000000 0.046227
Si Si5 0.582497 0.687324 0.894515
Si Si6 0.910949 0.199712 0.798877
O O1 0.250000 0.278263 0.714784
O O2 0.013665 0.209824 0.670619
O O3 0.003449 0.273647 0.757980
O O4 0.112089 0.000000 0.728203
O O5 0.250000 0.233985 0.357816
O O6 0.087157 0.500000 0.348594
O O7 0.035861 0.284057 0.412814
O O8 0.750000 0.241710 0.531994
O O9 0.000000 0.269793 0.500000
O O10 0.937405 0.000000 0.547155
O O11 0.028259 0.167681 0.072102
O O12 0.250000 0.000000 0.039178
O O13 0.000000 0.000000 0.000000
O O14 0.750000 0.698427 0.893022
O O15 0.532731 0.500000 0.910001
O O16 0.526162 0.722487 0.844509
O O17 0.750000 0.258451 0.790536
O O18 0.918015 0.000000 0.802683
#
# Coordination Sequence:
#
# PCOD8212393 Si02
#       6
#     8   8   8   4   8   8
#     4  10  21  35  52  77 108 142 176 213 263 319
#     4  10  21  36  53  74 102 137 177 218 258 307
#     4   9  18  33  53  75  98 126 164 210 258 309
#     4  10  20  36  56  80 110 144 182 226 273 320
#     4   9  17  31  54  81 107 139 182 228 270 318
#     4   9  16  30  53  77 101 134 177 221 264 312
#
# _framework density 19.533853000000001
#
# number of rings (size 3 to 8) (size 9 to 14) (size 15 to 20)
#    0.000    2.545    0.909    1.091    0.000    4.364 
#    0.000    4.545    0.000    1.091    0.000    0.000 
#    0.000    0.000    0.000    0.000    0.000    0.000 
#
# Total GULP energy -545498.009469 kJ/mol
# GULP energy per Si atom -12397.682033 kJ/mol
# Density = 1.948939 g / cm^3
# Si number density = 19.533853 Si / 1000 Ang^3
#
#
#
# Elastic Constant Matrix: (Units=GPa)
#
#
# Indices 1 2 3 4 5 6 
#
# 1 86.3589 24.1602 72.9941 0.0000 0.0000 0.0000
# 2 24.1602 67.0805 44.1310 0.0000 0.0000 0.0000
# 3 72.9941 44.1310 159.2350 0.0000 0.0000 0.0000
# 4 0.0000 0.0000 0.0000 12.7564 0.0000 0.0000
# 5 0.0000 0.0000 0.0000 0.0000 34.5497 0.0000
# 6 0.0000 0.0000 0.0000 0.0000 0.0000 9.0666
#
#
#
# Elastic Compliance Matrix: (Units=1/GPa)
#
#
# Indices 1 2 3 4 5 6 
#
# 1 0.019005 -0.001362 -0.008335 0.000000 0.000000 0.000000
# 2 -0.001362 0.018329 -0.004456 0.000000 0.000000 0.000000
# 3 -0.008335 -0.004456 0.011336 0.000000 0.000000 0.000000
# 4 0.000000 0.000000 0.000000 0.078392 0.000000 0.000000
# 5 0.000000 0.000000 0.000000 0.000000 0.028944 0.000000
# 6 0.000000 0.000000 0.000000 0.000000 0.000000 0.110296
#
#
# Mechanical properties :
#
#
# Convention : Reuss Voigt Hill
#
# Bulk Modulus (GPa) = 49.10176 66.13833 57.62004
# Shear Modulus (GPa) = 16.58955 22.70048 19.64501
#
# Velocity S-wave (km/s) = 2.91739 3.41267 3.17470
# Velocity P-wave (km/s) = 6.04479 7.03280 6.55743
#
# Compressibility (1/GPa) = 0.02036587
#
# Stress axis : x y z
#
# Youngs Moduli (GPa) = 52.61646 54.55784 88.21809
#
# Poissons Ratio (x) = 0.07430 0.73528
# Poissons Ratio (y) = 0.07166 0.39306
# Poissons Ratio (z) = 0.43855 0.24308
#
# Static dielectric constant tensor:
#      x y z
#    x 3.560610 0.000000 0.000000 
#    y 0.000000 3.534070 0.000000 
#    z 0.000000 0.000000 3.619830 
# 
# 
# High freq. dielectric constant tensor:
#      x y z
#    x 1.731060 0.000000 0.000000 
#    y 0.000000 1.753700 0.000000 
#    z 0.000000 0.000000 1.765500 
# 
# From -- ./inp_files/36778.got.cif
#   From: 2010.03.12/outbox.cif.g09.slc.cpg/sg51_19_cif.got.tgz:36778.got - 2010.04.16 13:43:02.
