data_PCOD8212759
_publ_section_title
;
Structure prediction by ZEFSAII (Michael W. Deem and Ramdas Pophale) SiO2 
 PCOD8212759
Probable space group: P M M A
;
_chemical_formula_sum "Si O2"
_cell_formula_units_Z 40
_cell_length_a 22.518715
_cell_length_b 9.317570
_cell_length_c 10.010791
_cell_angle_alpha 90.000000
_cell_angle_beta 90.000000
_cell_angle_gamma 90.000000
_cell_volume 2100.461198
_symmetry_space_group_name_H-M "P M M A"
_symmetry_group_IT_number 51
_symmetry_cell_setting 'orthorhombic'
loop_
_space_group_symop_operation_xyz
x,y,z
1/2-x,-y,z
1/2+x,-y,-z
-x,y,-z
-x,-y,-z
1/2+x,y,-z
1/2-x,y,z
x,-y,z
loop_
_atom_site_type_symbol
_atom_site_label
_atom_site_fract_x
_atom_site_fract_y
_atom_site_fract_z
Si Si1 0.680649 0.665964 0.041370
Si Si2 0.871822 0.666241 0.758148
Si Si3 0.000656 0.668092 0.655421
Si Si4 0.113763 0.829369 0.730649
Si Si5 0.182794 0.837130 0.470294
O O1 0.750000 0.697130 0.017184
O O2 0.670298 0.500000 0.080618
O O3 0.656566 0.768295 0.156188
O O4 0.643768 0.706746 0.909335
O O5 0.861804 0.500000 0.730775
O O6 0.938946 0.711226 0.724446
O O7 0.826312 0.745790 0.661964
O O8 0.014903 0.500000 0.670769
O O9 0.000000 0.713285 0.500000
O O10 0.049058 0.758119 0.737810
O O11 0.140968 0.782453 0.588941
O O12 0.109236 0.000000 0.747096
O O13 0.250000 0.820440 0.520343
O O14 0.167389 0.000000 0.433772
#
# Coordination Sequence:
#
# PCOD8212759 Si02
#       5
#     8   8   8   8   8
#     4  10  22  40  60  84 116 153 194 240 292 348
#     4  10  21  38  61  87 115 150 193 243 292 344
#     4  10  20  37  61  88 119 152 193 243 295 347
#     4  11  23  38  59  85 118 157 196 239 288 346
#     4  10  21  36  55  82 114 149 191 238 289 344
#
# _framework density 19.043437000000001
#
# number of rings (size 3 to 8) (size 9 to 14) (size 15 to 20)
#    0.000    1.800    2.000    1.800    0.000    6.000 
#    0.000    4.000    0.000    0.000    0.000    0.000 
#    0.000    0.000    0.000    0.000    0.000    0.000 
#
# Total GULP energy -496188.795016 kJ/mol
# GULP energy per Si atom -12404.719875 kJ/mol
# Density = 1.900009 g / cm^3
# Si number density = 19.043437 Si / 1000 Ang^3
#
#
#
# Elastic Constant Matrix: (Units=GPa)
#
#
# Indices 1 2 3 4 5 6 
#
# 1 97.2076 40.0570 37.9267 0.0000 0.0000 0.0000
# 2 40.0570 63.0693 45.7854 0.0000 0.0000 0.0000
# 3 37.9267 45.7854 78.8012 0.0000 0.0000 0.0000
# 4 0.0000 0.0000 0.0000 29.4400 0.0000 0.0000
# 5 0.0000 0.0000 0.0000 0.0000 39.9508 0.0000
# 6 0.0000 0.0000 0.0000 0.0000 0.0000 27.7081
#
#
#
# Elastic Compliance Matrix: (Units=1/GPa)
#
#
# Indices 1 2 3 4 5 6 
#
# 1 0.014276 -0.007055 -0.002772 0.000000 0.000000 0.000000
# 2 -0.007055 0.030908 -0.014563 0.000000 0.000000 0.000000
# 3 -0.002772 -0.014563 0.022486 0.000000 0.000000 0.000000
# 4 0.000000 0.000000 0.000000 0.033967 0.000000 0.000000
# 5 0.000000 0.000000 0.000000 0.000000 0.025031 0.000000
# 6 0.000000 0.000000 0.000000 0.000000 0.000000 0.036091
#
#
# Mechanical properties :
#
#
# Convention : Reuss Voigt Hill
#
# Bulk Modulus (GPa) = 52.93666 54.06849 53.50258
# Shear Modulus (GPa) = 22.95314 27.10703 25.03009
#
# Velocity S-wave (km/s) = 3.47552 3.77693 3.62935
# Velocity P-wave (km/s) = 6.63052 6.89015 6.76158
#
# Compressibility (1/GPa) = 0.01889050
#
# Stress axis : x y z
#
# Youngs Moduli (GPa) = 70.04841 32.35375 44.47242
#
# Poissons Ratio (x) = 0.22824 0.12328
# Poissons Ratio (y) = 0.49417 0.64766
# Poissons Ratio (z) = 0.19417 0.47117
#
# Static dielectric constant tensor:
#      x y z
#    x 3.604780 0.000000 0.000000 
#    y 0.000000 3.425910 0.000000 
#    z 0.000000 0.000000 3.456330 
# 
# 
# High freq. dielectric constant tensor:
#      x y z
#    x 1.754100 0.000000 0.000000 
#    y 0.000000 1.736150 0.000000 
#    z 0.000000 0.000000 1.738830 
# 
# From -- ./inp_files/11410.got.cif
#   From: 2010.03.12/outbox.cif.g09.slc.cpg/sg51_6_cif.got.tgz:11410.got - 2010.04.16 13:43:02.
