data_PCOD8212455
_publ_section_title
;
Structure prediction by ZEFSAII (Michael W. Deem and Ramdas Pophale) SiO2 
 PCOD8212455
Probable space group: P M M A
;
_chemical_formula_sum "Si O2"
_cell_formula_units_Z 48
_cell_length_a 8.738581
_cell_length_b 30.145416
_cell_length_c 9.449556
_cell_angle_alpha 90.000000
_cell_angle_beta 90.000000
_cell_angle_gamma 90.000000
_cell_volume 2489.279145
_symmetry_space_group_name_H-M "P M M A"
_symmetry_group_IT_number 51
_symmetry_cell_setting 'orthorhombic'
loop_
_space_group_symop_operation_xyz
x,y,z
1/2-x,-y,z
1/2+x,-y,-z
-x,y,-z
-x,-y,-z
1/2+x,y,-z
1/2-x,y,z
x,-y,z
loop_
_atom_site_type_symbol
_atom_site_label
_atom_site_fract_x
_atom_site_fract_y
_atom_site_fract_z
Si Si1 0.067327 0.000000 0.342527
Si Si2 0.073441 0.426280 0.153605
Si Si3 0.070114 0.743536 0.645891
Si Si4 0.568765 0.922229 0.156118
Si Si5 0.425332 0.673831 0.150783
Si Si6 0.928904 0.842994 0.353536
Si Si7 0.430938 0.500000 0.654884
O O1 0.000000 0.000000 0.500000
O O2 0.009449 0.042621 0.258499
O O3 0.250000 0.000000 0.350790
O O4 0.250000 0.440891 0.143337
O O5 0.059121 0.375973 0.211401
O O6 0.984955 0.456185 0.264793
O O7 0.000000 0.432379 0.000000
O O8 0.250000 0.742802 0.632923
O O9 0.011379 0.793362 0.682067
O O10 0.000000 0.726813 0.500000
O O11 0.018788 0.709202 0.761914
O O12 0.750000 0.930880 0.149461
O O13 0.527875 0.874185 0.221418
O O14 0.500000 0.925687 0.000000
O O15 0.250000 0.688881 0.142980
O O16 0.500000 0.674304 0.000000
O O17 0.750000 0.843118 0.379575
O O18 0.000000 0.860932 0.500000
O O19 0.250000 0.500000 0.644007
O O20 0.500000 0.500000 0.500000
#
# Coordination Sequence:
#
# PCOD8212455 Si02
#       7
#     4   8   8   8   8   8   4
#     4  12  25  42  63  88 116 150 190 232 281 338
#     4  10  21  39  61  84 112 147 188 229 276 333
#     4  10  20  36  57  83 115 151 190 234 282 334
#     4  11  23  40  60  86 118 152 190 234 284 335
#     4  10  21  37  58  84 113 148 188 232 279 332
#     4   9  20  37  58  83 112 148 191 234 280 335
#     4  12  25  40  59  84 114 146 184 230 281 332
#
# _framework density 19.282691
#
# number of rings (size 3 to 8) (size 9 to 14) (size 15 to 20)
#    0.000    1.667    0.000    4.500    0.000    6.667 
#    0.000    1.667    0.000    0.000    0.000    0.000 
#    0.000    0.000    0.000    0.000    0.000    0.000 
#
# Total GULP energy -595266.479769 kJ/mol
# GULP energy per Si atom -12401.384995 kJ/mol
# Density = 1.923880 g / cm^3
# Si number density = 19.282691 Si / 1000 Ang^3
#
#
#
# Elastic Constant Matrix: (Units=GPa)
#
#
# Indices 1 2 3 4 5 6 
#
# 1 118.6185 49.4325 52.6841 0.0000 0.0000 0.0000
# 2 49.4325 106.0049 63.3672 0.0000 0.0000 0.0000
# 3 52.6841 63.3672 119.4116 0.0000 0.0000 0.0000
# 4 0.0000 0.0000 0.0000 47.6882 0.0000 0.0000
# 5 0.0000 0.0000 0.0000 0.0000 39.8098 0.0000
# 6 0.0000 0.0000 0.0000 0.0000 0.0000 31.0625
#
#
#
# Elastic Compliance Matrix: (Units=1/GPa)
#
#
# Indices 1 2 3 4 5 6 
#
# 1 0.011236 -0.003334 -0.003188 0.000000 0.000000 0.000000
# 2 -0.003334 0.014805 -0.006386 0.000000 0.000000 0.000000
# 3 -0.003188 -0.006386 0.013170 0.000000 0.000000 0.000000
# 4 0.000000 0.000000 0.000000 0.020970 0.000000 0.000000
# 5 0.000000 0.000000 0.000000 0.000000 0.025119 0.000000
# 6 0.000000 0.000000 0.000000 0.000000 0.000000 0.032193
#
#
# Mechanical properties :
#
#
# Convention : Reuss Voigt Hill
#
# Bulk Modulus (GPa) = 74.65186 75.00030 74.82608
# Shear Modulus (GPa) = 33.83563 35.61552 34.72558
#
# Velocity S-wave (km/s) = 4.19348 4.30236 4.24827
# Velocity P-wave (km/s) = 7.88958 7.97872 7.93428
#
# Compressibility (1/GPa) = 0.01339551
#
# Stress axis : x y z
#
# Youngs Moduli (GPa) = 89.00265 67.54295 75.93194
#
# Poissons Ratio (x) = 0.22517 0.24208
# Poissons Ratio (y) = 0.29671 0.48489
# Poissons Ratio (z) = 0.28375 0.43132
#
# Static dielectric constant tensor:
#      x y z
#    x 3.700450 0.000000 0.000000 
#    y 0.000000 3.964880 0.000000 
#    z 0.000000 0.000000 3.644320 
# 
# 
# High freq. dielectric constant tensor:
#      x y z
#    x 1.766190 0.000000 0.000000 
#    y 0.000000 1.764490 0.000000 
#    z 0.000000 0.000000 1.750070 
# 
# From -- ./inp_files/6272.got.cif
#   From: 2010.03.12/outbox.cif.g09.slc.cpg/sg51_4_cif.got.tgz:6272.got - 2010.04.16 13:43:02.
