data_PCOD8212665
_publ_section_title
;
Structure prediction by ZEFSAII (Michael W. Deem and Ramdas Pophale) SiO2 
 PCOD8212665
Probable space group: P M M A
;
_chemical_formula_sum "Si O2"
_cell_formula_units_Z 48
_cell_length_a 8.477564
_cell_length_b 17.084125
_cell_length_c 15.986069
_cell_angle_alpha 90.000000
_cell_angle_beta 90.000000
_cell_angle_gamma 90.000000
_cell_volume 2315.290558
_symmetry_space_group_name_H-M "P M M A"
_symmetry_group_IT_number 51
_symmetry_cell_setting 'orthorhombic'
loop_
_space_group_symop_operation_xyz
x,y,z
1/2-x,-y,z
1/2+x,-y,-z
-x,y,-z
-x,-y,-z
1/2+x,y,-z
1/2-x,y,z
x,-y,z
loop_
_atom_site_type_symbol
_atom_site_label
_atom_site_fract_x
_atom_site_fract_y
_atom_site_fract_z
Si Si1 0.567190 0.408963 0.247641
Si Si2 0.435554 0.136262 0.589469
Si Si3 0.936342 0.834287 0.088808
Si Si4 0.570981 0.000000 0.137439
Si Si5 0.565082 0.677634 0.906613
Si Si6 0.434174 0.683806 0.590813
Si Si7 0.430161 0.000000 0.306533
O O1 0.750000 0.386706 0.235488
O O2 0.542549 0.500000 0.264518
O O3 0.477557 0.388406 0.161353
O O4 0.497349 0.365566 0.330676
O O5 0.500000 0.113713 0.500000
O O6 0.250000 0.118049 0.597421
O O7 0.475091 0.225927 0.610426
O O8 0.538696 0.080734 0.647166
O O9 0.750000 0.841011 0.098155
O O10 0.997439 0.758020 0.138458
O O11 0.014049 0.919439 0.107647
O O12 0.000000 0.808329 0.000000
O O13 0.750000 0.000000 0.105263
O O14 0.562158 0.000000 0.235788
O O15 0.750000 0.685789 0.916817
O O16 0.500000 0.656903 0.000000
O O17 0.500000 0.657606 0.500000
O O18 0.250000 0.669711 0.584278
O O19 0.250000 0.000000 0.273951
#
# Coordination Sequence:
#
# PCOD8212665 Si02
#       7
#     8   8   8   4   8   8   4
#     4  10  22  41  64  91 123 159 198 244 301 362
#     4  10  20  37  58  80 110 150 195 239 292 346
#     4  10  20  37  60  84 114 152 195 239 289 343
#     4  10  23  38  54  80 115 156 194 236 287 344
#     4  11  23  40  63  91 122 159 202 248 301 358
#     4   9  20  38  62  90 120 158 198 243 296 355
#     4  12  25  36  51  80 115 150 195 244 291 340
#
# _framework density 20.731739999999999
#
# number of rings (size 3 to 8) (size 9 to 14) (size 15 to 20)
#    0.000    1.833    0.000    4.750    2.333    3.667 
#    0.000    0.000    0.000    0.000    0.000    0.000 
#    0.000    0.000    0.000    0.000    0.000    0.000 
#
# Total GULP energy -594724.069329 kJ/mol
# GULP energy per Si atom -12390.084778 kJ/mol
# Density = 2.068455 g / cm^3
# Si number density = 20.731740 Si / 1000 Ang^3
#
#
#
# Elastic Constant Matrix: (Units=GPa)
#
#
# Indices 1 2 3 4 5 6 
#
# 1 73.3378 25.2681 21.5052 0.0000 0.0000 0.0000
# 2 25.2681 94.4978 46.6825 0.0000 0.0000 0.0000
# 3 21.5052 46.6825 111.4949 0.0000 0.0000 0.0000
# 4 0.0000 0.0000 0.0000 43.4179 0.0000 0.0000
# 5 0.0000 0.0000 0.0000 0.0000 31.2542 0.0000
# 6 0.0000 0.0000 0.0000 0.0000 0.0000 27.8309
#
#
#
# Elastic Compliance Matrix: (Units=1/GPa)
#
#
# Indices 1 2 3 4 5 6 
#
# 1 0.015230 -0.003305 -0.001554 0.000000 0.000000 0.000000
# 2 -0.003305 0.014059 -0.005249 0.000000 0.000000 0.000000
# 3 -0.001554 -0.005249 0.011466 0.000000 0.000000 0.000000
# 4 0.000000 0.000000 0.000000 0.023032 0.000000 0.000000
# 5 0.000000 0.000000 0.000000 0.000000 0.031996 0.000000
# 6 0.000000 0.000000 0.000000 0.000000 0.000000 0.035931
#
#
# Mechanical properties :
#
#
# Convention : Reuss Voigt Hill
#
# Bulk Modulus (GPa) = 48.68541 51.80467 50.24504
# Shear Modulus (GPa) = 31.49089 32.89225 32.19157
#
# Velocity S-wave (km/s) = 3.90162 3.98749 3.94479
# Velocity P-wave (km/s) = 6.62053 6.80018 6.71096
#
# Compressibility (1/GPa) = 0.02054004
#
# Stress axis : x y z
#
# Youngs Moduli (GPa) = 65.66072 71.12897 87.21083
#
# Poissons Ratio (x) = 0.23506 0.13551
# Poissons Ratio (y) = 0.21699 0.45777
# Poissons Ratio (z) = 0.10203 0.37336
#
# Static dielectric constant tensor:
#      x y z
#    x 3.588810 0.000000 0.000000 
#    y 0.000000 4.074130 0.000000 
#    z 0.000000 0.000000 3.684790 
# 
# 
# High freq. dielectric constant tensor:
#      x y z
#    x 1.799610 0.000000 0.000000 
#    y 0.000000 1.824080 0.000000 
#    z 0.000000 0.000000 1.808640 
# 
# From -- ./inp_files/21186.got.cif
#   From: 2010.03.12/outbox.cif.g09.slc.cpg/sg51_11_cif.got.tgz:21186.got - 2010.04.16 13:43:02.
