data_PCOD8212906
_publ_section_title
;
Structure prediction by ZEFSAII (Michael W. Deem and Ramdas Pophale) SiO2 
 PCOD8212906
Probable space group: P M M A
;
_chemical_formula_sum "Si O2"
_cell_formula_units_Z 38
_cell_length_a 15.394456
_cell_length_b 10.849610
_cell_length_c 11.215820
_cell_angle_alpha 90.000000
_cell_angle_beta 90.000000
_cell_angle_gamma 90.000000
_cell_volume 1873.309367
_symmetry_space_group_name_H-M "P M M A"
_symmetry_group_IT_number 51
_symmetry_cell_setting 'orthorhombic'
loop_
_space_group_symop_operation_xyz
x,y,z
1/2-x,-y,z
1/2+x,-y,-z
-x,y,-z
-x,-y,-z
1/2+x,y,-z
1/2-x,y,z
x,-y,z
loop_
_atom_site_type_symbol
_atom_site_label
_atom_site_fract_x
_atom_site_fract_y
_atom_site_fract_z
Si Si1 0.588493 0.000000 0.078463
Si Si2 0.750000 0.738914 0.838221
Si Si3 0.096023 0.751934 0.773373
Si Si4 0.850855 0.357545 0.465662
Si Si5 0.250000 0.360884 0.911589
Si Si6 0.750000 0.000000 0.903138
Si Si7 0.919418 0.641601 0.719788
O O1 0.600258 0.113953 0.168494
O O2 0.500000 0.000000 0.000000
O O3 0.664619 0.000000 0.983311
O O4 0.832789 0.670142 0.789632
O O5 0.750000 0.884696 0.811585
O O6 0.750000 0.733976 0.980744
O O7 0.121879 0.742179 0.633853
O O8 0.162874 0.659507 0.836184
O O9 0.996268 0.713072 0.785690
O O10 0.750000 0.341967 0.499186
O O11 0.869167 0.500000 0.425591
O O12 0.908111 0.323417 0.581112
O O13 0.250000 0.500000 0.959201
O O14 0.942090 0.500000 0.731906
#
# Coordination Sequence:
#
# PCOD8212906 Si02
#       7
#     4   4   8   8   4   2   8
#     4  12  26  48  66  90 131 182 227 268 318 387
#     4  12  24  43  64  94 131 174 225 260 326 405
#     4  12  24  41  68  96 128 176 226 267 323 391
#     4  10  20  40  68  98 135 170 207 266 340 400
#     4  12  24  39  64 100 133 161 215 285 330 387
#     4  12  24  48  66  82 128 184 220 260 322 378
#     4  11  23  41  67 100 136 171 208 270 341 399
#
# _framework density 20.284956000000001
#
# number of rings (size 3 to 8) (size 9 to 14) (size 15 to 20)
#    0.000    0.632    4.211    4.737    0.000    1.684 
#    0.000    5.263    0.000    0.000    0.000    0.000 
#    0.000    0.000    0.000    0.000    0.000    0.000 
#
# Total GULP energy -471164.423592 kJ/mol
# GULP energy per Si atom -12399.063779 kJ/mol
# Density = 2.023879 g / cm^3
# Si number density = 20.284956 Si / 1000 Ang^3
#
#
#
# Elastic Constant Matrix: (Units=GPa)
#
#
# Indices 1 2 3 4 5 6 
#
# 1 127.8369 8.1134 18.5625 0.0000 0.0000 0.0000
# 2 8.1134 63.0053 15.9004 0.0000 0.0000 0.0000
# 3 18.5625 15.9004 77.1085 0.0000 0.0000 0.0000
# 4 0.0000 0.0000 0.0000 38.3269 0.0000 0.0000
# 5 0.0000 0.0000 0.0000 0.0000 -8.0414 0.0000
# 6 0.0000 0.0000 0.0000 0.0000 0.0000 26.7095
#
#
#
# Elastic Compliance Matrix: (Units=1/GPa)
#
#
# Indices 1 2 3 4 5 6 
#
# 1 0.008126 -0.000583 -0.001836 0.000000 0.000000 0.000000
# 2 -0.000583 0.016785 -0.003321 0.000000 0.000000 0.000000
# 3 -0.001836 -0.003321 0.014095 0.000000 0.000000 0.000000
# 4 0.000000 0.000000 0.000000 0.026091 0.000000 0.000000
# 5 0.000000 0.000000 0.000000 0.000000 -0.124357 0.000000
# 6 0.000000 0.000000 0.000000 0.000000 0.000000 0.037440
#
#
# Mechanical properties :
#
#
# Convention : Reuss Voigt Hill
#
# Bulk Modulus (GPa) = 36.32838 39.23369 37.78104
# Shear Modulus (GPa) = -4294.25788 26.42397 -2133.91696
#
# Velocity S-wave (km/s) = -46.06042 3.61312 -32.46928
# Velocity P-wave (km/s) = 53.01700 6.06543 37.24253
#
# Compressibility (1/GPa) = 0.02752668
#
# Stress axis : x y z
#
# Youngs Moduli (GPa) = 123.06080 59.57769 70.94464
#
# Poissons Ratio (x) = 0.03474 0.13025
# Poissons Ratio (y) = 0.07175 0.23559
# Poissons Ratio (z) = 0.22594 0.19784
#
# Static dielectric constant tensor:
#      x y z
#    x 3.870490 0.000000 0.000000 
#    y 0.000000 3.582660 0.000000 
#    z 0.000000 0.000000 3.755660 
# 
# 
# High freq. dielectric constant tensor:
#      x y z
#    x 1.818770 0.000000 0.000000 
#    y 0.000000 1.778450 0.000000 
#    z 0.000000 0.000000 1.795950 
# 
# From -- ./inp_files/16262.got.cif
#   From: 2010.03.12/outbox.cif.g09.slc.cpg/sg51_9_cif.got.tgz:16262.got - 2010.04.16 13:43:02.
