data_PCOD8212125
_publ_section_title
;
Structure prediction by ZEFSAII (Michael W. Deem and Ramdas Pophale) SiO2 
 PCOD8212125
Probable space group: P M M A
;
_chemical_formula_sum "Si O2"
_cell_formula_units_Z 64
_cell_length_a 13.925086
_cell_length_b 9.295560
_cell_length_c 25.733446
_cell_angle_alpha 90.000000
_cell_angle_beta 90.000000
_cell_angle_gamma 90.000000
_cell_volume 3330.975141
_symmetry_space_group_name_H-M "P M M A"
_symmetry_group_IT_number 51
_symmetry_cell_setting 'orthorhombic'
loop_
_space_group_symop_operation_xyz
x,y,z
1/2-x,-y,z
1/2+x,-y,-z
-x,y,-z
-x,-y,-z
1/2+x,y,-z
1/2-x,y,z
x,-y,z
loop_
_atom_site_type_symbol
_atom_site_label
_atom_site_fract_x
_atom_site_fract_y
_atom_site_fract_z
Si Si1 0.857569 0.665489 0.625859
Si Si2 0.364316 0.837722 0.474366
Si Si3 0.475848 0.168354 0.874666
Si Si4 0.636402 0.663877 0.427589
Si Si5 0.860916 0.668209 0.920054
Si Si6 0.140385 0.170177 0.773652
Si Si7 0.860506 0.836228 0.022945
Si Si8 0.454996 0.334287 0.680216
O O1 0.750000 0.714113 0.642647
O O2 0.857594 0.500000 0.607996
O O3 0.898122 0.754849 0.577165
O O4 0.929769 0.688061 0.674287
O O5 0.250000 0.832574 0.476718
O O6 0.406578 0.761868 0.526038
O O7 0.403313 0.000000 0.472290
O O8 0.575668 0.256731 0.875145
O O9 0.411729 0.219446 0.826358
O O10 0.419030 0.209604 0.926614
O O11 0.499070 0.000000 0.871192
O O12 0.750000 0.679287 0.424642
O O13 0.605093 0.500000 0.438402
O O14 0.594546 0.717399 0.372957
O O15 0.750000 0.700691 0.907320
O O16 0.882631 0.500000 0.921564
O O17 0.890504 0.734767 0.975524
O O18 0.250000 0.226500 0.774608
O O19 0.082829 0.236855 0.726182
O O20 0.138208 0.000000 0.767620
O O21 0.750000 0.817422 0.037865
O O22 0.883419 0.000000 0.006224
O O23 0.429524 0.500000 0.692172
#
# Coordination Sequence:
#
# PCOD8212125 Si02
#       8
#     8   8   8   8   8   8   8   8
#     4   9  18  34  54  74 100 135 172 211 257 308
#     4   9  17  29  47  73 103 133 166 207 256 310
#     4  10  20  35  56  80 106 141 184 222 260 313
#     4   9  17  30  48  70  99 134 169 207 254 310
#     4  10  21  35  51  77 114 149 180 219 266 311
#     4  10  22  40  60  82 108 135 166 212 267 315
#     4   9  17  31  53  80 110 145 183 221 263 315
#     4  10  21  36  55  78 102 134 178 220 258 307
#
# _framework density 19.213594000000001
#
# number of rings (size 3 to 8) (size 9 to 14) (size 15 to 20)
#    0.000    2.500    0.000    1.875    0.000    8.500 
#    0.000    4.375    0.000    4.500    0.000    0.000 
#    0.000    0.000    0.000    0.000    0.000    0.000 
#
# Total GULP energy -793680.977459 kJ/mol
# GULP energy per Si atom -12401.265273 kJ/mol
# Density = 1.916986 g / cm^3
# Si number density = 19.213594 Si / 1000 Ang^3
#
#
#
# Elastic Constant Matrix: (Units=GPa)
#
#
# Indices 1 2 3 4 5 6 
#
# 1 91.0992 44.7682 74.0345 0.0000 0.0000 0.0000
# 2 44.7682 74.3087 54.8618 0.0000 0.0000 0.0000
# 3 74.0345 54.8618 105.2304 0.0000 0.0000 0.0000
# 4 0.0000 0.0000 0.0000 12.2106 0.0000 0.0000
# 5 0.0000 0.0000 0.0000 0.0000 32.2636 0.0000
# 6 0.0000 0.0000 0.0000 0.0000 0.0000 24.0093
#
#
#
# Elastic Compliance Matrix: (Units=1/GPa)
#
#
# Indices 1 2 3 4 5 6 
#
# 1 0.026192 -0.003536 -0.016584 0.000000 0.000000 0.000000
# 2 -0.003536 0.022356 -0.009168 0.000000 0.000000 0.000000
# 3 -0.016584 -0.009168 0.025950 0.000000 0.000000 0.000000
# 4 0.000000 0.000000 0.000000 0.081896 0.000000 0.000000
# 5 0.000000 0.000000 0.000000 0.000000 0.030995 0.000000
# 6 0.000000 0.000000 0.000000 0.000000 0.000000 0.041650
#
#
# Mechanical properties :
#
#
# Convention : Reuss Voigt Hill
#
# Bulk Modulus (GPa) = 62.80114 68.66302 65.73208
# Shear Modulus (GPa) = 17.06937 20.16162 18.61549
#
# Velocity S-wave (km/s) = 2.98384 3.24287 3.11605
# Velocity P-wave (km/s) = 6.68040 7.05945 6.87254
#
# Compressibility (1/GPa) = 0.01592328
#
# Stress axis : x y z
#
# Youngs Moduli (GPa) = 38.17945 44.73066 38.53559
#
# Poissons Ratio (x) = 0.15816 0.63907
# Poissons Ratio (y) = 0.13500 0.35328
# Poissons Ratio (z) = 0.63316 0.41007
#
# Static dielectric constant tensor:
#      x y z
#    x 3.726960 0.000000 0.000000 
#    y 0.000000 3.468080 0.000000 
#    z 0.000000 0.000000 3.371170 
# 
# 
# High freq. dielectric constant tensor:
#      x y z
#    x 1.763460 0.000000 0.000000 
#    y 0.000000 1.738430 0.000000 
#    z 0.000000 0.000000 1.727030 
# 
# From -- ./inp_files/35826.got.cif
#   From: 2010.03.12/outbox.cif.g09.slc.cpg/sg51_18_cif.got.tgz:35826.got - 2010.04.16 13:43:02.
