data_PCOD8212614
_publ_section_title
;
Structure prediction by ZEFSAII (Michael W. Deem and Ramdas Pophale) SiO2 
 PCOD8212614
Probable space group: P M M A
;
_chemical_formula_sum "Si O2"
_cell_formula_units_Z 40
_cell_length_a 20.353730
_cell_length_b 9.014731
_cell_length_c 11.458123
_cell_angle_alpha 90.000000
_cell_angle_beta 90.000000
_cell_angle_gamma 90.000000
_cell_volume 2102.375375
_symmetry_space_group_name_H-M "P M M A"
_symmetry_group_IT_number 51
_symmetry_cell_setting 'orthorhombic'
loop_
_space_group_symop_operation_xyz
x,y,z
1/2-x,-y,z
1/2+x,-y,-z
-x,y,-z
-x,-y,-z
1/2+x,y,-z
1/2-x,y,z
x,-y,z
loop_
_atom_site_type_symbol
_atom_site_label
_atom_site_fract_x
_atom_site_fract_y
_atom_site_fract_z
Si Si1 0.494008 0.326303 0.363671
Si Si2 0.625120 0.674313 0.225192
Si Si3 0.750000 0.324053 0.623769
Si Si4 0.629955 0.172944 0.746189
Si Si5 0.750000 0.676337 0.363279
Si Si6 0.825446 0.172497 0.004013
O O1 0.500000 0.283483 0.500000
O O2 0.476973 0.500000 0.351312
O O3 0.560380 0.283268 0.296638
O O4 0.439339 0.228784 0.300850
O O5 0.630381 0.500000 0.206931
O O6 0.686041 0.738033 0.298554
O O7 0.628393 0.747958 0.098419
O O8 0.750000 0.500000 0.628168
O O9 0.685410 0.265612 0.683647
O O10 0.750000 0.261121 0.493191
O O11 0.638699 0.000000 0.717916
O O12 0.637466 0.203782 0.883198
O O13 0.750000 0.500000 0.365255
O O14 0.750000 0.234289 0.001553
O O15 0.823329 0.000000 0.032888
#
# Coordination Sequence:
#
# PCOD8212614 Si02
#       6
#     8   8   4   8   4   8
#     4  10  22  41  62  87 122 159 196 244 300 355
#     4  10  20  36  61  88 115 149 197 247 288 347
#     4  11  21  36  61  88 116 153 198 247 302 353
#     4  11  23  40  60  85 120 158 200 245 292 353
#     4   9  18  34  57  86 114 147 190 241 298 347
#     4  10  21  39  59  82 119 158 193 241 299 352
#
# _framework density 19.026098000000001
#
# number of rings (size 3 to 8) (size 9 to 14) (size 15 to 20)
#    0.000    1.800    2.000    2.100    0.000    6.800 
#    0.000    8.000    0.000    0.000    0.000    0.000 
#    0.000    0.000    0.000    0.000    0.000    0.000 
#
# Total GULP energy -496063.831002 kJ/mol
# GULP energy per Si atom -12401.595775 kJ/mol
# Density = 1.898279 g / cm^3
# Si number density = 19.026098 Si / 1000 Ang^3
#
#
#
# Elastic Constant Matrix: (Units=GPa)
#
#
# Indices 1 2 3 4 5 6 
#
# 1 135.7097 48.6872 77.9550 0.0000 0.0000 0.0000
# 2 48.6872 58.2013 60.6742 0.0000 0.0000 0.0000
# 3 77.9550 60.6742 157.6693 0.0000 0.0000 0.0000
# 4 0.0000 0.0000 0.0000 -110.0232 0.0000 0.0000
# 5 0.0000 0.0000 0.0000 0.0000 39.3988 0.0000
# 6 0.0000 0.0000 0.0000 0.0000 0.0000 31.8067
#
#
#
# Elastic Compliance Matrix: (Units=1/GPa)
#
#
# Indices 1 2 3 4 5 6 
#
# 1 0.011475 -0.006153 -0.003306 0.000000 0.000000 0.000000
# 2 -0.006153 0.031992 -0.009269 0.000000 0.000000 0.000000
# 3 -0.003306 -0.009269 0.011544 0.000000 0.000000 0.000000
# 4 0.000000 0.000000 0.000000 -0.009089 0.000000 0.000000
# 5 0.000000 0.000000 0.000000 0.000000 0.025382 0.000000
# 6 0.000000 0.000000 0.000000 0.000000 0.000000 0.031440
#
#
# Mechanical properties :
#
#
# Convention : Reuss Voigt Hill
#
# Bulk Modulus (GPa) = 56.96338 80.69034 68.82686
# Shear Modulus (GPa) = 34.23503 3.18739 18.71121
#
# Velocity S-wave (km/s) = 4.24650 1.29573 3.13940
# Velocity P-wave (km/s) = 7.35176 6.68887 7.02813
#
# Compressibility (1/GPa) = 0.01755514
#
# Stress axis : x y z
#
# Youngs Moduli (GPa) = 87.14604 31.25825 86.62824
#
# Poissons Ratio (x) = 0.19233 0.28636
# Poissons Ratio (y) = 0.53622 0.80294
# Poissons Ratio (z) = 0.28807 0.28973
#
# Static dielectric constant tensor:
#      x y z
#    x 4.910140 0.000000 0.000000 
#    y 0.000000 3.321810 0.000000 
#    z 0.000000 0.000000 3.686220 
# 
# 
# High freq. dielectric constant tensor:
#      x y z
#    x 1.747450 0.000000 0.000000 
#    y 0.000000 1.726450 0.000000 
#    z 0.000000 0.000000 1.756590 
# 
# From -- ./inp_files/17939.got.cif
#   From: 2010.03.12/outbox.cif.g09.slc.cpg/sg51_9_cif.got.tgz:17939.got - 2010.04.16 13:43:02.
