data_PCOD8212333
_publ_section_title
;
Structure prediction by ZEFSAII (Michael W. Deem and Ramdas Pophale) SiO2 
 PCOD8212333
Probable space group: P M M A
;
_chemical_formula_sum "Si O2"
_cell_formula_units_Z 48
_cell_length_a 27.910699
_cell_length_b 9.189266
_cell_length_c 10.112736
_cell_angle_alpha 90.000000
_cell_angle_beta 90.000000
_cell_angle_gamma 90.000000
_cell_volume 2593.702772
_symmetry_space_group_name_H-M "P M M A"
_symmetry_group_IT_number 51
_symmetry_cell_setting 'orthorhombic'
loop_
_space_group_symop_operation_xyz
x,y,z
1/2-x,-y,z
1/2+x,-y,-z
-x,y,-z
-x,-y,-z
1/2+x,y,-z
1/2-x,y,z
x,-y,z
loop_
_atom_site_type_symbol
_atom_site_label
_atom_site_fract_x
_atom_site_fract_y
_atom_site_fract_z
Si Si1 0.896300 0.672019 0.769902
Si Si2 0.849864 0.832595 0.004573
Si Si3 0.592851 0.167531 0.261175
Si Si4 0.646751 0.671732 0.490445
Si Si5 0.490424 0.168293 0.149686
Si Si6 0.750000 0.672043 0.400955
Si Si7 0.250000 0.835858 0.869355
O O1 0.900721 0.500000 0.781300
O O2 0.872693 0.720905 0.632238
O O3 0.948808 0.739561 0.782949
O O4 0.861309 0.730452 0.882237
O O5 0.881410 0.780026 0.127959
O O6 0.794738 0.808112 0.036801
O O7 0.861857 0.000000 0.969658
O O8 0.611569 0.260928 0.382404
O O9 0.536357 0.191448 0.242577
O O10 0.605541 0.000000 0.289432
O O11 0.644633 0.500000 0.472133
O O12 0.701729 0.728058 0.474236
O O13 0.474724 0.000000 0.144383
O O14 0.500000 0.223090 0.000000
O O15 0.750000 0.500000 0.396273
O O16 0.750000 0.726615 0.251648
O O17 0.250000 0.000000 0.811991
#
# Coordination Sequence:
#
# PCOD8212333 Si02
#       7
#     8   8   8   8   8   4   4
#     4  11  24  39  57  85 119 157 195 236 287 342
#     4  10  20  37  59  86 117 147 186 239 290 339
#     4  10  20  36  62  88 111 148 193 236 288 345
#     4  10  23  40  57  83 120 155 191 237 286 338
#     4  10  20  38  61  85 115 151 191 240 294 345
#     4  10  20  37  60  82 112 156 194 229 282 342
#     4  10  20  35  60  90 116 142 186 245 292 336
#
# _framework density 18.506360000000001
#
# number of rings (size 3 to 8) (size 9 to 14) (size 15 to 20)
#    0.000    1.833    3.333    0.500    0.000    5.000 
#    0.000    4.167    0.000    0.000    0.000    0.000 
#    0.000    0.000    0.000    0.000    0.000    0.000 
#
# Total GULP energy -595340.118784 kJ/mol
# GULP energy per Si atom -12402.919141 kJ/mol
# Density = 1.846424 g / cm^3
# Si number density = 18.506360 Si / 1000 Ang^3
#
#
#
# Elastic Constant Matrix: (Units=GPa)
#
#
# Indices 1 2 3 4 5 6 
#
# 1 140.1259 39.1843 71.3543 0.0000 0.0000 0.0000
# 2 39.1843 41.1968 47.8339 0.0000 0.0000 0.0000
# 3 71.3543 47.8339 141.2874 0.0000 0.0000 0.0000
# 4 0.0000 0.0000 0.0000 27.7201 0.0000 0.0000
# 5 0.0000 0.0000 0.0000 0.0000 42.8472 0.0000
# 6 0.0000 0.0000 0.0000 0.0000 0.0000 35.3164
#
#
#
# Elastic Compliance Matrix: (Units=1/GPa)
#
#
# Indices 1 2 3 4 5 6 
#
# 1 0.010520 -0.006323 -0.003172 0.000000 0.000000 0.000000
# 2 -0.006323 0.043796 -0.011634 0.000000 0.000000 0.000000
# 3 -0.003172 -0.011634 0.012619 0.000000 0.000000 0.000000
# 4 0.000000 0.000000 0.000000 0.036075 0.000000 0.000000
# 5 0.000000 0.000000 0.000000 0.000000 0.023339 0.000000
# 6 0.000000 0.000000 0.000000 0.000000 0.000000 0.028315
#
#
# Mechanical properties :
#
#
# Convention : Reuss Voigt Hill
#
# Bulk Modulus (GPa) = 40.52476 71.03947 55.78211
# Shear Modulus (GPa) = 24.37263 32.12591 28.24927
#
# Velocity S-wave (km/s) = 3.63297 4.17098 3.91124
# Velocity P-wave (km/s) = 6.28834 7.85277 7.11369
#
# Compressibility (1/GPa) = 0.02467627
#
# Stress axis : x y z
#
# Youngs Moduli (GPa) = 95.05848 22.83297 79.24688
#
# Poissons Ratio (x) = 0.14436 0.25139
# Poissons Ratio (y) = 0.60102 0.92200
# Poissons Ratio (z) = 0.30155 0.26565
#
# Static dielectric constant tensor:
#      x y z
#    x 3.640510 0.000000 0.000000 
#    y 0.000000 3.311630 0.000000 
#    z 0.000000 0.000000 3.401260 
# 
# 
# High freq. dielectric constant tensor:
#      x y z
#    x 1.737780 0.000000 0.000000 
#    y 0.000000 1.709390 0.000000 
#    z 0.000000 0.000000 1.714310 
# 
# From -- ./inp_files/12964.got.cif
#   From: 2010.03.12/outbox.cif.g09.slc.cpg/sg51_7_cif.got.tgz:12964.got - 2010.04.16 13:43:02.
