data_PCOD8212518
_publ_section_title
;
Structure prediction by ZEFSAII (Michael W. Deem and Ramdas Pophale) SiO2 
 PCOD8212518
Probable space group: P M M A
;
_chemical_formula_sum "Si O2"
_cell_formula_units_Z 48
_cell_length_a 14.054858
_cell_length_b 18.406786
_cell_length_c 8.200795
_cell_angle_alpha 90.000000
_cell_angle_beta 90.000000
_cell_angle_gamma 90.000000
_cell_volume 2121.584731
_symmetry_space_group_name_H-M "P M M A"
_symmetry_group_IT_number 51
_symmetry_cell_setting 'orthorhombic'
loop_
_space_group_symop_operation_xyz
x,y,z
1/2-x,-y,z
1/2+x,-y,-z
-x,y,-z
-x,-y,-z
1/2+x,y,-z
1/2-x,y,z
x,-y,z
loop_
_atom_site_type_symbol
_atom_site_label
_atom_site_fract_x
_atom_site_fract_y
_atom_site_fract_z
Si Si1 0.355280 0.293467 0.869819
Si Si2 0.357295 0.418046 0.104673
Si Si3 0.636597 0.169378 0.604286
Si Si4 0.358327 0.150317 0.043478
Si Si5 0.531398 0.685163 0.663859
Si Si6 0.363589 0.917274 0.711942
O O1 0.250000 0.279370 0.791126
O O2 0.437943 0.277758 0.742677
O O3 0.362721 0.375886 0.933065
O O4 0.368542 0.237967 0.022253
O O5 0.250000 0.417126 0.172929
O O6 0.393310 0.500000 0.076011
O O7 0.424657 0.377802 0.229355
O O8 0.750000 0.168654 0.603530
O O9 0.600378 0.131203 0.775663
O O10 0.603257 0.252149 0.607493
O O11 0.595997 0.128139 0.443639
O O12 0.250000 0.124564 0.041451
O O13 0.407192 0.112020 0.885303
O O14 0.500000 0.643896 0.500000
O O15 0.250000 0.909399 0.714511
O O16 0.395844 0.000000 0.689214
#
# Coordination Sequence:
#
# PCOD8212518 Si02
#       6
#     8   8   8   8   8   8
#     4  10  21  39  61  88 119 158 211 262 310 368
#     4  10  22  42  66  91 124 163 204 255 310 368
#     4  10  20  36  58  87 126 169 213 262 313 375
#     4   9  17  32  56  81 112 158 210 258 306 364
#     4  12  24  36  60  93 125 165 207 254 311 376
#     4   9  18  32  53  87 128 166 207 259 316 374
#
# _framework density 22.624596
#
# number of rings (size 3 to 8) (size 9 to 14) (size 15 to 20)
#    0.000    2.000    1.667    2.000    0.000    5.000 
#    0.000    3.333    0.000    6.500    0.000    5.833 
#    0.000    0.000    0.000    0.000    0.000    0.000 
#
# Total GULP energy -594829.697779 kJ/mol
# GULP energy per Si atom -12392.285370 kJ/mol
# Density = 2.257310 g / cm^3
# Si number density = 22.624596 Si / 1000 Ang^3
#
#
#
# Elastic Constant Matrix: (Units=GPa)
#
#
# Indices 1 2 3 4 5 6 
#
# 1 27.5022 5.2814 27.0633 0.0000 0.0000 0.0000
# 2 5.2814 127.4234 41.0650 0.0000 0.0000 0.0000
# 3 27.0633 41.0650 154.4446 0.0000 0.0000 0.0000
# 4 0.0000 0.0000 0.0000 31.3816 0.0000 0.0000
# 5 0.0000 0.0000 0.0000 0.0000 -8.6349 0.0000
# 6 0.0000 0.0000 0.0000 0.0000 0.0000 9.5220
#
#
#
# Elastic Compliance Matrix: (Units=1/GPa)
#
#
# Indices 1 2 3 4 5 6 
#
# 1 0.043998 0.000723 -0.007902 0.000000 0.000000 0.000000
# 2 0.000723 0.008595 -0.002412 0.000000 0.000000 0.000000
# 3 -0.007902 -0.002412 0.008501 0.000000 0.000000 0.000000
# 4 0.000000 0.000000 0.000000 0.031866 0.000000 0.000000
# 5 0.000000 0.000000 0.000000 0.000000 -0.115810 0.000000
# 6 0.000000 0.000000 0.000000 0.000000 0.000000 0.105020
#
#
# Mechanical properties :
#
#
# Convention : Reuss Voigt Hill
#
# Bulk Modulus (GPa) = 23.85966 50.68772 37.27369
# Shear Modulus (GPa) = 43.35640 22.18443 32.77042
#
# Velocity S-wave (km/s) = 4.38235 3.13476 3.80997
# Velocity P-wave (km/s) = 6.01460 5.96278 5.98875
#
# Compressibility (1/GPa) = 0.04191175
#
# Stress axis : x y z
#
# Youngs Moduli (GPa) = 22.72841 116.34365 117.63578
#
# Poissons Ratio (x) = -0.08411 0.92955
# Poissons Ratio (y) = -0.01643 0.28374
# Poissons Ratio (z) = 0.17960 0.28063
#
# Static dielectric constant tensor:
#      x y z
#    x 4.020010 0.000000 0.000000 
#    y 0.000000 3.880440 0.000000 
#    z 0.000000 0.000000 4.437180 
# 
# 
# High freq. dielectric constant tensor:
#      x y z
#    x 1.892420 0.000000 0.000000 
#    y 0.000000 1.867830 0.000000 
#    z 0.000000 0.000000 1.898240 
# 
# From -- ./inp_files/8273.got.cif
#   From: 2010.03.12/outbox.cif.g09.slc.cpg/sg51_5_cif.got.tgz:8273.got - 2010.04.16 13:43:02.
