data_PCOD8212182
_publ_section_title
;
Structure prediction by ZEFSAII (Michael W. Deem and Ramdas Pophale) SiO2 
 PCOD8212182
Probable space group: P M M A
;
_chemical_formula_sum "Si O2"
_cell_formula_units_Z 48
_cell_length_a 9.472715
_cell_length_b 29.312833
_cell_length_c 8.997602
_cell_angle_alpha 90.000000
_cell_angle_beta 90.000000
_cell_angle_gamma 90.000000
_cell_volume 2498.383158
_symmetry_space_group_name_H-M "P M M A"
_symmetry_group_IT_number 51
_symmetry_cell_setting 'orthorhombic'
loop_
_space_group_symop_operation_xyz
x,y,z
1/2-x,-y,z
1/2+x,-y,-z
-x,y,-z
-x,-y,-z
1/2+x,y,-z
1/2-x,y,z
x,-y,z
loop_
_atom_site_type_symbol
_atom_site_label
_atom_site_fract_x
_atom_site_fract_y
_atom_site_fract_z
Si Si1 0.504549 0.397526 0.323413
Si Si2 0.418597 0.865132 0.346841
Si Si3 0.585914 0.690938 0.151796
Si Si4 0.250000 0.554781 0.168442
Si Si5 0.250000 0.446727 0.829821
Si Si6 0.411879 0.050979 0.142996
Si Si7 0.082707 0.779859 0.653450
O O1 0.500000 0.393854 0.500000
O O2 0.522028 0.346888 0.260284
O O3 0.374169 0.423195 0.257578
O O4 0.622756 0.431062 0.268595
O O5 0.500000 0.870032 0.500000
O O6 0.250000 0.856077 0.362662
O O7 0.450004 0.912516 0.266952
O O8 0.499486 0.822473 0.268650
O O9 0.750000 0.680330 0.119050
O O10 0.566685 0.738824 0.232776
O O11 0.500000 0.691528 0.000000
O O12 0.250000 0.500000 0.177538
O O13 0.250000 0.572901 0.998083
O O14 0.250000 0.500000 0.847297
O O15 0.250000 0.054242 0.095608
O O16 0.448949 0.000000 0.201649
O O17 0.500000 0.063988 0.000000
O O18 0.250000 0.790161 0.623295
O O19 0.000000 0.768508 0.500000
#
# Coordination Sequence:
#
# PCOD8212182 Si02
#       7
#     8   8   8   4   4   8   8
#     4  12  25  42  64  94 126 160 204 250 301 356
#     4  10  20  35  56  84 116 153 196 243 298 356
#     4  11  25  43  64  90 120 156 199 245 297 358
#     4  11  25  43  67  95 125 167 203 245 304 355
#     4  11  23  43  67  91 127 163 203 249 296 361
#     4   9  19  35  54  78 111 151 196 246 298 355
#     4  10  21  39  61  87 119 153 195 243 296 355
#
# _framework density 19.212425
#
# number of rings (size 3 to 8) (size 9 to 14) (size 15 to 20)
#    0.000    1.500    0.833    5.000    1.167    7.000 
#    0.000    3.333    0.000    0.000    0.000    0.000 
#    0.000    0.000    0.000    0.000    0.000    0.000 
#
# Total GULP energy -594817.955551 kJ/mol
# GULP energy per Si atom -12392.040741 kJ/mol
# Density = 1.916870 g / cm^3
# Si number density = 19.212425 Si / 1000 Ang^3
#
#
#
# Elastic Constant Matrix: (Units=GPa)
#
#
# Indices 1 2 3 4 5 6 
#
# 1 154.4145 70.2858 70.8628 0.0000 0.0000 0.0000
# 2 70.2858 130.9343 72.4406 0.0000 0.0000 0.0000
# 3 70.8628 72.4406 133.1768 0.0000 0.0000 0.0000
# 4 0.0000 0.0000 0.0000 35.9972 0.0000 0.0000
# 5 0.0000 0.0000 0.0000 0.0000 36.1988 0.0000
# 6 0.0000 0.0000 0.0000 0.0000 0.0000 35.9415
#
#
#
# Elastic Compliance Matrix: (Units=1/GPa)
#
#
# Indices 1 2 3 4 5 6 
#
# 1 0.009461 -0.003281 -0.003249 0.000000 0.000000 0.000000
# 2 -0.003281 0.012063 -0.004816 0.000000 0.000000 0.000000
# 3 -0.003249 -0.004816 0.011857 0.000000 0.000000 0.000000
# 4 0.000000 0.000000 0.000000 0.027780 0.000000 0.000000
# 5 0.000000 0.000000 0.000000 0.000000 0.027625 0.000000
# 6 0.000000 0.000000 0.000000 0.000000 0.000000 0.027823
#
#
# Mechanical properties :
#
#
# Convention : Reuss Voigt Hill
#
# Bulk Modulus (GPa) = 93.55524 93.96711 93.76117
# Shear Modulus (GPa) = 34.99832 35.28994 35.14413
#
# Velocity S-wave (km/s) = 4.27271 4.29047 4.28160
# Velocity P-wave (km/s) = 8.55233 8.57671 8.56453
#
# Compressibility (1/GPa) = 0.01068887
#
# Stress axis : x y z
#
# Youngs Moduli (GPa) = 105.70199 82.89853 84.33549
#
# Poissons Ratio (x) = 0.27196 0.27404
# Poissons Ratio (y) = 0.34677 0.40615
# Poissons Ratio (z) = 0.34347 0.39923
#
# Static dielectric constant tensor:
#      x y z
#    x 3.849620 0.000000 0.000000 
#    y 0.000000 4.066690 0.000000 
#    z 0.000000 0.000000 3.530370 
# 
# 
# High freq. dielectric constant tensor:
#      x y z
#    x 1.767490 0.000000 0.000000 
#    y 0.000000 1.768220 0.000000 
#    z 0.000000 0.000000 1.742540 
# 
# From -- ./inp_files/6283.got.cif
#   From: 2010.03.12/outbox.cif.g09.slc.cpg/sg51_4_cif.got.tgz:6283.got - 2010.04.16 13:43:02.
