data_PCOD8212324
_publ_section_title
;
Structure prediction by ZEFSAII (Michael W. Deem and Ramdas Pophale) SiO2 
 PCOD8212324
Probable space group: P M M A
;
_chemical_formula_sum "Si O2"
_cell_formula_units_Z 48
_cell_length_a 27.867395
_cell_length_b 8.632099
_cell_length_c 9.975751
_cell_angle_alpha 90.000000
_cell_angle_beta 90.000000
_cell_angle_gamma 90.000000
_cell_volume 2399.707928
_symmetry_space_group_name_H-M "P M M A"
_symmetry_group_IT_number 51
_symmetry_cell_setting 'orthorhombic'
loop_
_space_group_symop_operation_xyz
x,y,z
1/2-x,-y,z
1/2+x,-y,-z
-x,y,-z
-x,-y,-z
1/2+x,y,-z
1/2-x,y,z
x,-y,z
loop_
_atom_site_type_symbol
_atom_site_label
_atom_site_fract_x
_atom_site_fract_y
_atom_site_fract_z
Si Si1 0.897399 0.179210 0.772290
Si Si2 0.303312 0.176942 0.868505
Si Si3 0.303933 0.319842 0.150972
Si Si4 0.101284 0.179433 0.727142
Si Si5 0.445570 0.681223 0.477147
Si Si6 0.444895 0.320572 0.978082
O O1 0.841368 0.224948 0.757546
O O2 0.930463 0.279288 0.673778
O O3 0.913048 0.215779 0.923915
O O4 0.904264 0.000000 0.738778
O O5 0.250000 0.206676 0.808543
O O6 0.342395 0.213455 0.754089
O O7 0.308294 0.000000 0.919382
O O8 0.312901 0.287537 0.994244
O O9 0.250000 0.269059 0.191505
O O10 0.312337 0.500000 0.177242
O O11 0.090098 0.228637 0.576016
O O12 0.088938 0.000000 0.748005
O O13 0.068164 0.279616 0.825867
O O14 0.500000 0.737225 0.500000
O O15 0.440682 0.500000 0.503852
O O16 0.434198 0.500000 0.007286
O O17 0.500000 0.279506 0.000000
#
# Coordination Sequence:
#
# PCOD8212324 Si02
#       6
#     8   8   8   8   8   8
#     4  12  24  39  61  89 120 157 200 250 303 357
#     4   9  18  34  57  87 122 156 191 235 292 354
#     4  10  20  35  59  90 122 157 198 244 296 354
#     4  11  22  37  60  90 119 154 197 245 299 353
#     4  11  25  44  63  83 115 161 205 250 306 362
#     4  11  23  38  58  85 118 155 197 248 301 354
#
# _framework density 20.002434000000001
#
# number of rings (size 3 to 8) (size 9 to 14) (size 15 to 20)
#    0.000    1.333    1.667    4.500    0.000    8.333 
#    0.000    0.833    0.000    3.000    0.000    0.000 
#    0.000    0.000    0.000    0.000    0.000    0.000 
#
# Total GULP energy -595471.939501 kJ/mol
# GULP energy per Si atom -12405.665406 kJ/mol
# Density = 1.995691 g / cm^3
# Si number density = 20.002434 Si / 1000 Ang^3
#
#
#
# Elastic Constant Matrix: (Units=GPa)
#
#
# Indices 1 2 3 4 5 6 
#
# 1 120.7867 48.3838 20.4947 0.0000 0.0000 0.0000
# 2 48.3838 66.3899 12.1711 0.0000 0.0000 0.0000
# 3 20.4947 12.1711 54.2017 0.0000 0.0000 0.0000
# 4 0.0000 0.0000 0.0000 34.8140 0.0000 0.0000
# 5 0.0000 0.0000 0.0000 0.0000 35.9272 0.0000
# 6 0.0000 0.0000 0.0000 0.0000 0.0000 27.1766
#
#
#
# Elastic Compliance Matrix: (Units=1/GPa)
#
#
# Indices 1 2 3 4 5 6 
#
# 1 0.012059 -0.008294 -0.002697 0.000000 0.000000 0.000000
# 2 -0.008294 0.021414 -0.001672 0.000000 0.000000 0.000000
# 3 -0.002697 -0.001672 0.019845 0.000000 0.000000 0.000000
# 4 0.000000 0.000000 0.000000 0.028724 0.000000 0.000000
# 5 0.000000 0.000000 0.000000 0.000000 0.027834 0.000000
# 6 0.000000 0.000000 0.000000 0.000000 0.000000 0.036796
#
#
# Mechanical properties :
#
#
# Convention : Reuss Voigt Hill
#
# Bulk Modulus (GPa) = 35.72652 44.83084 40.27868
# Shear Modulus (GPa) = 27.57409 30.27212 28.92311
#
# Velocity S-wave (km/s) = 3.71689 3.89449 3.80673
# Velocity P-wave (km/s) = 6.02663 6.53331 6.28508
#
# Compressibility (1/GPa) = 0.02799041
#
# Stress axis : x y z
#
# Youngs Moduli (GPa) = 82.92534 46.69936 50.39035
#
# Poissons Ratio (x) = 0.38732 0.13592
# Poissons Ratio (y) = 0.68778 0.08427
# Poissons Ratio (z) = 0.22368 0.07810
#
# Static dielectric constant tensor:
#      x y z
#    x 3.962400 0.000000 0.000000 
#    y 0.000000 3.595710 0.000000 
#    z 0.000000 0.000000 3.279870 
# 
# 
# High freq. dielectric constant tensor:
#      x y z
#    x 1.799420 0.000000 0.000000 
#    y 0.000000 1.787110 0.000000 
#    z 0.000000 0.000000 1.752520 
# 
# From -- ./inp_files/12755.got.cif
#   From: 2010.03.12/outbox.cif.g09.slc.cpg/sg51_7_cif.got.tgz:12755.got - 2010.04.16 13:43:02.
