data_PCOD8212977
_publ_section_title
;
Structure prediction by ZEFSAII (Michael W. Deem and Ramdas Pophale) SiO2 
 PCOD8212977
Probable space group: P M M A
;
_chemical_formula_sum "Si O2"
_cell_formula_units_Z 48
_cell_length_a 9.046408
_cell_length_b 7.671854
_cell_length_c 34.352093
_cell_angle_alpha 90.000000
_cell_angle_beta 90.000000
_cell_angle_gamma 90.000000
_cell_volume 2384.128740
_symmetry_space_group_name_H-M "P M M A"
_symmetry_group_IT_number 51
_symmetry_cell_setting 'orthorhombic'
loop_
_space_group_symop_operation_xyz
x,y,z
1/2-x,-y,z
1/2+x,-y,-z
-x,y,-z
-x,-y,-z
1/2+x,y,-z
1/2-x,y,z
x,-y,z
loop_
_atom_site_type_symbol
_atom_site_label
_atom_site_fract_x
_atom_site_fract_y
_atom_site_fract_z
Si Si1 0.423205 0.300086 0.401065
Si Si2 0.910100 0.301727 0.326230
Si Si3 0.427808 0.000000 0.041990
Si Si4 0.075925 0.000000 0.458706
Si Si5 0.576460 0.704030 0.091711
Si Si6 0.583904 0.704396 0.830369
Si Si7 0.915439 0.801716 0.746541
O O1 0.250000 0.286632 0.394272
O O2 0.469577 0.500000 0.410754
O O3 0.493448 0.222478 0.361283
O O4 0.474922 0.174663 0.436008
O O5 0.750000 0.207241 0.324066
O O6 0.886427 0.500000 0.337569
O O7 0.985880 0.298997 0.284199
O O8 0.483336 0.176729 0.062515
O O9 0.250000 0.000000 0.039884
O O10 0.500000 0.000000 0.000000
O O11 0.000000 0.000000 0.500000
O O12 0.250000 0.000000 0.464953
O O13 0.750000 0.743065 0.087195
O O14 0.541461 0.500000 0.083230
O O15 0.526125 0.757696 0.135059
O O16 0.750000 0.775265 0.839366
O O17 0.587877 0.500000 0.824927
O O18 0.520817 0.785334 0.790341
O O19 0.750000 0.722206 0.746156
O O20 0.914333 0.000000 0.733117
#
# Coordination Sequence:
#
# PCOD8212977 Si02
#       7
#     8   8   4   4   8   8   8
#     4   9  19  37  59  81 109 146 185 226 274 332
#     4  10  21  36  54  78 108 144 188 237 288 337
#     4  12  26  44  68  95 126 161 202 250 303 364
#     4  10  22  38  58  85 112 141 178 220 273 336
#     4  10  22  41  65  94 128 164 203 249 304 364
#     4   9  18  34  56  82 113 153 200 245 290 342
#     4  10  21  34  51  79 114 152 195 238 283 337
#
# _framework density 20.133140000000001
#
# number of rings (size 3 to 8) (size 9 to 14) (size 15 to 20)
#    0.000    2.167    0.000    2.250    2.333    5.000 
#    0.000    1.667    0.000    0.000    0.000    0.000 
#    0.000    0.000    0.000    0.000    0.000    0.000 
#
# Total GULP energy -595063.756998 kJ/mol
# GULP energy per Si atom -12397.161604 kJ/mol
# Density = 2.008732 g / cm^3
# Si number density = 20.133140 Si / 1000 Ang^3
#
#
#
# Elastic Constant Matrix: (Units=GPa)
#
#
# Indices 1 2 3 4 5 6 
#
# 1 108.2366 43.4295 76.7675 0.0000 0.0000 0.0000
# 2 43.4295 80.7897 59.5278 0.0000 0.0000 0.0000
# 3 76.7675 59.5278 167.3373 0.0000 0.0000 0.0000
# 4 0.0000 0.0000 0.0000 32.0992 0.0000 0.0000
# 5 0.0000 0.0000 0.0000 0.0000 39.2719 0.0000
# 6 0.0000 0.0000 0.0000 0.0000 0.0000 19.8687
#
#
#
# Elastic Compliance Matrix: (Units=1/GPa)
#
#
# Indices 1 2 3 4 5 6 
#
# 1 0.014565 -0.003939 -0.005281 0.000000 0.000000 0.000000
# 2 -0.003939 0.017840 -0.004539 0.000000 0.000000 0.000000
# 3 -0.005281 -0.004539 0.010013 0.000000 0.000000 0.000000
# 4 0.000000 0.000000 0.000000 0.031153 0.000000 0.000000
# 5 0.000000 0.000000 0.000000 0.000000 0.025464 0.000000
# 6 0.000000 0.000000 0.000000 0.000000 0.000000 0.050330
#
#
# Mechanical properties :
#
#
# Convention : Reuss Voigt Hill
#
# Bulk Modulus (GPa) = 67.11111 79.53479 73.32295
# Shear Modulus (GPa) = 27.49534 30.02387 28.75961
#
# Velocity S-wave (km/s) = 3.69951 3.86588 3.78361
# Velocity P-wave (km/s) = 7.18711 7.71472 7.45558
#
# Compressibility (1/GPa) = 0.01490066
#
# Stress axis : x y z
#
# Youngs Moduli (GPa) = 68.65955 56.05451 99.86725
#
# Poissons Ratio (x) = 0.22077 0.52736
# Poissons Ratio (y) = 0.27042 0.45334
# Poissons Ratio (z) = 0.36256 0.25445
#
# Static dielectric constant tensor:
#      x y z
#    x 4.314740 0.000000 0.000000 
#    y 0.000000 3.736630 0.000000 
#    z 0.000000 0.000000 3.649910 
# 
# 
# High freq. dielectric constant tensor:
#      x y z
#    x 1.780210 0.000000 0.000000 
#    y 0.000000 1.787490 0.000000 
#    z 0.000000 0.000000 1.785940 
# 
# From -- ./inp_files/37196.got.cif
#   From: 2010.03.12/outbox.cif.g09.slc.cpg/sg51_19_cif.got.tgz:37196.got - 2010.04.16 13:43:02.
