data_PCOD8212475
_publ_section_title
;
Structure prediction by ZEFSAII (Michael W. Deem and Ramdas Pophale) SiO2 
 PCOD8212475
Probable space group: P M M A
;
_chemical_formula_sum "Si O2"
_cell_formula_units_Z 64
_cell_length_a 16.051844
_cell_length_b 20.834294
_cell_length_c 9.001790
_cell_angle_alpha 90.000000
_cell_angle_beta 90.000000
_cell_angle_gamma 90.000000
_cell_volume 3010.458162
_symmetry_space_group_name_H-M "P M M A"
_symmetry_group_IT_number 51
_symmetry_cell_setting 'orthorhombic'
loop_
_space_group_symop_operation_xyz
x,y,z
1/2-x,-y,z
1/2+x,-y,-z
-x,y,-z
-x,-y,-z
1/2+x,y,-z
1/2-x,y,z
x,-y,z
loop_
_atom_site_type_symbol
_atom_site_label
_atom_site_fract_x
_atom_site_fract_y
_atom_site_fract_z
Si Si1 0.907710 0.430427 0.932647
Si Si2 0.848470 0.187996 0.573672
Si Si3 0.845939 0.572337 0.613254
Si Si4 0.347965 0.685975 0.606232
Si Si5 0.909926 0.692035 0.071243
Si Si6 0.652983 0.072056 0.374915
Si Si7 0.156713 0.190363 0.101250
Si Si8 0.592028 0.927520 0.050261
O O1 0.863553 0.500000 0.961733
O O2 0.905857 0.417212 0.755131
O O3 0.859014 0.370719 0.010626
O O4 0.000000 0.434973 0.000000
O O5 0.750000 0.180767 0.586457
O O6 0.873961 0.252131 0.488459
O O7 0.882217 0.124042 0.491580
O O8 0.889148 0.191937 0.738411
O O9 0.750000 0.584924 0.661291
O O10 0.856689 0.500000 0.550082
O O11 0.871634 0.622003 0.484394
O O12 0.250000 0.687697 0.648817
O O13 0.405494 0.689416 0.751532
O O14 0.879541 0.760692 0.017631
O O15 0.000000 0.682315 0.000000
O O16 0.750000 0.084210 0.336681
O O17 0.599780 0.080864 0.226141
O O18 0.640400 0.000000 0.439611
O O19 0.250000 0.212445 0.128649
O O20 0.155165 0.119177 0.033954
O O21 0.613830 0.000000 0.001714
O O22 0.500000 0.907584 0.000000
#
# Coordination Sequence:
#
# PCOD8212475 Si02
#       8
#     8   8   8   8   8   8   8   8
#     4   9  19  37  58  82 116 155 192 232 286 351
#     4   9  19  34  53  78 105 136 178 228 278 330
#     4   9  18  34  58  87 117 150 192 244 295 342
#     4  10  20  36  58  81 109 147 190 237 291 349
#     4  11  23  38  56  82 116 151 192 239 289 347
#     4   9  17  32  54  77 104 141 182 223 271 331
#     4  11  22  37  59  84 111 145 188 238 289 342
#     4  10  21  37  56  81 114 148 183 227 280 338
#
# _framework density 21.259222999999999
#
# number of rings (size 3 to 8) (size 9 to 14) (size 15 to 20)
#    0.000    2.250    0.000    2.625    0.000    4.750 
#    0.000    8.750    0.000    9.000    0.000    0.000 
#    0.000    0.000    0.000    0.000    0.000    0.000 
#
# Total GULP energy -793223.143295 kJ/mol
# GULP energy per Si atom -12394.111614 kJ/mol
# Density = 2.121084 g / cm^3
# Si number density = 21.259223 Si / 1000 Ang^3
#
#
#
# Elastic Constant Matrix: (Units=GPa)
#
#
# Indices 1 2 3 4 5 6 
#
# 1 38.4480 19.1014 34.4317 0.0000 0.0000 0.0000
# 2 19.1014 176.1244 89.0912 0.0000 0.0000 0.0000
# 3 34.4317 89.0912 163.0692 0.0000 0.0000 0.0000
# 4 0.0000 0.0000 0.0000 42.9613 0.0000 0.0000
# 5 0.0000 0.0000 0.0000 0.0000 28.6180 0.0000
# 6 0.0000 0.0000 0.0000 0.0000 0.0000 4.7516
#
#
#
# Elastic Compliance Matrix: (Units=1/GPa)
#
#
# Indices 1 2 3 4 5 6 
#
# 1 0.032075 -0.000073 -0.006733 0.000000 0.000000 0.000000
# 2 -0.000073 0.007846 -0.004271 0.000000 0.000000 0.000000
# 3 -0.006733 -0.004271 0.009888 0.000000 0.000000 0.000000
# 4 0.000000 0.000000 0.000000 0.023277 0.000000 0.000000
# 5 0.000000 0.000000 0.000000 0.000000 0.034943 0.000000
# 6 0.000000 0.000000 0.000000 0.000000 0.000000 0.210455
#
#
# Mechanical properties :
#
#
# Convention : Reuss Voigt Hill
#
# Bulk Modulus (GPa) = 36.16023 73.65444 54.90734
# Shear Modulus (GPa) = 14.29160 30.93400 22.61280
#
# Velocity S-wave (km/s) = 2.59560 3.81870 3.26493
# Velocity P-wave (km/s) = 5.10186 7.35964 6.33219
#
# Compressibility (1/GPa) = 0.02765469
#
# Stress axis : x y z
#
# Youngs Moduli (GPa) = 31.17720 127.44765 101.13710
#
# Poissons Ratio (x) = 0.00930 0.68092
# Poissons Ratio (y) = 0.00228 0.43199
# Poissons Ratio (z) = 0.20990 0.54438
#
# Static dielectric constant tensor:
#      x y z
#    x 3.519540 0.000000 0.000000 
#    y 0.000000 4.515240 0.000000 
#    z 0.000000 0.000000 3.896450 
# 
# 
# High freq. dielectric constant tensor:
#      x y z
#    x 1.795210 0.000000 0.000000 
#    y 0.000000 1.861890 0.000000 
#    z 0.000000 0.000000 1.831950 
# 
# From -- ./inp_files/10004.got.cif
#   From: 2010.03.12/outbox.cif.g09.slc.cpg/sg51_6_cif.got.tgz:10004.got - 2010.04.16 13:43:02.
