data_PCOD8212742
_publ_section_title
;
Structure prediction by ZEFSAII (Michael W. Deem and Ramdas Pophale) SiO2 
 PCOD8212742
Probable space group: P M M A
;
_chemical_formula_sum "Si O2"
_cell_formula_units_Z 48
_cell_length_a 9.672276
_cell_length_b 9.261667
_cell_length_c 29.296346
_cell_angle_alpha 90.000000
_cell_angle_beta 90.000000
_cell_angle_gamma 90.000000
_cell_volume 2624.407673
_symmetry_space_group_name_H-M "P M M A"
_symmetry_group_IT_number 51
_symmetry_cell_setting 'orthorhombic'
loop_
_space_group_symop_operation_xyz
x,y,z
1/2-x,-y,z
1/2+x,-y,-z
-x,y,-z
-x,-y,-z
1/2+x,y,-z
1/2-x,y,z
x,-y,z
loop_
_atom_site_type_symbol
_atom_site_label
_atom_site_fract_x
_atom_site_fract_y
_atom_site_fract_z
Si Si1 0.903876 0.671572 0.300242
Si Si2 0.408478 0.169307 0.126604
Si Si3 0.408937 0.331743 0.217951
Si Si4 0.250000 0.829304 0.443052
Si Si5 0.750000 0.660359 0.465163
Si Si6 0.408170 0.828317 0.958095
Si Si7 0.504600 0.334129 0.601487
O O1 0.750000 0.733826 0.292619
O O2 0.900498 0.500000 0.300092
O O3 0.960479 0.723817 0.348916
O O4 0.001457 0.729923 0.259866
O O5 0.250000 0.207861 0.112874
O O6 0.454152 0.249309 0.172465
O O7 0.513555 0.223057 0.087596
O O8 0.423477 0.000000 0.135047
O O9 0.250000 0.301230 0.230103
O O10 0.436957 0.500000 0.209731
O O11 0.250000 0.776333 0.495002
O O12 0.380380 0.772958 0.415828
O O13 0.250000 0.000000 0.443828
O O14 0.750000 0.500000 0.487305
O O15 0.881058 0.680988 0.433622
O O16 0.250000 0.767895 0.959531
O O17 0.403387 0.000000 0.960622
O O18 0.500000 0.767612 0.000000
O O19 0.557142 0.500000 0.603884
#
# Coordination Sequence:
#
# PCOD8212742 Si02
#       7
#     8   8   8   4   4   8   8
#     4   9  17  32  55  81 103 126 164 215 263 303
#     4   9  17  30  47  68  97 131 164 203 250 296
#     4   9  18  31  50  76 103 133 166 202 249 306
#     4  12  26  38  52  80 114 148 176 206 255 318
#     4  10  20  38  62  86 106 132 176 224 265 306
#     4   9  16  26  43  68  96 127 166 211 254 296
#     4  10  20  37  61  84 105 133 175 224 264 303
#
# _framework density 18.289840000000002
#
# number of rings (size 3 to 8) (size 9 to 14) (size 15 to 20)
#    0.000    2.500    0.833    1.750    1.167    5.333 
#    0.000    0.833    0.000    1.500    0.000    0.000 
#    0.000    0.000    0.000    0.000    0.000    0.000 
#
# Total GULP energy -595154.240849 kJ/mol
# GULP energy per Si atom -12399.046684 kJ/mol
# Density = 1.824821 g / cm^3
# Si number density = 18.289840 Si / 1000 Ang^3
#
#
#
# Elastic Constant Matrix: (Units=GPa)
#
#
# Indices 1 2 3 4 5 6 
#
# 1 140.0712 46.6273 95.7618 0.0000 0.0000 0.0000
# 2 46.6273 54.7219 47.0071 0.0000 0.0000 0.0000
# 3 95.7618 47.0071 173.4970 0.0000 0.0000 0.0000
# 4 0.0000 0.0000 0.0000 -13.1652 0.0000 0.0000
# 5 0.0000 0.0000 0.0000 0.0000 152.2631 0.0000
# 6 0.0000 0.0000 0.0000 0.0000 0.0000 9.1492
#
#
#
# Elastic Compliance Matrix: (Units=1/GPa)
#
#
# Indices 1 2 3 4 5 6 
#
# 1 0.012982 -0.006395 -0.005433 0.000000 0.000000 0.000000
# 2 -0.006395 0.026968 -0.003777 0.000000 0.000000 0.000000
# 3 -0.005433 -0.003777 0.009786 0.000000 0.000000 0.000000
# 4 0.000000 0.000000 0.000000 -0.075958 0.000000 0.000000
# 5 0.000000 0.000000 0.000000 0.000000 0.006568 0.000000
# 6 0.000000 0.000000 0.000000 0.000000 0.000000 0.109299
#
#
# Mechanical properties :
#
#
# Convention : Reuss Voigt Hill
#
# Bulk Modulus (GPa) = 53.97761 83.00916 68.49339
# Shear Modulus (GPa) = 39.36087 41.57567 40.46827
#
# Velocity S-wave (km/s) = 4.64407 4.77294 4.70894
# Velocity P-wave (km/s) = 7.63760 8.70968 8.19119
#
# Compressibility (1/GPa) = 0.01852620
#
# Stress axis : x y z
#
# Youngs Moduli (GPa) = 77.02792 37.08149 102.18862
#
# Poissons Ratio (x) = 0.23713 0.55519
# Poissons Ratio (y) = 0.49259 0.38596
# Poissons Ratio (z) = 0.41849 0.14005
#
# Static dielectric constant tensor:
#      x y z
#    x 3.546880 0.000000 0.000000 
#    y 0.000000 2.961970 0.000000 
#    z 0.000000 0.000000 3.556590 
# 
# 
# High freq. dielectric constant tensor:
#      x y z
#    x 1.721140 0.000000 0.000000 
#    y 0.000000 1.660310 0.000000 
#    z 0.000000 0.000000 1.722240 
# 
# From -- ./inp_files/37137.got.cif
#   From: 2010.03.12/outbox.cif.g09.slc.cpg/sg51_19_cif.got.tgz:37137.got - 2010.04.16 13:43:02.
