data_PCOD8212277
_publ_section_title
;
Structure prediction by ZEFSAII (Michael W. Deem and Ramdas Pophale) SiO2 
 PCOD8212277
Probable space group: P M M A
;
_chemical_formula_sum "Si O2"
_cell_formula_units_Z 40
_cell_length_a 18.728162
_cell_length_b 8.842611
_cell_length_c 12.370563
_cell_angle_alpha 90.000000
_cell_angle_beta 90.000000
_cell_angle_gamma 90.000000
_cell_volume 2048.637617
_symmetry_space_group_name_H-M "P M M A"
_symmetry_group_IT_number 51
_symmetry_cell_setting 'orthorhombic'
loop_
_space_group_symop_operation_xyz
x,y,z
1/2-x,-y,z
1/2+x,-y,-z
-x,y,-z
-x,-y,-z
1/2+x,y,-z
1/2-x,y,z
x,-y,z
loop_
_atom_site_type_symbol
_atom_site_label
_atom_site_fract_x
_atom_site_fract_y
_atom_site_fract_z
Si Si1 0.831305 0.177046 0.123011
Si Si2 0.093960 0.321842 0.676902
Si Si3 0.168320 0.824755 0.481245
Si Si4 0.944888 0.820820 0.695577
Si Si5 0.432642 0.177261 0.063664
O O1 0.750000 0.233117 0.128720
O O2 0.879400 0.267361 0.206793
O O3 0.837783 0.000000 0.150209
O O4 0.860357 0.211782 0.002561
O O5 0.087089 0.500000 0.677293
O O6 0.150513 0.271217 0.587144
O O7 0.017227 0.251000 0.649619
O O8 0.250000 0.794807 0.448404
O O9 0.119975 0.770859 0.381187
O O10 0.154923 0.000000 0.508800
O O11 0.927586 0.755585 0.815378
O O12 0.954413 0.000000 0.695985
O O13 0.445648 0.000000 0.075123
O O14 0.500000 0.249301 0.000000
#
# Coordination Sequence:
#
# PCOD8212277 Si02
#       5
#     8   8   8   8   8
#     4  10  20  35  58  86 114 147 188 233 283 338
#     4  12  24  37  56  82 114 151 193 236 279 331
#     4  10  22  39  59  84 113 146 186 233 285 339
#     4  10  20  37  62  86 113 148 187 231 281 337
#     4   9  16  31  57  85 112 141 177 224 277 330
#
# _framework density 19.525172000000001
#
# number of rings (size 3 to 8) (size 9 to 14) (size 15 to 20)
#    0.000    1.800    2.000    3.000    0.000    7.200 
#    0.000    6.000    0.000    0.000    0.000    2.800 
#    0.000    0.000    0.000    0.000    0.000    0.000 
#
# Total GULP energy -496107.025913 kJ/mol
# GULP energy per Si atom -12402.675648 kJ/mol
# Density = 1.948073 g / cm^3
# Si number density = 19.525172 Si / 1000 Ang^3
#
#
#
# Elastic Constant Matrix: (Units=GPa)
#
#
# Indices 1 2 3 4 5 6 
#
# 1 127.5539 25.9879 30.6763 0.0000 0.0000 0.0000
# 2 25.9879 40.5290 15.6190 0.0000 0.0000 0.0000
# 3 30.6763 15.6190 90.5819 0.0000 0.0000 0.0000
# 4 0.0000 0.0000 0.0000 1.4880 0.0000 0.0000
# 5 0.0000 0.0000 0.0000 0.0000 36.2376 0.0000
# 6 0.0000 0.0000 0.0000 0.0000 0.0000 4.8027
#
#
#
# Elastic Compliance Matrix: (Units=1/GPa)
#
#
# Indices 1 2 3 4 5 6 
#
# 1 0.009448 -0.005169 -0.002308 0.000000 0.000000 0.000000
# 2 -0.005169 0.029258 -0.003294 0.000000 0.000000 0.000000
# 3 -0.002308 -0.003294 0.012390 0.000000 0.000000 0.000000
# 4 0.000000 0.000000 0.000000 0.672036 0.000000 0.000000
# 5 0.000000 0.000000 0.000000 0.000000 0.027596 0.000000
# 6 0.000000 0.000000 0.000000 0.000000 0.000000 0.208217
#
#
# Mechanical properties :
#
#
# Convention : Reuss Voigt Hill
#
# Bulk Modulus (GPa) = 33.83853 44.80346 39.32099
# Shear Modulus (GPa) = 5.04878 20.93110 12.98994
#
# Velocity S-wave (km/s) = 1.60978 3.27770 2.58212
# Velocity P-wave (km/s) = 4.56328 6.10907 5.39186
#
# Compressibility (1/GPa) = 0.02955211
#
# Stress axis : x y z
#
# Youngs Moduli (GPa) = 105.84182 34.17921 80.71311
#
# Poissons Ratio (x) = 0.17666 0.18632
# Poissons Ratio (y) = 0.54706 0.26590
# Poissons Ratio (z) = 0.24433 0.11260
#
# Static dielectric constant tensor:
#      x y z
#    x 3.652630 0.000000 0.000000 
#    y 0.000000 3.195260 0.000000 
#    z 0.000000 0.000000 3.787870 
# 
# 
# High freq. dielectric constant tensor:
#      x y z
#    x 1.769130 0.000000 0.000000 
#    y 0.000000 1.719250 0.000000 
#    z 0.000000 0.000000 1.771660 
# 
# From -- ./inp_files/17064.got.cif
#   From: 2010.03.12/outbox.cif.g09.slc.cpg/sg51_9_cif.got.tgz:17064.got - 2010.04.16 13:43:02.
