data_PCOD8212431
_publ_section_title
;
Structure prediction by ZEFSAII (Michael W. Deem and Ramdas Pophale) SiO2 
 PCOD8212431
Probable space group: P M M A
;
_chemical_formula_sum "Si O2"
_cell_formula_units_Z 64
_cell_length_a 27.158936
_cell_length_b 8.964370
_cell_length_c 12.975240
_cell_angle_alpha 90.000000
_cell_angle_beta 90.000000
_cell_angle_gamma 90.000000
_cell_volume 3158.987627
_symmetry_space_group_name_H-M "P M M A"
_symmetry_group_IT_number 51
_symmetry_cell_setting 'orthorhombic'
loop_
_space_group_symop_operation_xyz
x,y,z
1/2-x,-y,z
1/2+x,-y,-z
-x,y,-z
-x,-y,-z
1/2+x,y,-z
1/2-x,y,z
x,-y,z
loop_
_atom_site_type_symbol
_atom_site_label
_atom_site_fract_x
_atom_site_fract_y
_atom_site_fract_z
Si Si1 0.148798 0.176251 0.783286
Si Si2 0.052524 0.329319 0.300727
Si Si3 0.191706 0.832787 0.382765
Si Si4 0.558512 0.168520 0.497722
Si Si5 0.191523 0.331494 0.584606
Si Si6 0.692872 0.328680 0.022746
Si Si7 0.851810 0.329174 0.810340
Si Si8 0.558304 0.324423 0.290880
O O1 0.176172 0.236864 0.683036
O O2 0.179508 0.223723 0.882620
O O3 0.093558 0.244079 0.791831
O O4 0.145782 0.000000 0.777565
O O5 0.048430 0.500000 0.338966
O O6 0.076891 0.233489 0.393091
O O7 0.089063 0.312431 0.203776
O O8 0.997971 0.272998 0.269463
O O9 0.250000 0.832573 0.390700
O O10 0.169250 0.742569 0.480393
O O11 0.177300 0.762464 0.274465
O O12 0.170616 0.000000 0.388450
O O13 0.500000 0.175285 0.500000
O O14 0.577188 0.270919 0.403617
O O15 0.577748 0.000000 0.482536
O O16 0.250000 0.332901 0.578293
O O17 0.171019 0.500000 0.594343
O O18 0.750000 0.310312 0.996052
O O19 0.680158 0.500000 0.050667
O O20 0.661956 0.272261 0.923951
O O21 0.835040 0.500000 0.797794
O O22 0.564580 0.500000 0.280821
#
# Coordination Sequence:
#
# PCOD8212431 Si02
#       8
#     8   8   8   8   8   8   8   8
#     4  12  25  39  59  86 116 151 194 244 301 355
#     4   9  19  35  56  84 117 155 198 243 290 344
#     4  10  21  36  55  84 122 158 192 235 290 351
#     4   9  17  30  50  78 114 155 195 237 286 340
#     4  10  21  38  60  85 115 152 192 236 291 356
#     4  10  22  42  66  89 114 149 195 244 294 354
#     4  10  21  38  62  89 117 152 198 245 293 348
#     4  10  20  36  57  81 115 157 200 243 288 345
#
# _framework density 20.259657000000001
#
# number of rings (size 3 to 8) (size 9 to 14) (size 15 to 20)
#    0.000    2.000    0.000    3.375    1.750    6.750 
#    0.000    0.625    0.000    3.750    0.000    0.000 
#    0.000    0.000    0.000    0.000    0.000    0.000 
#
# Total GULP energy -793781.079655 kJ/mol
# GULP energy per Si atom -12402.829370 kJ/mol
# Density = 2.021354 g / cm^3
# Si number density = 20.259657 Si / 1000 Ang^3
#
#
#
# Elastic Constant Matrix: (Units=GPa)
#
#
# Indices 1 2 3 4 5 6 
#
# 1 47.1746 27.1279 35.1702 0.0000 0.0000 0.0000
# 2 27.1279 126.6698 54.4858 0.0000 0.0000 0.0000
# 3 35.1702 54.4858 106.7430 0.0000 0.0000 0.0000
# 4 0.0000 0.0000 0.0000 9.7808 0.0000 0.0000
# 5 0.0000 0.0000 0.0000 0.0000 34.9537 0.0000
# 6 0.0000 0.0000 0.0000 0.0000 0.0000 25.3791
#
#
#
# Elastic Compliance Matrix: (Units=1/GPa)
#
#
# Indices 1 2 3 4 5 6 
#
# 1 0.028789 -0.002672 -0.008122 0.000000 0.000000 0.000000
# 2 -0.002672 0.010364 -0.004410 0.000000 0.000000 0.000000
# 3 -0.008122 -0.004410 0.014295 0.000000 0.000000 0.000000
# 4 0.000000 0.000000 0.000000 0.102241 0.000000 0.000000
# 5 0.000000 0.000000 0.000000 0.000000 0.028609 0.000000
# 6 0.000000 0.000000 0.000000 0.000000 0.000000 0.039403
#
#
# Mechanical properties :
#
#
# Convention : Reuss Voigt Hill
#
# Bulk Modulus (GPa) = 43.40031 57.12836 50.26433
# Shear Modulus (GPa) = 19.09942 24.94294 22.02118
#
# Velocity S-wave (km/s) = 3.07372 3.51260 3.30047
# Velocity P-wave (km/s) = 5.83657 6.68659 6.27599
#
# Compressibility (1/GPa) = 0.02304131
#
# Stress axis : x y z
#
# Youngs Moduli (GPa) = 34.73489 96.49226 69.95418
#
# Poissons Ratio (x) = 0.25784 0.56815
# Poissons Ratio (y) = 0.09282 0.30846
# Poissons Ratio (z) = 0.28211 0.42548
#
# Static dielectric constant tensor:
#      x y z
#    x 3.860410 0.000000 0.000000 
#    y 0.000000 3.781710 0.000000 
#    z 0.000000 0.000000 3.535120 
# 
# 
# High freq. dielectric constant tensor:
#      x y z
#    x 1.808290 0.000000 0.000000 
#    y 0.000000 1.792820 0.000000 
#    z 0.000000 0.000000 1.769890 
# 
# From -- ./inp_files/19555.got.cif
#   From: 2010.03.12/outbox.cif.g09.slc.cpg/sg51_10_cif.got.tgz:19555.got - 2010.04.16 13:43:02.
