data_PCOD8212268
_publ_section_title
;
Structure prediction by ZEFSAII (Michael W. Deem and Ramdas Pophale) SiO2 
 PCOD8212268
Probable space group: P M M A
;
_chemical_formula_sum "Si O2"
_cell_formula_units_Z 48
_cell_length_a 9.423950
_cell_length_b 7.797768
_cell_length_c 33.803375
_cell_angle_alpha 90.000000
_cell_angle_beta 90.000000
_cell_angle_gamma 90.000000
_cell_volume 2484.067235
_symmetry_space_group_name_H-M "P M M A"
_symmetry_group_IT_number 51
_symmetry_cell_setting 'orthorhombic'
loop_
_space_group_symop_operation_xyz
x,y,z
1/2-x,-y,z
1/2+x,-y,-z
-x,y,-z
-x,-y,-z
1/2+x,y,-z
1/2-x,y,z
x,-y,z
loop_
_atom_site_type_symbol
_atom_site_label
_atom_site_fract_x
_atom_site_fract_y
_atom_site_fract_z
Si Si1 0.092821 0.197954 0.535138
Si Si2 0.082328 0.000000 0.822298
Si Si3 0.914437 0.305437 0.960795
Si Si4 0.910666 0.701498 0.608231
Si Si5 0.412313 0.691117 0.767272
Si Si6 0.584010 0.000000 0.903276
Si Si7 0.912890 0.800849 0.694909
O O1 0.250000 0.283917 0.536817
O O2 0.000000 0.285509 0.500000
O O3 0.014525 0.214622 0.576753
O O4 0.112182 0.000000 0.525025
O O5 0.031808 0.169413 0.798660
O O6 0.004301 0.000000 0.863607
O O7 0.250000 0.000000 0.829822
O O8 0.750000 0.283871 0.971453
O O9 0.948059 0.500000 0.946414
O O10 0.959165 0.171511 0.927035
O O11 0.000000 0.259157 0.000000
O O12 0.750000 0.771611 0.602188
O O13 0.914439 0.500000 0.603066
O O14 0.968404 0.754947 0.651245
O O15 0.250000 0.733037 0.756688
O O16 0.428480 0.500000 0.785589
O O17 0.498749 0.695467 0.726711
O O18 0.750000 0.000000 0.893071
O O19 0.750000 0.743663 0.698795
O O20 0.934091 0.000000 0.703531
#
# Coordination Sequence:
#
# PCOD8212268 Si02
#       7
#     8   4   8   8   8   4   8
#     4  10  21  37  57  79 103 136 177 218 262 315
#     4  10  22  39  55  78 111 146 187 235 280 332
#     4   9  18  33  53  79 111 145 184 231 281 332
#     4  10  21  36  54  79 110 141 174 214 262 316
#     4  10  21  38  59  81 108 144 184 229 282 335
#     4  10  21  35  53  78 110 146 186 231 279 332
#     4  10  20  35  58  85 111 140 177 222 272 326
#
# _framework density 19.323150999999999
#
# number of rings (size 3 to 8) (size 9 to 14) (size 15 to 20)
#    0.000    2.167    0.833    1.750    0.000    6.000 
#    0.000    0.000    0.000    0.000    0.000    0.000 
#    0.000    0.000    0.000    0.000    0.000    0.000 
#
# Total GULP energy -595269.249305 kJ/mol
# GULP energy per Si atom -12401.442694 kJ/mol
# Density = 1.927917 g / cm^3
# Si number density = 19.323151 Si / 1000 Ang^3
#
#
#
# Elastic Constant Matrix: (Units=GPa)
#
#
# Indices 1 2 3 4 5 6 
#
# 1 86.4921 35.6755 73.5165 0.0000 0.0000 0.0000
# 2 35.6755 94.1021 57.2873 0.0000 0.0000 0.0000
# 3 73.5165 57.2873 157.6441 0.0000 0.0000 0.0000
# 4 0.0000 0.0000 0.0000 9.7812 0.0000 0.0000
# 5 0.0000 0.0000 0.0000 0.0000 -22.8115 0.0000
# 6 0.0000 0.0000 0.0000 0.0000 0.0000 16.1858
#
#
#
# Elastic Compliance Matrix: (Units=1/GPa)
#
#
# Indices 1 2 3 4 5 6 
#
# 1 0.019565 -0.002392 -0.008255 0.000000 0.000000 0.000000
# 2 -0.002392 0.013938 -0.003950 0.000000 0.000000 0.000000
# 3 -0.008255 -0.003950 0.011628 0.000000 0.000000 0.000000
# 4 0.000000 0.000000 0.000000 0.102237 0.000000 0.000000
# 5 0.000000 0.000000 0.000000 0.000000 -0.043838 0.000000
# 6 0.000000 0.000000 0.000000 0.000000 0.000000 0.061783
#
#
# Mechanical properties :
#
#
# Convention : Reuss Voigt Hill
#
# Bulk Modulus (GPa) = 62.74126 74.57743 68.65935
# Shear Modulus (GPa) = 25.02281 12.08170 18.55226
#
# Velocity S-wave (km/s) = 3.60247 2.50320 3.10192
# Velocity P-wave (km/s) = 7.06000 6.85809 6.95978
#
# Compressibility (1/GPa) = 0.01593847
#
# Stress axis : x y z
#
# Youngs Moduli (GPa) = 51.11266 71.74644 85.99828
#
# Poissons Ratio (x) = 0.17162 0.70988
# Poissons Ratio (y) = 0.12226 0.33965
# Poissons Ratio (z) = 0.42192 0.28336
#
# Static dielectric constant tensor:
#      x y z
#    x 3.625150 0.000000 0.000000 
#    y 0.000000 3.669770 0.000000 
#    z 0.000000 0.000000 3.373210 
# 
# 
# High freq. dielectric constant tensor:
#      x y z
#    x 1.748330 0.000000 0.000000 
#    y 0.000000 1.761370 0.000000 
#    z 0.000000 0.000000 1.743450 
# 
# From -- ./inp_files/37102.got.cif
#   From: 2010.03.12/outbox.cif.g09.slc.cpg/sg51_19_cif.got.tgz:37102.got - 2010.04.16 13:43:02.
