data_PCOD8212100
_publ_section_title
;
Structure prediction by ZEFSAII (Michael W. Deem and Ramdas Pophale) SiO2 
 PCOD8212100
Probable space group: P M M A
;
_chemical_formula_sum "Si O2"
_cell_formula_units_Z 56
_cell_length_a 14.698764
_cell_length_b 10.545704
_cell_length_c 17.209669
_cell_angle_alpha 90.000000
_cell_angle_beta 90.000000
_cell_angle_gamma 90.000000
_cell_volume 2667.650386
_symmetry_space_group_name_H-M "P M M A"
_symmetry_group_IT_number 51
_symmetry_cell_setting 'orthorhombic'
loop_
_space_group_symop_operation_xyz
x,y,z
1/2-x,-y,z
1/2+x,-y,-z
-x,y,-z
-x,-y,-z
1/2+x,y,-z
1/2-x,y,z
x,-y,z
loop_
_atom_site_type_symbol
_atom_site_label
_atom_site_fract_x
_atom_site_fract_y
_atom_site_fract_z
Si Si1 0.350238 0.143005 0.922459
Si Si2 0.358238 0.859067 0.468181
Si Si3 0.146495 0.727217 0.196267
Si Si4 0.101755 0.359941 0.029659
Si Si5 0.966833 0.145290 0.218155
Si Si6 0.645430 0.364101 0.635536
Si Si7 0.648263 0.150554 0.359109
O O1 0.250000 0.135510 0.884967
O O2 0.344229 0.240950 0.994140
O O3 0.419179 0.201537 0.859054
O O4 0.379220 0.000000 0.950572
O O5 0.250000 0.868604 0.462383
O O6 0.400349 0.757574 0.406928
O O7 0.386384 0.812663 0.554526
O O8 0.398641 0.000000 0.449302
O O9 0.250000 0.779279 0.186418
O O10 0.138375 0.639088 0.271440
O O11 0.075517 0.841318 0.211475
O O12 0.113381 0.647104 0.122434
O O13 0.138797 0.500000 0.004691
O O14 0.000000 0.345257 0.000000
O O15 0.922472 0.208510 0.295569
O O16 0.939664 0.000000 0.220155
O O17 0.750000 0.362390 0.609701
O O18 0.602207 0.500000 0.609505
O O19 0.750000 0.205430 0.343719
O O20 0.652498 0.000000 0.354445
#
# Coordination Sequence:
#
# PCOD8212100 Si02
#       7
#     8   8   8   8   8   8   8
#     4  10  21  38  62  90 118 149 185 232 293 353
#     4   8  14  27  51  83 114 142 180 233 288 341
#     4  11  23  38  56  80 111 153 198 238 283 340
#     4  11  23  41  65  89 114 150 195 240 289 346
#     4  10  20  35  55  83 119 153 190 238 286 341
#     4   9  18  33  54  78 107 148 194 236 281 336
#     4   8  14  28  54  85 114 148 189 234 288 344
#
# _framework density 20.992256000000001
#
# number of rings (size 3 to 8) (size 9 to 14) (size 15 to 20)
#    0.000    2.429    1.429    2.143    0.000    5.143 
#    0.000    2.143    0.000    6.000    0.000    2.000 
#    0.000    0.000    0.000    0.000    0.000    0.000 
#
# Total GULP energy -693781.342216 kJ/mol
# GULP energy per Si atom -12388.952540 kJ/mol
# Density = 2.094448 g / cm^3
# Si number density = 20.992256 Si / 1000 Ang^3
#
#
#
# Elastic Constant Matrix: (Units=GPa)
#
#
# Indices 1 2 3 4 5 6 
#
# 1 93.2080 26.1932 41.2117 0.0000 0.0000 0.0000
# 2 26.1932 110.2577 70.2628 0.0000 0.0000 0.0000
# 3 41.2117 70.2628 136.8500 0.0000 0.0000 0.0000
# 4 0.0000 0.0000 0.0000 14.1944 0.0000 0.0000
# 5 0.0000 0.0000 0.0000 0.0000 17.8752 0.0000
# 6 0.0000 0.0000 0.0000 0.0000 0.0000 6.2760
#
#
#
# Elastic Compliance Matrix: (Units=1/GPa)
#
#
# Indices 1 2 3 4 5 6 
#
# 1 0.012429 -0.000843 -0.003310 0.000000 0.000000 0.000000
# 2 -0.000843 0.013537 -0.006697 0.000000 0.000000 0.000000
# 3 -0.003310 -0.006697 0.011742 0.000000 0.000000 0.000000
# 4 0.000000 0.000000 0.000000 0.070450 0.000000 0.000000
# 5 0.000000 0.000000 0.000000 0.000000 0.055943 0.000000
# 6 0.000000 0.000000 0.000000 0.000000 0.000000 0.159338
#
#
# Mechanical properties :
#
#
# Convention : Reuss Voigt Hill
#
# Bulk Modulus (GPa) = 62.46455 68.40568 65.43511
# Shear Modulus (GPa) = 14.26629 21.17899 17.72264
#
# Velocity S-wave (km/s) = 2.60974 3.17976 2.90874
# Velocity P-wave (km/s) = 6.23711 6.79250 6.52072
#
# Compressibility (1/GPa) = 0.01600908
#
# Stress axis : x y z
#
# Youngs Moduli (GPa) = 80.45566 73.86907 85.16262
#
# Poissons Ratio (x) = 0.06230 0.28188
# Poissons Ratio (y) = 0.06786 0.57029
# Poissons Ratio (z) = 0.26630 0.49467
#
# Static dielectric constant tensor:
#      x y z
#    x 3.694690 0.000000 0.000000 
#    y 0.000000 3.711810 0.000000 
#    z 0.000000 0.000000 4.030360 
# 
# 
# High freq. dielectric constant tensor:
#      x y z
#    x 1.811030 0.000000 0.000000 
#    y 0.000000 1.788590 0.000000 
#    z 0.000000 0.000000 1.826550 
# 
# From -- ./inp_files/24175.got.cif
#   From: 2010.03.12/outbox.cif.g09.slc.cpg/sg51_13_cif.got.tgz:24175.got - 2010.04.16 13:43:02.
