data_PCOD8212651
_publ_section_title
;
Structure prediction by ZEFSAII (Michael W. Deem and Ramdas Pophale) SiO2 
 PCOD8212651
Probable space group: P M M A
;
_chemical_formula_sum "Si O2"
_cell_formula_units_Z 64
_cell_length_a 29.315476
_cell_length_b 8.774820
_cell_length_c 12.971836
_cell_angle_alpha 90.000000
_cell_angle_beta 90.000000
_cell_angle_gamma 90.000000
_cell_volume 3336.849475
_symmetry_space_group_name_H-M "P M M A"
_symmetry_group_IT_number 51
_symmetry_cell_setting 'orthorhombic'
loop_
_space_group_symop_operation_xyz
x,y,z
1/2-x,-y,z
1/2+x,-y,-z
-x,y,-z
-x,-y,-z
1/2+x,y,-z
1/2-x,y,z
x,-y,z
loop_
_atom_site_type_symbol
_atom_site_label
_atom_site_fract_x
_atom_site_fract_y
_atom_site_fract_z
Si Si1 0.302555 0.323292 0.585909
Si Si2 0.121278 0.180162 0.180115
Si Si3 0.139553 0.173007 0.413338
Si Si4 0.303459 0.823036 0.798014
Si Si5 0.040873 0.177427 0.921679
Si Si6 0.136826 0.320166 0.975669
Si Si7 0.526916 0.323781 0.787099
Si Si8 0.462258 0.829740 0.415612
O O1 0.250000 0.282932 0.567061
O O2 0.310287 0.500000 0.607995
O O3 0.328271 0.278473 0.481399
O O4 0.321101 0.233509 0.686166
O O5 0.139830 0.228365 0.293226
O O6 0.069807 0.238754 0.160649
O O7 0.120870 0.000000 0.168592
O O8 0.151538 0.252139 0.087889
O O9 0.088728 0.185731 0.460858
O O10 0.157609 0.000000 0.419369
O O11 0.250000 0.788974 0.808770
O O12 0.328209 0.734616 0.889246
O O13 0.315177 0.000000 0.807770
O O14 0.086162 0.267256 0.948861
O O15 0.021092 0.244724 0.815519
O O16 0.052748 0.000000 0.912362
O O17 0.000000 0.212712 0.000000
O O18 0.138842 0.500000 0.982351
O O19 0.527787 0.500000 0.818842
O O20 0.530442 0.304624 0.665046
O O21 0.500000 0.804683 0.500000
O O22 0.466397 0.000000 0.365421
#
# Coordination Sequence:
#
# PCOD8212651 Si02
#       8
#     8   8   8   8   8   8   8   8
#     4  10  21  38  61  88 118 149 185 237 298 348
#     4  10  20  37  57  80 113 154 195 231 278 343
#     4   9  19  35  58  84 110 146 192 237 280 337
#     4  10  22  42  66  88 114 152 195 236 285 350
#     4  11  22  36  56  79 111 154 195 235 276 332
#     4  12  24  37  59  89 120 152 192 245 299 349
#     4  11  21  33  52  78 111 147 187 237 286 331
#     4   9  19  36  55  75 106 149 190 228 276 337
#
# _framework density 19.179769
#
# number of rings (size 3 to 8) (size 9 to 14) (size 15 to 20)
#    0.000    1.750    1.250    4.500    0.000    5.750 
#    0.000    4.375    0.000    0.750    0.000    0.000 
#    0.000    0.000    0.000    0.000    0.000    0.000 
#
# Total GULP energy -793525.149589 kJ/mol
# GULP energy per Si atom -12398.830462 kJ/mol
# Density = 1.913611 g / cm^3
# Si number density = 19.179769 Si / 1000 Ang^3
#
#
#
# Elastic Constant Matrix: (Units=GPa)
#
#
# Indices 1 2 3 4 5 6 
#
# 1 64.2158 37.6003 55.1493 0.0000 0.0000 0.0000
# 2 37.6003 93.4598 47.1281 0.0000 0.0000 0.0000
# 3 55.1493 47.1281 112.4902 0.0000 0.0000 0.0000
# 4 0.0000 0.0000 0.0000 33.4255 0.0000 0.0000
# 5 0.0000 0.0000 0.0000 0.0000 29.8399 0.0000
# 6 0.0000 0.0000 0.0000 0.0000 0.0000 29.3399
#
#
#
# Elastic Compliance Matrix: (Units=1/GPa)
#
#
# Indices 1 2 3 4 5 6 
#
# 1 0.029131 -0.005728 -0.011882 0.000000 0.000000 0.000000
# 2 -0.005728 0.014692 -0.003347 0.000000 0.000000 0.000000
# 3 -0.011882 -0.003347 0.016117 0.000000 0.000000 0.000000
# 4 0.000000 0.000000 0.000000 0.029917 0.000000 0.000000
# 5 0.000000 0.000000 0.000000 0.000000 0.033512 0.000000
# 6 0.000000 0.000000 0.000000 0.000000 0.000000 0.034083
#
#
# Mechanical properties :
#
#
# Convention : Reuss Voigt Hill
#
# Bulk Modulus (GPa) = 55.47562 61.10235 58.28898
# Shear Modulus (GPa) = 24.34571 27.20693 25.77632
#
# Velocity S-wave (km/s) = 3.56665 3.77041 3.66995
# Velocity P-wave (km/s) = 6.77851 7.13313 6.95808
#
# Compressibility (1/GPa) = 0.01802594
#
# Stress axis : x y z
#
# Youngs Moduli (GPa) = 34.32808 68.06383 62.04629
#
# Poissons Ratio (x) = 0.38988 0.73722
# Poissons Ratio (y) = 0.19664 0.20767
# Poissons Ratio (z) = 0.40788 0.22781
#
# Static dielectric constant tensor:
#      x y z
#    x 3.419970 0.000000 0.000000 
#    y 0.000000 3.533090 0.000000 
#    z 0.000000 0.000000 3.679240 
# 
# 
# High freq. dielectric constant tensor:
#      x y z
#    x 1.727280 0.000000 0.000000 
#    y 0.000000 1.753610 0.000000 
#    z 0.000000 0.000000 1.752020 
# 
# From -- ./inp_files/19472.got.cif
#   From: 2010.03.12/outbox.cif.g09.slc.cpg/sg51_10_cif.got.tgz:19472.got - 2010.04.16 13:43:02.
