data_PCOD8212472
_publ_section_title
;
Structure prediction by ZEFSAII (Michael W. Deem and Ramdas Pophale) SiO2 
 PCOD8212472
Probable space group: P M M A
;
_chemical_formula_sum "Si O2"
_cell_formula_units_Z 40
_cell_length_a 14.333370
_cell_length_b 9.099650
_cell_length_c 17.140641
_cell_angle_alpha 90.000000
_cell_angle_beta 90.000000
_cell_angle_gamma 90.000000
_cell_volume 2235.630671
_symmetry_space_group_name_H-M "P M M A"
_symmetry_group_IT_number 51
_symmetry_cell_setting 'orthorhombic'
loop_
_space_group_symop_operation_xyz
x,y,z
1/2-x,-y,z
1/2+x,-y,-z
-x,y,-z
-x,-y,-z
1/2+x,y,-z
1/2-x,y,z
x,-y,z
loop_
_atom_site_type_symbol
_atom_site_label
_atom_site_fract_x
_atom_site_fract_y
_atom_site_fract_z
Si Si1 0.015002 0.673842 0.874789
Si Si2 0.551317 0.669468 0.579173
Si Si3 0.445320 0.825951 0.713465
Si Si4 0.750000 0.667214 0.516107
Si Si5 0.646305 0.673997 0.987278
Si Si6 0.250000 0.826613 0.646287
O O1 0.017829 0.500000 0.859565
O O2 0.024511 0.758876 0.794912
O O3 0.098727 0.724461 0.931864
O O4 0.916792 0.722200 0.913820
O O5 0.500000 0.716643 0.500000
O O6 0.529167 0.500000 0.599309
O O7 0.517041 0.772091 0.648354
O O8 0.661013 0.698498 0.569969
O O9 0.341226 0.770575 0.692263
O O10 0.450314 0.000000 0.718739
O O11 0.750000 0.500000 0.485437
O O12 0.750000 0.768559 0.441046
O O13 0.750000 0.743741 0.980367
O O14 0.652262 0.500000 0.987939
O O15 0.250000 0.000000 0.639845
#
# Coordination Sequence:
#
# PCOD8212472 Si02
#       6
#     8   8   8   4   8   4
#     4   9  18  33  55  81 106 134 175 219 262 314
#     4  10  20  36  58  81 106 136 177 223 268 314
#     4  11  23  37  53  77 111 145 177 217 264 316
#     4  10  20  36  58  82 103 132 177 228 271 312
#     4   8  15  31  55  81 106 134 170 216 266 313
#     4  10  22  36  52  76 107 142 177 216 267 320
#
# _framework density 17.892043999999999
#
# number of rings (size 3 to 8) (size 9 to 14) (size 15 to 20)
#    0.000    2.400    2.000    1.800    1.400    2.000 
#    1.800    2.000    0.000    1.200    0.000    0.000 
#    0.000    0.000    0.000    0.000    0.000    0.000 
#
# Total GULP energy -495997.464713 kJ/mol
# GULP energy per Si atom -12399.936618 kJ/mol
# Density = 1.785132 g / cm^3
# Si number density = 17.892044 Si / 1000 Ang^3
#
#
#
# Elastic Constant Matrix: (Units=GPa)
#
#
# Indices 1 2 3 4 5 6 
#
# 1 162.4285 30.0405 73.3479 0.0000 0.0000 0.0000
# 2 30.0405 36.1799 42.5097 0.0000 0.0000 0.0000
# 3 73.3479 42.5097 144.9168 0.0000 0.0000 0.0000
# 4 0.0000 0.0000 0.0000 -8.8262 0.0000 0.0000
# 5 0.0000 0.0000 0.0000 0.0000 13.4393 0.0000
# 6 0.0000 0.0000 0.0000 0.0000 0.0000 19.9301
#
#
#
# Elastic Compliance Matrix: (Units=1/GPa)
#
#
# Indices 1 2 3 4 5 6 
#
# 1 0.008181 -0.002941 -0.003278 0.000000 0.000000 0.000000
# 2 -0.002941 0.043234 -0.011193 0.000000 0.000000 0.000000
# 3 -0.003278 -0.011193 0.011843 0.000000 0.000000 0.000000
# 4 0.000000 0.000000 0.000000 -0.113299 0.000000 0.000000
# 5 0.000000 0.000000 0.000000 0.000000 0.074409 0.000000
# 6 0.000000 0.000000 0.000000 0.000000 0.000000 0.050175
#
#
# Mechanical properties :
#
#
# Convention : Reuss Voigt Hill
#
# Bulk Modulus (GPa) = 35.17122 70.59125 52.88124
# Shear Modulus (GPa) = 42.07182 18.08377 30.07780
#
# Velocity S-wave (km/s) = 4.85441 3.18262 4.10453
# Velocity P-wave (km/s) = 7.14986 7.28321 7.21684
#
# Compressibility (1/GPa) = 0.02843234
#
# Stress axis : x y z
#
# Youngs Moduli (GPa) = 122.23938 23.13020 84.43833
#
# Poissons Ratio (x) = 0.06803 0.27677
# Poissons Ratio (y) = 0.35954 0.94515
# Poissons Ratio (z) = 0.40067 0.25891
#
# Static dielectric constant tensor:
#      x y z
#    x 3.930550 0.000000 0.000000 
#    y 0.000000 3.045420 0.000000 
#    z 0.000000 0.000000 3.200850 
# 
# 
# High freq. dielectric constant tensor:
#      x y z
#    x 1.707370 0.000000 0.000000 
#    y 0.000000 1.667000 0.000000 
#    z 0.000000 0.000000 1.690550 
# 
# From -- ./inp_files/23740.got.cif
#   From: 2010.03.12/outbox.cif.g09.slc.cpg/sg51_12_cif.got.tgz:23740.got - 2010.04.16 13:43:02.
