data_PCOD8212345
_publ_section_title
;
Structure prediction by ZEFSAII (Michael W. Deem and Ramdas Pophale) SiO2 
 PCOD8212345
Probable space group: P M M A
;
_chemical_formula_sum "Si O2"
_cell_formula_units_Z 64
_cell_length_a 15.293789
_cell_length_b 9.146530
_cell_length_c 23.886768
_cell_angle_alpha 90.000000
_cell_angle_beta 90.000000
_cell_angle_gamma 90.000000
_cell_volume 3341.402928
_symmetry_space_group_name_H-M "P M M A"
_symmetry_group_IT_number 51
_symmetry_cell_setting 'orthorhombic'
loop_
_space_group_symop_operation_xyz
x,y,z
1/2-x,-y,z
1/2+x,-y,-z
-x,y,-z
-x,-y,-z
1/2+x,y,-z
1/2-x,y,z
x,-y,z
loop_
_atom_site_type_symbol
_atom_site_label
_atom_site_fract_x
_atom_site_fract_y
_atom_site_fract_z
Si Si1 0.347190 0.334934 0.209856
Si Si2 0.156677 0.670768 0.765250
Si Si3 0.150141 0.837161 0.991365
Si Si4 0.084024 0.172670 0.110110
Si Si5 0.990695 0.173268 0.584769
Si Si6 0.010771 0.674308 0.297775
Si Si7 0.148903 0.827562 0.507557
Si Si8 0.407550 0.330272 0.885183
O O1 0.250000 0.330455 0.235084
O O2 0.375723 0.500000 0.194128
O O3 0.346620 0.239923 0.153182
O O4 0.411040 0.272693 0.257530
O O5 0.250000 0.736057 0.744692
O O6 0.153256 0.500000 0.753374
O O7 0.153214 0.697703 0.831817
O O8 0.077737 0.740000 0.729948
O O9 0.250000 0.846085 0.009542
O O10 0.139683 0.724989 0.940907
O O11 0.116336 0.000000 0.974027
O O12 0.099264 0.778815 0.045849
O O13 0.992007 0.236194 0.128479
O O14 0.087804 0.000000 0.115437
O O15 0.976264 0.254296 0.642545
O O16 0.906427 0.220036 0.547342
O O17 0.085468 0.221995 0.559036
O O18 0.990640 0.000000 0.593149
O O19 0.010028 0.500000 0.304157
O O20 0.250000 0.761981 0.509711
O O21 0.158224 0.000000 0.508572
O O22 0.431476 0.500000 0.892623
#
# Coordination Sequence:
#
# PCOD8212345 Si02
#       8
#     8   8   8   8   8   8   8   8
#     4  10  21  38  58  79 106 143 186 230 276 329
#     4   9  18  34  55  76 102 139 181 222 269 326
#     4  10  22  38  53  75 108 140 173 221 283 344
#     4  11  22  37  57  79 107 142 180 223 281 341
#     4   9  18  32  53  81 107 139 185 224 258 310
#     4  10  20  36  54  77 112 147 178 220 278 326
#     4   8  15  31  54  78 109 146 179 218 266 309
#     4  11  21  36  57  80 105 137 183 229 276 333
#
# _framework density 19.153632000000002
#
# number of rings (size 3 to 8) (size 9 to 14) (size 15 to 20)
#    0.000    2.250    1.250    2.625    0.000    5.500 
#    0.000    1.250    0.000    2.250    0.000    0.000 
#    0.000    0.000    0.000    0.000    0.000    0.000 
#
# Total GULP energy -793190.289713 kJ/mol
# GULP energy per Si atom -12393.598277 kJ/mol
# Density = 1.911004 g / cm^3
# Si number density = 19.153632 Si / 1000 Ang^3
#
#
#
# Elastic Constant Matrix: (Units=GPa)
#
#
# Indices 1 2 3 4 5 6 
#
# 1 116.9667 15.7006 31.5481 0.0000 0.0000 0.0000
# 2 15.7006 38.5694 35.3566 0.0000 0.0000 0.0000
# 3 31.5481 35.3566 111.3477 0.0000 0.0000 0.0000
# 4 0.0000 0.0000 0.0000 35.0290 0.0000 0.0000
# 5 0.0000 0.0000 0.0000 0.0000 17.9061 0.0000
# 6 0.0000 0.0000 0.0000 0.0000 0.0000 15.1636
#
#
#
# Elastic Compliance Matrix: (Units=1/GPa)
#
#
# Indices 1 2 3 4 5 6 
#
# 1 0.009359 -0.001945 -0.002034 0.000000 0.000000 0.000000
# 2 -0.001945 0.036977 -0.011190 0.000000 0.000000 0.000000
# 3 -0.002034 -0.011190 0.013111 0.000000 0.000000 0.000000
# 4 0.000000 0.000000 0.000000 0.028548 0.000000 0.000000
# 5 0.000000 0.000000 0.000000 0.000000 0.055847 0.000000
# 6 0.000000 0.000000 0.000000 0.000000 0.000000 0.065947
#
#
# Mechanical properties :
#
#
# Convention : Reuss Voigt Hill
#
# Bulk Modulus (GPa) = 34.35520 48.01050 41.18285
# Shear Modulus (GPa) = 20.01350 25.90497 22.95924
#
# Velocity S-wave (km/s) = 3.23599 3.68160 3.46596
# Velocity P-wave (km/s) = 5.65135 6.57211 6.12905
#
# Compressibility (1/GPa) = 0.02910767
#
# Stress axis : x y z
#
# Youngs Moduli (GPa) = 106.84700 27.04348 76.27466
#
# Poissons Ratio (x) = 0.05261 0.15515
# Poissons Ratio (y) = 0.20785 0.85355
# Poissons Ratio (z) = 0.21733 0.30263
#
# Static dielectric constant tensor:
#      x y z
#    x 3.921340 0.000000 0.000000 
#    y 0.000000 3.269870 0.000000 
#    z 0.000000 0.000000 3.475350 
# 
# 
# High freq. dielectric constant tensor:
#      x y z
#    x 1.761780 0.000000 0.000000 
#    y 0.000000 1.712660 0.000000 
#    z 0.000000 0.000000 1.740650 
# 
# From -- ./inp_files/35706.got.cif
#   From: 2010.03.12/outbox.cif.g09.slc.cpg/sg51_18_cif.got.tgz:35706.got - 2010.04.16 13:43:02.
