data_PCOD8212889
_publ_section_title
;
Structure prediction by ZEFSAII (Michael W. Deem and Ramdas Pophale) SiO2 
 PCOD8212889
Probable space group: P M M A
;
_chemical_formula_sum "Si O2"
_cell_formula_units_Z 48
_cell_length_a 14.112627
_cell_length_b 18.139436
_cell_length_c 9.476091
_cell_angle_alpha 90.000000
_cell_angle_beta 90.000000
_cell_angle_gamma 90.000000
_cell_volume 2425.832809
_symmetry_space_group_name_H-M "P M M A"
_symmetry_group_IT_number 51
_symmetry_cell_setting 'orthorhombic'
loop_
_space_group_symop_operation_xyz
x,y,z
1/2-x,-y,z
1/2+x,-y,-z
-x,y,-z
-x,-y,-z
1/2+x,y,-z
1/2-x,y,z
x,-y,z
loop_
_atom_site_type_symbol
_atom_site_label
_atom_site_fract_x
_atom_site_fract_y
_atom_site_fract_z
Si Si1 0.044416 0.838004 0.345878
Si Si2 0.923024 0.918307 0.118880
Si Si3 0.750000 0.827880 0.695695
Si Si4 0.944908 0.672585 0.641325
Si Si5 0.250000 0.679963 0.469118
Si Si6 0.559242 0.585901 0.138026
Si Si7 0.250000 0.330029 0.807930
Si Si8 0.250000 0.179632 0.976740
O O1 0.151647 0.873082 0.334506
O O2 0.056455 0.753776 0.286180
O O3 0.000000 0.840702 0.500000
O O4 0.969490 0.882310 0.255254
O O5 0.840859 0.868043 0.058882
O O6 0.884674 0.000000 0.158469
O O7 0.000000 0.925812 0.000000
O O8 0.750000 0.764888 0.576113
O O9 0.750000 0.798756 0.857819
O O10 0.841295 0.641360 0.600456
O O11 0.000000 0.685935 0.500000
O O12 0.994846 0.610737 0.732607
O O13 0.250000 0.674642 0.638511
O O14 0.581003 0.500000 0.152123
O O15 0.658279 0.627875 0.135439
O O16 0.500000 0.605760 0.000000
O O17 0.250000 0.250224 0.876632
#
# Coordination Sequence:
#
# PCOD8212889 Si02
#       8
#     8   8   4   8   4   8   4   4
#     4  10  22  39  66  93 130 166 212 269 314 374
#     4  11  24  42  62  91 131 169 211 258 315 381
#     4  10  22  39  59  99 128 160 210 264 323 368
#     4  10  20  39  65  93 125 164 213 265 312 367
#     4  10  22  39  61  99 128 158 210 272 321 362
#     4  11  26  44  63  92 133 171 209 258 321 386
#     4  12  25  43  69  95 126 166 213 268 321 369
#     4  12  25  39  69  97 124 168 217 264 315 375
#
# _framework density 19.787019000000001
#
# number of rings (size 3 to 8) (size 9 to 14) (size 15 to 20)
#    0.000    1.333    3.333    1.500    9.333    2.000 
#    0.000    1.667    0.000    0.000    0.000    0.000 
#    0.000    0.000    0.000    0.000    0.000    0.000 
#
# Total GULP energy -595007.632032 kJ/mol
# GULP energy per Si atom -12395.992334 kJ/mol
# Density = 1.974198 g / cm^3
# Si number density = 19.787019 Si / 1000 Ang^3
#
#
#
# Elastic Constant Matrix: (Units=GPa)
#
#
# Indices 1 2 3 4 5 6 
#
# 1 155.8859 53.6689 39.1870 0.0000 0.0000 0.0000
# 2 53.6689 88.4280 43.2391 0.0000 0.0000 0.0000
# 3 39.1870 43.2391 89.5808 0.0000 0.0000 0.0000
# 4 0.0000 0.0000 0.0000 24.4621 0.0000 0.0000
# 5 0.0000 0.0000 0.0000 0.0000 33.8202 0.0000
# 6 0.0000 0.0000 0.0000 0.0000 0.0000 34.3434
#
#
#
# Elastic Compliance Matrix: (Units=1/GPa)
#
#
# Indices 1 2 3 4 5 6 
#
# 1 0.008274 -0.004256 -0.001565 0.000000 0.000000 0.000000
# 2 -0.004256 0.016992 -0.006340 0.000000 0.000000 0.000000
# 3 -0.001565 -0.006340 0.014908 0.000000 0.000000 0.000000
# 4 0.000000 0.000000 0.000000 0.040880 0.000000 0.000000
# 5 0.000000 0.000000 0.000000 0.000000 0.029568 0.000000
# 6 0.000000 0.000000 0.000000 0.000000 0.000000 0.029118
#
#
# Mechanical properties :
#
#
# Convention : Reuss Voigt Hill
#
# Bulk Modulus (GPa) = 63.08581 67.34277 65.21429
# Shear Modulus (GPa) = 29.52564 31.71180 30.61872
#
# Velocity S-wave (km/s) = 3.86706 4.00766 3.93799
# Velocity P-wave (km/s) = 7.20350 7.45137 7.32848
#
# Compressibility (1/GPa) = 0.01585142
#
# Stress axis : x y z
#
# Youngs Moduli (GPa) = 120.86485 58.85167 67.07919
#
# Poissons Ratio (x) = 0.25049 0.10497
# Poissons Ratio (y) = 0.51444 0.42527
# Poissons Ratio (z) = 0.18914 0.37311
#
# Static dielectric constant tensor:
#      x y z
#    x 124.294400 0.000000 0.000000 
#    y 0.000000 3.567830 0.000000 
#    z 0.000000 0.000000 3.721920 
# 
# 
# High freq. dielectric constant tensor:
#      x y z
#    x 1.799970 0.000000 0.000000 
#    y 0.000000 1.748560 0.000000 
#    z 0.000000 0.000000 1.778240 
# 
# From -- ./inp_files/8405.got.cif
#   From: 2010.03.12/outbox.cif.g09.slc.cpg/sg51_5_cif.got.tgz:8405.got - 2010.04.16 13:43:02.
