data_PCOD8212334
_publ_section_title
;
Structure prediction by ZEFSAII (Michael W. Deem and Ramdas Pophale) SiO2 
 PCOD8212334
Probable space group: P M M A
;
_chemical_formula_sum "Si O2"
_cell_formula_units_Z 40
_cell_length_a 20.272623
_cell_length_b 8.761458
_cell_length_c 11.459689
_cell_angle_alpha 90.000000
_cell_angle_beta 90.000000
_cell_angle_gamma 90.000000
_cell_volume 2035.444004
_symmetry_space_group_name_H-M "P M M A"
_symmetry_group_IT_number 51
_symmetry_cell_setting 'orthorhombic'
loop_
_space_group_symop_operation_xyz
x,y,z
1/2-x,-y,z
1/2+x,-y,-z
-x,y,-z
-x,-y,-z
1/2+x,y,-z
1/2-x,y,z
x,-y,z
loop_
_atom_site_type_symbol
_atom_site_label
_atom_site_fract_x
_atom_site_fract_y
_atom_site_fract_z
Si Si1 0.501835 0.321167 0.365732
Si Si2 0.628107 0.819656 0.249458
Si Si3 0.750000 0.169586 0.613830
Si Si4 0.618677 0.175031 0.759149
Si Si5 0.750000 0.323309 0.378348
Si Si6 0.824342 0.181111 0.999763
O O1 0.500000 0.264878 0.500000
O O2 0.516208 0.500000 0.360121
O O3 0.557996 0.234206 0.295283
O O4 0.433137 0.283723 0.304059
O O5 0.684731 0.752240 0.329299
O O6 0.632185 0.000000 0.257470
O O7 0.638872 0.763232 0.116793
O O8 0.687194 0.190916 0.694022
O O9 0.750000 0.299472 0.516617
O O10 0.750000 0.000000 0.556733
O O11 0.631211 0.235509 0.890755
O O12 0.593107 0.000000 0.758254
O O13 0.750000 0.500000 0.347622
O O14 0.750000 0.250233 0.995972
O O15 0.818368 0.000000 0.995732
#
# Coordination Sequence:
#
# PCOD8212334 Si02
#       6
#     8   8   4   8   4   8
#     4  11  25  43  59  82 124 167 200 245 304 358
#     4  11  22  39  65  90 116 155 204 250 294 352
#     4  10  20  35  60  90 116 151 203 252 289 344
#     4  10  20  37  64  92 118 153 199 249 297 351
#     4  12  24  37  56  86 124 159 195 244 303 358
#     4   9  17  35  63  93 122 149 190 250 303 346
#
# _framework density 19.651731999999999
#
# number of rings (size 3 to 8) (size 9 to 14) (size 15 to 20)
#    0.000    1.600    2.000    3.300    0.000    6.400 
#    0.000    6.000    0.000    0.000    0.000    0.000 
#    0.000    0.000    0.000    0.000    0.000    0.000 
#
# Total GULP energy -496101.934643 kJ/mol
# GULP energy per Si atom -12402.548366 kJ/mol
# Density = 1.960700 g / cm^3
# Si number density = 19.651732 Si / 1000 Ang^3
#
#
#
# Elastic Constant Matrix: (Units=GPa)
#
#
# Indices 1 2 3 4 5 6 
#
# 1 111.8307 25.2980 50.3045 0.0000 0.0000 0.0000
# 2 25.2980 56.0115 31.5770 0.0000 0.0000 0.0000
# 3 50.3045 31.5770 156.2231 0.0000 0.0000 0.0000
# 4 0.0000 0.0000 0.0000 12.0768 0.0000 0.0000
# 5 0.0000 0.0000 0.0000 0.0000 35.3503 0.0000
# 6 0.0000 0.0000 0.0000 0.0000 0.0000 -1.4802
#
#
#
# Elastic Compliance Matrix: (Units=1/GPa)
#
#
# Indices 1 2 3 4 5 6 
#
# 1 0.010987 -0.003349 -0.002861 0.000000 0.000000 0.000000
# 2 -0.003349 0.021171 -0.003201 0.000000 0.000000 0.000000
# 3 -0.002861 -0.003201 0.007969 0.000000 0.000000 0.000000
# 4 0.000000 0.000000 0.000000 0.082803 0.000000 0.000000
# 5 0.000000 0.000000 0.000000 0.000000 0.028288 0.000000
# 6 0.000000 0.000000 0.000000 0.000000 0.000000 -0.675578
#
#
# Mechanical properties :
#
#
# Convention : Reuss Voigt Hill
#
# Bulk Modulus (GPa) = 46.93760 59.82494 53.38127
# Shear Modulus (GPa) = -10.03137 23.64841 6.80852
#
# Velocity S-wave (km/s) = -2.26178 3.47273 1.86336
# Velocity P-wave (km/s) = 4.13711 6.82558 5.64377
#
# Compressibility (1/GPa) = 0.02130488
#
# Stress axis : x y z
#
# Youngs Moduli (GPa) = 91.01977 47.23517 125.48294
#
# Poissons Ratio (x) = 0.15821 0.35897
# Poissons Ratio (y) = 0.30486 0.40163
# Poissons Ratio (z) = 0.26038 0.15118
#
# Static dielectric constant tensor:
#      x y z
#    x 3.320100 0.000000 0.000000 
#    y 0.000000 3.396880 0.000000 
#    z 0.000000 0.000000 3.945770 
# 
# 
# High freq. dielectric constant tensor:
#      x y z
#    x 1.773740 0.000000 0.000000 
#    y 0.000000 1.742850 0.000000 
#    z 0.000000 0.000000 1.783980 
# 
# From -- ./inp_files/17938.got.cif
#   From: 2010.03.12/outbox.cif.g09.slc.cpg/sg51_9_cif.got.tgz:17938.got - 2010.04.16 13:43:02.
