data_PCOD8212708
_publ_section_title
;
Structure prediction by ZEFSAII (Michael W. Deem and Ramdas Pophale) SiO2 
 PCOD8212708
Probable space group: P M M A
;
_chemical_formula_sum "Si O2"
_cell_formula_units_Z 36
_cell_length_a 8.693152
_cell_length_b 22.403928
_cell_length_c 9.569894
_cell_angle_alpha 90.000000
_cell_angle_beta 90.000000
_cell_angle_gamma 90.000000
_cell_volume 1863.839747
_symmetry_space_group_name_H-M "P M M A"
_symmetry_group_IT_number 51
_symmetry_cell_setting 'orthorhombic'
loop_
_space_group_symop_operation_xyz
x,y,z
1/2-x,-y,z
1/2+x,-y,-z
-x,y,-z
-x,-y,-z
1/2+x,y,-z
1/2-x,y,z
x,-y,z
loop_
_atom_site_type_symbol
_atom_site_label
_atom_site_fract_x
_atom_site_fract_y
_atom_site_fract_z
Si Si1 0.069180 0.102503 0.645737
Si Si2 0.568022 0.000000 0.152224
Si Si3 0.932216 0.664338 0.846512
Si Si4 0.428546 0.430410 0.647704
Si Si5 0.932137 0.238220 0.351791
O O1 0.250000 0.097637 0.630568
O O2 0.018699 0.170116 0.680124
O O3 0.000000 0.080495 0.500000
O O4 0.008478 0.059090 0.767607
O O5 0.750000 0.000000 0.141623
O O6 0.500000 0.000000 0.000000
O O7 0.750000 0.667073 0.853406
O O8 0.984213 0.604350 0.769018
O O9 0.995438 0.722621 0.769711
O O10 0.000000 0.662990 0.000000
O O11 0.500000 0.411521 0.500000
O O12 0.250000 0.412568 0.646954
O O13 0.453342 0.500000 0.677209
O O14 0.750000 0.246870 0.354807
O O15 0.000000 0.259277 0.500000
#
# Coordination Sequence:
#
# PCOD8212708 Si02
#       5
#     8   4   8   8   8
#     4   9  19  35  57  82 109 141 182 229 274 325
#     4  10  21  36  52  78 112 146 183 224 274 330
#     4  12  25  40  58  82 114 151 188 230 280 333
#     4  10  21  39  63  89 116 148 187 230 275 326
#     4  10  20  37  59  84 112 145 186 231 278 330
#
# _framework density 19.314965000000001
#
# number of rings (size 3 to 8) (size 9 to 14) (size 15 to 20)
#    0.000    1.778    0.000    4.333    0.000    4.444 
#    0.000    2.222    0.000    0.000    0.000    0.000 
#    0.000    0.000    0.000    0.000    0.000    0.000 
#
# Total GULP energy -446550.116650 kJ/mol
# GULP energy per Si atom -12404.169907 kJ/mol
# Density = 1.927100 g / cm^3
# Si number density = 19.314965 Si / 1000 Ang^3
#
#
#
# Elastic Constant Matrix: (Units=GPa)
#
#
# Indices 1 2 3 4 5 6 
#
# 1 107.1988 45.8169 64.8842 0.0000 0.0000 0.0000
# 2 45.8169 112.9094 88.4951 0.0000 0.0000 0.0000
# 3 64.8842 88.4951 186.7049 0.0000 0.0000 0.0000
# 4 0.0000 0.0000 0.0000 28.1860 0.0000 0.0000
# 5 0.0000 0.0000 0.0000 0.0000 40.2367 0.0000
# 6 0.0000 0.0000 0.0000 0.0000 0.0000 23.1925
#
#
#
# Elastic Compliance Matrix: (Units=1/GPa)
#
#
# Indices 1 2 3 4 5 6 
#
# 1 0.012277 -0.002606 -0.003031 0.000000 0.000000 0.000000
# 2 -0.002606 0.014645 -0.006036 0.000000 0.000000 0.000000
# 3 -0.003031 -0.006036 0.009270 0.000000 0.000000 0.000000
# 4 0.000000 0.000000 0.000000 0.035479 0.000000 0.000000
# 5 0.000000 0.000000 0.000000 0.000000 0.024853 0.000000
# 6 0.000000 0.000000 0.000000 0.000000 0.000000 0.043117
#
#
# Mechanical properties :
#
#
# Convention : Reuss Voigt Hill
#
# Bulk Modulus (GPa) = 77.84503 89.46728 83.65615
# Shear Modulus (GPa) = 29.89193 32.16417 31.02805
#
# Velocity S-wave (km/s) = 3.93823 4.08517 4.01237
# Velocity P-wave (km/s) = 7.81473 8.28687 8.05426
#
# Compressibility (1/GPa) = 0.01284604
#
# Stress axis : x y z
#
# Youngs Moduli (GPa) = 81.45286 68.28391 107.87047
#
# Poissons Ratio (x) = 0.17794 0.32700
# Poissons Ratio (y) = 0.21226 0.65108
# Poissons Ratio (z) = 0.24692 0.41215
#
# Static dielectric constant tensor:
#      x y z
#    x 3.596150 0.000000 0.000000 
#    y 0.000000 3.803160 0.000000 
#    z 0.000000 0.000000 3.328040 
# 
# 
# High freq. dielectric constant tensor:
#      x y z
#    x 1.760170 0.000000 0.000000 
#    y 0.000000 1.767510 0.000000 
#    z 0.000000 0.000000 1.751340 
# 
# From -- ./inp_files/5266.got.cif
#   From: 2010.03.12/outbox.cif.g09.slc.cpg/sg51_3_cif.got.tgz:5266.got - 2010.04.16 13:43:02.
