data_PCOD8212668
_publ_section_title
;
Structure prediction by ZEFSAII (Michael W. Deem and Ramdas Pophale) SiO2 
 PCOD8212668
Probable space group: P M M A
;
_chemical_formula_sum "Si O2"
_cell_formula_units_Z 48
_cell_length_a 8.674933
_cell_length_b 30.425284
_cell_length_c 9.530014
_cell_angle_alpha 90.000000
_cell_angle_beta 90.000000
_cell_angle_gamma 90.000000
_cell_volume 2515.326166
_symmetry_space_group_name_H-M "P M M A"
_symmetry_group_IT_number 51
_symmetry_cell_setting 'orthorhombic'
loop_
_space_group_symop_operation_xyz
x,y,z
1/2-x,-y,z
1/2+x,-y,-z
-x,y,-z
-x,-y,-z
1/2+x,y,-z
1/2-x,y,z
x,-y,z
loop_
_atom_site_type_symbol
_atom_site_label
_atom_site_fract_x
_atom_site_fract_y
_atom_site_fract_z
Si Si1 0.431189 0.827374 0.352852
Si Si2 0.430620 0.655808 0.147772
Si Si3 0.432741 0.000000 0.845598
Si Si4 0.432664 0.422703 0.343967
Si Si5 0.432443 0.926688 0.348713
Si Si6 0.567408 0.754053 0.853208
Si Si7 0.566342 0.500000 0.157250
O O1 0.500000 0.814689 0.500000
O O2 0.250000 0.823482 0.362226
O O3 0.477899 0.876749 0.308028
O O4 0.500906 0.790704 0.250231
O O5 0.250000 0.655436 0.124040
O O6 0.476715 0.624387 0.276849
O O7 0.489671 0.704850 0.187034
O O8 0.500000 0.639306 0.000000
O O9 0.491040 0.956607 0.768239
O O10 0.250000 0.000000 0.851471
O O11 0.500000 0.000000 0.000000
O O12 0.500000 0.426016 0.500000
O O13 0.250000 0.430513 0.350503
O O14 0.508776 0.457961 0.242089
O O15 0.500000 0.939486 0.500000
O O16 0.250000 0.934265 0.352044
O O17 0.750000 0.755766 0.857682
O O18 0.500000 0.768381 0.000000
O O19 0.750000 0.500000 0.148600
O O20 0.500000 0.500000 0.000000
#
# Coordination Sequence:
#
# PCOD8212668 Si02
#       7
#     8   8   4   8   8   8   4
#     4   9  19  34  54  79 109 141 178 220 264 314
#     4   9  19  35  56  79 108 144 184 225 269 321
#     4  12  25  40  57  80 108 140 176 222 273 324
#     4  11  23  39  58  84 115 148 184 228 277 326
#     4  10  20  37  58  81 108 143 182 222 267 322
#     4   9  18  34  53  78 109 143 181 223 268 319
#     4  12  25  42  63  86 112 146 184 226 273 328
#
# _framework density 19.083013000000001
#
# number of rings (size 3 to 8) (size 9 to 14) (size 15 to 20)
#    0.000    2.000    0.000    3.500    0.000    5.333 
#    0.000    1.667    0.000    0.000    0.000    0.000 
#    0.000    0.000    0.000    0.000    0.000    0.000 
#
# Total GULP energy -595154.051456 kJ/mol
# GULP energy per Si atom -12399.042739 kJ/mol
# Density = 1.903958 g / cm^3
# Si number density = 19.083013 Si / 1000 Ang^3
#
#
#
# Elastic Constant Matrix: (Units=GPa)
#
#
# Indices 1 2 3 4 5 6 
#
# 1 74.6215 48.2133 61.3686 0.0000 0.0000 0.0000
# 2 48.2133 142.3390 111.9216 0.0000 0.0000 0.0000
# 3 61.3686 111.9216 179.0949 0.0000 0.0000 0.0000
# 4 0.0000 0.0000 0.0000 44.4399 0.0000 0.0000
# 5 0.0000 0.0000 0.0000 0.0000 37.0345 0.0000
# 6 0.0000 0.0000 0.0000 0.0000 0.0000 23.2396
#
#
#
# Elastic Compliance Matrix: (Units=1/GPa)
#
#
# Indices 1 2 3 4 5 6 
#
# 1 0.019139 -0.002607 -0.004929 0.000000 0.000000 0.000000
# 2 -0.002607 0.014168 -0.007961 0.000000 0.000000 0.000000
# 3 -0.004929 -0.007961 0.012247 0.000000 0.000000 0.000000
# 4 0.000000 0.000000 0.000000 0.022502 0.000000 0.000000
# 5 0.000000 0.000000 0.000000 0.000000 0.027002 0.000000
# 6 0.000000 0.000000 0.000000 0.000000 0.000000 0.043030
#
#
# Mechanical properties :
#
#
# Convention : Reuss Voigt Hill
#
# Bulk Modulus (GPa) = 68.67654 93.22915 80.95284
# Shear Modulus (GPa) = 28.74627 32.57960 30.66294
#
# Velocity S-wave (km/s) = 3.88542 4.13638 4.01286
# Velocity P-wave (km/s) = 7.49634 8.47192 7.99902
#
# Compressibility (1/GPa) = 0.01456101
#
# Stress axis : x y z
#
# Youngs Moduli (GPa) = 52.24950 70.58106 81.65010
#
# Poissons Ratio (x) = 0.18402 0.40244
# Poissons Ratio (y) = 0.13623 0.64999
# Poissons Ratio (z) = 0.25753 0.56187
#
# Static dielectric constant tensor:
#      x y z
#    x 3.522930 0.000000 0.000000 
#    y 0.000000 4.019010 0.000000 
#    z 0.000000 0.000000 3.557780 
# 
# 
# High freq. dielectric constant tensor:
#      x y z
#    x 1.744610 0.000000 0.000000 
#    y 0.000000 1.758950 0.000000 
#    z 0.000000 0.000000 1.743090 
# 
# From -- ./inp_files/6111.got.cif
#   From: 2010.03.12/outbox.cif.g09.slc.cpg/sg51_4_cif.got.tgz:6111.got - 2010.04.16 13:43:02.
