data_PCOD8212634
_publ_section_title
;
Structure prediction by ZEFSAII (Michael W. Deem and Ramdas Pophale) SiO2 
 PCOD8212634
Probable space group: P M M A
;
_chemical_formula_sum "Si O2"
_cell_formula_units_Z 56
_cell_length_a 14.833758
_cell_length_b 9.247782
_cell_length_c 21.682885
_cell_angle_alpha 90.000000
_cell_angle_beta 90.000000
_cell_angle_gamma 90.000000
_cell_volume 2974.444292
_symmetry_space_group_name_H-M "P M M A"
_symmetry_group_IT_number 51
_symmetry_cell_setting 'orthorhombic'
loop_
_space_group_symop_operation_xyz
x,y,z
1/2-x,-y,z
1/2+x,-y,-z
-x,y,-z
-x,-y,-z
1/2+x,y,-z
1/2-x,y,z
x,-y,z
loop_
_atom_site_type_symbol
_atom_site_label
_atom_site_fract_x
_atom_site_fract_y
_atom_site_fract_z
Si Si1 0.446802 0.667325 0.562349
Si Si2 0.851124 0.336523 0.131886
Si Si3 0.150602 0.337804 0.106333
Si Si4 0.482592 0.331358 0.211587
Si Si5 0.104674 0.834418 0.989609
Si Si6 0.750000 0.333004 0.482183
Si Si7 0.941082 0.171422 0.663590
Si Si8 0.250000 0.169654 0.390333
O O1 0.500000 0.705543 0.500000
O O2 0.461505 0.500000 0.579926
O O3 0.340256 0.703138 0.556523
O O4 0.486856 0.766104 0.615733
O O5 0.750000 0.316975 0.156898
O O6 0.868919 0.500000 0.108516
O O7 0.867490 0.231038 0.075325
O O8 0.915507 0.301657 0.189575
O O9 0.250000 0.337336 0.136166
O O10 0.120458 0.500000 0.087920
O O11 0.082246 0.275339 0.156875
O O12 0.155483 0.243104 0.045064
O O13 0.465281 0.500000 0.226991
O O14 0.463272 0.234231 0.270061
O O15 0.134617 0.000000 0.989472
O O16 0.000000 0.813167 0.000000
O O17 0.750000 0.500000 0.502109
O O18 0.750000 0.241298 0.543532
O O19 0.839214 0.218537 0.646519
O O20 0.951486 0.000000 0.664844
O O21 0.250000 0.000000 0.401494
#
# Coordination Sequence:
#
# PCOD8212634 Si02
#       8
#     8   8   8   8   8   4   8   4
#     4  10  20  37  62  90 119 150 191 239 285 331
#     4  10  21  39  63  85 106 143 193 241 290 342
#     4  10  21  37  58  84 111 143 184 230 283 340
#     4  10  22  40  60  82 112 148 191 239 283 332
#     4  11  22  35  55  84 116 149 184 229 286 342
#     4  10  20  36  62  94 120 150 191 240 287 332
#     4  11  24  40  59  85 120 158 194 233 285 344
#     4  10  22  38  58  88 122 156 189 228 283 346
#
# _framework density 18.827047
#
# number of rings (size 3 to 8) (size 9 to 14) (size 15 to 20)
#    0.000    1.714    2.857    1.286    1.000    5.429 
#    1.286    0.000    0.000    0.000    0.000    0.000 
#    0.000    0.000    0.000    0.000    0.000    0.000 
#
# Total GULP energy -694535.965311 kJ/mol
# GULP energy per Si atom -12402.427952 kJ/mol
# Density = 1.878420 g / cm^3
# Si number density = 18.827047 Si / 1000 Ang^3
#
#
#
# Elastic Constant Matrix: (Units=GPa)
#
#
# Indices 1 2 3 4 5 6 
#
# 1 142.8912 47.6905 57.2280 0.0000 0.0000 0.0000
# 2 47.6905 69.7892 52.9485 0.0000 0.0000 0.0000
# 3 57.2280 52.9485 109.3706 0.0000 0.0000 0.0000
# 4 0.0000 0.0000 0.0000 36.6952 0.0000 0.0000
# 5 0.0000 0.0000 0.0000 0.0000 14.7722 0.0000
# 6 0.0000 0.0000 0.0000 0.0000 0.0000 25.6735
#
#
#
# Elastic Compliance Matrix: (Units=1/GPa)
#
#
# Indices 1 2 3 4 5 6 
#
# 1 0.009625 -0.004356 -0.002927 0.000000 0.000000 0.000000
# 2 -0.004356 0.024619 -0.009639 0.000000 0.000000 0.000000
# 3 -0.002927 -0.009639 0.015341 0.000000 0.000000 0.000000
# 4 0.000000 0.000000 0.000000 0.027251 0.000000 0.000000
# 5 0.000000 0.000000 0.000000 0.000000 0.067695 0.000000
# 6 0.000000 0.000000 0.000000 0.000000 0.000000 0.038951
#
#
# Mechanical properties :
#
#
# Convention : Reuss Voigt Hill
#
# Bulk Modulus (GPa) = 63.53286 70.86500 67.19893
# Shear Modulus (GPa) = 22.46457 26.37379 24.41918
#
# Velocity S-wave (km/s) = 3.45803 3.74685 3.60533
# Velocity P-wave (km/s) = 7.05427 7.51267 7.28708
#
# Compressibility (1/GPa) = 0.01573989
#
# Stress axis : x y z
#
# Youngs Moduli (GPa) = 103.90127 40.61950 65.18354
#
# Poissons Ratio (x) = 0.17694 0.19080
# Poissons Ratio (y) = 0.45261 0.62831
# Poissons Ratio (z) = 0.30413 0.39153
#
# Static dielectric constant tensor:
#      x y z
#    x 3.889110 0.000000 0.000000 
#    y 0.000000 3.442690 0.000000 
#    z 0.000000 0.000000 3.294400 
# 
# 
# High freq. dielectric constant tensor:
#      x y z
#    x 1.752550 0.000000 0.000000 
#    y 0.000000 1.728110 0.000000 
#    z 0.000000 0.000000 1.717800 
# 
# From -- ./inp_files/33522.got.cif
#   From: 2010.03.12/outbox.cif.g09.slc.cpg/sg51_17_cif.got.tgz:33522.got - 2010.04.16 13:43:02.
