data_PCOD8212531
_publ_section_title
;
Structure prediction by ZEFSAII (Michael W. Deem and Ramdas Pophale) SiO2 
 PCOD8212531
Probable space group: P M M A
;
_chemical_formula_sum "Si O2"
_cell_formula_units_Z 44
_cell_length_a 9.826312
_cell_length_b 7.870091
_cell_length_c 27.825407
_cell_angle_alpha 90.000000
_cell_angle_beta 90.000000
_cell_angle_gamma 90.000000
_cell_volume 2151.849180
_symmetry_space_group_name_H-M "P M M A"
_symmetry_group_IT_number 51
_symmetry_cell_setting 'orthorhombic'
loop_
_space_group_symop_operation_xyz
x,y,z
1/2-x,-y,z
1/2+x,-y,-z
-x,y,-z
-x,-y,-z
1/2+x,y,-z
1/2-x,y,z
x,-y,z
loop_
_atom_site_type_symbol
_atom_site_label
_atom_site_fract_x
_atom_site_fract_y
_atom_site_fract_z
Si Si1 0.527066 0.192559 0.387670
Si Si2 0.405811 0.000000 0.954089
Si Si3 0.593748 0.304398 0.117567
Si Si4 0.597137 0.700391 0.793619
Si Si5 0.250000 0.700013 0.539708
Si Si6 0.101341 0.694126 0.714319
Si Si7 0.250000 0.701821 0.431321
O O1 0.616187 0.237239 0.433775
O O2 0.564388 0.304361 0.341769
O O3 0.374239 0.224628 0.402067
O O4 0.551826 0.000000 0.372206
O O5 0.437023 0.172796 0.924985
O O6 0.250000 0.000000 0.971154
O O7 0.500000 0.000000 0.000000
O O8 0.750000 0.283789 0.135593
O O9 0.568647 0.500000 0.100557
O O10 0.490415 0.252748 0.159651
O O11 0.750000 0.779866 0.796468
O O12 0.611651 0.500000 0.788224
O O13 0.516131 0.778772 0.747503
O O14 0.250000 0.500000 0.537919
O O15 0.250000 0.773038 0.485672
O O16 0.250000 0.781072 0.722405
O O17 0.113129 0.500000 0.730662
O O18 0.250000 0.500000 0.430846
#
# Coordination Sequence:
#
# PCOD8212531 Si02
#       7
#     8   4   8   8   4   8   4
#     4  12  25  40  60  89 122 151 187 241 302 355
#     4  10  22  38  58  88 124 164 208 254 301 352
#     4   9  18  36  60  85 118 160 206 251 301 362
#     4   9  18  33  57  89 117 149 197 248 298 351
#     4  11  23  43  67  89 111 149 201 239 283 358
#     4  10  20  36  59  83 113 156 198 235 286 356
#     4  11  25  43  65  87 113 151 195 241 291 356
#
# _framework density 20.447528999999999
#
# number of rings (size 3 to 8) (size 9 to 14) (size 15 to 20)
#    0.000    1.818    0.909    3.273    1.273    6.909 
#    1.636    0.000    0.000    0.000    0.000    0.000 
#    0.000    0.000    0.000    0.000    0.000    0.000 
#
# Total GULP energy -545519.771211 kJ/mol
# GULP energy per Si atom -12398.176618 kJ/mol
# Density = 2.040099 g / cm^3
# Si number density = 20.447529 Si / 1000 Ang^3
#
#
#
# Elastic Constant Matrix: (Units=GPa)
#
#
# Indices 1 2 3 4 5 6 
#
# 1 184.0334 22.4429 87.2879 0.0000 0.0000 0.0000
# 2 22.4429 62.3556 28.5086 0.0000 0.0000 0.0000
# 3 87.2879 28.5086 129.8245 0.0000 0.0000 0.0000
# 4 0.0000 0.0000 0.0000 2.5450 0.0000 0.0000
# 5 0.0000 0.0000 0.0000 0.0000 47.1806 0.0000
# 6 0.0000 0.0000 0.0000 0.0000 0.0000 24.6044
#
#
#
# Elastic Compliance Matrix: (Units=1/GPa)
#
#
# Indices 1 2 3 4 5 6 
#
# 1 0.007990 -0.000466 -0.005270 0.000000 0.000000 0.000000
# 2 -0.000466 0.017854 -0.003607 0.000000 0.000000 0.000000
# 3 -0.005270 -0.003607 0.012038 0.000000 0.000000 0.000000
# 4 0.000000 0.000000 0.000000 0.392933 0.000000 0.000000
# 5 0.000000 0.000000 0.000000 0.000000 0.021195 0.000000
# 6 0.000000 0.000000 0.000000 0.000000 0.000000 0.040643
#
#
# Mechanical properties :
#
#
# Convention : Reuss Voigt Hill
#
# Bulk Modulus (GPa) = 52.09517 72.52137 62.30827
# Shear Modulus (GPa) = 9.65739 30.73093 20.19416
#
# Velocity S-wave (km/s) = 2.17561 3.88095 3.14603
# Velocity P-wave (km/s) = 5.64303 7.45831 6.61325
#
# Compressibility (1/GPa) = 0.01919564
#
# Stress axis : x y z
#
# Youngs Moduli (GPa) = 125.15390 56.00970 83.07078
#
# Poissons Ratio (x) = 0.02613 0.43776
# Poissons Ratio (y) = 0.05838 0.29964
# Poissons Ratio (z) = 0.65953 0.20203
#
# Static dielectric constant tensor:
#      x y z
#    x 4.080810 0.000000 0.000000 
#    y 0.000000 3.624470 0.000000 
#    z 0.000000 0.000000 3.589360 
# 
# 
# High freq. dielectric constant tensor:
#      x y z
#    x 1.815880 0.000000 0.000000 
#    y 0.000000 1.786380 0.000000 
#    z 0.000000 0.000000 1.790210 
# 
# From -- ./inp_files/36859.got.cif
#   From: 2010.03.12/outbox.cif.g09.slc.cpg/sg51_19_cif.got.tgz:36859.got - 2010.04.16 13:43:02.
