data_PCOD8212359
_publ_section_title
;
Structure prediction by ZEFSAII (Michael W. Deem and Ramdas Pophale) SiO2 
 PCOD8212359
Probable space group: P M M A
;
_chemical_formula_sum "Si O2"
_cell_formula_units_Z 52
_cell_length_a 13.821027
_cell_length_b 10.770747
_cell_length_c 16.922491
_cell_angle_alpha 90.000000
_cell_angle_beta 90.000000
_cell_angle_gamma 90.000000
_cell_volume 2519.129141
_symmetry_space_group_name_H-M "P M M A"
_symmetry_group_IT_number 51
_symmetry_cell_setting 'orthorhombic'
loop_
_space_group_symop_operation_xyz
x,y,z
1/2-x,-y,z
1/2+x,-y,-z
-x,y,-z
-x,-y,-z
1/2+x,y,-z
1/2-x,y,z
x,-y,z
loop_
_atom_site_type_symbol
_atom_site_label
_atom_site_fract_x
_atom_site_fract_y
_atom_site_fract_z
Si Si1 0.364263 0.142485 0.452825
Si Si2 0.856371 0.362002 0.120999
Si Si3 0.500000 0.743722 0.000000
Si Si4 0.638829 0.637201 0.437460
Si Si5 0.061157 0.137670 0.288299
Si Si6 0.642511 0.774419 0.282350
Si Si7 0.358771 0.853815 0.125848
O O1 0.250000 0.137209 0.459543
O O2 0.407010 0.243756 0.515653
O O3 0.395316 0.198775 0.367521
O O4 0.404170 0.000000 0.467573
O O5 0.750000 0.341074 0.083034
O O6 0.866625 0.500000 0.154792
O O7 0.869879 0.270735 0.193568
O O8 0.936569 0.343475 0.055051
O O9 0.572110 0.826364 0.947939
O O10 0.750000 0.629559 0.462720
O O11 0.591877 0.500000 0.455640
O O12 0.628452 0.661589 0.343801
O O13 0.098368 0.205165 0.207800
O O14 0.944328 0.128972 0.294175
O O15 0.103661 0.000000 0.286930
O O16 0.750000 0.835036 0.294571
O O17 0.250000 0.801443 0.111669
O O18 0.355848 0.000000 0.134709
#
# Coordination Sequence:
#
# PCOD8212359 Si02
#       7
#     8   8   4   8   8   8   8
#     4   9  18  34  58  84 112 149 192 236 284 341
#     4  10  21  37  57  81 111 148 189 232 281 340
#     4  12  20  36  60  88 112 140 186 234 288 336
#     4   9  18  34  57  83 114 151 191 236 285 340
#     4  10  20  36  56  81 111 148 191 231 280 343
#     4  10  20  36  55  78 110 151 191 231 283 340
#     4  10  21  37  58  84 116 151 185 227 281 343
#
# _framework density 20.642053000000001
#
# number of rings (size 3 to 8) (size 9 to 14) (size 15 to 20)
#    0.000    2.154    1.538    1.846    0.000    5.231 
#    0.000    5.385    0.000    0.000    0.000    0.000 
#    0.000    0.000    0.000    0.000    0.000    0.000 
#
# Total GULP energy -644217.335529 kJ/mol
# GULP energy per Si atom -12388.794914 kJ/mol
# Density = 2.059507 g / cm^3
# Si number density = 20.642053 Si / 1000 Ang^3
#
#
#
# Elastic Constant Matrix: (Units=GPa)
#
#
# Indices 1 2 3 4 5 6 
#
# 1 97.0813 14.9031 39.9190 0.0000 0.0000 0.0000
# 2 14.9031 70.2690 30.0687 0.0000 0.0000 0.0000
# 3 39.9190 30.0687 120.0167 0.0000 0.0000 0.0000
# 4 0.0000 0.0000 0.0000 19.9480 0.0000 0.0000
# 5 0.0000 0.0000 0.0000 0.0000 33.7488 0.0000
# 6 0.0000 0.0000 0.0000 0.0000 0.0000 11.9164
#
#
#
# Elastic Compliance Matrix: (Units=1/GPa)
#
#
# Indices 1 2 3 4 5 6 
#
# 1 0.011987 -0.000937 -0.003752 0.000000 0.000000 0.000000
# 2 -0.000937 0.016013 -0.003700 0.000000 0.000000 0.000000
# 3 -0.003752 -0.003700 0.010507 0.000000 0.000000 0.000000
# 4 0.000000 0.000000 0.000000 0.050130 0.000000 0.000000
# 5 0.000000 0.000000 0.000000 0.000000 0.029631 0.000000
# 6 0.000000 0.000000 0.000000 0.000000 0.000000 0.083918
#
#
# Mechanical properties :
#
#
# Convention : Reuss Voigt Hill
#
# Bulk Modulus (GPa) = 46.02162 50.79429 48.40795
# Shear Modulus (GPa) = 22.10346 26.62105 24.36225
#
# Velocity S-wave (km/s) = 3.27585 3.59507 3.43917
# Velocity P-wave (km/s) = 6.05407 6.47250 6.26678
#
# Compressibility (1/GPa) = 0.02172892
#
# Stress axis : x y z
#
# Youngs Moduli (GPa) = 83.42080 62.44899 95.17135
#
# Poissons Ratio (x) = 0.05849 0.35713
# Poissons Ratio (y) = 0.07814 0.35217
# Poissons Ratio (z) = 0.31304 0.23108
#
# Static dielectric constant tensor:
#      x y z
#    x 3.876770 0.000000 0.000000 
#    y 0.000000 3.559540 0.000000 
#    z 0.000000 0.000000 3.898010 
# 
# 
# High freq. dielectric constant tensor:
#      x y z
#    x 1.815740 0.000000 0.000000 
#    y 0.000000 1.770680 0.000000 
#    z 0.000000 0.000000 1.815240 
# 
# From -- ./inp_files/24185.got.cif
#   From: 2010.03.12/outbox.cif.g09.slc.cpg/sg51_13_cif.got.tgz:24185.got - 2010.04.16 13:43:02.
