data_PCOD8212858
_publ_section_title
;
Structure prediction by ZEFSAII (Michael W. Deem and Ramdas Pophale) SiO2 
 PCOD8212858
Probable space group: P M M A
;
_chemical_formula_sum "Si O2"
_cell_formula_units_Z 56
_cell_length_a 15.715354
_cell_length_b 18.857429
_cell_length_c 9.590969
_cell_angle_alpha 90.000000
_cell_angle_beta 90.000000
_cell_angle_gamma 90.000000
_cell_volume 2842.294906
_symmetry_space_group_name_H-M "P M M A"
_symmetry_group_IT_number 51
_symmetry_cell_setting 'orthorhombic'
loop_
_space_group_symop_operation_xyz
x,y,z
1/2-x,-y,z
1/2+x,-y,-z
-x,y,-z
-x,-y,-z
1/2+x,y,-z
1/2-x,y,z
x,-y,z
loop_
_atom_site_type_symbol
_atom_site_label
_atom_site_fract_x
_atom_site_fract_y
_atom_site_fract_z
Si Si1 0.653937 0.308191 0.233662
Si Si2 0.534779 0.844750 0.651303
Si Si3 0.422783 0.184880 0.909858
Si Si4 0.407181 0.297218 0.477135
Si Si5 0.486757 0.581636 0.843350
Si Si6 0.348444 0.081917 0.137116
Si Si7 0.656760 0.579231 0.683340
O O1 0.750000 0.337249 0.225841
O O2 0.642271 0.249703 0.112678
O O3 0.633409 0.268304 0.379465
O O4 0.588720 0.373511 0.224400
O O5 0.500000 0.871756 0.500000
O O6 0.456469 0.842273 0.760032
O O7 0.580162 0.767929 0.630783
O O8 0.604696 0.896271 0.719245
O O9 0.500000 0.216594 0.000000
O O10 0.379524 0.122308 0.998273
O O11 0.500000 0.332194 0.500000
O O12 0.343604 0.359801 0.432594
O O13 0.460838 0.500000 0.824734
O O14 0.579869 0.598622 0.784123
O O15 0.500000 0.604495 0.000000
O O16 0.250000 0.097971 0.161393
O O17 0.366834 0.000000 0.107857
O O18 0.750000 0.582534 0.757998
O O19 0.643950 0.500000 0.619579
#
# Coordination Sequence:
#
# PCOD8212858 Si02
#       7
#     8   8   8   8   8   8   8
#     4  12  23  36  58  89 120 158 204 251 310 374
#     4  10  20  39  64  90 119 161 206 252 305 363
#     4  10  20  38  64  88 122 160 204 251 301 363
#     4  11  20  38  60  84 122 157 196 255 310 360
#     4  10  22  40  58  79 114 157 200 255 311 362
#     4  10  23  42  63  92 128 162 199 247 306 374
#     4  10  21  37  59  85 113 154 205 252 306 366
#
# _framework density 19.702390000000001
#
# number of rings (size 3 to 8) (size 9 to 14) (size 15 to 20)
#    0.000    1.571    4.286    1.286    0.000    6.857 
#    0.000    1.429    0.000    1.714    0.000    0.000 
#    0.000    0.000    0.000    0.000    0.000    0.000 
#
# Total GULP energy -693972.728480 kJ/mol
# GULP energy per Si atom -12392.370151 kJ/mol
# Density = 1.965755 g / cm^3
# Si number density = 19.702390 Si / 1000 Ang^3
#
#
#
# Elastic Constant Matrix: (Units=GPa)
#
#
# Indices 1 2 3 4 5 6 
#
# 1 153.2729 62.2179 52.5498 0.0000 0.0000 0.0000
# 2 62.2179 107.4913 51.3027 0.0000 0.0000 0.0000
# 3 52.5498 51.3027 119.5520 0.0000 0.0000 0.0000
# 4 0.0000 0.0000 0.0000 22.8372 0.0000 0.0000
# 5 0.0000 0.0000 0.0000 0.0000 22.6579 0.0000
# 6 0.0000 0.0000 0.0000 0.0000 0.0000 29.4289
#
#
#
# Elastic Compliance Matrix: (Units=1/GPa)
#
#
# Indices 1 2 3 4 5 6 
#
# 1 0.008947 -0.004152 -0.002151 0.000000 0.000000 0.000000
# 2 -0.004152 0.013626 -0.004022 0.000000 0.000000 0.000000
# 3 -0.002151 -0.004022 0.011036 0.000000 0.000000 0.000000
# 4 0.000000 0.000000 0.000000 0.043788 0.000000 0.000000
# 5 0.000000 0.000000 0.000000 0.000000 0.044135 0.000000
# 6 0.000000 0.000000 0.000000 0.000000 0.000000 0.033980
#
#
# Mechanical properties :
#
#
# Convention : Reuss Voigt Hill
#
# Bulk Modulus (GPa) = 77.16844 79.16187 78.16516
# Shear Modulus (GPa) = 27.70342 29.26784 28.48563
#
# Velocity S-wave (km/s) = 3.75386 3.85840 3.80649
# Velocity P-wave (km/s) = 7.61844 7.75343 7.68623
#
# Compressibility (1/GPa) = 0.01295867
#
# Stress axis : x y z
#
# Youngs Moduli (GPa) = 111.76551 73.38828 90.61199
#
# Poissons Ratio (x) = 0.30473 0.19491
# Poissons Ratio (y) = 0.46408 0.36446
# Poissons Ratio (z) = 0.24041 0.29518
#
# Static dielectric constant tensor:
#      x y z
#    x 3.720340 0.000000 0.000000 
#    y 0.000000 3.452700 0.000000 
#    z 0.000000 0.000000 3.672690 
# 
# 
# High freq. dielectric constant tensor:
#      x y z
#    x 1.774410 0.000000 0.000000 
#    y 0.000000 1.757160 0.000000 
#    z 0.000000 0.000000 1.766090 
# 
# From -- ./inp_files/8568.got.cif
#   From: 2010.03.12/outbox.cif.g09.slc.cpg/sg51_5_cif.got.tgz:8568.got - 2010.04.16 13:43:02.
