data_PCOD8212214
_publ_section_title
;
Structure prediction by ZEFSAII (Michael W. Deem and Ramdas Pophale) SiO2 
 PCOD8212214
Probable space group: P M M A
;
_chemical_formula_sum "Si O2"
_cell_formula_units_Z 56
_cell_length_a 18.013841
_cell_length_b 9.339880
_cell_length_c 17.249309
_cell_angle_alpha 90.000000
_cell_angle_beta 90.000000
_cell_angle_gamma 90.000000
_cell_volume 2902.146445
_symmetry_space_group_name_H-M "P M M A"
_symmetry_group_IT_number 51
_symmetry_cell_setting 'orthorhombic'
loop_
_space_group_symop_operation_xyz
x,y,z
1/2-x,-y,z
1/2+x,-y,-z
-x,y,-z
-x,-y,-z
1/2+x,y,-z
1/2-x,y,z
x,-y,z
loop_
_atom_site_type_symbol
_atom_site_label
_atom_site_fract_x
_atom_site_fract_y
_atom_site_fract_z
Si Si1 0.081224 0.833149 0.474468
Si Si2 0.836144 0.335801 0.086158
Si Si3 0.334492 0.333379 0.344762
Si Si4 0.578480 0.830943 0.962823
Si Si5 0.666028 0.833271 0.371113
Si Si6 0.580327 0.337885 0.806601
Si Si7 0.584558 0.663546 0.240497
O O1 0.108716 0.751907 0.398545
O O2 0.139532 0.800565 0.542239
O O3 0.000000 0.777312 0.500000
O O4 0.077199 0.000000 0.453617
O O5 0.750000 0.319267 0.104624
O O6 0.857801 0.500000 0.067782
O O7 0.880724 0.277942 0.160542
O O8 0.856210 0.238824 0.012919
O O9 0.250000 0.280980 0.357721
O O10 0.342984 0.500000 0.364858
O O11 0.354863 0.305316 0.254914
O O12 0.585850 0.773506 0.876101
O O13 0.589133 0.000000 0.961583
O O14 0.500000 0.785698 0.000000
O O15 0.750000 0.777184 0.362677
O O16 0.613176 0.753782 0.311968
O O17 0.660344 0.000000 0.352274
O O18 0.586746 0.500000 0.839396
O O19 0.503341 0.318365 0.761424
O O20 0.609344 0.500000 0.252737
#
# Coordination Sequence:
#
# PCOD8212214 Si02
#       7
#     8   8   8   8   8   8   8
#     4  10  21  38  60  85 114 152 197 241 287 344
#     4  10  21  37  58  83 112 149 192 237 287 345
#     4  10  22  39  59  87 120 153 194 244 296 348
#     4  11  23  38  58  86 117 150 191 238 287 344
#     4  10  21  35  52  78 113 149 183 225 282 342
#     4  10  21  38  61  84 112 151 192 237 288 342
#     4  10  20  35  57  83 110 144 190 236 280 337
#
# _framework density 19.296061999999999
#
# number of rings (size 3 to 8) (size 9 to 14) (size 15 to 20)
#    0.000    1.857    1.429    2.143    0.000    5.714 
#    0.000    1.429    0.000    0.000    0.000    0.000 
#    0.000    0.000    0.000    0.000    0.000    0.000 
#
# Total GULP energy -694689.441357 kJ/mol
# GULP energy per Si atom -12405.168596 kJ/mol
# Density = 1.925214 g / cm^3
# Si number density = 19.296062 Si / 1000 Ang^3
#
#
#
# Elastic Constant Matrix: (Units=GPa)
#
#
# Indices 1 2 3 4 5 6 
#
# 1 83.5075 28.1812 25.8292 0.0000 0.0000 0.0000
# 2 28.1812 62.1299 44.7047 0.0000 0.0000 0.0000
# 3 25.8292 44.7047 85.0689 0.0000 0.0000 0.0000
# 4 0.0000 0.0000 0.0000 40.2722 0.0000 0.0000
# 5 0.0000 0.0000 0.0000 0.0000 33.3296 0.0000
# 6 0.0000 0.0000 0.0000 0.0000 0.0000 23.4137
#
#
#
# Elastic Compliance Matrix: (Units=1/GPa)
#
#
# Indices 1 2 3 4 5 6 
#
# 1 0.014257 -0.005390 -0.001496 0.000000 0.000000 0.000000
# 2 -0.005390 0.027920 -0.013036 0.000000 0.000000 0.000000
# 3 -0.001496 -0.013036 0.019060 0.000000 0.000000 0.000000
# 4 0.000000 0.000000 0.000000 0.024831 0.000000 0.000000
# 5 0.000000 0.000000 0.000000 0.000000 0.030003 0.000000
# 6 0.000000 0.000000 0.000000 0.000000 0.000000 0.042710
#
#
# Mechanical properties :
#
#
# Convention : Reuss Voigt Hill
#
# Bulk Modulus (GPa) = 46.74513 47.57073 47.15793
# Shear Modulus (GPa) = 24.30071 28.20251 26.25161
#
# Velocity S-wave (km/s) = 3.55260 3.82719 3.69245
# Velocity P-wave (km/s) = 6.41138 6.65105 6.53231
#
# Compressibility (1/GPa) = 0.02139260
#
# Stress axis : x y z
#
# Youngs Moduli (GPa) = 70.14226 35.81693 52.46646
#
# Poissons Ratio (x) = 0.19306 0.07850
# Poissons Ratio (y) = 0.37807 0.68393
# Poissons Ratio (z) = 0.10495 0.46689
#
# Static dielectric constant tensor:
#      x y z
#    x 3.638400 0.000000 0.000000 
#    y 0.000000 3.419560 0.000000 
#    z 0.000000 0.000000 3.424520 
# 
# 
# High freq. dielectric constant tensor:
#      x y z
#    x 1.761010 0.000000 0.000000 
#    y 0.000000 1.741550 0.000000 
#    z 0.000000 0.000000 1.755300 
# 
# From -- ./inp_files/25672.got.cif
#   From: 2010.03.12/outbox.cif.g09.slc.cpg/sg51_13_cif.got.tgz:25672.got - 2010.04.16 13:43:02.
