data_PCOD8212452
_publ_section_title
;
Structure prediction by ZEFSAII (Michael W. Deem and Ramdas Pophale) SiO2 
 PCOD8212452
Probable space group: P M M A
;
_chemical_formula_sum "Si O2"
_cell_formula_units_Z 48
_cell_length_a 16.782320
_cell_length_b 9.147323
_cell_length_c 16.417076
_cell_angle_alpha 90.000000
_cell_angle_beta 90.000000
_cell_angle_gamma 90.000000
_cell_volume 2520.239542
_symmetry_space_group_name_H-M "P M M A"
_symmetry_group_IT_number 51
_symmetry_cell_setting 'orthorhombic'
loop_
_space_group_symop_operation_xyz
x,y,z
1/2-x,-y,z
1/2+x,-y,-z
-x,y,-z
-x,-y,-z
1/2+x,y,-z
1/2-x,y,z
x,-y,z
loop_
_atom_site_type_symbol
_atom_site_label
_atom_site_fract_x
_atom_site_fract_y
_atom_site_fract_z
Si Si1 0.250000 0.673161 0.525313
Si Si2 0.552586 0.327312 0.730187
Si Si3 0.913082 0.172853 0.020966
Si Si4 0.841639 0.835175 0.856294
Si Si5 0.080208 0.673129 0.453992
Si Si6 0.902268 0.830781 0.201679
Si Si7 0.250000 0.834873 0.690594
O O1 0.250000 0.500000 0.518017
O O2 0.166326 0.734072 0.486580
O O3 0.250000 0.719322 0.618705
O O4 0.548004 0.500000 0.735916
O O5 0.618705 0.271093 0.791939
O O6 0.574919 0.276410 0.639378
O O7 0.468285 0.262128 0.753221
O O8 0.887269 0.230613 0.109995
O O9 0.913263 0.000000 0.024645
O O10 0.854496 0.224597 0.948509
O O11 0.000000 0.235496 0.000000
O O12 0.750000 0.835568 0.835176
O O13 0.877269 0.000000 0.848571
O O14 0.080448 0.500000 0.463756
O O15 0.000000 0.734400 0.500000
O O16 0.823925 0.805287 0.252253
O O17 0.928678 0.000000 0.199167
O O18 0.250000 0.000000 0.655505
#
# Coordination Sequence:
#
# PCOD8212452 Si02
#       7
#     4   8   8   8   8   8   4
#     4  10  20  38  62  79 104 146 186 229 276 332
#     4  11  22  36  58  84 111 144 187 234 282 331
#     4   9  16  31  55  79 104 142 190 229 261 315
#     4  10  21  36  56  82 112 148 190 232 276 328
#     4   9  19  35  56  81 105 138 187 231 269 326
#     4  10  20  36  57  83 115 148 185 228 277 328
#     4  10  22  36  56  87 118 142 174 231 288 330
#
# _framework density 19.045808999999998
#
# number of rings (size 3 to 8) (size 9 to 14) (size 15 to 20)
#    0.000    2.167    1.667    1.500    2.333    2.333 
#    0.000    3.333    0.000    4.500    0.000    0.000 
#    0.000    0.000    0.000    0.000    0.000    0.000 
#
# Total GULP energy -594953.719132 kJ/mol
# GULP energy per Si atom -12394.869149 kJ/mol
# Density = 1.900246 g / cm^3
# Si number density = 19.045809 Si / 1000 Ang^3
#
#
#
# Elastic Constant Matrix: (Units=GPa)
#
#
# Indices 1 2 3 4 5 6 
#
# 1 136.5326 29.7338 75.4240 0.0000 0.0000 0.0000
# 2 29.7338 37.0275 41.2009 0.0000 0.0000 0.0000
# 3 75.4240 41.2009 163.0296 0.0000 0.0000 0.0000
# 4 0.0000 0.0000 0.0000 25.6173 0.0000 0.0000
# 5 0.0000 0.0000 0.0000 0.0000 -10.7111 0.0000
# 6 0.0000 0.0000 0.0000 0.0000 0.0000 18.7799
#
#
#
# Elastic Compliance Matrix: (Units=1/GPa)
#
#
# Indices 1 2 3 4 5 6 
#
# 1 0.010271 -0.004119 -0.003711 0.000000 0.000000 0.000000
# 2 -0.004119 0.039224 -0.008007 0.000000 0.000000 0.000000
# 3 -0.003711 -0.008007 0.009874 0.000000 0.000000 0.000000
# 4 0.000000 0.000000 0.000000 0.039036 0.000000 0.000000
# 5 0.000000 0.000000 0.000000 0.000000 -0.093361 0.000000
# 6 0.000000 0.000000 0.000000 0.000000 0.000000 0.053248
#
#
# Mechanical properties :
#
#
# Convention : Reuss Voigt Hill
#
# Bulk Modulus (GPa) = 36.10662 69.92301 53.01481
# Shear Modulus (GPa) = 50.40342 19.41927 34.91135
#
# Velocity S-wave (km/s) = 5.14993 3.19660 4.28602
# Velocity P-wave (km/s) = 7.37301 7.10050 7.23804
#
# Compressibility (1/GPa) = 0.02769575
#
# Stress axis : x y z
#
# Youngs Moduli (GPa) = 97.35870 25.49445 101.27283
#
# Poissons Ratio (x) = 0.10501 0.37582
# Poissons Ratio (y) = 0.40100 0.81092
# Poissons Ratio (z) = 0.36130 0.20414
#
# Static dielectric constant tensor:
#      x y z
#    x 3.637570 0.000000 0.000000 
#    y 0.000000 3.139410 0.000000 
#    z 0.000000 0.000000 3.782320 
# 
# 
# High freq. dielectric constant tensor:
#      x y z
#    x 1.754100 0.000000 0.000000 
#    y 0.000000 1.694840 0.000000 
#    z 0.000000 0.000000 1.758460 
# 
# From -- ./inp_files/24870.got.cif
#   From: 2010.03.12/outbox.cif.g09.slc.cpg/sg51_13_cif.got.tgz:24870.got - 2010.04.16 13:43:02.
