data_PCOD8212720
_publ_section_title
;
Structure prediction by ZEFSAII (Michael W. Deem and Ramdas Pophale) SiO2 
 PCOD8212720
Probable space group: P M M A
;
_chemical_formula_sum "Si O2"
_cell_formula_units_Z 48
_cell_length_a 28.337544
_cell_length_b 9.102042
_cell_length_c 9.855731
_cell_angle_alpha 90.000000
_cell_angle_beta 90.000000
_cell_angle_gamma 90.000000
_cell_volume 2542.083923
_symmetry_space_group_name_H-M "P M M A"
_symmetry_group_IT_number 51
_symmetry_cell_setting 'orthorhombic'
loop_
_space_group_symop_operation_xyz
x,y,z
1/2-x,-y,z
1/2+x,-y,-z
-x,y,-z
-x,-y,-z
1/2+x,y,-z
1/2-x,y,z
x,-y,z
loop_
_atom_site_type_symbol
_atom_site_label
_atom_site_fract_x
_atom_site_fract_y
_atom_site_fract_z
Si Si1 0.872505 0.826854 0.027656
Si Si2 0.036284 0.332222 0.890698
Si Si3 0.026589 0.331817 0.367743
Si Si4 0.804601 0.671898 0.526334
Si Si5 0.694452 0.664889 0.219094
Si Si6 0.378799 0.174267 0.283061
O O1 0.871789 0.772308 0.871965
O O2 0.874673 0.000000 0.034264
O O3 0.916881 0.763240 0.108195
O O4 0.826320 0.772859 0.106363
O O5 0.049192 0.500000 0.927595
O O6 0.012843 0.317688 0.745840
O O7 0.000000 0.266847 0.000000
O O8 0.043763 0.500000 0.384879
O O9 0.071788 0.233202 0.338579
O O10 0.000000 0.272761 0.500000
O O11 0.750000 0.710637 0.553438
O O12 0.813719 0.500000 0.550547
O O13 0.818792 0.714643 0.372107
O O14 0.835695 0.765086 0.629380
O O15 0.750000 0.667905 0.201007
O O16 0.675158 0.500000 0.194354
O O17 0.379120 0.000000 0.293681
#
# Coordination Sequence:
#
# PCOD8212720 Si02
#       6
#     8   8   8   8   8   8
#     4  11  24  38  56  85 121 157 189 230 284 341
#     4  10  20  37  60  83 110 149 194 236 280 331
#     4  10  22  39  59  84 113 148 192 241 286 332
#     4   9  20  40  64  87 112 146 190 240 289 337
#     4   9  20  40  64  88 113 145 190 240 287 339
#     4  11  24  39  56  84 121 157 191 230 282 343
#
# _framework density 18.882145999999999
#
# number of rings (size 3 to 8) (size 9 to 14) (size 15 to 20)
#    0.000    2.000    1.667    2.000    2.333    5.333 
#    0.000    5.000    0.000    0.000    0.000    0.000 
#    0.000    0.000    0.000    0.000    0.000    0.000 
#
# Total GULP energy -595319.639267 kJ/mol
# GULP energy per Si atom -12402.492485 kJ/mol
# Density = 1.883917 g / cm^3
# Si number density = 18.882146 Si / 1000 Ang^3
#
#
#
# Elastic Constant Matrix: (Units=GPa)
#
#
# Indices 1 2 3 4 5 6 
#
# 1 90.4796 47.5553 62.9981 0.0000 0.0000 0.0000
# 2 47.5553 70.6407 49.5491 0.0000 0.0000 0.0000
# 3 62.9981 49.5491 126.0424 0.0000 0.0000 0.0000
# 4 0.0000 0.0000 0.0000 26.5116 0.0000 0.0000
# 5 0.0000 0.0000 0.0000 0.0000 34.9640 0.0000
# 6 0.0000 0.0000 0.0000 0.0000 0.0000 -4.6976
#
#
#
# Elastic Compliance Matrix: (Units=1/GPa)
#
#
# Indices 1 2 3 4 5 6 
#
# 1 0.020475 -0.009120 -0.006648 0.000000 0.000000 0.000000
# 2 -0.009120 0.023608 -0.004722 0.000000 0.000000 0.000000
# 3 -0.006648 -0.004722 0.013113 0.000000 0.000000 0.000000
# 4 0.000000 0.000000 0.000000 0.037719 0.000000 0.000000
# 5 0.000000 0.000000 0.000000 0.000000 0.028601 0.000000
# 6 0.000000 0.000000 0.000000 0.000000 0.000000 -0.212875
#
#
# Mechanical properties :
#
#
# Convention : Reuss Voigt Hill
#
# Bulk Modulus (GPa) = 61.67352 67.48529 64.57940
# Shear Modulus (GPa) = -116.35397 19.82627 -48.26385
#
# Velocity S-wave (km/s) = -7.85843 3.24389 -5.06123
# Velocity P-wave (km/s) = 7.04320 7.06033 0.34757
#
# Compressibility (1/GPa) = 0.01621442
#
# Stress axis : x y z
#
# Youngs Moduli (GPa) = 48.84047 42.35800 76.25933
#
# Poissons Ratio (x) = 0.38632 0.50700
# Poissons Ratio (y) = 0.44544 0.36011
# Poissons Ratio (z) = 0.32471 0.20002
#
# Static dielectric constant tensor:
#      x y z
#    x 3.388590 0.000000 0.000000 
#    y 0.000000 3.403930 0.000000 
#    z 0.000000 0.000000 3.656670 
# 
# 
# High freq. dielectric constant tensor:
#      x y z
#    x 1.739010 0.000000 0.000000 
#    y 0.000000 1.725080 0.000000 
#    z 0.000000 0.000000 1.746280 
# 
# From -- ./inp_files/12805.got.cif
#   From: 2010.03.12/outbox.cif.g09.slc.cpg/sg51_7_cif.got.tgz:12805.got - 2010.04.16 13:43:02.
