data_PCOD8212658
_publ_section_title
;
Structure prediction by ZEFSAII (Michael W. Deem and Ramdas Pophale) SiO2 
 PCOD8212658
Probable space group: P M M A
;
_chemical_formula_sum "Si O2"
_cell_formula_units_Z 64
_cell_length_a 18.057603
_cell_length_b 9.400274
_cell_length_c 19.907581
_cell_angle_alpha 90.000000
_cell_angle_beta 90.000000
_cell_angle_gamma 90.000000
_cell_volume 3379.240526
_symmetry_space_group_name_H-M "P M M A"
_symmetry_group_IT_number 51
_symmetry_cell_setting 'orthorhombic'
loop_
_space_group_symop_operation_xyz
x,y,z
1/2-x,-y,z
1/2+x,-y,-z
-x,y,-z
-x,-y,-z
1/2+x,y,-z
1/2-x,y,z
x,-y,z
loop_
_atom_site_type_symbol
_atom_site_label
_atom_site_fract_x
_atom_site_fract_y
_atom_site_fract_z
Si Si1 0.837819 0.340618 0.269809
Si Si2 0.420459 0.167799 0.476989
Si Si3 0.835035 0.830594 0.653302
Si Si4 0.573115 0.835562 0.169661
Si Si5 0.591326 0.164132 0.791618
Si Si6 0.162574 0.158587 0.607611
Si Si7 0.576418 0.342135 0.038034
Si Si8 0.834928 0.665971 0.910412
O O1 0.750000 0.343709 0.270555
O O2 0.870316 0.500000 0.266523
O O3 0.862355 0.250684 0.205926
O O4 0.869353 0.265424 0.336750
O O5 0.500000 0.232531 0.500000
O O6 0.386239 0.230599 0.407591
O O7 0.362760 0.209884 0.534728
O O8 0.428904 0.000000 0.467902
O O9 0.750000 0.774060 0.648121
O O10 0.871901 0.777731 0.722919
O O11 0.834433 0.000000 0.649990
O O12 0.497080 0.815607 0.211016
O O13 0.568096 0.775206 0.094976
O O14 0.595718 0.000000 0.165377
O O15 0.620345 0.250209 0.854666
O O16 0.612681 0.000000 0.802327
O O17 0.250000 0.157205 0.608416
O O18 0.131481 0.000000 0.623175
O O19 0.596034 0.500000 0.067223
O O20 0.500000 0.352372 0.000000
O O21 0.638756 0.291771 0.985124
O O22 0.750000 0.708563 0.903740
O O23 0.849374 0.500000 0.897900
#
# Coordination Sequence:
#
# PCOD8212658 Si02
#       8
#     8   8   8   8   8   8   8   8
#     4  10  22  39  58  80 108 146 187 224 271 335
#     4   9  17  27  46  76 110 143 176 220 274 327
#     4   9  17  30  48  73 107 145 184 223 268 326
#     4  11  23  36  57  86 115 143 181 232 284 333
#     4  10  21  35  55  82 112 147 184 227 278 333
#     4   9  17  31  53  79 106 138 178 224 271 319
#     4  10  20  37  58  79 108 149 190 224 272 332
#     4  10  21  37  58  83 110 143 187 233 274 326
#
# _framework density 18.939167000000001
#
# number of rings (size 3 to 8) (size 9 to 14) (size 15 to 20)
#    0.000    2.250    1.250    1.500    1.750    4.750 
#    0.000    1.250    0.000    1.125    0.000    1.750 
#    0.000    0.000    0.000    0.000    0.000    0.000 
#
# Total GULP energy -793506.197104 kJ/mol
# GULP energy per Si atom -12398.534330 kJ/mol
# Density = 1.889606 g / cm^3
# Si number density = 18.939167 Si / 1000 Ang^3
#
#
#
# Elastic Constant Matrix: (Units=GPa)
#
#
# Indices 1 2 3 4 5 6 
#
# 1 39.2141 27.5107 31.0664 0.0000 0.0000 0.0000
# 2 27.5107 80.8771 53.6122 0.0000 0.0000 0.0000
# 3 31.0664 53.6122 117.4509 0.0000 0.0000 0.0000
# 4 0.0000 0.0000 0.0000 3.3892 0.0000 0.0000
# 5 0.0000 0.0000 0.0000 0.0000 37.5230 0.0000
# 6 0.0000 0.0000 0.0000 0.0000 0.0000 19.2578
#
#
#
# Elastic Compliance Matrix: (Units=1/GPa)
#
#
# Indices 1 2 3 4 5 6 
#
# 1 0.035911 -0.008487 -0.005625 0.000000 0.000000 0.000000
# 2 -0.008487 0.019735 -0.006763 0.000000 0.000000 0.000000
# 3 -0.005625 -0.006763 0.013089 0.000000 0.000000 0.000000
# 4 0.000000 0.000000 0.000000 0.295052 0.000000 0.000000
# 5 0.000000 0.000000 0.000000 0.000000 0.026650 0.000000
# 6 0.000000 0.000000 0.000000 0.000000 0.000000 0.051927
#
#
# Mechanical properties :
#
#
# Convention : Reuss Voigt Hill
#
# Bulk Modulus (GPa) = 37.05747 51.32452 44.19100
# Shear Modulus (GPa) = 10.13975 20.39087 15.26531
#
# Velocity S-wave (km/s) = 2.31635 3.28480 2.84213
# Velocity P-wave (km/s) = 5.17330 6.44554 5.84414
#
# Compressibility (1/GPa) = 0.02698511
#
# Stress axis : x y z
#
# Youngs Moduli (GPa) = 27.84660 50.67257 76.39886
#
# Poissons Ratio (x) = 0.43004 0.42973
# Poissons Ratio (y) = 0.23633 0.51671
# Poissons Ratio (z) = 0.15663 0.34272
#
# Static dielectric constant tensor:
#      x y z
#    x 3.582040 0.000000 0.000000 
#    y 0.000000 3.365840 0.000000 
#    z 0.000000 0.000000 3.644310 
# 
# 
# High freq. dielectric constant tensor:
#      x y z
#    x 1.739560 0.000000 0.000000 
#    y 0.000000 1.703580 0.000000 
#    z 0.000000 0.000000 1.745180 
# 
# From -- ./inp_files/30621.got.cif
#   From: 2010.03.12/outbox.cif.g09.slc.cpg/sg51_16_cif.got.tgz:30621.got - 2010.04.16 13:43:02.
