data_PCOD8212157
_publ_section_title
;
Structure prediction by ZEFSAII (Michael W. Deem and Ramdas Pophale) SiO2 
 PCOD8212157
Probable space group: P M M A
;
_chemical_formula_sum "Si O2"
_cell_formula_units_Z 44
_cell_length_a 8.826934
_cell_length_b 27.769616
_cell_length_c 9.330660
_cell_angle_alpha 90.000000
_cell_angle_beta 90.000000
_cell_angle_gamma 90.000000
_cell_volume 2287.136676
_symmetry_space_group_name_H-M "P M M A"
_symmetry_group_IT_number 51
_symmetry_cell_setting 'orthorhombic'
loop_
_space_group_symop_operation_xyz
x,y,z
1/2-x,-y,z
1/2+x,-y,-z
-x,y,-z
-x,-y,-z
1/2+x,y,-z
1/2-x,y,z
x,-y,z
loop_
_atom_site_type_symbol
_atom_site_label
_atom_site_fract_x
_atom_site_fract_y
_atom_site_fract_z
Si Si1 0.929349 0.000000 0.843417
Si Si2 0.573550 0.444077 0.851751
Si Si3 0.072263 0.278567 0.849795
Si Si4 0.429621 0.179056 0.153158
Si Si5 0.427076 0.631535 0.652038
Si Si6 0.571711 0.910197 0.655476
O O1 0.986408 0.046555 0.756042
O O2 0.750000 0.000000 0.861565
O O3 0.000000 0.000000 0.000000
O O4 0.750000 0.432605 0.860387
O O5 0.540267 0.500000 0.823750
O O6 0.500040 0.415490 0.721828
O O7 0.500000 0.426661 0.000000
O O8 0.250000 0.269751 0.869770
O O9 0.035214 0.320976 0.741224
O O10 0.995658 0.229767 0.791511
O O11 0.000000 0.293823 0.000000
O O12 0.250000 0.182542 0.135674
O O13 0.477672 0.139541 0.269811
O O14 0.500000 0.165004 0.000000
O O15 0.500000 0.640289 0.500000
O O16 0.250000 0.622238 0.637027
O O17 0.500000 0.914263 0.500000
O O18 0.750000 0.913349 0.635810
#
# Coordination Sequence:
#
# PCOD8212157 Si02
#       6
#     4   8   8   8   8   8
#     4  10  21  38  58  82 110 142 183 228 272 322
#     4  10  21  38  61  87 114 146 185 228 274 327
#     4  10  21  37  58  83 109 143 185 228 275 326
#     4  10  20  35  56  82 109 141 182 226 271 323
#     4  11  24  39  57  82 113 149 187 229 279 332
#     4  10  22  37  55  81 112 145 182 223 271 326
#
# _framework density 19.238026999999999
#
# number of rings (size 3 to 8) (size 9 to 14) (size 15 to 20)
#    0.000    1.818    0.000    4.636    0.000    8.727 
#    0.000    3.636    0.000    0.000    0.000    0.000 
#    0.000    0.000    0.000    0.000    0.000    0.000 
#
# Total GULP energy -545793.775077 kJ/mol
# GULP energy per Si atom -12404.403979 kJ/mol
# Density = 1.919424 g / cm^3
# Si number density = 19.238027 Si / 1000 Ang^3
#
#
#
# Elastic Constant Matrix: (Units=GPa)
#
#
# Indices 1 2 3 4 5 6 
#
# 1 95.5608 70.4713 65.7125 0.0000 0.0000 0.0000
# 2 70.4713 126.1734 90.4520 0.0000 0.0000 0.0000
# 3 65.7125 90.4520 153.1155 0.0000 0.0000 0.0000
# 4 0.0000 0.0000 0.0000 23.2639 0.0000 0.0000
# 5 0.0000 0.0000 0.0000 0.0000 38.7368 0.0000
# 6 0.0000 0.0000 0.0000 0.0000 0.0000 24.4618
#
#
#
# Elastic Compliance Matrix: (Units=1/GPa)
#
#
# Indices 1 2 3 4 5 6 
#
# 1 0.018662 -0.008120 -0.003212 0.000000 0.000000 0.000000
# 2 -0.008120 0.017281 -0.006724 0.000000 0.000000 0.000000
# 3 -0.003212 -0.006724 0.011881 0.000000 0.000000 0.000000
# 4 0.000000 0.000000 0.000000 0.042985 0.000000 0.000000
# 5 0.000000 0.000000 0.000000 0.000000 0.025815 0.000000
# 6 0.000000 0.000000 0.000000 0.000000 0.000000 0.040880
#
#
# Mechanical properties :
#
#
# Convention : Reuss Voigt Hill
#
# Bulk Modulus (GPa) = 85.38124 92.01347 88.69736
# Shear Modulus (GPa) = 25.31377 27.17342 26.24360
#
# Velocity S-wave (km/s) = 3.63136 3.76238 3.69745
# Velocity P-wave (km/s) = 7.87783 8.17354 8.02705
#
# Compressibility (1/GPa) = 0.01171217
#
# Stress axis : x y z
#
# Youngs Moduli (GPa) = 53.58580 57.86614 84.16463
#
# Poissons Ratio (x) = 0.46990 0.27033
# Poissons Ratio (y) = 0.43514 0.56590
# Poissons Ratio (z) = 0.17211 0.38908
#
# Static dielectric constant tensor:
#      x y z
#    x 3.588360 0.000000 0.000000 
#    y 0.000000 3.728570 0.000000 
#    z 0.000000 0.000000 3.456730 
# 
# 
# High freq. dielectric constant tensor:
#      x y z
#    x 1.758240 0.000000 0.000000 
#    y 0.000000 1.764120 0.000000 
#    z 0.000000 0.000000 1.749350 
# 
# From -- ./inp_files/5860.got.cif
#   From: 2010.03.12/outbox.cif.g09.slc.cpg/sg51_3_cif.got.tgz:5860.got - 2010.04.16 13:43:02.
