data_PCOD8212876
_publ_section_title
;
Structure prediction by ZEFSAII (Michael W. Deem and Ramdas Pophale) SiO2 
 PCOD8212876
Probable space group: P M M A
;
_chemical_formula_sum "Si O2"
_cell_formula_units_Z 48
_cell_length_a 27.825390
_cell_length_b 9.063229
_cell_length_c 9.802468
_cell_angle_alpha 90.000000
_cell_angle_beta 90.000000
_cell_angle_gamma 90.000000
_cell_volume 2472.063639
_symmetry_space_group_name_H-M "P M M A"
_symmetry_group_IT_number 51
_symmetry_cell_setting 'orthorhombic'
loop_
_space_group_symop_operation_xyz
x,y,z
1/2-x,-y,z
1/2+x,-y,-z
-x,y,-z
-x,-y,-z
1/2+x,y,-z
1/2-x,y,z
x,-y,z
loop_
_atom_site_type_symbol
_atom_site_label
_atom_site_fract_x
_atom_site_fract_y
_atom_site_fract_z
Si Si1 0.344163 0.670120 0.461462
Si Si2 0.750000 0.174794 0.606553
Si Si3 0.599732 0.827226 0.306137
Si Si4 0.406354 0.331785 0.200474
Si Si5 0.750000 0.824769 0.919144
Si Si6 0.351108 0.171717 0.974125
Si Si7 0.995714 0.326145 0.341404
O O1 0.334974 0.500000 0.498973
O O2 0.295515 0.762154 0.473420
O O3 0.382681 0.737164 0.563807
O O4 0.364083 0.686817 0.309584
O O5 0.750000 0.229587 0.762844
O O6 0.750000 0.000000 0.594793
O O7 0.547002 0.765590 0.270853
O O8 0.597046 0.000000 0.339817
O O9 0.636122 0.795614 0.182170
O O10 0.412137 0.500000 0.155196
O O11 0.392548 0.240707 0.067344
O O12 0.456204 0.274743 0.264043
O O13 0.797919 0.762465 0.993774
O O14 0.750000 0.000000 0.926162
O O15 0.351290 0.000000 0.007590
O O16 0.986154 0.500000 0.325062
O O17 0.000000 0.283612 0.500000
#
# Coordination Sequence:
#
# PCOD8212876 Si02
#       7
#     8   4   8   8   4   8   8
#     4  11  22  39  61  88 122 156 196 247 296 352
#     4  11  21  36  63  94 118 152 201 249 300 353
#     4  11  24  39  59  90 123 159 200 249 304 359
#     4  10  21  37  61  88 114 154 202 245 295 356
#     4   9  18  36  61  84 112 156 195 233 288 351
#     4  10  22  40  60  86 122 158 197 245 301 358
#     4  10  20  39  62  85 117 159 202 248 303 360
#
# _framework density 19.416975000000001
#
# number of rings (size 3 to 8) (size 9 to 14) (size 15 to 20)
#    0.000    1.667    3.333    1.250    0.000    4.333 
#    0.000    5.417    0.000    0.000    0.000    0.000 
#    0.000    0.000    0.000    0.000    0.000    0.000 
#
# Total GULP energy -595377.834184 kJ/mol
# GULP energy per Si atom -12403.704879 kJ/mol
# Density = 1.937278 g / cm^3
# Si number density = 19.416975 Si / 1000 Ang^3
#
#
#
# Elastic Constant Matrix: (Units=GPa)
#
#
# Indices 1 2 3 4 5 6 
#
# 1 119.3665 37.3200 13.9950 0.0000 0.0000 0.0000
# 2 37.3200 73.9444 28.9812 0.0000 0.0000 0.0000
# 3 13.9950 28.9812 49.2221 0.0000 0.0000 0.0000
# 4 0.0000 0.0000 0.0000 30.1342 0.0000 0.0000
# 5 0.0000 0.0000 0.0000 0.0000 32.5556 0.0000
# 6 0.0000 0.0000 0.0000 0.0000 0.0000 36.6014
#
#
#
# Elastic Compliance Matrix: (Units=1/GPa)
#
#
# Indices 1 2 3 4 5 6 
#
# 1 0.009948 -0.005086 0.000166 0.000000 0.000000 0.000000
# 2 -0.005086 0.020181 -0.010436 0.000000 0.000000 0.000000
# 3 0.000166 -0.010436 0.026413 0.000000 0.000000 0.000000
# 4 0.000000 0.000000 0.000000 0.033185 0.000000 0.000000
# 5 0.000000 0.000000 0.000000 0.000000 0.030717 0.000000
# 6 0.000000 0.000000 0.000000 0.000000 0.000000 0.027321
#
#
# Mechanical properties :
#
#
# Convention : Reuss Voigt Hill
#
# Bulk Modulus (GPa) = 38.71400 44.79172 41.75286
# Shear Modulus (GPa) = 26.72543 30.67403 28.69973
#
# Velocity S-wave (km/s) = 3.71400 3.97892 3.84874
# Velocity P-wave (km/s) = 6.19462 6.65038 6.42654
#
# Compressibility (1/GPa) = 0.02583045
#
# Stress axis : x y z
#
# Youngs Moduli (GPa) = 100.52042 49.55195 37.85943
#
# Poissons Ratio (x) = 0.25202 -0.00629
# Poissons Ratio (y) = 0.51124 0.39511
# Poissons Ratio (z) = -0.01669 0.51713
#
# Static dielectric constant tensor:
#      x y z
#    x 3.755440 0.000000 0.000000 
#    y 0.000000 3.415190 0.000000 
#    z 0.000000 0.000000 3.373180 
# 
# 
# High freq. dielectric constant tensor:
#      x y z
#    x 1.771540 0.000000 0.000000 
#    y 0.000000 1.746770 0.000000 
#    z 0.000000 0.000000 1.746520 
# 
# From -- ./inp_files/12972.got.cif
#   From: 2010.03.12/outbox.cif.g09.slc.cpg/sg51_7_cif.got.tgz:12972.got - 2010.04.16 13:43:02.
