data_PCOD8212173
_publ_section_title
;
Structure prediction by ZEFSAII (Michael W. Deem and Ramdas Pophale) SiO2 
 PCOD8212173
Probable space group: P M M A
;
_chemical_formula_sum "Si O2"
_cell_formula_units_Z 64
_cell_length_a 28.012951
_cell_length_b 9.025650
_cell_length_c 12.862447
_cell_angle_alpha 90.000000
_cell_angle_beta 90.000000
_cell_angle_gamma 90.000000
_cell_volume 3252.077960
_symmetry_space_group_name_H-M "P M M A"
_symmetry_group_IT_number 51
_symmetry_cell_setting 'orthorhombic'
loop_
_space_group_symop_operation_xyz
x,y,z
1/2-x,-y,z
1/2+x,-y,-z
-x,y,-z
-x,-y,-z
1/2+x,y,-z
1/2-x,y,z
x,-y,z
loop_
_atom_site_type_symbol
_atom_site_label
_atom_site_fract_x
_atom_site_fract_y
_atom_site_fract_z
Si Si1 0.052584 0.173856 0.539638
Si Si2 0.358888 0.675798 0.458430
Si Si3 0.694144 0.828404 0.727209
Si Si4 0.803630 0.676365 0.337660
Si Si5 0.471945 0.826031 0.104122
Si Si6 0.043239 0.671283 0.754344
Si Si7 0.864484 0.827104 0.929704
Si Si8 0.140563 0.670468 0.861309
O O1 0.089381 0.246481 0.457934
O O2 0.060560 0.246514 0.651409
O O3 0.000000 0.210503 0.500000
O O4 0.062186 0.000000 0.547030
O O5 0.365427 0.500000 0.457070
O O6 0.329226 0.724736 0.358671
O O7 0.330923 0.732927 0.560287
O O8 0.750000 0.793976 0.733316
O O9 0.671192 0.785393 0.837370
O O10 0.684101 0.000000 0.700446
O O11 0.750000 0.738974 0.340780
O O12 0.804322 0.500000 0.336709
O O13 0.829451 0.738421 0.234662
O O14 0.494832 0.741903 0.201874
O O15 0.417646 0.769963 0.096864
O O16 0.475301 0.000000 0.126986
O O17 0.500000 0.782541 0.000000
O O18 0.034698 0.500000 0.727350
O O19 0.084395 0.691663 0.840199
O O20 0.866409 0.000000 0.951736
O O21 0.844601 0.752492 0.033729
O O22 0.153972 0.500000 0.875839
#
# Coordination Sequence:
#
# PCOD8212173 Si02
#       8
#     8   8   8   8   8   8   8   8
#     4  11  25  42  61  87 122 163 200 237 294 367
#     4  11  22  40  65  93 122 154 201 254 306 363
#     4  10  23  43  63  85 120 165 210 259 312 362
#     4   9  18  35  59  86 117 151 186 235 300 360
#     4  10  20  35  56  83 113 154 202 242 292 360
#     4  11  22  37  58  86 121 155 194 246 301 356
#     4  10  22  39  59  83 117 160 208 255 298 356
#     4  10  20  36  57  86 121 154 192 242 300 358
#
# _framework density 19.679724
#
# number of rings (size 3 to 8) (size 9 to 14) (size 15 to 20)
#    0.000    1.750    2.500    1.500    1.750    4.000 
#    0.000    0.000    0.000    1.500    0.000    0.000 
#    0.000    0.000    0.000    0.000    0.000    0.000 
#
# Total GULP energy -793903.854925 kJ/mol
# GULP energy per Si atom -12404.747733 kJ/mol
# Density = 1.963493 g / cm^3
# Si number density = 19.679724 Si / 1000 Ang^3
#
#
#
# Elastic Constant Matrix: (Units=GPa)
#
#
# Indices 1 2 3 4 5 6 
#
# 1 119.5918 49.6026 52.1237 0.0000 0.0000 0.0000
# 2 49.6026 67.8798 52.3770 0.0000 0.0000 0.0000
# 3 52.1237 52.3770 122.9857 0.0000 0.0000 0.0000
# 4 0.0000 0.0000 0.0000 37.2904 0.0000 0.0000
# 5 0.0000 0.0000 0.0000 0.0000 33.8669 0.0000
# 6 0.0000 0.0000 0.0000 0.0000 0.0000 21.5733
#
#
#
# Elastic Compliance Matrix: (Units=1/GPa)
#
#
# Indices 1 2 3 4 5 6 
#
# 1 0.012342 -0.007422 -0.002070 0.000000 0.000000 0.000000
# 2 -0.007422 0.026405 -0.008100 0.000000 0.000000 0.000000
# 3 -0.002070 -0.008100 0.012458 0.000000 0.000000 0.000000
# 4 0.000000 0.000000 0.000000 0.026817 0.000000 0.000000
# 5 0.000000 0.000000 0.000000 0.000000 0.029527 0.000000
# 6 0.000000 0.000000 0.000000 0.000000 0.000000 0.046353
#
#
# Mechanical properties :
#
#
# Convention : Reuss Voigt Hill
#
# Bulk Modulus (GPa) = 62.41442 68.74045 65.57744
# Shear Modulus (GPa) = 25.71652 28.96972 27.34312
#
# Velocity S-wave (km/s) = 3.61882 3.84091 3.73152
# Velocity P-wave (km/s) = 7.01749 7.39429 7.20835
#
# Compressibility (1/GPa) = 0.01602194
#
# Stress axis : x y z
#
# Youngs Moduli (GPa) = 81.02208 37.87111 80.26941
#
# Poissons Ratio (x) = 0.28107 0.16617
# Poissons Ratio (y) = 0.60132 0.65019
# Poissons Ratio (z) = 0.16773 0.30676
#
# Static dielectric constant tensor:
#      x y z
#    x 3.730530 0.000000 0.000000 
#    y 0.000000 3.383170 0.000000 
#    z 0.000000 0.000000 3.557490 
# 
# 
# High freq. dielectric constant tensor:
#      x y z
#    x 1.774490 0.000000 0.000000 
#    y 0.000000 1.751450 0.000000 
#    z 0.000000 0.000000 1.772920 
# 
# From -- ./inp_files/19648.got.cif
#   From: 2010.03.12/outbox.cif.g09.slc.cpg/sg51_10_cif.got.tgz:19648.got - 2010.04.16 13:43:02.
