data_PCOD8212544
_publ_section_title
;
Structure prediction by ZEFSAII (Michael W. Deem and Ramdas Pophale) SiO2 
 PCOD8212544
Probable space group: P M M A
;
_chemical_formula_sum "Si O2"
_cell_formula_units_Z 40
_cell_length_a 20.451784
_cell_length_b 8.883581
_cell_length_c 11.450381
_cell_angle_alpha 90.000000
_cell_angle_beta 90.000000
_cell_angle_gamma 90.000000
_cell_volume 2080.363385
_symmetry_space_group_name_H-M "P M M A"
_symmetry_group_IT_number 51
_symmetry_cell_setting 'orthorhombic'
loop_
_space_group_symop_operation_xyz
x,y,z
1/2-x,-y,z
1/2+x,-y,-z
-x,y,-z
-x,-y,-z
1/2+x,y,-z
1/2-x,y,z
x,-y,z
loop_
_atom_site_type_symbol
_atom_site_label
_atom_site_fract_x
_atom_site_fract_y
_atom_site_fract_z
Si Si1 0.495681 0.331266 0.637103
Si Si2 0.622043 0.823117 0.246828
Si Si3 0.750000 0.178864 0.642113
Si Si4 0.626481 0.322566 0.765536
Si Si5 0.750000 0.820280 0.374277
Si Si6 0.923824 0.177979 0.995742
O O1 0.500000 0.324206 0.500000
O O2 0.479319 0.500000 0.680627
O O3 0.439859 0.218979 0.676268
O O4 0.563886 0.276269 0.689767
O O5 0.687114 0.753806 0.305648
O O6 0.611453 0.767814 0.114489
O O7 0.628248 0.000000 0.247325
O O8 0.687119 0.239066 0.708673
O O9 0.750000 0.237487 0.508024
O O10 0.750000 0.000000 0.646450
O O11 0.639697 0.500000 0.765454
O O12 0.615054 0.265998 0.896456
O O13 0.750000 0.000000 0.372913
O O14 0.917683 0.000000 0.974580
O O15 0.000000 0.225863 0.000000
#
# Coordination Sequence:
#
# PCOD8212544 Si02
#       6
#     8   8   4   8   4   8
#     4  10  21  36  55  82 114 150 194 241 293 349
#     4  10  20  36  59  84 115 151 194 242 288 345
#     4  11  23  40  61  84 116 151 192 241 292 351
#     4  11  23  38  59  85 117 155 195 240 293 351
#     4   9  20  38  59  86 114 149 192 239 294 345
#     4  10  20  36  59  89 120 152 196 244 292 345
#
# _framework density 19.227411
#
# number of rings (size 3 to 8) (size 9 to 14) (size 15 to 20)
#    0.000    1.800    2.000    2.100    0.000    3.200 
#    0.000    3.500    0.000    0.000    0.000    0.000 
#    0.000    0.000    0.000    0.000    0.000    0.000 
#
# Total GULP energy -496086.368539 kJ/mol
# GULP energy per Si atom -12402.159213 kJ/mol
# Density = 1.918365 g / cm^3
# Si number density = 19.227411 Si / 1000 Ang^3
#
#
#
# Elastic Constant Matrix: (Units=GPa)
#
#
# Indices 1 2 3 4 5 6 
#
# 1 162.5114 35.1492 92.2350 0.0000 0.0000 0.0000
# 2 35.1492 32.4233 36.5456 0.0000 0.0000 0.0000
# 3 92.2350 36.5456 142.4698 0.0000 0.0000 0.0000
# 4 0.0000 0.0000 0.0000 19.0950 0.0000 0.0000
# 5 0.0000 0.0000 0.0000 0.0000 45.6910 0.0000
# 6 0.0000 0.0000 0.0000 0.0000 0.0000 19.0029
#
#
#
# Elastic Compliance Matrix: (Units=1/GPa)
#
#
# Indices 1 2 3 4 5 6 
#
# 1 0.010302 -0.005135 -0.005352 0.000000 0.000000 0.000000
# 2 -0.005135 0.045946 -0.008461 0.000000 0.000000 0.000000
# 3 -0.005352 -0.008461 0.012654 0.000000 0.000000 0.000000
# 4 0.000000 0.000000 0.000000 0.052370 0.000000 0.000000
# 5 0.000000 0.000000 0.000000 0.000000 0.021886 0.000000
# 6 0.000000 0.000000 0.000000 0.000000 0.000000 0.052624
#
#
# Mechanical properties :
#
#
# Convention : Reuss Voigt Hill
#
# Bulk Modulus (GPa) = 32.25285 73.91824 53.08554
# Shear Modulus (GPa) = 20.49062 28.32275 24.40669
#
# Velocity S-wave (km/s) = 3.26805 3.84218 3.56669
# Velocity P-wave (km/s) = 5.57234 7.62960 6.68064
#
# Compressibility (1/GPa) = 0.03100502
#
# Stress axis : x y z
#
# Youngs Moduli (GPa) = 97.07100 21.76460 79.02389
#
# Poissons Ratio (x) = 0.11177 0.42294
# Poissons Ratio (y) = 0.49849 0.66864
# Poissons Ratio (z) = 0.51953 0.18416
#
# Static dielectric constant tensor:
#      x y z
#    x 3.681640 0.000000 0.000000 
#    y 0.000000 3.406870 0.000000 
#    z 0.000000 0.000000 3.734100 
# 
# 
# High freq. dielectric constant tensor:
#      x y z
#    x 1.755710 0.000000 0.000000 
#    y 0.000000 1.732380 0.000000 
#    z 0.000000 0.000000 1.765600 
# 
# From -- ./inp_files/17941.got.cif
#   From: 2010.03.12/outbox.cif.g09.slc.cpg/sg51_9_cif.got.tgz:17941.got - 2010.04.16 13:43:02.
