data_PCOD8212308
_publ_section_title
;
Structure prediction by ZEFSAII (Michael W. Deem and Ramdas Pophale) SiO2 
 PCOD8212308
Probable space group: P M M A
;
_chemical_formula_sum "Si O2"
_cell_formula_units_Z 40
_cell_length_a 15.548505
_cell_length_b 8.605104
_cell_length_c 14.410666
_cell_angle_alpha 90.000000
_cell_angle_beta 90.000000
_cell_angle_gamma 90.000000
_cell_volume 1928.096710
_symmetry_space_group_name_H-M "P M M A"
_symmetry_group_IT_number 51
_symmetry_cell_setting 'orthorhombic'
loop_
_space_group_symop_operation_xyz
x,y,z
1/2-x,-y,z
1/2+x,-y,-z
-x,y,-z
-x,-y,-z
1/2+x,y,-z
1/2-x,y,z
x,-y,z
loop_
_atom_site_type_symbol
_atom_site_label
_atom_site_fract_x
_atom_site_fract_y
_atom_site_fract_z
Si Si1 0.349985 0.318778 0.592608
Si Si2 0.649516 0.819852 0.601064
Si Si3 0.415233 0.317440 0.215763
Si Si4 0.907390 0.817274 0.219024
Si Si5 0.250000 0.684392 0.105090
Si Si6 0.250000 0.684140 0.894102
O O1 0.250000 0.285037 0.611934
O O2 0.368572 0.500000 0.581244
O O3 0.382123 0.231750 0.500407
O O4 0.403367 0.251598 0.677805
O O5 0.750000 0.783190 0.611466
O O6 0.598927 0.718860 0.676118
O O7 0.628396 0.000000 0.616483
O O8 0.427962 0.500000 0.201488
O O9 0.499819 0.229762 0.178017
O O10 0.334811 0.251724 0.156718
O O11 0.834982 0.745958 0.154220
O O12 0.895192 0.000000 0.222528
O O13 0.250000 0.500000 0.110461
O O14 0.250000 0.743793 0.999751
O O15 0.250000 0.500000 0.887103
#
# Coordination Sequence:
#
# PCOD8212308 Si02
#       6
#     8   8   8   8   4   4
#     4  10  20  36  61  90 122 166 214 256 300 361
#     4  10  20  35  58  91 130 168 204 252 311 367
#     4  11  22  41  66  94 125 164 212 258 304 367
#     4  12  25  41  62  94 130 165 204 255 315 373
#     4   9  22  43  70  95 120 157 207 262 312 363
#     4  11  23  45  70  93 120 159 207 258 314 373
#
# _framework density 20.745844999999999
#
# number of rings (size 3 to 8) (size 9 to 14) (size 15 to 20)
#    0.000    1.400    2.000    3.900    0.000    3.200 
#    0.000   12.000    0.000    0.000    0.000    0.000 
#    0.000    0.000    0.000    0.000    0.000    0.000 
#
# Total GULP energy -496249.009609 kJ/mol
# GULP energy per Si atom -12406.225240 kJ/mol
# Density = 2.069863 g / cm^3
# Si number density = 20.745845 Si / 1000 Ang^3
#
#
#
# Elastic Constant Matrix: (Units=GPa)
#
#
# Indices 1 2 3 4 5 6 
#
# 1 131.0209 19.5236 58.3757 0.0000 0.0000 0.0000
# 2 19.5236 54.8789 7.6564 0.0000 0.0000 0.0000
# 3 58.3757 7.6564 116.7788 0.0000 0.0000 0.0000
# 4 0.0000 0.0000 0.0000 4.2862 0.0000 0.0000
# 5 0.0000 0.0000 0.0000 0.0000 4.7494 0.0000
# 6 0.0000 0.0000 0.0000 0.0000 0.0000 30.5823
#
#
#
# Elastic Compliance Matrix: (Units=1/GPa)
#
#
# Indices 1 2 3 4 5 6 
#
# 1 0.010277 -0.002966 -0.004943 0.000000 0.000000 0.000000
# 2 -0.002966 0.019246 0.000221 0.000000 0.000000 0.000000
# 3 -0.004943 0.000221 0.011019 0.000000 0.000000 0.000000
# 4 0.000000 0.000000 0.000000 0.233310 0.000000 0.000000
# 5 0.000000 0.000000 0.000000 0.000000 0.210554 0.000000
# 6 0.000000 0.000000 0.000000 0.000000 0.000000 0.032699
#
#
# Mechanical properties :
#
#
# Convention : Reuss Voigt Hill
#
# Bulk Modulus (GPa) = 39.73547 52.64334 46.18940
# Shear Modulus (GPa) = 9.24438 22.39842 15.82140
#
# Velocity S-wave (km/s) = 2.11322 3.28938 2.76457
# Velocity P-wave (km/s) = 5.01491 6.31325 5.70116
#
# Compressibility (1/GPa) = 0.02516643
#
# Stress axis : x y z
#
# Youngs Moduli (GPa) = 97.30904 51.95765 90.74887
#
# Poissons Ratio (x) = 0.15413 0.44853
# Poissons Ratio (y) = 0.28866 -0.02006
# Poissons Ratio (z) = 0.48096 -0.01148
#
# Static dielectric constant tensor:
#      x y z
#    x 3.865940 0.000000 0.000000 
#    y 0.000000 3.675500 0.000000 
#    z 0.000000 0.000000 3.825900 
# 
# 
# High freq. dielectric constant tensor:
#      x y z
#    x 1.819740 0.000000 0.000000 
#    y 0.000000 1.811650 0.000000 
#    z 0.000000 0.000000 1.809040 
# 
# From -- ./inp_files/23744.got.cif
#   From: 2010.03.12/outbox.cif.g09.slc.cpg/sg51_12_cif.got.tgz:23744.got - 2010.04.16 13:43:02.
