data_PCOD8212158
_publ_section_title
;
Structure prediction by ZEFSAII (Michael W. Deem and Ramdas Pophale) SiO2 
 PCOD8212158
Probable space group: P M M A
;
_chemical_formula_sum "Si O2"
_cell_formula_units_Z 48
_cell_length_a 10.016543
_cell_length_b 9.011412
_cell_length_c 29.075710
_cell_angle_alpha 90.000000
_cell_angle_beta 90.000000
_cell_angle_gamma 90.000000
_cell_volume 2624.466504
_symmetry_space_group_name_H-M "P M M A"
_symmetry_group_IT_number 51
_symmetry_cell_setting 'orthorhombic'
loop_
_space_group_symop_operation_xyz
x,y,z
1/2-x,-y,z
1/2+x,-y,-z
-x,y,-z
-x,-y,-z
1/2+x,y,-z
1/2-x,y,z
x,-y,z
loop_
_atom_site_type_symbol
_atom_site_label
_atom_site_fract_x
_atom_site_fract_y
_atom_site_fract_z
Si Si1 0.519680 0.328743 0.898185
Si Si2 0.403296 0.327172 0.285355
Si Si3 0.250000 0.666810 0.951703
Si Si4 0.401981 0.174678 0.539624
Si Si5 0.750000 0.175292 0.953858
Si Si6 0.906251 0.170916 0.808841
Si Si7 0.402250 0.673750 0.633911
O O1 0.563786 0.500000 0.895847
O O2 0.375347 0.307495 0.919420
O O3 0.619554 0.239545 0.930260
O O4 0.514141 0.262049 0.847141
O O5 0.250000 0.295335 0.299379
O O6 0.425676 0.500000 0.274655
O O7 0.444872 0.235405 0.240608
O O8 0.499148 0.271166 0.326056
O O9 0.250000 0.500000 0.972639
O O10 0.250000 0.784262 0.992623
O O11 0.500000 0.235247 0.500000
O O12 0.250000 0.219816 0.527151
O O13 0.447281 0.246805 0.587324
O O14 0.416766 0.000000 0.545292
O O15 0.750000 0.000000 0.947784
O O16 0.750000 0.190873 0.818916
O O17 0.949376 0.000000 0.810641
O O18 0.250000 0.715806 0.647139
O O19 0.417893 0.500000 0.625749
#
# Coordination Sequence:
#
# PCOD8212158 Si02
#       7
#     8   8   4   8   4   8   8
#     4  11  22  39  62  83 110 147 185 226 271 322
#     4   9  18  33  53  75 100 133 174 215 259 312
#     4  10  24  42  58  84 114 144 186 228 267 322
#     4   9  18  32  49  70  99 135 172 210 255 310
#     4  12  24  38  60  88 114 146 184 222 271 328
#     4  10  20  35  56  82 110 138 177 223 268 321
#     4   9  18  33  51  73 102 135 171 214 262 311
#
# _framework density 18.289431
#
# number of rings (size 3 to 8) (size 9 to 14) (size 15 to 20)
#    0.000    2.167    0.833    2.250    0.000    5.667 
#    1.500    0.000    0.000    0.000    0.000    0.000 
#    0.000    0.000    0.000    0.000    0.000    0.000 
#
# Total GULP energy -595377.272817 kJ/mol
# GULP energy per Si atom -12403.693184 kJ/mol
# Density = 1.824780 g / cm^3
# Si number density = 18.289431 Si / 1000 Ang^3
#
#
#
# Elastic Constant Matrix: (Units=GPa)
#
#
# Indices 1 2 3 4 5 6 
#
# 1 104.0861 53.4710 80.1533 0.0000 0.0000 0.0000
# 2 53.4710 99.8506 72.9460 0.0000 0.0000 0.0000
# 3 80.1533 72.9460 161.4140 0.0000 0.0000 0.0000
# 4 0.0000 0.0000 0.0000 17.0225 0.0000 0.0000
# 5 0.0000 0.0000 0.0000 0.0000 14.9397 0.0000
# 6 0.0000 0.0000 0.0000 0.0000 0.0000 17.4788
#
#
#
# Elastic Compliance Matrix: (Units=1/GPa)
#
#
# Indices 1 2 3 4 5 6 
#
# 1 0.016712 -0.004310 -0.006351 0.000000 0.000000 0.000000
# 2 -0.004310 0.016062 -0.005119 0.000000 0.000000 0.000000
# 3 -0.006351 -0.005119 0.011662 0.000000 0.000000 0.000000
# 4 0.000000 0.000000 0.000000 0.058746 0.000000 0.000000
# 5 0.000000 0.000000 0.000000 0.000000 0.066936 0.000000
# 6 0.000000 0.000000 0.000000 0.000000 0.000000 0.057212
#
#
# Mechanical properties :
#
#
# Convention : Reuss Voigt Hill
#
# Bulk Modulus (GPa) = 77.65430 86.49905 82.07667
# Shear Modulus (GPa) = 18.99820 20.47354 19.73587
#
# Velocity S-wave (km/s) = 3.22647 3.34940 3.28851
# Velocity P-wave (km/s) = 7.51205 7.89653 7.70669
#
# Compressibility (1/GPa) = 0.01287759
#
# Stress axis : x y z
#
# Youngs Moduli (GPa) = 59.83641 62.25699 85.74607
#
# Poissons Ratio (x) = 0.26831 0.54459
# Poissons Ratio (y) = 0.25788 0.43892
# Poissons Ratio (z) = 0.38003 0.31868
#
# Static dielectric constant tensor:
#      x y z
#    x 3.384170 0.000000 0.000000 
#    y 0.000000 3.415820 0.000000 
#    z 0.000000 0.000000 3.433440 
# 
# 
# High freq. dielectric constant tensor:
#      x y z
#    x 1.704320 0.000000 0.000000 
#    y 0.000000 1.710600 0.000000 
#    z 0.000000 0.000000 1.715870 
# 
# From -- ./inp_files/37231.got.cif
#   From: 2010.03.12/outbox.cif.g09.slc.cpg/sg51_19_cif.got.tgz:37231.got - 2010.04.16 13:43:02.
