data_PCOD8212445
_publ_section_title
;
Structure prediction by ZEFSAII (Michael W. Deem and Ramdas Pophale) SiO2 
 PCOD8212445
Probable space group: P M M A
;
_chemical_formula_sum "Si O2"
_cell_formula_units_Z 56
_cell_length_a 21.355333
_cell_length_b 13.866409
_cell_length_c 9.552997
_cell_angle_alpha 90.000000
_cell_angle_beta 90.000000
_cell_angle_gamma 90.000000
_cell_volume 2828.850492
_symmetry_space_group_name_H-M "P M M A"
_symmetry_group_IT_number 51
_symmetry_cell_setting 'orthorhombic'
loop_
_space_group_symop_operation_xyz
x,y,z
1/2-x,-y,z
1/2+x,-y,-z
-x,y,-z
-x,-y,-z
1/2+x,y,-z
1/2-x,y,z
x,-y,z
loop_
_atom_site_type_symbol
_atom_site_label
_atom_site_fract_x
_atom_site_fract_y
_atom_site_fract_z
Si Si1 0.996977 0.113119 0.655420
Si Si2 0.677413 0.107769 0.378754
Si Si3 0.177096 0.608518 0.188443
Si Si4 0.109115 0.887246 0.137151
Si Si5 0.320960 0.789681 0.352292
Si Si6 0.071484 0.391234 0.951470
Si Si7 0.396236 0.200752 0.834202
O O1 0.940901 0.154787 0.750685
O O2 0.000000 0.159085 0.500000
O O3 0.059919 0.137615 0.735316
O O4 0.986625 0.000000 0.644975
O O5 0.750000 0.094346 0.405503
O O6 0.644723 0.162531 0.512321
O O7 0.669851 0.172671 0.237153
O O8 0.647313 0.000000 0.366154
O O9 0.250000 0.628713 0.138429
O O10 0.172070 0.500000 0.246812
O O11 0.156966 0.681091 0.313117
O O12 0.125829 0.623882 0.066888
O O13 0.173678 0.857578 0.213008
O O14 0.104224 0.000000 0.106419
O O15 0.098751 0.832013 0.993613
O O16 0.250000 0.783270 0.397646
O O17 0.075596 0.500000 0.891450
O O18 0.087683 0.314660 0.828629
O O19 0.000000 0.371070 0.000000
#
# Coordination Sequence:
#
# PCOD8212445 Si02
#       7
#     8   8   8   8   8   8   8
#     4  10  21  36  54  77 109 150 191 233 287 349
#     4  10  22  39  57  80 118 163 199 238 295 361
#     4   9  18  35  61  90 116 147 196 254 305 357
#     4  11  21  32  52  82 111 142 188 241 287 339
#     4  10  20  36  57  82 112 152 195 237 296 358
#     4  10  21  38  61  88 121 157 194 244 311 371
#     4  12  22  36  57  82 113 149 195 242 294 350
#
# _framework density 19.796026999999999
#
# number of rings (size 3 to 8) (size 9 to 14) (size 15 to 20)
#    0.000    1.714    1.429    3.857    0.000    4.286 
#    0.000    0.714    0.000    1.286    0.000    0.000 
#    0.000    0.000    0.000    0.000    0.000    0.000 
#
# Total GULP energy -693804.393330 kJ/mol
# GULP energy per Si atom -12389.364167 kJ/mol
# Density = 1.975097 g / cm^3
# Si number density = 19.796027 Si / 1000 Ang^3
#
#
#
# Elastic Constant Matrix: (Units=GPa)
#
#
# Indices 1 2 3 4 5 6 
#
# 1 52.8188 35.6300 27.3871 0.0000 0.0000 0.0000
# 2 35.6300 110.5712 51.7753 0.0000 0.0000 0.0000
# 3 27.3871 51.7753 136.7498 0.0000 0.0000 0.0000
# 4 0.0000 0.0000 0.0000 26.5215 0.0000 0.0000
# 5 0.0000 0.0000 0.0000 0.0000 25.4207 0.0000
# 6 0.0000 0.0000 0.0000 0.0000 0.0000 26.6649
#
#
#
# Elastic Compliance Matrix: (Units=1/GPa)
#
#
# Indices 1 2 3 4 5 6 
#
# 1 0.024802 -0.006887 -0.002360 0.000000 0.000000 0.000000
# 2 -0.006887 0.012905 -0.003507 0.000000 0.000000 0.000000
# 3 -0.002360 -0.003507 0.009113 0.000000 0.000000 0.000000
# 4 0.000000 0.000000 0.000000 0.037705 0.000000 0.000000
# 5 0.000000 0.000000 0.000000 0.000000 0.039338 0.000000
# 6 0.000000 0.000000 0.000000 0.000000 0.000000 0.037502
#
#
# Mechanical properties :
#
#
# Convention : Reuss Voigt Hill
#
# Bulk Modulus (GPa) = 46.91954 58.85828 52.88891
# Shear Modulus (GPa) = 25.77619 28.07793 26.92706
#
# Velocity S-wave (km/s) = 3.61236 3.77020 3.69212
# Velocity P-wave (km/s) = 6.41497 6.98208 6.70452
#
# Compressibility (1/GPa) = 0.02131308
#
# Stress axis : x y z
#
# Youngs Moduli (GPa) = 40.31928 77.48728 109.73448
#
# Poissons Ratio (x) = 0.53367 0.25892
# Poissons Ratio (y) = 0.27769 0.38482
# Poissons Ratio (z) = 0.09513 0.27173
#
# Static dielectric constant tensor:
#      x y z
#    x 3.838150 0.000000 0.000000 
#    y 0.000000 3.897550 0.000000 
#    z 0.000000 0.000000 3.722920 
# 
# 
# High freq. dielectric constant tensor:
#      x y z
#    x 1.778880 0.000000 0.000000 
#    y 0.000000 1.773400 0.000000 
#    z 0.000000 0.000000 1.755040 
# 
# From -- ./inp_files/10982.got.cif
#   From: 2010.03.12/outbox.cif.g09.slc.cpg/sg51_6_cif.got.tgz:10982.got - 2010.04.16 13:43:02.
