data_PCOD8212793
_publ_section_title
;
Structure prediction by ZEFSAII (Michael W. Deem and Ramdas Pophale) SiO2 
 PCOD8212793
Probable space group: P M M A
;
_chemical_formula_sum "Si O2"
_cell_formula_units_Z 48
_cell_length_a 8.660686
_cell_length_b 9.799712
_cell_length_c 29.233268
_cell_angle_alpha 90.000000
_cell_angle_beta 90.000000
_cell_angle_gamma 90.000000
_cell_volume 2481.092602
_symmetry_space_group_name_H-M "P M M A"
_symmetry_group_IT_number 51
_symmetry_cell_setting 'orthorhombic'
loop_
_space_group_symop_operation_xyz
x,y,z
1/2-x,-y,z
1/2+x,-y,-z
-x,y,-z
-x,-y,-z
1/2+x,y,-z
1/2-x,y,z
x,-y,z
loop_
_atom_site_type_symbol
_atom_site_label
_atom_site_fract_x
_atom_site_fract_y
_atom_site_fract_z
Si Si1 0.929250 0.341442 0.193294
Si Si2 0.932167 0.249930 0.896491
Si Si3 0.567559 0.840710 0.368397
Si Si4 0.567708 0.000000 0.050495
Si Si5 0.567967 0.654012 0.451789
Si Si6 0.568636 0.344341 0.709916
Si Si7 0.567294 0.500000 0.050219
O O1 0.750000 0.306008 0.187971
O O2 0.962598 0.500000 0.183867
O O3 0.026428 0.252854 0.157210
O O4 0.983476 0.301090 0.243754
O O5 0.750000 0.247694 0.903165
O O6 0.008033 0.374232 0.921782
O O7 0.009368 0.124374 0.920457
O O8 0.750000 0.825857 0.361462
O O9 0.511930 0.763195 0.414237
O O10 0.482464 0.765321 0.327286
O O11 0.518675 0.000000 0.370791
O O12 0.750000 0.000000 0.046108
O O13 0.500000 0.000000 0.000000
O O14 0.500000 0.702068 0.500000
O O15 0.750000 0.655434 0.455908
O O16 0.510475 0.500000 0.439271
O O17 0.750000 0.334308 0.717966
O O18 0.522165 0.500000 0.695652
O O19 0.750000 0.500000 0.047365
O O20 0.500000 0.500000 0.000000
#
# Coordination Sequence:
#
# PCOD8212793 Si02
#       7
#     8   8   8   4   8   8   4
#     4  10  20  37  63  92 121 153 194 242 296 355
#     4  12  24  41  64  92 124 158 198 248 301 355
#     4  10  21  37  56  81 115 154 197 242 292 349
#     4  12  26  46  66  88 122 162 204 246 295 360
#     4   9  18  33  54  80 111 149 194 243 292 347
#     4  10  21  37  59  86 115 149 192 241 294 350
#     4  12  24  40  62  92 124 160 202 246 299 354
#
# _framework density 19.346315000000001
#
# number of rings (size 3 to 8) (size 9 to 14) (size 15 to 20)
#    0.000    1.500    0.833    5.000    0.000    3.667 
#    1.500    1.667    0.000    0.000    0.000    0.000 
#    0.000    0.000    0.000    0.000    0.000    0.000 
#
# Total GULP energy -595258.272302 kJ/mol
# GULP energy per Si atom -12401.214006 kJ/mol
# Density = 1.930228 g / cm^3
# Si number density = 19.346315 Si / 1000 Ang^3
#
#
#
# Elastic Constant Matrix: (Units=GPa)
#
#
# Indices 1 2 3 4 5 6 
#
# 1 110.1374 44.6210 49.1684 0.0000 0.0000 0.0000
# 2 44.6210 134.8530 74.3076 0.0000 0.0000 0.0000
# 3 49.1684 74.3076 144.4212 0.0000 0.0000 0.0000
# 4 0.0000 0.0000 0.0000 28.9321 0.0000 0.0000
# 5 0.0000 0.0000 0.0000 0.0000 41.0104 0.0000
# 6 0.0000 0.0000 0.0000 0.0000 0.0000 28.9719
#
#
#
# Elastic Compliance Matrix: (Units=1/GPa)
#
#
# Indices 1 2 3 4 5 6 
#
# 1 0.011169 -0.002234 -0.002653 0.000000 0.000000 0.000000
# 2 -0.002234 0.010797 -0.004795 0.000000 0.000000 0.000000
# 3 -0.002653 -0.004795 0.010294 0.000000 0.000000 0.000000
# 4 0.000000 0.000000 0.000000 0.034564 0.000000 0.000000
# 5 0.000000 0.000000 0.000000 0.000000 0.024384 0.000000
# 6 0.000000 0.000000 0.000000 0.000000 0.000000 0.034516
#
#
# Mechanical properties :
#
#
# Convention : Reuss Voigt Hill
#
# Bulk Modulus (GPa) = 77.53765 80.62284 79.08025
# Shear Modulus (GPa) = 33.47041 34.53720 34.00380
#
# Velocity S-wave (km/s) = 4.16392 4.22976 4.19697
# Velocity P-wave (km/s) = 7.95509 8.10052 8.02813
#
# Compressibility (1/GPa) = 0.01289696
#
# Stress axis : x y z
#
# Youngs Moduli (GPa) = 89.53360 92.62258 97.14036
#
# Poissons Ratio (x) = 0.20689 0.25774
# Poissons Ratio (y) = 0.19999 0.46575
# Poissons Ratio (z) = 0.23755 0.44408
#
# Static dielectric constant tensor:
#      x y z
#    x 3.614620 0.000000 0.000000 
#    y 0.000000 3.621100 0.000000 
#    z 0.000000 0.000000 4.119340 
# 
# 
# High freq. dielectric constant tensor:
#      x y z
#    x 1.761140 0.000000 0.000000 
#    y 0.000000 1.749270 0.000000 
#    z 0.000000 0.000000 1.768230 
# 
# From -- ./inp_files/37086.got.cif
#   From: 2010.03.12/outbox.cif.g09.slc.cpg/sg51_19_cif.got.tgz:37086.got - 2010.04.16 13:43:02.
