data_PCOD8212433
_publ_section_title
;
Structure prediction by ZEFSAII (Michael W. Deem and Ramdas Pophale) SiO2 
 PCOD8212433
Probable space group: P M M A
;
_chemical_formula_sum "Si O2"
_cell_formula_units_Z 48
_cell_length_a 8.583721
_cell_length_b 30.200697
_cell_length_c 9.524589
_cell_angle_alpha 90.000000
_cell_angle_beta 90.000000
_cell_angle_gamma 90.000000
_cell_volume 2469.100706
_symmetry_space_group_name_H-M "P M M A"
_symmetry_group_IT_number 51
_symmetry_cell_setting 'orthorhombic'
loop_
_space_group_symop_operation_xyz
x,y,z
1/2-x,-y,z
1/2+x,-y,-z
-x,y,-z
-x,-y,-z
1/2+x,y,-z
1/2-x,y,z
x,-y,z
loop_
_atom_site_type_symbol
_atom_site_label
_atom_site_fract_x
_atom_site_fract_y
_atom_site_fract_z
Si Si1 0.430735 0.551703 0.649540
Si Si2 0.434371 0.049694 0.350872
Si Si3 0.933800 0.377053 0.844960
Si Si4 0.065315 0.793149 0.349236
Si Si5 0.065763 0.698568 0.651500
Si Si6 0.565975 0.127065 0.845740
O O1 0.500000 0.565836 0.500000
O O2 0.250000 0.565236 0.653170
O O3 0.455285 0.500000 0.677658
O O4 0.524075 0.576983 0.769923
O O5 0.500000 0.065291 0.500000
O O6 0.250000 0.051781 0.360420
O O7 0.497781 0.083111 0.232339
O O8 0.492065 0.000000 0.313738
O O9 0.750000 0.370237 0.847824
O O10 0.013309 0.336506 0.765863
O O11 0.000000 0.378969 0.000000
O O12 0.250000 0.789561 0.359067
O O13 0.009466 0.829551 0.237494
O O14 0.000000 0.807365 0.500000
O O15 0.996974 0.746250 0.300451
O O16 0.250000 0.700138 0.641473
O O17 0.000000 0.684708 0.500000
O O18 0.750000 0.125703 0.853260
O O19 0.500000 0.128685 0.000000
#
# Coordination Sequence:
#
# PCOD8212433 Si02
#       6
#     8   8   8   8   8   8
#     4  10  21  39  63  90 119 153 194 238 283 332
#     4   9  18  34  55  79 106 138 179 225 271 321
#     4  12  25  41  60  85 118 154 192 234 284 339
#     4  10  20  36  57  82 109 140 183 230 276 326
#     4  11  22  39  62  87 114 147 188 232 280 332
#     4  10  22  36  52  77 110 145 180 222 271 327
#
# _framework density 19.440276999999998
#
# number of rings (size 3 to 8) (size 9 to 14) (size 15 to 20)
#    0.000    1.667    0.000    6.000    0.000    4.333 
#    0.000    1.667    0.000    0.000    0.000    0.000 
#    0.000    0.000    0.000    0.000    0.000    0.000 
#
# Total GULP energy -595388.779630 kJ/mol
# GULP energy per Si atom -12403.932909 kJ/mol
# Density = 1.939603 g / cm^3
# Si number density = 19.440277 Si / 1000 Ang^3
#
#
#
# Elastic Constant Matrix: (Units=GPa)
#
#
# Indices 1 2 3 4 5 6 
#
# 1 82.7135 34.8302 32.3432 0.0000 0.0000 0.0000
# 2 34.8302 122.2178 87.8446 0.0000 0.0000 0.0000
# 3 32.3432 87.8446 153.6182 0.0000 0.0000 0.0000
# 4 0.0000 0.0000 0.0000 14.9889 0.0000 0.0000
# 5 0.0000 0.0000 0.0000 0.0000 37.5876 0.0000
# 6 0.0000 0.0000 0.0000 0.0000 0.0000 25.1613
#
#
#
# Elastic Compliance Matrix: (Units=1/GPa)
#
#
# Indices 1 2 3 4 5 6 
#
# 1 0.013851 -0.003143 -0.001119 0.000000 0.000000 0.000000
# 2 -0.003143 0.014605 -0.007690 0.000000 0.000000 0.000000
# 3 -0.001119 -0.007690 0.011143 0.000000 0.000000 0.000000
# 4 0.000000 0.000000 0.000000 0.066716 0.000000 0.000000
# 5 0.000000 0.000000 0.000000 0.000000 0.026605 0.000000
# 6 0.000000 0.000000 0.000000 0.000000 0.000000 0.039744
#
#
# Mechanical properties :
#
#
# Convention : Reuss Voigt Hill
#
# Bulk Modulus (GPa) = 63.71553 74.28728 69.00140
# Shear Modulus (GPa) = 24.77724 29.11633 26.94679
#
# Velocity S-wave (km/s) = 3.57393 3.87425 3.72712
# Velocity P-wave (km/s) = 7.06235 7.63604 7.35479
#
# Compressibility (1/GPa) = 0.01569476
#
# Stress axis : x y z
#
# Youngs Moduli (GPa) = 72.19700 68.46953 89.74562
#
# Poissons Ratio (x) = 0.21521 0.10041
# Poissons Ratio (y) = 0.22692 0.69014
# Poissons Ratio (z) = 0.08078 0.52653
#
# Static dielectric constant tensor:
#      x y z
#    x 3.616370 0.000000 0.000000 
#    y 0.000000 3.842020 0.000000 
#    z 0.000000 0.000000 3.532010 
# 
# 
# High freq. dielectric constant tensor:
#      x y z
#    x 1.765640 0.000000 0.000000 
#    y 0.000000 1.773140 0.000000 
#    z 0.000000 0.000000 1.755110 
# 
# From -- ./inp_files/6037.got.cif
#   From: 2010.03.12/outbox.cif.g09.slc.cpg/sg51_4_cif.got.tgz:6037.got - 2010.04.16 13:43:02.
