data_PCOD8212734
_publ_section_title
;
Structure prediction by ZEFSAII (Michael W. Deem and Ramdas Pophale) SiO2 
 PCOD8212734
Probable space group: P M M A
;
_chemical_formula_sum "Si O2"
_cell_formula_units_Z 48
_cell_length_a 18.768529
_cell_length_b 9.212557
_cell_length_c 14.987901
_cell_angle_alpha 90.000000
_cell_angle_beta 90.000000
_cell_angle_gamma 90.000000
_cell_volume 2591.500157
_symmetry_space_group_name_H-M "P M M A"
_symmetry_group_IT_number 51
_symmetry_cell_setting 'orthorhombic'
loop_
_space_group_symop_operation_xyz
x,y,z
1/2-x,-y,z
1/2+x,-y,-z
-x,y,-z
-x,-y,-z
1/2+x,y,-z
1/2-x,y,z
x,-y,z
loop_
_atom_site_type_symbol
_atom_site_label
_atom_site_fract_x
_atom_site_fract_y
_atom_site_fract_z
Si Si1 0.409286 0.330925 0.733336
Si Si2 0.832056 0.331744 0.446522
Si Si3 0.572815 0.333670 0.759440
Si Si4 0.332597 0.169356 0.377656
Si Si5 0.667107 0.170228 0.106945
Si Si6 0.577435 0.331660 0.967344
O O1 0.394645 0.500000 0.753597
O O2 0.378059 0.283498 0.638230
O O3 0.492532 0.295963 0.732204
O O4 0.371982 0.237674 0.808701
O O5 0.750000 0.295488 0.425295
O O6 0.843102 0.500000 0.468689
O O7 0.860201 0.242702 0.531340
O O8 0.590577 0.500000 0.736211
O O9 0.625397 0.230274 0.706378
O O10 0.584890 0.302195 0.863049
O O11 0.250000 0.206165 0.362613
O O12 0.346987 0.000000 0.385686
O O13 0.750000 0.207009 0.113873
O O14 0.652305 0.000000 0.105391
O O15 0.637734 0.238750 0.015913
O O16 0.588294 0.500000 0.991876
O O17 0.500000 0.279555 0.000000
#
# Coordination Sequence:
#
# PCOD8212734 Si02
#       6
#     8   8   8   8   8   8
#     4  10  20  37  60  86 115 148 189 236 284 336
#     4   9  18  34  58  84 110 146 190 234 281 331
#     4  10  21  37  60  86 112 144 186 237 286 335
#     4  10  22  39  57  79 112 152 190 232 282 338
#     4  11  24  38  55  85 121 154 189 231 281 339
#     4  10  20  39  62  83 110 147 192 236 282 335
#
# _framework density 18.522089999999999
#
# number of rings (size 3 to 8) (size 9 to 14) (size 15 to 20)
#    0.000    2.000    1.667    1.500    0.000    6.667 
#    0.000    8.333    0.000    0.000    0.000    0.000 
#    0.000    0.000    0.000    0.000    0.000    0.000 
#
# Total GULP energy -595450.623461 kJ/mol
# GULP energy per Si atom -12405.221322 kJ/mol
# Density = 1.847993 g / cm^3
# Si number density = 18.522090 Si / 1000 Ang^3
#
#
#
# Elastic Constant Matrix: (Units=GPa)
#
#
# Indices 1 2 3 4 5 6 
#
# 1 74.0450 47.3141 65.1991 0.0000 0.0000 0.0000
# 2 47.3141 71.4878 58.9818 0.0000 0.0000 0.0000
# 3 65.1991 58.9818 133.3922 0.0000 0.0000 0.0000
# 4 0.0000 0.0000 0.0000 -4.5617 0.0000 0.0000
# 5 0.0000 0.0000 0.0000 0.0000 41.3973 0.0000
# 6 0.0000 0.0000 0.0000 0.0000 0.0000 29.4088
#
#
#
# Elastic Compliance Matrix: (Units=1/GPa)
#
#
# Indices 1 2 3 4 5 6 
#
# 1 0.028858 -0.011748 -0.008911 0.000000 0.000000 0.000000
# 2 -0.011748 0.026805 -0.006110 0.000000 0.000000 0.000000
# 3 -0.008911 -0.006110 0.014554 0.000000 0.000000 0.000000
# 4 0.000000 0.000000 0.000000 -0.219216 0.000000 0.000000
# 5 0.000000 0.000000 0.000000 0.000000 0.024156 0.000000
# 6 0.000000 0.000000 0.000000 0.000000 0.000000 0.034003
#
#
# Mechanical properties :
#
#
# Convention : Reuss Voigt Hill
#
# Bulk Modulus (GPa) = 59.95417 69.10167 64.52792
# Shear Modulus (GPa) = -157.52074 20.41088 -68.55493
#
# Velocity S-wave (km/s) = -9.23198 3.32320 -6.09039
# Velocity P-wave (km/s) = 9.01110 7.21897 3.81355
#
# Compressibility (1/GPa) = 0.01667941
#
# Stress axis : x y z
#
# Youngs Moduli (GPa) = 34.65200 37.30637 68.71048
#
# Poissons Ratio (x) = 0.43827 0.61226
# Poissons Ratio (y) = 0.40709 0.41984
# Poissons Ratio (z) = 0.30878 0.22795
#
# Static dielectric constant tensor:
#      x y z
#    x 3.277870 0.000000 0.000000 
#    y 0.000000 3.373090 0.000000 
#    z 0.000000 0.000000 3.740050 
# 
# 
# High freq. dielectric constant tensor:
#      x y z
#    x 1.719870 0.000000 0.000000 
#    y 0.000000 1.715230 0.000000 
#    z 0.000000 0.000000 1.731280 
# 
# From -- ./inp_files/24813.got.cif
#   From: 2010.03.12/outbox.cif.g09.slc.cpg/sg51_13_cif.got.tgz:24813.got - 2010.04.16 13:43:02.
