data_PCOD8212732
_publ_section_title
;
Structure prediction by ZEFSAII (Michael W. Deem and Ramdas Pophale) SiO2 
 PCOD8212732
Probable space group: P M M A
;
_chemical_formula_sum "Si O2"
_cell_formula_units_Z 64
_cell_length_a 25.509761
_cell_length_b 9.029169
_cell_length_c 14.316129
_cell_angle_alpha 90.000000
_cell_angle_beta 90.000000
_cell_angle_gamma 90.000000
_cell_volume 3297.461812
_symmetry_space_group_name_H-M "P M M A"
_symmetry_group_IT_number 51
_symmetry_cell_setting 'orthorhombic'
loop_
_space_group_symop_operation_xyz
x,y,z
1/2-x,-y,z
1/2+x,-y,-z
-x,y,-z
-x,-y,-z
1/2+x,y,-z
1/2-x,y,z
x,-y,z
loop_
_atom_site_type_symbol
_atom_site_label
_atom_site_fract_x
_atom_site_fract_y
_atom_site_fract_z
Si Si1 0.189530 0.673364 0.782353
Si Si2 0.689384 0.827175 0.407886
Si Si3 0.361803 0.673511 0.418333
Si Si4 0.309445 0.326125 0.226168
Si Si5 0.468846 0.829538 0.407825
Si Si6 0.601594 0.172118 0.885499
Si Si7 0.496699 0.829038 0.793215
Si Si8 0.895224 0.172723 0.102886
O O1 0.250000 0.710655 0.802954
O O2 0.179781 0.500000 0.772885
O O3 0.170566 0.749580 0.686851
O O4 0.156496 0.738581 0.867756
O O5 0.750000 0.792565 0.427582
O O6 0.655972 0.763689 0.492019
O O7 0.677885 0.000000 0.397857
O O8 0.358810 0.500000 0.440112
O O9 0.325475 0.717997 0.331257
O O10 0.420562 0.720179 0.393995
O O11 0.250000 0.272544 0.209580
O O12 0.315092 0.500000 0.211905
O O13 0.345909 0.249502 0.150034
O O14 0.500000 0.782684 0.500000
O O15 0.506551 0.807039 0.318409
O O16 0.449549 0.000000 0.413986
O O17 0.550471 0.241216 0.833991
O O18 0.607413 0.000000 0.861308
O O19 0.594600 0.201331 0.994593
O O20 0.444907 0.759798 0.840373
O O21 0.497531 0.000000 0.822642
O O22 0.886425 0.000000 0.125052
#
# Coordination Sequence:
#
# PCOD8212732 Si02
#       8
#     8   8   8   8   8   8   8   8
#     4  10  22  40  59  83 118 156 191 233 288 346
#     4  10  21  37  59  85 112 146 189 235 281 335
#     4  11  22  37  58  84 117 154 192 236 289 351
#     4  10  22  39  58  82 116 157 196 237 294 356
#     4  10  21  36  57  86 117 151 192 239 292 349
#     4  10  20  37  60  86 114 147 195 248 293 342
#     4   9  18  36  59  84 116 151 188 238 295 348
#     4  10  21  36  60  89 114 149 195 241 292 350
#
# _framework density 19.408867000000001
#
# number of rings (size 3 to 8) (size 9 to 14) (size 15 to 20)
#    0.000    2.000    1.250    1.875    1.750    5.500 
#    0.000    3.750    0.000    1.500    0.000    0.000 
#    0.000    0.000    0.000    0.000    0.000    0.000 
#
# Total GULP energy -793846.209597 kJ/mol
# GULP energy per Si atom -12403.847025 kJ/mol
# Density = 1.936469 g / cm^3
# Si number density = 19.408867 Si / 1000 Ang^3
#
#
#
# Elastic Constant Matrix: (Units=GPa)
#
#
# Indices 1 2 3 4 5 6 
#
# 1 118.3804 36.7801 59.2759 0.0000 0.0000 0.0000
# 2 36.7801 50.8458 34.8700 0.0000 0.0000 0.0000
# 3 59.2759 34.8700 113.9226 0.0000 0.0000 0.0000
# 4 0.0000 0.0000 0.0000 27.8873 0.0000 0.0000
# 5 0.0000 0.0000 0.0000 0.0000 37.6597 0.0000
# 6 0.0000 0.0000 0.0000 0.0000 0.0000 21.8607
#
#
#
# Elastic Compliance Matrix: (Units=1/GPa)
#
#
# Indices 1 2 3 4 5 6 
#
# 1 0.012676 -0.005880 -0.004795 0.000000 0.000000 0.000000
# 2 -0.005880 0.027621 -0.005395 0.000000 0.000000 0.000000
# 3 -0.004795 -0.005395 0.012924 0.000000 0.000000 0.000000
# 4 0.000000 0.000000 0.000000 0.035859 0.000000 0.000000
# 5 0.000000 0.000000 0.000000 0.000000 0.026554 0.000000
# 6 0.000000 0.000000 0.000000 0.000000 0.000000 0.045744
#
#
# Mechanical properties :
#
#
# Convention : Reuss Voigt Hill
#
# Bulk Modulus (GPa) = 47.43921 60.55564 53.99742
# Shear Modulus (GPa) = 24.93222 27.62974 26.28098
#
# Velocity S-wave (km/s) = 3.58799 3.77711 3.68376
# Velocity P-wave (km/s) = 6.45446 7.09153 6.78048
#
# Compressibility (1/GPa) = 0.02107961
#
# Stress axis : x y z
#
# Youngs Moduli (GPa) = 78.89233 36.20495 77.37402
#
# Poissons Ratio (x) = 0.21290 0.37104
# Poissons Ratio (y) = 0.46391 0.41740
# Poissons Ratio (z) = 0.37832 0.19531
#
# Static dielectric constant tensor:
#      x y z
#    x 3.646700 0.000000 0.000000 
#    y 0.000000 3.373920 0.000000 
#    z 0.000000 0.000000 3.549260 
# 
# 
# High freq. dielectric constant tensor:
#      x y z
#    x 1.761110 0.000000 0.000000 
#    y 0.000000 1.737090 0.000000 
#    z 0.000000 0.000000 1.765710 
# 
# From -- ./inp_files/26281.got.cif
#   From: 2010.03.12/outbox.cif.g09.slc.cpg/sg51_14_cif.got.tgz:26281.got - 2010.04.16 13:43:02.
