data_PCOD8212844
_publ_section_title
;
Structure prediction by ZEFSAII (Michael W. Deem and Ramdas Pophale) SiO2 
 PCOD8212844
Probable space group: P M M A
;
_chemical_formula_sum "Si O2"
_cell_formula_units_Z 64
_cell_length_a 18.664242
_cell_length_b 14.718183
_cell_length_c 11.884125
_cell_angle_alpha 90.000000
_cell_angle_beta 90.000000
_cell_angle_gamma 90.000000
_cell_volume 3264.613457
_symmetry_space_group_name_H-M "P M M A"
_symmetry_group_IT_number 51
_symmetry_cell_setting 'orthorhombic'
loop_
_space_group_symop_operation_xyz
x,y,z
1/2-x,-y,z
1/2+x,-y,-z
-x,y,-z
-x,-y,-z
1/2+x,y,-z
1/2-x,y,z
x,-y,z
loop_
_atom_site_type_symbol
_atom_site_label
_atom_site_fract_x
_atom_site_fract_y
_atom_site_fract_z
Si Si1 0.432781 0.105009 0.738301
Si Si2 0.916437 0.400155 0.478546
Si Si3 0.667789 0.764125 0.854679
Si Si4 0.573948 0.754016 0.065727
Si Si5 0.056929 0.393959 0.760925
Si Si6 0.406274 0.105065 0.316474
Si Si7 0.890845 0.393738 0.718936
Si Si8 0.330807 0.107975 0.542140
O O1 0.428828 0.158795 0.854318
O O2 0.508600 0.119132 0.676152
O O3 0.372456 0.142056 0.652742
O O4 0.420488 0.000000 0.769009
O O5 0.882318 0.500000 0.469209
O O6 0.907075 0.353997 0.355450
O O7 0.881222 0.354797 0.589930
O O8 0.000000 0.411098 0.500000
O O9 0.750000 0.793065 0.855398
O O10 0.623203 0.839150 0.788166
O O11 0.660006 0.664419 0.799365
O O12 0.640220 0.763603 0.981979
O O13 0.588933 0.662579 0.136409
O O14 0.500000 0.744976 0.000000
O O15 0.075064 0.500000 0.777167
O O16 0.971931 0.378355 0.758711
O O17 0.371498 0.143441 0.431062
O O18 0.386216 0.000000 0.297112
O O19 0.870041 0.500000 0.726640
O O20 0.250000 0.146890 0.543997
O O21 0.330812 0.000000 0.540517
#
# Coordination Sequence:
#
# PCOD8212844 Si02
#       8
#     8   8   8   8   8   8   8   8
#     4  10  21  37  61  86 114 151 192 237 283 333
#     4   7  12  25  49  83 112 134 168 216 273 331
#     4  12  26  40  54  79 113 150 194 238 285 343
#     4  12  23  39  55  80 110 149 200 243 278 325
#     4   9  17  32  58  86 110 140 182 234 285 331
#     4  10  20  38  62  86 114 149 188 234 284 337
#     4   9  17  33  57  83 114 144 174 224 286 345
#     4   9  18  34  58  90 123 150 182 227 286 352
#
# _framework density 19.604158000000002
#
# number of rings (size 3 to 8) (size 9 to 14) (size 15 to 20)
#    0.000    2.250    2.500    2.250    0.000    5.500 
#    0.000    2.500    0.000    0.750    0.000    1.750 
#    0.000    0.000    0.000    0.000    0.000    0.000 
#
# Total GULP energy -793268.288112 kJ/mol
# GULP energy per Si atom -12394.817002 kJ/mol
# Density = 1.955954 g / cm^3
# Si number density = 19.604158 Si / 1000 Ang^3
#
#
#
# Elastic Constant Matrix: (Units=GPa)
#
#
# Indices 1 2 3 4 5 6 
#
# 1 70.9554 22.8001 35.0930 0.0000 0.0000 0.0000
# 2 22.8001 75.1138 46.5297 0.0000 0.0000 0.0000
# 3 35.0930 46.5297 139.8543 0.0000 0.0000 0.0000
# 4 0.0000 0.0000 0.0000 3.6826 0.0000 0.0000
# 5 0.0000 0.0000 0.0000 0.0000 12.6372 0.0000
# 6 0.0000 0.0000 0.0000 0.0000 0.0000 9.1418
#
#
#
# Elastic Compliance Matrix: (Units=1/GPa)
#
#
# Indices 1 2 3 4 5 6 
#
# 1 0.016646 -0.003105 -0.003144 0.000000 0.000000 0.000000
# 2 -0.003105 0.017348 -0.004993 0.000000 0.000000 0.000000
# 3 -0.003144 -0.004993 0.009600 0.000000 0.000000 0.000000
# 4 0.000000 0.000000 0.000000 0.271551 0.000000 0.000000
# 5 0.000000 0.000000 0.000000 0.000000 0.079132 0.000000
# 6 0.000000 0.000000 0.000000 0.000000 0.000000 0.109388
#
#
# Mechanical properties :
#
#
# Convention : Reuss Voigt Hill
#
# Bulk Modulus (GPa) = 47.36819 54.97435 51.17127
# Shear Modulus (GPa) = 9.37761 17.19235 13.28498
#
# Velocity S-wave (km/s) = 2.18949 2.96459 2.60602
# Velocity P-wave (km/s) = 5.53232 6.31042 5.93414
#
# Compressibility (1/GPa) = 0.02111121
#
# Stress axis : x y z
#
# Youngs Moduli (GPa) = 60.07436 57.64203 104.16442
#
# Poissons Ratio (x) = 0.17900 0.32747
# Poissons Ratio (y) = 0.18655 0.52006
# Poissons Ratio (z) = 0.18886 0.28779
#
# Static dielectric constant tensor:
#      x y z
#    x 3.345580 0.000000 0.000000 
#    y 0.000000 3.437640 0.000000 
#    z 0.000000 0.000000 3.857070 
# 
# 
# High freq. dielectric constant tensor:
#      x y z
#    x 1.729170 0.000000 0.000000 
#    y 0.000000 1.757400 0.000000 
#    z 0.000000 0.000000 1.774800 
# 
# From -- ./inp_files/17582.got.cif
#   From: 2010.03.12/outbox.cif.g09.slc.cpg/sg51_9_cif.got.tgz:17582.got - 2010.04.16 13:43:02.
