data_PCOD8212583
_publ_section_title
;
Structure prediction by ZEFSAII (Michael W. Deem and Ramdas Pophale) SiO2 
 PCOD8212583
Probable space group: P M M A
;
_chemical_formula_sum "Si O2"
_cell_formula_units_Z 48
_cell_length_a 10.283917
_cell_length_b 8.738993
_cell_length_c 27.689354
_cell_angle_alpha 90.000000
_cell_angle_beta 90.000000
_cell_angle_gamma 90.000000
_cell_volume 2488.472112
_symmetry_space_group_name_H-M "P M M A"
_symmetry_group_IT_number 51
_symmetry_cell_setting 'orthorhombic'
loop_
_space_group_symop_operation_xyz
x,y,z
1/2-x,-y,z
1/2+x,-y,-z
-x,y,-z
-x,-y,-z
1/2+x,y,-z
1/2-x,y,z
x,-y,z
loop_
_atom_site_type_symbol
_atom_site_label
_atom_site_fract_x
_atom_site_fract_y
_atom_site_fract_z
Si Si1 0.496831 0.180310 0.235699
Si Si2 0.750000 0.325359 0.714850
Si Si3 0.601484 0.178450 0.959307
Si Si4 0.750000 0.319170 0.392785
Si Si5 0.250000 0.674630 0.399558
Si Si6 0.496882 0.820128 0.555900
Si Si7 0.750000 0.318541 0.282838
Si Si8 0.901171 0.676547 0.857948
O O1 0.376379 0.240847 0.266190
O O2 0.624940 0.256484 0.256026
O O3 0.483964 0.224137 0.179530
O O4 0.506405 0.000000 0.241142
O O5 0.750000 0.500000 0.733982
O O6 0.750000 0.319702 0.657685
O O7 0.750000 0.215163 0.975596
O O8 0.563545 0.271230 0.911686
O O9 0.585425 0.000000 0.947888
O O10 0.500000 0.232191 0.000000
O O11 0.750000 0.500000 0.394102
O O12 0.875902 0.260179 0.419741
O O13 0.750000 0.259210 0.337887
O O14 0.250000 0.500000 0.418098
O O15 0.374159 0.762172 0.418888
O O16 0.500000 0.774689 0.500000
O O17 0.483722 0.000000 0.563228
O O18 0.750000 0.500000 0.280736
O O19 0.750000 0.705692 0.846889
O O20 0.938594 0.500000 0.852070
#
# Coordination Sequence:
#
# PCOD8212583 Si02
#       8
#     8   4   8   4   4   8   4   8
#     4  12  24  39  62  91 119 155 203 249 297 357
#     4  11  23  40  62  89 121 155 194 244 299 352
#     4   9  18  34  56  82 114 152 195 246 300 352
#     4  11  24  42  65  90 118 159 201 242 297 360
#     4  11  24  40  61  90 120 153 197 246 293 348
#     4  11  24  41  62  89 122 158 196 243 297 351
#     4  11  25  44  62  85 123 161 196 244 305 364
#     4  10  20  36  60  86 117 158 201 248 301 354
#
# _framework density 19.288944999999998
#
# number of rings (size 3 to 8) (size 9 to 14) (size 15 to 20)
#    0.000    1.333    0.833    5.000    0.000   11.000 
#    1.500    0.000    0.000    0.000    0.000    0.000 
#    0.000    0.000    0.000    0.000    0.000    0.000 
#
# Total GULP energy -595458.495867 kJ/mol
# GULP energy per Si atom -12405.385331 kJ/mol
# Density = 1.924504 g / cm^3
# Si number density = 19.288945 Si / 1000 Ang^3
#
#
#
# Elastic Constant Matrix: (Units=GPa)
#
#
# Indices 1 2 3 4 5 6 
#
# 1 146.8096 34.2227 66.4588 0.0000 0.0000 0.0000
# 2 34.2227 76.5026 46.2628 0.0000 0.0000 0.0000
# 3 66.4588 46.2628 123.4180 0.0000 0.0000 0.0000
# 4 0.0000 0.0000 0.0000 39.1789 0.0000 0.0000
# 5 0.0000 0.0000 0.0000 0.0000 126.4247 0.0000
# 6 0.0000 0.0000 0.0000 0.0000 0.0000 35.8613
#
#
#
# Elastic Compliance Matrix: (Units=1/GPa)
#
#
# Indices 1 2 3 4 5 6 
#
# 1 0.009128 -0.001437 -0.004377 0.000000 0.000000 0.000000
# 2 -0.001437 0.017129 -0.005647 0.000000 0.000000 0.000000
# 3 -0.004377 -0.005647 0.012576 0.000000 0.000000 0.000000
# 4 0.000000 0.000000 0.000000 0.025524 0.000000 0.000000
# 5 0.000000 0.000000 0.000000 0.000000 0.007910 0.000000
# 6 0.000000 0.000000 0.000000 0.000000 0.000000 0.027885
#
#
# Mechanical properties :
#
#
# Convention : Reuss Voigt Hill
#
# Bulk Modulus (GPa) = 62.84526 71.17986 67.01256
# Shear Modulus (GPa) = 38.94790 53.61204 46.27997
#
# Velocity S-wave (km/s) = 4.49841 5.27774 4.90358
# Velocity P-wave (km/s) = 7.72221 8.60938 8.17783
#
# Compressibility (1/GPa) = 0.01591210
#
# Stress axis : x y z
#
# Youngs Moduli (GPa) = 109.55715 58.38036 79.51573
#
# Poissons Ratio (x) = 0.08387 0.34801
# Poissons Ratio (y) = 0.15738 0.44904
# Poissons Ratio (z) = 0.47949 0.32969
#
# Static dielectric constant tensor:
#      x y z
#    x 3.511430 0.000000 0.000000 
#    y 0.000000 3.704320 0.000000 
#    z 0.000000 0.000000 3.729100 
# 
# 
# High freq. dielectric constant tensor:
#      x y z
#    x 1.755720 0.000000 0.000000 
#    y 0.000000 1.764200 0.000000 
#    z 0.000000 0.000000 1.765370 
# 
# From -- ./inp_files/37237.got.cif
#   From: 2010.03.12/outbox.cif.g09.slc.cpg/sg51_19_cif.got.tgz:37237.got - 2010.04.16 13:43:02.
