data_PCOD8212648
_publ_section_title
;
Structure prediction by ZEFSAII (Michael W. Deem and Ramdas Pophale) SiO2 
 PCOD8212648
Probable space group: P M M A
;
_chemical_formula_sum "Si O2"
_cell_formula_units_Z 40
_cell_length_a 10.112817
_cell_length_b 9.338103
_cell_length_c 24.485403
_cell_angle_alpha 90.000000
_cell_angle_beta 90.000000
_cell_angle_gamma 90.000000
_cell_volume 2312.267445
_symmetry_space_group_name_H-M "P M M A"
_symmetry_group_IT_number 51
_symmetry_cell_setting 'orthorhombic'
loop_
_space_group_symop_operation_xyz
x,y,z
1/2-x,-y,z
1/2+x,-y,-z
-x,y,-z
-x,-y,-z
1/2+x,y,-z
1/2-x,y,z
x,-y,z
loop_
_atom_site_type_symbol
_atom_site_label
_atom_site_fract_x
_atom_site_fract_y
_atom_site_fract_z
Si Si1 0.601828 0.828875 0.455413
Si Si2 0.407293 0.158726 0.664487
Si Si3 0.097950 0.335228 0.765548
Si Si4 0.021559 0.335020 0.884493
Si Si5 0.750000 0.171335 0.055181
Si Si6 0.250000 0.663012 0.055517
O O1 0.500000 0.766127 0.500000
O O2 0.750000 0.772192 0.468470
O O3 0.554232 0.777512 0.395104
O O4 0.602861 0.000000 0.455975
O O5 0.250000 0.154702 0.667822
O O6 0.465247 0.252529 0.714028
O O7 0.466499 0.000000 0.671336
O O8 0.250000 0.291605 0.775791
O O9 0.085043 0.500000 0.750480
O O10 0.018441 0.296256 0.820390
O O11 0.068116 0.500000 0.892692
O O12 0.119873 0.229963 0.915596
O O13 0.876197 0.309031 0.907042
O O14 0.750000 0.000000 0.056658
O O15 0.750000 0.224440 0.993174
O O16 0.250000 0.500000 0.032523
#
# Coordination Sequence:
#
# PCOD8212648 Si02
#       6
#     8   8   8   8   4   4
#     4   8  13  22  38  60  85 115 151 189 225 266
#     4   8  14  24  40  64  91 117 151 193 235 277
#     4   9  16  28  48  71  94 119 155 201 239 276
#     4  10  20  37  57  77  99 129 171 209 242 290
#     4  12  24  36  54  80 106 132 161 200 251 298
#     4  10  22  38  58  76  98 134 169 204 245 290
#
# _framework density 17.299037999999999
#
# number of rings (size 3 to 8) (size 9 to 14) (size 15 to 20)
#    0.000    2.800    1.000    2.700    0.000    4.000 
#    0.000    0.000    2.200    0.600    0.000    0.000 
#    0.000    0.000    0.000    0.000    0.000    0.000 
#
# Total GULP energy -495827.290444 kJ/mol
# GULP energy per Si atom -12395.682261 kJ/mol
# Density = 1.725966 g / cm^3
# Si number density = 17.299038 Si / 1000 Ang^3
#
#
#
# Elastic Constant Matrix: (Units=GPa)
#
#
# Indices 1 2 3 4 5 6 
#
# 1 84.8379 42.0062 65.3403 0.0000 0.0000 0.0000
# 2 42.0062 73.3917 67.5147 0.0000 0.0000 0.0000
# 3 65.3403 67.5147 179.2384 0.0000 0.0000 0.0000
# 4 0.0000 0.0000 0.0000 24.6029 0.0000 0.0000
# 5 0.0000 0.0000 0.0000 0.0000 19.2519 0.0000
# 6 0.0000 0.0000 0.0000 0.0000 0.0000 10.5574
#
#
#
# Elastic Compliance Matrix: (Units=1/GPa)
#
#
# Indices 1 2 3 4 5 6 
#
# 1 0.018278 -0.006629 -0.004166 0.000000 0.000000 0.000000
# 2 -0.006629 0.023255 -0.006343 0.000000 0.000000 0.000000
# 3 -0.004166 -0.006343 0.009487 0.000000 0.000000 0.000000
# 4 0.000000 0.000000 0.000000 0.040646 0.000000 0.000000
# 5 0.000000 0.000000 0.000000 0.000000 0.051943 0.000000
# 6 0.000000 0.000000 0.000000 0.000000 0.000000 0.094720
#
#
# Mechanical properties :
#
#
# Convention : Reuss Voigt Hill
#
# Bulk Modulus (GPa) = 59.72392 76.35449 68.03920
# Shear Modulus (GPa) = 17.97359 21.72291 19.84825
#
# Velocity S-wave (km/s) = 3.22684 3.54747 3.39095
# Velocity P-wave (km/s) = 6.96295 7.81110 7.39919
#
# Compressibility (1/GPa) = 0.01674371
#
# Stress axis : x y z
#
# Youngs Moduli (GPa) = 54.71007 43.00211 105.40596
#
# Poissons Ratio (x) = 0.28506 0.43914
# Poissons Ratio (y) = 0.36268 0.66858
# Poissons Ratio (z) = 0.22793 0.27276
#
# Static dielectric constant tensor:
#      x y z
#    x 3.031810 0.000000 0.000000 
#    y 0.000000 3.092600 0.000000 
#    z 0.000000 0.000000 3.583060 
# 
# 
# High freq. dielectric constant tensor:
#      x y z
#    x 1.635080 0.000000 0.000000 
#    y 0.000000 1.638500 0.000000 
#    z 0.000000 0.000000 1.685680 
# 
# From -- ./inp_files/35995.got.cif
#   From: 2010.03.12/outbox.cif.g09.slc.cpg/sg51_18_cif.got.tgz:35995.got - 2010.04.16 13:43:02.
