data_PCOD8212683
_publ_section_title
;
Structure prediction by ZEFSAII (Michael W. Deem and Ramdas Pophale) SiO2 
 PCOD8212683
Probable space group: P M M A
;
_chemical_formula_sum "Si O2"
_cell_formula_units_Z 64
_cell_length_a 19.134498
_cell_length_b 18.617829
_cell_length_c 9.140455
_cell_angle_alpha 90.000000
_cell_angle_beta 90.000000
_cell_angle_gamma 90.000000
_cell_volume 3256.221390
_symmetry_space_group_name_H-M "P M M A"
_symmetry_group_IT_number 51
_symmetry_cell_setting 'orthorhombic'
loop_
_space_group_symop_operation_xyz
x,y,z
1/2-x,-y,z
1/2+x,-y,-z
-x,y,-z
-x,-y,-z
1/2+x,y,-z
1/2-x,y,z
x,-y,z
loop_
_atom_site_type_symbol
_atom_site_label
_atom_site_fract_x
_atom_site_fract_y
_atom_site_fract_z
Si Si1 0.428606 0.417882 0.418744
Si Si2 0.829675 0.708464 0.604057
Si Si3 0.557868 0.082324 0.882428
Si Si4 0.572830 0.156746 0.577236
Si Si5 0.828806 0.918479 0.371827
Si Si6 0.831273 0.147755 0.067000
Si Si7 0.071166 0.419602 0.076937
Si Si8 0.827641 0.298182 0.950790
O O1 0.500000 0.395692 0.500000
O O2 0.407330 0.500000 0.458547
O O3 0.364976 0.364399 0.460573
O O4 0.442099 0.408574 0.247605
O O5 0.750000 0.714187 0.542238
O O6 0.876856 0.775137 0.555929
O O7 0.827288 0.709841 0.777644
O O8 0.555600 0.134656 0.742982
O O9 0.545782 0.000000 0.833317
O O10 0.500000 0.107453 0.000000
O O11 0.632174 0.089760 0.962262
O O12 0.500000 0.174022 0.500000
O O13 0.614921 0.092050 0.500117
O O14 0.750000 0.902383 0.428668
O O15 0.848058 0.867243 0.236150
O O16 0.834381 0.000000 0.316061
O O17 0.750000 0.140719 0.031220
O O18 0.859336 0.227257 0.027176
O O19 0.096765 0.500000 0.042345
O O20 0.127734 0.367181 0.005499
O O21 0.000000 0.400310 0.000000
O O22 0.750000 0.311385 0.011084
#
# Coordination Sequence:
#
# PCOD8212683 Si02
#       8
#     8   8   8   8   8   8   8   8
#     4   9  18  35  58  85 117 153 192 233 281 335
#     4  10  20  37  58  84 116 147 191 243 286 342
#     4  11  24  40  59  85 113 146 191 239 292 350
#     4  12  24  39  58  83 117 154 191 238 297 350
#     4  10  22  40  61  85 115 152 193 239 294 356
#     4  10  20  38  60  83 112 146 189 239 289 341
#     4   9  18  33  54  82 114 149 186 227 276 332
#     4   9  18  34  56  82 111 144 188 238 282 331
#
# _framework density 19.654684
#
# number of rings (size 3 to 8) (size 9 to 14) (size 15 to 20)
#    0.000    2.000    1.250    2.250    0.000    4.250 
#    6.750    2.500    0.000    0.000    0.000    3.500 
#    0.000    0.000    0.000    0.000    0.000    0.000 
#
# Total GULP energy -793575.867749 kJ/mol
# GULP energy per Si atom -12399.622934 kJ/mol
# Density = 1.960995 g / cm^3
# Si number density = 19.654684 Si / 1000 Ang^3
#
#
#
# Elastic Constant Matrix: (Units=GPa)
#
#
# Indices 1 2 3 4 5 6 
#
# 1 121.0681 78.6835 53.4894 0.0000 0.0000 0.0000
# 2 78.6835 105.6308 32.1798 0.0000 0.0000 0.0000
# 3 53.4894 32.1798 62.3461 0.0000 0.0000 0.0000
# 4 0.0000 0.0000 0.0000 26.5426 0.0000 0.0000
# 5 0.0000 0.0000 0.0000 0.0000 63.3225 0.0000
# 6 0.0000 0.0000 0.0000 0.0000 0.0000 33.8220
#
#
#
# Elastic Compliance Matrix: (Units=1/GPa)
#
#
# Indices 1 2 3 4 5 6 
#
# 1 0.021799 -0.012507 -0.012247 0.000000 0.000000 0.000000
# 2 -0.012507 0.018409 0.001228 0.000000 0.000000 0.000000
# 3 -0.012247 0.001228 0.025913 0.000000 0.000000 0.000000
# 4 0.000000 0.000000 0.000000 0.037675 0.000000 0.000000
# 5 0.000000 0.000000 0.000000 0.000000 0.015792 0.000000
# 6 0.000000 0.000000 0.000000 0.000000 0.000000 0.029567
#
#
# Mechanical properties :
#
#
# Convention : Reuss Voigt Hill
#
# Bulk Modulus (GPa) = 52.43875 68.63892 60.53884
# Shear Modulus (GPa) = 24.68379 33.05023 28.86701
#
# Velocity S-wave (km/s) = 3.54767 4.10511 3.83653
# Velocity P-wave (km/s) = 6.59691 7.58073 7.10587
#
# Compressibility (1/GPa) = 0.01906987
#
# Stress axis : x y z
#
# Youngs Moduli (GPa) = 45.87351 54.32119 38.59132
#
# Poissons Ratio (x) = 0.67939 0.47262
# Poissons Ratio (y) = 0.57374 -0.04741
# Poissons Ratio (z) = 0.56181 -0.06673
#
# Static dielectric constant tensor:
#      x y z
#    x 3.900810 0.000000 0.000000 
#    y 0.000000 3.694340 0.000000 
#    z 0.000000 0.000000 3.412190 
# 
# 
# High freq. dielectric constant tensor:
#      x y z
#    x 1.771870 0.000000 0.000000 
#    y 0.000000 1.770700 0.000000 
#    z 0.000000 0.000000 1.750620 
# 
# From -- ./inp_files/11175.got.cif
#   From: 2010.03.12/outbox.cif.g09.slc.cpg/sg51_6_cif.got.tgz:11175.got - 2010.04.16 13:43:02.
