data_PCOD8212237
_publ_section_title
;
Structure prediction by ZEFSAII (Michael W. Deem and Ramdas Pophale) SiO2 
 PCOD8212237
Probable space group: P M M A
;
_chemical_formula_sum "Si O2"
_cell_formula_units_Z 64
_cell_length_a 18.123368
_cell_length_b 13.806155
_cell_length_c 12.471974
_cell_angle_alpha 90.000000
_cell_angle_beta 90.000000
_cell_angle_gamma 90.000000
_cell_volume 3120.662848
_symmetry_space_group_name_H-M "P M M A"
_symmetry_group_IT_number 51
_symmetry_cell_setting 'orthorhombic'
loop_
_space_group_symop_operation_xyz
x,y,z
1/2-x,-y,z
1/2+x,-y,-z
-x,y,-z
-x,-y,-z
1/2+x,y,-z
1/2-x,y,z
x,-y,z
loop_
_atom_site_type_symbol
_atom_site_label
_atom_site_fract_x
_atom_site_fract_y
_atom_site_fract_z
Si Si1 0.047769 0.392211 0.606441
Si Si2 0.425575 0.109952 0.153918
Si Si3 0.077263 0.700734 0.273484
Si Si4 0.421989 0.111873 0.549596
Si Si5 0.336438 0.712201 0.480087
Si Si6 0.588984 0.891977 0.201951
Si Si7 0.419032 0.611297 0.044403
Si Si8 0.664612 0.787557 0.028375
O O1 0.056910 0.500000 0.655981
O O2 0.127543 0.348604 0.577481
O O3 0.000000 0.397182 0.500000
O O4 0.006825 0.321356 0.690253
O O5 0.408623 0.185596 0.249412
O O6 0.513300 0.115709 0.133473
O O7 0.403329 0.000000 0.187985
O O8 0.381506 0.140936 0.048418
O O9 0.135308 0.671217 0.365637
O O10 0.090282 0.635099 0.169485
O O11 0.500000 0.145199 0.500000
O O12 0.358498 0.175100 0.493527
O O13 0.425563 0.134804 0.675161
O O14 0.405554 0.000000 0.524144
O O15 0.250000 0.698544 0.487090
O O16 0.649481 0.820816 0.150352
O O17 0.621269 0.000000 0.194661
O O18 0.399280 0.500000 0.023396
O O19 0.500000 0.637091 0.000000
O O20 0.360375 0.676332 0.980634
O O21 0.750000 0.796586 0.999011
#
# Coordination Sequence:
#
# PCOD8212237 Si02
#       8
#     8   8   8   8   8   8   8   8
#     4   9  18  35  58  80 104 141 191 242 287 336
#     4  10  20  35  57  84 113 149 198 249 287 329
#     4  10  20  37  61  85 113 153 196 238 291 352
#     4  10  21  39  62  86 114 153 202 250 292 339
#     4  11  23  36  53  84 122 153 186 233 292 357
#     4  10  20  36  60  84 109 151 202 244 285 338
#     4  10  22  41  65  90 113 144 194 250 297 345
#     4  11  23  37  55  84 123 159 190 232 289 353
#
# _framework density 20.508462999999999
#
# number of rings (size 3 to 8) (size 9 to 14) (size 15 to 20)
#    0.000    1.875    0.000    5.250    0.000    7.250 
#    0.000    1.250    0.000    0.375    0.000    3.500 
#    0.000    0.000    0.000    0.000    0.000    0.000 
#
# Total GULP energy -793550.800275 kJ/mol
# GULP energy per Si atom -12399.231254 kJ/mol
# Density = 2.046178 g / cm^3
# Si number density = 20.508463 Si / 1000 Ang^3
#
#
#
# Elastic Constant Matrix: (Units=GPa)
#
#
# Indices 1 2 3 4 5 6 
#
# 1 122.0460 39.4907 45.7730 0.0000 0.0000 0.0000
# 2 39.4907 118.0209 44.6602 0.0000 0.0000 0.0000
# 3 45.7730 44.6602 101.5128 0.0000 0.0000 0.0000
# 4 0.0000 0.0000 0.0000 24.5812 0.0000 0.0000
# 5 0.0000 0.0000 0.0000 0.0000 19.4292 0.0000
# 6 0.0000 0.0000 0.0000 0.0000 0.0000 18.2060
#
#
#
# Elastic Compliance Matrix: (Units=1/GPa)
#
#
# Indices 1 2 3 4 5 6 
#
# 1 0.010246 -0.002016 -0.003733 0.000000 0.000000 0.000000
# 2 -0.002016 0.010562 -0.003738 0.000000 0.000000 0.000000
# 3 -0.003733 -0.003738 0.013179 0.000000 0.000000 0.000000
# 4 0.000000 0.000000 0.000000 0.040682 0.000000 0.000000
# 5 0.000000 0.000000 0.000000 0.000000 0.051469 0.000000
# 6 0.000000 0.000000 0.000000 0.000000 0.000000 0.054927
#
#
# Mechanical properties :
#
#
# Convention : Reuss Voigt Hill
#
# Bulk Modulus (GPa) = 66.60771 66.82526 66.71648
# Shear Modulus (GPa) = 24.38527 26.55367 25.46947
#
# Velocity S-wave (km/s) = 3.45198 3.60219 3.52788
# Velocity P-wave (km/s) = 6.95966 7.06796 7.01402
#
# Compressibility (1/GPa) = 0.01501328
#
# Stress axis : x y z
#
# Youngs Moduli (GPa) = 97.59915 94.67939 75.87979
#
# Poissons Ratio (x) = 0.19085 0.28327
# Poissons Ratio (y) = 0.19673 0.28362
# Poissons Ratio (z) = 0.36436 0.35389
#
# Static dielectric constant tensor:
#      x y z
#    x 3.391490 0.000000 0.000000 
#    y 0.000000 3.960890 0.000000 
#    z 0.000000 0.000000 3.721720 
# 
# 
# High freq. dielectric constant tensor:
#      x y z
#    x 1.767780 0.000000 0.000000 
#    y 0.000000 1.813930 0.000000 
#    z 0.000000 0.000000 1.801720 
# 
# From -- ./inp_files/17619.got.cif
#   From: 2010.03.12/outbox.cif.g09.slc.cpg/sg51_9_cif.got.tgz:17619.got - 2010.04.16 13:43:02.
