data_PCOD8212777
_publ_section_title
;
Structure prediction by ZEFSAII (Michael W. Deem and Ramdas Pophale) SiO2 
 PCOD8212777
Probable space group: P M M A
;
_chemical_formula_sum "Si O2"
_cell_formula_units_Z 64
_cell_length_a 28.785512
_cell_length_b 8.862006
_cell_length_c 12.662846
_cell_angle_alpha 90.000000
_cell_angle_beta 90.000000
_cell_angle_gamma 90.000000
_cell_volume 3230.258839
_symmetry_space_group_name_H-M "P M M A"
_symmetry_group_IT_number 51
_symmetry_cell_setting 'orthorhombic'
loop_
_space_group_symop_operation_xyz
x,y,z
1/2-x,-y,z
1/2+x,-y,-z
-x,y,-z
-x,-y,-z
1/2+x,y,-z
1/2-x,y,z
x,-y,z
loop_
_atom_site_type_symbol
_atom_site_label
_atom_site_fract_x
_atom_site_fract_y
_atom_site_fract_z
Si Si1 0.804718 0.667590 0.832881
Si Si2 0.388045 0.321133 0.873203
Si Si3 0.389090 0.677388 0.465667
Si Si4 0.049546 0.821855 0.047408
Si Si5 0.544723 0.322600 0.726595
Si Si6 0.696899 0.822377 0.046703
Si Si7 0.557093 0.321164 0.330538
Si Si8 0.696998 0.178107 0.617623
O O1 0.750000 0.652006 0.833403
O O2 0.827523 0.500000 0.836750
O O3 0.820614 0.751882 0.727633
O O4 0.820603 0.765122 0.932659
O O5 0.387691 0.500000 0.878083
O O6 0.335325 0.258478 0.866247
O O7 0.414835 0.260342 0.770543
O O8 0.411200 0.256227 0.978085
O O9 0.380726 0.500000 0.477494
O O10 0.415675 0.716633 0.357709
O O11 0.419340 0.742079 0.563015
O O12 0.338739 0.758668 0.469576
O O13 0.055610 0.765550 0.166551
O O14 0.056422 0.000000 0.043530
O O15 0.000000 0.772535 0.000000
O O16 0.542290 0.500000 0.751636
O O17 0.495864 0.265018 0.678142
O O18 0.750000 0.775467 0.069353
O O19 0.690306 0.000000 0.051449
O O20 0.558185 0.500000 0.334588
O O21 0.750000 0.227232 0.589996
O O22 0.693567 0.000000 0.625799
#
# Coordination Sequence:
#
# PCOD8212777 Si02
#       8
#     8   8   8   8   8   8   8   8
#     4   9  17  31  53  79 107 142 185 232 282 338
#     4  11  22  37  61  86 115 155 199 242 288 347
#     4  10  21  37  61  89 114 146 193 244 294 346
#     4  11  23  38  57  85 121 157 192 233 288 352
#     4  10  20  37  62  88 117 150 189 238 292 352
#     4  10  21  37  56  81 116 155 193 238 293 349
#     4   9  19  38  61  86 114 149 192 242 295 344
#     4  10  21  37  55  78 113 154 192 235 290 346
#
# _framework density 19.812653999999998
#
# number of rings (size 3 to 8) (size 9 to 14) (size 15 to 20)
#    0.000    2.000    1.250    2.250    1.750    5.500 
#    0.000    2.500    0.000    5.250    0.000    0.000 
#    0.000    0.000    0.000    0.000    0.000    0.000 
#
# Total GULP energy -793671.814619 kJ/mol
# GULP energy per Si atom -12401.122103 kJ/mol
# Density = 1.976756 g / cm^3
# Si number density = 19.812654 Si / 1000 Ang^3
#
#
#
# Elastic Constant Matrix: (Units=GPa)
#
#
# Indices 1 2 3 4 5 6 
#
# 1 122.1364 41.7455 49.1215 0.0000 0.0000 0.0000
# 2 41.7455 68.7366 31.9104 0.0000 0.0000 0.0000
# 3 49.1215 31.9104 86.8084 0.0000 0.0000 0.0000
# 4 0.0000 0.0000 0.0000 12.1826 0.0000 0.0000
# 5 0.0000 0.0000 0.0000 0.0000 26.8471 0.0000
# 6 0.0000 0.0000 0.0000 0.0000 0.0000 30.2960
#
#
#
# Elastic Compliance Matrix: (Units=1/GPa)
#
#
# Indices 1 2 3 4 5 6 
#
# 1 0.011835 -0.004918 -0.004889 0.000000 0.000000 0.000000
# 2 -0.004918 0.019585 -0.004417 0.000000 0.000000 0.000000
# 3 -0.004889 -0.004417 0.015910 0.000000 0.000000 0.000000
# 4 0.000000 0.000000 0.000000 0.082084 0.000000 0.000000
# 5 0.000000 0.000000 0.000000 0.000000 0.037248 0.000000
# 6 0.000000 0.000000 0.000000 0.000000 0.000000 0.033008
#
#
# Mechanical properties :
#
#
# Convention : Reuss Voigt Hill
#
# Bulk Modulus (GPa) = 52.95852 58.13735 55.54794
# Shear Modulus (GPa) = 21.33002 24.19206 22.76104
#
# Velocity S-wave (km/s) = 3.28470 3.49813 3.39309
# Velocity P-wave (km/s) = 6.41664 6.76189 6.59153
#
# Compressibility (1/GPa) = 0.01888270
#
# Stress axis : x y z
#
# Youngs Moduli (GPa) = 84.49676 51.05835 62.85467
#
# Poissons Ratio (x) = 0.25110 0.30730
# Poissons Ratio (y) = 0.41554 0.27761
# Poissons Ratio (z) = 0.41311 0.22551
#
# Static dielectric constant tensor:
#      x y z
#    x 3.838270 0.000000 0.000000 
#    y 0.000000 3.444430 0.000000 
#    z 0.000000 0.000000 3.615400 
# 
# 
# High freq. dielectric constant tensor:
#      x y z
#    x 1.786080 0.000000 0.000000 
#    y 0.000000 1.760440 0.000000 
#    z 0.000000 0.000000 1.758480 
# 
# From -- ./inp_files/19456.got.cif
#   From: 2010.03.12/outbox.cif.g09.slc.cpg/sg51_10_cif.got.tgz:19456.got - 2010.04.16 13:43:02.
