data_PCOD8212302
_publ_section_title
;
Structure prediction by ZEFSAII (Michael W. Deem and Ramdas Pophale) SiO2 
 PCOD8212302
Probable space group: P M M A
;
_chemical_formula_sum "Si O2"
_cell_formula_units_Z 56
_cell_length_a 8.652087
_cell_length_b 19.747432
_cell_length_c 15.908004
_cell_angle_alpha 90.000000
_cell_angle_beta 90.000000
_cell_angle_gamma 90.000000
_cell_volume 2717.985881
_symmetry_space_group_name_H-M "P M M A"
_symmetry_group_IT_number 51
_symmetry_cell_setting 'orthorhombic'
loop_
_space_group_symop_operation_xyz
x,y,z
1/2-x,-y,z
1/2+x,-y,-z
-x,y,-z
-x,-y,-z
1/2+x,y,-z
1/2-x,y,z
x,-y,z
loop_
_atom_site_type_symbol
_atom_site_label
_atom_site_fract_x
_atom_site_fract_y
_atom_site_fract_z
Si Si1 0.065894 0.280218 0.755085
Si Si2 0.573670 0.923137 0.831585
Si Si3 0.918252 0.422969 0.578090
Si Si4 0.067562 0.789353 0.411218
Si Si5 0.570440 0.427329 0.249420
Si Si6 0.567587 0.195350 0.084997
Si Si7 0.568813 0.923282 0.347042
O O1 0.250000 0.278806 0.743332
O O2 0.009062 0.355674 0.786438
O O3 0.009921 0.234049 0.831768
O O4 0.993022 0.256264 0.666765
O O5 0.750000 0.902649 0.810916
O O6 0.504341 0.879525 0.907773
O O7 0.469754 0.909889 0.749918
O O8 0.562836 0.000000 0.861834
O O9 0.750000 0.389182 0.599108
O O10 0.885734 0.500000 0.552848
O O11 0.000000 0.384749 0.500000
O O12 0.039907 0.418834 0.652478
O O13 0.250000 0.783534 0.413539
O O14 0.000000 0.762506 0.500000
O O15 0.020734 0.868371 0.402485
O O16 0.750000 0.433592 0.231451
O O17 0.494173 0.500000 0.217474
O O18 0.750000 0.193656 0.078571
O O19 0.500000 0.229236 0.000000
O O20 0.750000 0.912301 0.360095
O O21 0.518663 0.000000 0.372837
#
# Coordination Sequence:
#
# PCOD8212302 Si02
#       7
#     8   8   8   8   8   8   8
#     4  10  22  41  62  86 118 153 193 244 299 356
#     4  10  20  35  58  89 123 158 198 243 293 350
#     4   9  16  26  42  67 100 136 174 217 266 322
#     4  12  25  40  61  86 118 160 206 253 300 352
#     4   9  18  34  57  82 107 140 183 231 287 351
#     4  11  23  39  62  88 119 157 199 246 297 357
#     4  10  20  36  59  86 119 159 202 249 299 348
#
# _framework density 20.603491999999999
#
# number of rings (size 3 to 8) (size 9 to 14) (size 15 to 20)
#    0.000    1.857    1.429    3.000    0.000    5.714 
#    0.000    0.000    0.000    0.429    0.000    0.000 
#    0.000    0.000    0.000    0.000    0.000    0.143 
#
# Total GULP energy -693828.442596 kJ/mol
# GULP energy per Si atom -12389.793618 kJ/mol
# Density = 2.055660 g / cm^3
# Si number density = 20.603492 Si / 1000 Ang^3
#
#
#
# Elastic Constant Matrix: (Units=GPa)
#
#
# Indices 1 2 3 4 5 6 
#
# 1 75.1658 37.4096 32.8936 0.0000 0.0000 0.0000
# 2 37.4096 126.7302 44.9509 0.0000 0.0000 0.0000
# 3 32.8936 44.9509 103.7378 0.0000 0.0000 0.0000
# 4 0.0000 0.0000 0.0000 2324.4518 0.0000 0.0000
# 5 0.0000 0.0000 0.0000 0.0000 29.7813 0.0000
# 6 0.0000 0.0000 0.0000 0.0000 0.0000 14.9905
#
#
#
# Elastic Compliance Matrix: (Units=1/GPa)
#
#
# Indices 1 2 3 4 5 6 
#
# 1 0.016740 -0.003614 -0.003742 0.000000 0.000000 0.000000
# 2 -0.003614 0.010104 -0.003232 0.000000 0.000000 0.000000
# 3 -0.003742 -0.003232 0.012227 0.000000 0.000000 0.000000
# 4 0.000000 0.000000 0.000000 0.000430 0.000000 0.000000
# 5 0.000000 0.000000 0.000000 0.000000 0.033578 0.000000
# 6 0.000000 0.000000 0.000000 0.000000 0.000000 0.066709
#
#
# Mechanical properties :
#
#
# Convention : Reuss Voigt Hill
#
# Bulk Modulus (GPa) = 55.88391 59.57133 57.72762
# Shear Modulus (GPa) = 29.95263 486.53669 258.24466
#
# Velocity S-wave (km/s) = 3.81696 15.38361 11.20769
# Velocity P-wave (km/s) = 6.82701 18.56116 13.98436
#
# Compressibility (1/GPa) = 0.01789424
#
# Stress axis : x y z
#
# Youngs Moduli (GPa) = 59.73614 98.96922 81.78782
#
# Poissons Ratio (x) = 0.35771 0.30605
# Poissons Ratio (y) = 0.21591 0.26436
# Poissons Ratio (z) = 0.22353 0.31989
#
# Static dielectric constant tensor:
#      x y z
#    x 3.776290 0.000000 0.000000 
#    y 0.000000 4.263200 0.000000 
#    z 0.000000 0.000000 3.482340 
# 
# 
# High freq. dielectric constant tensor:
#      x y z
#    x 1.806480 0.000000 0.000000 
#    y 0.000000 1.816070 0.000000 
#    z 0.000000 0.000000 1.771670 
# 
# From -- ./inp_files/21834.got.cif
#   From: 2010.03.12/outbox.cif.g09.slc.cpg/sg51_11_cif.got.tgz:21834.got - 2010.04.16 13:43:02.
