data_PCOD8212872
_publ_section_title
;
Structure prediction by ZEFSAII (Michael W. Deem and Ramdas Pophale) SiO2 
 PCOD8212872
Probable space group: P M M A
;
_chemical_formula_sum "Si O2"
_cell_formula_units_Z 64
_cell_length_a 9.116334
_cell_length_b 25.202853
_cell_length_c 14.400604
_cell_angle_alpha 90.000000
_cell_angle_beta 90.000000
_cell_angle_gamma 90.000000
_cell_volume 3308.648584
_symmetry_space_group_name_H-M "P M M A"
_symmetry_group_IT_number 51
_symmetry_cell_setting 'orthorhombic'
loop_
_space_group_symop_operation_xyz
x,y,z
1/2-x,-y,z
1/2+x,-y,-z
-x,y,-z
-x,-y,-z
1/2+x,y,-z
1/2-x,y,z
x,-y,z
loop_
_atom_site_type_symbol
_atom_site_label
_atom_site_fract_x
_atom_site_fract_y
_atom_site_fract_z
Si Si1 0.074599 0.650555 0.099193
Si Si2 0.414365 0.936887 0.411559
Si Si3 0.920950 0.404015 0.409689
Si Si4 0.919005 0.282370 0.411390
Si Si5 0.419125 0.439376 0.791025
Si Si6 0.921668 0.060446 0.227668
Si Si7 0.579776 0.847327 0.095755
Si Si8 0.921027 0.256797 0.207845
O O1 0.250000 0.650847 0.089019
O O2 0.022695 0.595067 0.142849
O O3 0.023676 0.698408 0.164529
O O4 0.000000 0.658700 0.000000
O O5 0.500000 0.913091 0.500000
O O6 0.250000 0.913951 0.411589
O O7 0.495011 0.918651 0.318290
O O8 0.412718 0.000000 0.417466
O O9 0.750000 0.410604 0.427240
O O10 0.968945 0.343051 0.396668
O O11 0.969151 0.434338 0.316235
O O12 0.000000 0.428918 0.500000
O O13 0.750000 0.279026 0.435605
O O14 0.956861 0.251048 0.317108
O O15 0.000000 0.256530 0.500000
O O16 0.250000 0.420135 0.801061
O O17 0.436427 0.500000 0.822875
O O18 0.750000 0.065967 0.249001
O O19 0.970185 0.097287 0.142032
O O20 0.964360 0.000000 0.202425
O O21 0.750000 0.848370 0.073407
O O22 0.538925 0.799447 0.163773
O O23 0.500000 0.838491 0.000000
O O24 0.750000 0.272346 0.192962
#
# Coordination Sequence:
#
# PCOD8212872 Si02
#       8
#     8   8   8   8   8   8   8   8
#     4  12  25  40  61  85 110 142 185 233 285 339
#     4   9  16  27  47  76 107 142 184 228 273 322
#     4   9  17  31  52  80 112 147 184 222 269 321
#     4   9  17  31  54  81 112 144 177 220 268 323
#     4  10  21  39  60  82 113 151 189 231 279 330
#     4   9  18  34  54  78 111 150 189 229 278 337
#     4  10  22  38  58  82 110 145 185 233 286 335
#     4  10  20  39  62  84 113 146 184 229 278 331
#
# _framework density 19.343243999999999
#
# number of rings (size 3 to 8) (size 9 to 14) (size 15 to 20)
#    0.000    2.250    1.250    1.875    0.000    5.500 
#    0.000    0.625    0.000    1.500    0.000    0.000 
#    0.000    0.000    0.000    0.000    0.000    0.000 
#
# Total GULP energy -793665.758510 kJ/mol
# GULP energy per Si atom -12401.027477 kJ/mol
# Density = 1.929922 g / cm^3
# Si number density = 19.343244 Si / 1000 Ang^3
#
#
#
# Elastic Constant Matrix: (Units=GPa)
#
#
# Indices 1 2 3 4 5 6 
#
# 1 85.2743 38.7203 62.0117 0.0000 0.0000 0.0000
# 2 38.7203 83.3329 52.4251 0.0000 0.0000 0.0000
# 3 62.0117 52.4251 142.0880 0.0000 0.0000 0.0000
# 4 0.0000 0.0000 0.0000 150.8363 0.0000 0.0000
# 5 0.0000 0.0000 0.0000 0.0000 39.4466 0.0000
# 6 0.0000 0.0000 0.0000 0.0000 0.0000 13.9924
#
#
#
# Elastic Compliance Matrix: (Units=1/GPa)
#
#
# Indices 1 2 3 4 5 6 
#
# 1 0.018420 -0.004560 -0.006357 0.000000 0.000000 0.000000
# 2 -0.004560 0.016756 -0.004192 0.000000 0.000000 0.000000
# 3 -0.006357 -0.004192 0.011359 0.000000 0.000000 0.000000
# 4 0.000000 0.000000 0.000000 0.006630 0.000000 0.000000
# 5 0.000000 0.000000 0.000000 0.000000 0.025351 0.000000
# 6 0.000000 0.000000 0.000000 0.000000 0.000000 0.071468
#
#
# Mechanical properties :
#
#
# Convention : Reuss Voigt Hill
#
# Bulk Modulus (GPa) = 61.28396 68.55661 64.92028
# Shear Modulus (GPa) = 26.93390 51.35759 39.14575
#
# Velocity S-wave (km/s) = 3.73556 5.15832 4.50348
# Velocity P-wave (km/s) = 7.09627 8.42596 7.78954
#
# Compressibility (1/GPa) = 0.01631748
#
# Stress axis : x y z
#
# Youngs Moduli (GPa) = 54.28919 59.67947 88.03620
#
# Poissons Ratio (x) = 0.27212 0.55961
# Poissons Ratio (y) = 0.24754 0.36908
# Poissons Ratio (z) = 0.34510 0.25020
#
# Static dielectric constant tensor:
#      x y z
#    x 3.437300 0.000000 0.000000 
#    y 0.000000 3.386840 0.000000 
#    z 0.000000 0.000000 3.662790 
# 
# 
# High freq. dielectric constant tensor:
#      x y z
#    x 1.744450 0.000000 0.000000 
#    y 0.000000 1.734070 0.000000 
#    z 0.000000 0.000000 1.763110 
# 
# From -- ./inp_files/22380.got.cif
#   From: 2010.03.12/outbox.cif.g09.slc.cpg/sg51_12_cif.got.tgz:22380.got - 2010.04.16 13:43:02.
