data_PCOD8212425
_publ_section_title
;
Structure prediction by ZEFSAII (Michael W. Deem and Ramdas Pophale) SiO2 
 PCOD8212425
Probable space group: P M M A
;
_chemical_formula_sum "Si O2"
_cell_formula_units_Z 52
_cell_length_a 8.925404
_cell_length_b 19.824166
_cell_length_c 14.646544
_cell_angle_alpha 90.000000
_cell_angle_beta 90.000000
_cell_angle_gamma 90.000000
_cell_volume 2591.540316
_symmetry_space_group_name_H-M "P M M A"
_symmetry_group_IT_number 51
_symmetry_cell_setting 'orthorhombic'
loop_
_space_group_symop_operation_xyz
x,y,z
1/2-x,-y,z
1/2+x,-y,-z
-x,y,-z
-x,-y,-z
1/2+x,y,-z
1/2-x,y,z
x,-y,z
loop_
_atom_site_type_symbol
_atom_site_label
_atom_site_fract_x
_atom_site_fract_y
_atom_site_fract_z
Si Si1 0.426036 0.331977 0.592735
Si Si2 0.927263 0.178010 0.406641
Si Si3 0.428268 0.888620 0.906172
Si Si4 0.579234 0.264054 0.088392
Si Si5 0.923268 0.615254 0.215624
Si Si6 0.922574 0.925150 0.727323
Si Si7 0.927077 0.500000 0.899655
O O1 0.500000 0.360322 0.500000
O O2 0.250000 0.334012 0.578539
O O3 0.477859 0.255138 0.612216
O O4 0.472076 0.379935 0.677972
O O5 0.750000 0.171635 0.412968
O O6 0.000000 0.151866 0.500000
O O7 0.984681 0.130156 0.327321
O O8 0.250000 0.899183 0.906505
O O9 0.477419 0.810889 0.889428
O O10 0.504477 0.931344 0.826874
O O11 0.500000 0.914960 0.000000
O O12 0.750000 0.261024 0.059860
O O13 0.552143 0.309994 0.176386
O O14 0.500000 0.296058 0.000000
O O15 0.750000 0.592547 0.206501
O O16 0.025849 0.564595 0.159249
O O17 0.750000 0.902372 0.733307
O O18 0.935188 0.000000 0.682774
O O19 0.750000 0.500000 0.913465
O O20 0.000000 0.500000 0.000000
#
# Coordination Sequence:
#
# PCOD8212425 Si02
#       7
#     8   8   8   8   8   8   4
#     4   9  19  36  60  89 118 146 182 229 279 331
#     4  10  20  37  61  88 116 146 181 226 281 337
#     4  10  20  36  57  81 109 141 180 229 284 340
#     4   9  18  32  53  81 109 137 175 223 276 333
#     4  10  20  37  59  83 114 151 187 227 275 323
#     4  11  24  39  54  76 107 145 190 235 279 333
#     4  12  26  42  59  84 117 154 195 232 270 322
#
# _framework density 20.065287000000001
#
# number of rings (size 3 to 8) (size 9 to 14) (size 15 to 20)
#    0.000    2.000    0.000    3.462    0.000    8.000 
#    0.000    1.923    0.000    0.000    0.000    0.000 
#    0.000    0.000    0.000    0.000    0.000    0.000 
#
# Total GULP energy -644810.710737 kJ/mol
# GULP energy per Si atom -12400.205976 kJ/mol
# Density = 2.001962 g / cm^3
# Si number density = 20.065287 Si / 1000 Ang^3
#
#
#
# Elastic Constant Matrix: (Units=GPa)
#
#
# Indices 1 2 3 4 5 6 
#
# 1 91.7175 30.6994 50.1396 0.0000 0.0000 0.0000
# 2 30.6994 64.2708 41.4776 0.0000 0.0000 0.0000
# 3 50.1396 41.4776 140.9628 0.0000 0.0000 0.0000
# 4 0.0000 0.0000 0.0000 21.2149 0.0000 0.0000
# 5 0.0000 0.0000 0.0000 0.0000 40.8202 0.0000
# 6 0.0000 0.0000 0.0000 0.0000 0.0000 24.1781
#
#
#
# Elastic Compliance Matrix: (Units=1/GPa)
#
#
# Indices 1 2 3 4 5 6 
#
# 1 0.014493 -0.004439 -0.003849 0.000000 0.000000 0.000000
# 2 -0.004439 0.020566 -0.004473 0.000000 0.000000 0.000000
# 3 -0.003849 -0.004473 0.009779 0.000000 0.000000 0.000000
# 4 0.000000 0.000000 0.000000 0.047137 0.000000 0.000000
# 5 0.000000 0.000000 0.000000 0.000000 0.024498 0.000000
# 6 0.000000 0.000000 0.000000 0.000000 0.000000 0.041360
#
#
# Mechanical properties :
#
#
# Convention : Reuss Voigt Hill
#
# Bulk Modulus (GPa) = 51.76690 60.17603 55.97146
# Shear Modulus (GPa) = 26.34474 28.88496 27.61485
#
# Velocity S-wave (km/s) = 3.62740 3.79825 3.71381
# Velocity P-wave (km/s) = 6.58781 7.02075 6.80772
#
# Compressibility (1/GPa) = 0.01931736
#
# Stress axis : x y z
#
# Youngs Moduli (GPa) = 68.99940 48.62459 102.25836
#
# Poissons Ratio (x) = 0.21583 0.39359
# Poissons Ratio (y) = 0.30627 0.45736
# Poissons Ratio (z) = 0.26558 0.21748
#
# Static dielectric constant tensor:
#      x y z
#    x 3.609340 0.000000 0.000000 
#    y 0.000000 3.599380 0.000000 
#    z 0.000000 0.000000 0.002900 
# 
# 
# High freq. dielectric constant tensor:
#      x y z
#    x 1.781960 0.000000 0.000000 
#    y 0.000000 1.773060 0.000000 
#    z 0.000000 0.000000 1.790290 
# 
# From -- ./inp_files/21653.got.cif
#   From: 2010.03.12/outbox.cif.g09.slc.cpg/sg51_11_cif.got.tgz:21653.got - 2010.04.16 13:43:02.
