data_PCOD8212168
_publ_section_title
;
Structure prediction by ZEFSAII (Michael W. Deem and Ramdas Pophale) SiO2 
 PCOD8212168
Probable space group: P M M A
;
_chemical_formula_sum "Si O2"
_cell_formula_units_Z 56
_cell_length_a 15.420253
_cell_length_b 8.719321
_cell_length_c 21.737875
_cell_angle_alpha 90.000000
_cell_angle_beta 90.000000
_cell_angle_gamma 90.000000
_cell_volume 2922.747197
_symmetry_space_group_name_H-M "P M M A"
_symmetry_group_IT_number 51
_symmetry_cell_setting 'orthorhombic'
loop_
_space_group_symop_operation_xyz
x,y,z
1/2-x,-y,z
1/2+x,-y,-z
-x,y,-z
-x,-y,-z
1/2+x,y,-z
1/2-x,y,z
x,-y,z
loop_
_atom_site_type_symbol
_atom_site_label
_atom_site_fract_x
_atom_site_fract_y
_atom_site_fract_z
Si Si1 0.071822 0.181382 0.315734
Si Si2 0.074576 0.181139 0.455648
Si Si3 0.101194 0.678387 0.996038
Si Si4 0.848697 0.176909 0.129087
Si Si5 0.002433 0.319752 0.201841
Si Si6 0.250000 0.672813 0.313388
Si Si7 0.750000 0.329960 0.540688
Si Si8 0.152610 0.177409 0.121124
O O1 0.056262 0.236380 0.385870
O O2 0.165705 0.235282 0.291093
O O3 0.000213 0.263017 0.272753
O O4 0.064409 0.000000 0.309294
O O5 0.164629 0.243466 0.482693
O O6 0.000000 0.245868 0.500000
O O7 0.079657 0.000000 0.457556
O O8 0.117954 0.500000 0.983073
O O9 0.146750 0.726065 0.058827
O O10 0.143184 0.775924 0.941709
O O11 0.000000 0.715968 0.000000
O O12 0.750000 0.203890 0.150967
O O13 0.911170 0.279023 0.171095
O O14 0.875475 0.000000 0.136080
O O15 0.016884 0.500000 0.197521
O O16 0.082597 0.236453 0.169384
O O17 0.250000 0.500000 0.286106
O O18 0.250000 0.667321 0.386389
O O19 0.750000 0.500000 0.512785
O O20 0.250000 0.199363 0.147984
O O21 0.133354 0.000000 0.106660
#
# Coordination Sequence:
#
# PCOD8212168 Si02
#       8
#     8   8   8   8   8   4   4   8
#     4  10  20  35  56  82 115 151 190 234 283 337
#     4   9  18  34  58  85 113 149 193 236 281 333
#     4  11  22  37  59  88 117 147 184 231 289 342
#     4  11  24  42  65  88 110 145 193 241 288 339
#     4  12  25  40  59  84 116 151 189 234 284 340
#     4   9  17  31  51  79 113 149 187 224 271 334
#     4   9  17  29  49  81 117 149 183 226 277 330
#     4  11  24  40  59  84 115 151 189 230 281 338
#
# _framework density 19.160055
#
# number of rings (size 3 to 8) (size 9 to 14) (size 15 to 20)
#    0.000    1.571    1.429    3.857    1.000    7.143 
#    0.000    0.000    1.571    0.000    0.000    0.000 
#    0.000    0.000    0.000    0.000    0.000    0.000 
#
# Total GULP energy -694564.919482 kJ/mol
# GULP energy per Si atom -12402.944991 kJ/mol
# Density = 1.911645 g / cm^3
# Si number density = 19.160055 Si / 1000 Ang^3
#
#
#
# Elastic Constant Matrix: (Units=GPa)
#
#
# Indices 1 2 3 4 5 6 
#
# 1 115.0854 34.8994 48.1602 0.0000 0.0000 0.0000
# 2 34.8994 56.9638 15.1024 0.0000 0.0000 0.0000
# 3 48.1602 15.1024 81.6225 0.0000 0.0000 0.0000
# 4 0.0000 0.0000 0.0000 23.9521 0.0000 0.0000
# 5 0.0000 0.0000 0.0000 0.0000 22.4632 0.0000
# 6 0.0000 0.0000 0.0000 0.0000 0.0000 18.5787
#
#
#
# Elastic Compliance Matrix: (Units=1/GPa)
#
#
# Indices 1 2 3 4 5 6 
#
# 1 0.013477 -0.006466 -0.006756 0.000000 0.000000 0.000000
# 2 -0.006466 0.021563 -0.000175 0.000000 0.000000 0.000000
# 3 -0.006756 -0.000175 0.016270 0.000000 0.000000 0.000000
# 4 0.000000 0.000000 0.000000 0.041750 0.000000 0.000000
# 5 0.000000 0.000000 0.000000 0.000000 0.044517 0.000000
# 6 0.000000 0.000000 0.000000 0.000000 0.000000 0.053825
#
#
# Mechanical properties :
#
#
# Convention : Reuss Voigt Hill
#
# Bulk Modulus (GPa) = 40.78711 49.99952 45.39331
# Shear Modulus (GPa) = 22.08813 23.36613 22.72713
#
# Velocity S-wave (km/s) = 3.39901 3.49596 3.44782
# Velocity P-wave (km/s) = 6.06120 6.51521 6.29230
#
# Compressibility (1/GPa) = 0.02451755
#
# Stress axis : x y z
#
# Youngs Moduli (GPa) = 74.20086 46.37657 61.46336
#
# Poissons Ratio (x) = 0.29986 0.41522
# Poissons Ratio (y) = 0.47976 0.01073
# Poissons Ratio (z) = 0.50127 0.00810
#
# Static dielectric constant tensor:
#      x y z
#    x 3.614640 0.000000 0.000000 
#    y 0.000000 3.579400 0.000000 
#    z 0.000000 0.000000 3.473300 
# 
# 
# High freq. dielectric constant tensor:
#      x y z
#    x 1.743780 0.000000 0.000000 
#    y 0.000000 1.756960 0.000000 
#    z 0.000000 0.000000 1.728470 
# 
# From -- ./inp_files/33499.got.cif
#   From: 2010.03.12/outbox.cif.g09.slc.cpg/sg51_17_cif.got.tgz:33499.got - 2010.04.16 13:43:02.
