data_PCOD8212287
_publ_section_title
;
Structure prediction by ZEFSAII (Michael W. Deem and Ramdas Pophale) SiO2 
 PCOD8212287
Probable space group: P M M A
;
_chemical_formula_sum "Si O2"
_cell_formula_units_Z 64
_cell_length_a 8.793586
_cell_length_b 23.551558
_cell_length_c 15.615675
_cell_angle_alpha 90.000000
_cell_angle_beta 90.000000
_cell_angle_gamma 90.000000
_cell_volume 3234.047685
_symmetry_space_group_name_H-M "P M M A"
_symmetry_group_IT_number 51
_symmetry_cell_setting 'orthorhombic'
loop_
_space_group_symop_operation_xyz
x,y,z
1/2-x,-y,z
1/2+x,-y,-z
-x,y,-z
-x,-y,-z
1/2+x,y,-z
1/2-x,y,z
x,-y,z
loop_
_atom_site_type_symbol
_atom_site_label
_atom_site_fract_x
_atom_site_fract_y
_atom_site_fract_z
Si Si1 0.429230 0.667463 0.085939
Si Si2 0.069242 0.134091 0.249962
Si Si3 0.928721 0.736713 0.745295
Si Si4 0.927527 0.435672 0.650645
Si Si5 0.928839 0.672548 0.413702
Si Si6 0.574335 0.564323 0.167449
Si Si7 0.070396 0.935094 0.088169
Si Si8 0.429609 0.064854 0.411963
O O1 0.250000 0.660077 0.076018
O O2 0.472338 0.707570 0.165265
O O3 0.507976 0.605998 0.095909
O O4 0.500000 0.695125 0.000000
O O5 0.250000 0.130374 0.248954
O O6 0.013078 0.198757 0.250264
O O7 0.004876 0.102759 0.165699
O O8 0.005644 0.102673 0.334327
O O9 0.750000 0.732964 0.727305
O O10 0.014133 0.705961 0.668747
O O11 0.750000 0.421460 0.643043
O O12 0.964283 0.500000 0.621840
O O13 0.021243 0.393378 0.590509
O O14 0.975836 0.425514 0.748013
O O15 0.750000 0.677159 0.419585
O O16 0.000000 0.699459 0.500000
O O17 0.750000 0.578316 0.187713
O O18 0.556008 0.500000 0.133983
O O19 0.250000 0.929596 0.081439
O O20 0.020564 0.000000 0.104873
O O21 0.000000 0.911978 0.000000
O O22 0.500000 0.088275 0.500000
O O23 0.250000 0.070033 0.418730
O O24 0.480282 0.000000 0.395615
#
# Coordination Sequence:
#
# PCOD8212287 Si02
#       8
#     8   8   8   8   8   8   8   8
#     4  11  23  38  59  82 111 149 191 239 290 345
#     4   9  18  34  57  80 107 147 191 231 276 335
#     4  10  22  41  60  81 111 148 193 243 290 338
#     4  10  20  36  60  89 120 151 184 227 282 342
#     4  12  25  41  63  86 114 151 192 238 287 343
#     4  10  20  35  58  87 117 148 184 229 284 345
#     4   9  17  31  53  82 115 150 188 230 279 334
#     4   9  17  31  53  81 112 145 181 224 274 330
#
# _framework density 19.789442000000001
#
# number of rings (size 3 to 8) (size 9 to 14) (size 15 to 20)
#    0.000    2.000    1.250    2.625    0.000    5.000 
#    0.000    3.125    0.000    3.000    0.000    0.000 
#    0.000    0.000    0.000    0.000    0.000    0.000 
#
# Total GULP energy -793770.117048 kJ/mol
# GULP energy per Si atom -12402.658079 kJ/mol
# Density = 1.974440 g / cm^3
# Si number density = 19.789442 Si / 1000 Ang^3
#
#
#
# Elastic Constant Matrix: (Units=GPa)
#
#
# Indices 1 2 3 4 5 6 
#
# 1 70.5797 41.5264 54.4071 0.0000 0.0000 0.0000
# 2 41.5264 121.1977 80.9832 0.0000 0.0000 0.0000
# 3 54.4071 80.9832 168.8881 0.0000 0.0000 0.0000
# 4 0.0000 0.0000 0.0000 9.1766 0.0000 0.0000
# 5 0.0000 0.0000 0.0000 0.0000 35.4784 0.0000
# 6 0.0000 0.0000 0.0000 0.0000 0.0000 18.1612
#
#
#
# Elastic Compliance Matrix: (Units=1/GPa)
#
#
# Indices 1 2 3 4 5 6 
#
# 1 0.019937 -0.003737 -0.004631 0.000000 0.000000 0.000000
# 2 -0.003737 0.012841 -0.004954 0.000000 0.000000 0.000000
# 3 -0.004631 -0.004954 0.009788 0.000000 0.000000 0.000000
# 4 0.000000 0.000000 0.000000 0.108973 0.000000 0.000000
# 5 0.000000 0.000000 0.000000 0.000000 0.028186 0.000000
# 6 0.000000 0.000000 0.000000 0.000000 0.000000 0.055062
#
#
# Mechanical properties :
#
#
# Convention : Reuss Voigt Hill
#
# Bulk Modulus (GPa) = 62.79939 79.38877 71.09408
# Shear Modulus (GPa) = 18.74499 24.81315 21.77907
#
# Velocity S-wave (km/s) = 3.08104 3.54483 3.32104
# Velocity P-wave (km/s) = 6.66781 7.54707 7.12102
#
# Compressibility (1/GPa) = 0.01592372
#
# Stress axis : x y z
#
# Youngs Moduli (GPa) = 50.15906 77.87332 102.16344
#
# Poissons Ratio (x) = 0.29099 0.47309
# Poissons Ratio (y) = 0.18743 0.50609
# Poissons Ratio (z) = 0.23227 0.38577
#
# Static dielectric constant tensor:
#      x y z
#    x 3.454250 0.000000 0.000000 
#    y 0.000000 3.730840 0.000000 
#    z 0.000000 0.000000 3.712230 
# 
# 
# High freq. dielectric constant tensor:
#      x y z
#    x 1.757630 0.000000 0.000000 
#    y 0.000000 1.766920 0.000000 
#    z 0.000000 0.000000 1.780000 
# 
# From -- ./inp_files/22329.got.cif
#   From: 2010.03.12/outbox.cif.g09.slc.cpg/sg51_12_cif.got.tgz:22329.got - 2010.04.16 13:43:02.
