data_PCOD8212011
_publ_section_title
;
Structure prediction by ZEFSAII (Michael W. Deem and Ramdas Pophale) SiO2 
 PCOD8212011
Probable space group: P M M A
;
_chemical_formula_sum "Si O2"
_cell_formula_units_Z 44
_cell_length_a 8.780172
_cell_length_b 27.394393
_cell_length_c 9.922410
_cell_angle_alpha 90.000000
_cell_angle_beta 90.000000
_cell_angle_gamma 90.000000
_cell_volume 2386.612296
_symmetry_space_group_name_H-M "P M M A"
_symmetry_group_IT_number 51
_symmetry_cell_setting 'orthorhombic'
loop_
_space_group_symop_operation_xyz
x,y,z
1/2-x,-y,z
1/2+x,-y,-z
-x,y,-z
-x,-y,-z
1/2+x,y,-z
1/2-x,y,z
x,-y,z
loop_
_atom_site_type_symbol
_atom_site_label
_atom_site_fract_x
_atom_site_fract_y
_atom_site_fract_z
Si Si1 0.071062 0.264099 0.861110
Si Si2 0.928870 0.000000 0.851159
Si Si3 0.068738 0.186720 0.641539
Si Si4 0.431211 0.083176 0.356121
Si Si5 0.926086 0.555919 0.643233
Si Si6 0.429576 0.374418 0.859828
O O1 0.250000 0.261855 0.877565
O O2 0.014599 0.227947 0.745191
O O3 0.017522 0.319115 0.826499
O O4 0.000000 0.245596 0.000000
O O5 0.980239 0.953155 0.763743
O O6 0.750000 0.000000 0.872495
O O7 0.000000 0.000000 0.000000
O O8 0.250000 0.181783 0.631825
O O9 0.000000 0.203386 0.500000
O O10 0.997901 0.135349 0.686797
O O11 0.500000 0.066042 0.500000
O O12 0.250000 0.085764 0.372549
O O13 0.750000 0.570293 0.636336
O O14 0.948498 0.500000 0.688444
O O15 0.000000 0.565639 0.500000
O O16 0.011545 0.590114 0.746216
O O17 0.250000 0.378486 0.870134
O O18 0.500000 0.392063 0.000000
#
# Coordination Sequence:
#
# PCOD8212011 Si02
#       6
#     8   4   8   8   8   8
#     4   9  20  36  54  77 106 139 175 214 260 310
#     4  10  23  38  54  78 108 138 173 214 258 308
#     4  10  20  35  54  79 107 137 174 215 258 307
#     4  10  20  36  56  79 104 136 175 214 258 308
#     4  10  21  37  56  79 107 139 175 217 266 317
#     4  10  20  36  56  79 107 140 179 220 262 313
#
# _framework density 18.436174000000001
#
# number of rings (size 3 to 8) (size 9 to 14) (size 15 to 20)
#    0.000    2.182    0.000    3.545    0.000    6.545 
#    0.000    5.455    0.000    0.000    0.000    0.000 
#    0.000    0.000    0.000    0.000    0.000    0.000 
#
# Total GULP energy -545650.104116 kJ/mol
# GULP energy per Si atom -12401.138730 kJ/mol
# Density = 1.839421 g / cm^3
# Si number density = 18.436174 Si / 1000 Ang^3
#
#
#
# Elastic Constant Matrix: (Units=GPa)
#
#
# Indices 1 2 3 4 5 6 
#
# 1 76.5602 43.7003 49.6273 0.0000 0.0000 0.0000
# 2 43.7003 108.7932 91.4474 0.0000 0.0000 0.0000
# 3 49.6273 91.4474 135.2404 0.0000 0.0000 0.0000
# 4 0.0000 0.0000 0.0000 42.0120 0.0000 0.0000
# 5 0.0000 0.0000 0.0000 0.0000 37.0571 0.0000
# 6 0.0000 0.0000 0.0000 0.0000 0.0000 24.4257
#
#
#
# Elastic Compliance Matrix: (Units=1/GPa)
#
#
# Indices 1 2 3 4 5 6 
#
# 1 0.017807 -0.003846 -0.003934 0.000000 0.000000 0.000000
# 2 -0.003846 0.022126 -0.013550 0.000000 0.000000 0.000000
# 3 -0.003934 -0.013550 0.018000 0.000000 0.000000 0.000000
# 4 0.000000 0.000000 0.000000 0.023803 0.000000 0.000000
# 5 0.000000 0.000000 0.000000 0.000000 0.026985 0.000000
# 6 0.000000 0.000000 0.000000 0.000000 0.000000 0.040940
#
#
# Mechanical properties :
#
#
# Convention : Reuss Voigt Hill
#
# Bulk Modulus (GPa) = 65.47320 76.68263 71.07792
# Shear Modulus (GPa) = 25.32760 29.75353 27.54057
#
# Velocity S-wave (km/s) = 3.71050 4.02165 3.86921
# Velocity P-wave (km/s) = 7.34490 7.95291 7.65495
#
# Compressibility (1/GPa) = 0.01527342
#
# Stress axis : x y z
#
# Youngs Moduli (GPa) = 56.15819 45.19470 55.55537
#
# Poissons Ratio (x) = 0.17383 0.21853
# Poissons Ratio (y) = 0.21600 0.75278
# Poissons Ratio (z) = 0.22090 0.61239
#
# Static dielectric constant tensor:
#      x y z
#    x 3.456630 0.000000 0.000000 
#    y 0.000000 3.585150 0.000000 
#    z 0.000000 0.000000 3.391820 
# 
# 
# High freq. dielectric constant tensor:
#      x y z
#    x 1.726290 0.000000 0.000000 
#    y 0.000000 1.721100 0.000000 
#    z 0.000000 0.000000 1.718080 
# 
# From -- ./inp_files/5831.got.cif
#   From: 2010.03.12/outbox.cif.g09.slc.cpg/sg51_3_cif.got.tgz:5831.got - 2010.04.16 13:43:02.
