data_PCOD8212510
_publ_section_title
;
Structure prediction by ZEFSAII (Michael W. Deem and Ramdas Pophale) SiO2 
 PCOD8212510
Probable space group: P M M A
;
_chemical_formula_sum "Si O2"
_cell_formula_units_Z 56
_cell_length_a 16.008553
_cell_length_b 8.658169
_cell_length_c 19.537850
_cell_angle_alpha 90.000000
_cell_angle_beta 90.000000
_cell_angle_gamma 90.000000
_cell_volume 2708.038958
_symmetry_space_group_name_H-M "P M M A"
_symmetry_group_IT_number 51
_symmetry_cell_setting 'orthorhombic'
loop_
_space_group_symop_operation_xyz
x,y,z
1/2-x,-y,z
1/2+x,-y,-z
-x,y,-z
-x,-y,-z
1/2+x,y,-z
1/2-x,y,z
x,-y,z
loop_
_atom_site_type_symbol
_atom_site_label
_atom_site_fract_x
_atom_site_fract_y
_atom_site_fract_z
Si Si1 0.158371 0.817238 0.340431
Si Si2 0.651112 0.825561 0.074064
Si Si3 0.500211 0.184005 0.422869
Si Si4 0.912916 0.821236 0.801145
Si Si5 0.842978 0.179688 0.334633
Si Si6 0.154581 0.679331 0.064855
Si Si7 0.915241 0.679184 0.207602
O O1 0.250000 0.755646 0.364572
O O2 0.148703 0.773963 0.260453
O O3 0.082381 0.746724 0.385242
O O4 0.154638 0.000000 0.348705
O O5 0.750000 0.813124 0.074534
O O6 0.616249 0.712276 0.131408
O O7 0.620461 0.000000 0.088000
O O8 0.617470 0.771353 0.000044
O O9 0.500000 0.248482 0.500000
O O10 0.585713 0.241144 0.386582
O O11 0.497436 0.000000 0.422496
O O12 0.897256 0.719448 0.867912
O O13 0.005371 0.784966 0.774544
O O14 0.903013 0.000000 0.820484
O O15 0.750000 0.206389 0.366160
O O16 0.846277 0.273770 0.263552
O O17 0.857166 0.000000 0.318255
O O18 0.250000 0.727946 0.078439
O O19 0.145853 0.500000 0.048365
O O20 0.937972 0.500000 0.213517
#
# Coordination Sequence:
#
# PCOD8212510 Si02
#       7
#     8   8   8   8   8   8   8
#     4   9  17  30  52  82 114 148 190 239 289 339
#     4  10  21  38  59  82 110 148 194 242 294 352
#     4   9  17  31  53  85 124 156 187 234 289 344
#     4  11  21  36  57  80 111 150 198 247 296 350
#     4  10  20  36  58  85 118 157 197 238 289 350
#     4  10  21  37  56  82 117 152 190 241 297 352
#     4  12  24  37  56  82 113 149 194 245 301 353
#
# _framework density 20.679169999999999
#
# number of rings (size 3 to 8) (size 9 to 14) (size 15 to 20)
#    0.000    1.857    1.429    3.429    0.000    5.429 
#    0.000    5.714    0.000    0.429    0.000    0.000 
#    0.000    0.000    0.000    0.000    0.000    0.000 
#
# Total GULP energy -694423.857663 kJ/mol
# GULP energy per Si atom -12400.426030 kJ/mol
# Density = 2.063210 g / cm^3
# Si number density = 20.679170 Si / 1000 Ang^3
#
#
#
# Elastic Constant Matrix: (Units=GPa)
#
#
# Indices 1 2 3 4 5 6 
#
# 1 128.4854 14.9499 65.7142 0.0000 0.0000 0.0000
# 2 14.9499 44.9038 24.6582 0.0000 0.0000 0.0000
# 3 65.7142 24.6582 127.3194 0.0000 0.0000 0.0000
# 4 0.0000 0.0000 0.0000 8.9927 0.0000 0.0000
# 5 0.0000 0.0000 0.0000 0.0000 30.2821 0.0000
# 6 0.0000 0.0000 0.0000 0.0000 0.0000 18.6274
#
#
#
# Elastic Compliance Matrix: (Units=1/GPa)
#
#
# Indices 1 2 3 4 5 6 
#
# 1 0.010588 -0.000587 -0.005351 0.000000 0.000000 0.000000
# 2 -0.000587 0.024953 -0.004530 0.000000 0.000000 0.000000
# 3 -0.005351 -0.004530 0.011494 0.000000 0.000000 0.000000
# 4 0.000000 0.000000 0.000000 0.111201 0.000000 0.000000
# 5 0.000000 0.000000 0.000000 0.000000 0.033023 0.000000
# 6 0.000000 0.000000 0.000000 0.000000 0.000000 0.053684
#
#
# Mechanical properties :
#
#
# Convention : Reuss Voigt Hill
#
# Bulk Modulus (GPa) = 38.31588 56.81702 47.56645
# Shear Modulus (GPa) = 18.20979 24.60621 21.40800
#
# Velocity S-wave (km/s) = 2.97069 3.45324 3.22101
# Velocity P-wave (km/s) = 5.50778 6.59052 6.07332
#
# Compressibility (1/GPa) = 0.02609884
#
# Stress axis : x y z
#
# Youngs Moduli (GPa) = 94.44475 40.07596 87.00489
#
# Poissons Ratio (x) = 0.02351 0.46559
# Poissons Ratio (y) = 0.05540 0.39412
# Poissons Ratio (z) = 0.50541 0.18154
#
# Static dielectric constant tensor:
#      x y z
#    x 3.931200 0.000000 0.000000 
#    y 0.000000 3.343900 0.000000 
#    z 0.000000 0.000000 3.762780 
# 
# 
# High freq. dielectric constant tensor:
#      x y z
#    x 1.815590 0.000000 0.000000 
#    y 0.000000 1.773820 0.000000 
#    z 0.000000 0.000000 1.808590 
# 
# From -- ./inp_files/33330.got.cif
#   From: 2010.03.12/outbox.cif.g09.slc.cpg/sg51_17_cif.got.tgz:33330.got - 2010.04.16 13:43:02.
