data_PCOD8212927
_publ_section_title
;
Structure prediction by ZEFSAII (Michael W. Deem and Ramdas Pophale) SiO2 
 PCOD8212927
Probable space group: P M M A
;
_chemical_formula_sum "Si O2"
_cell_formula_units_Z 64
_cell_length_a 29.189527
_cell_length_b 9.061310
_cell_length_c 14.883025
_cell_angle_alpha 90.000000
_cell_angle_beta 90.000000
_cell_angle_gamma 90.000000
_cell_volume 3936.490950
_symmetry_space_group_name_H-M "P M M A"
_symmetry_group_IT_number 51
_symmetry_cell_setting 'orthorhombic'
loop_
_space_group_symop_operation_xyz
x,y,z
1/2-x,-y,z
1/2+x,-y,-z
-x,y,-z
-x,-y,-z
1/2+x,y,-z
1/2-x,y,z
x,-y,z
loop_
_atom_site_type_symbol
_atom_site_label
_atom_site_fract_x
_atom_site_fract_y
_atom_site_fract_z
Si Si1 0.881160 0.672823 0.199335
Si Si2 0.390703 0.672953 0.456109
Si Si3 0.801899 0.833617 0.288378
Si Si4 0.538061 0.175917 0.670159
Si Si5 0.801523 0.828213 0.496289
Si Si6 0.971129 0.174196 0.871105
Si Si7 0.432879 0.174251 0.946499
Si Si8 0.555310 0.327613 0.363366
O O1 0.881502 0.500000 0.187152
O O2 0.830996 0.721678 0.229260
O O3 0.891024 0.746472 0.103063
O O4 0.918308 0.723444 0.273694
O O5 0.391789 0.500000 0.435581
O O6 0.418637 0.758314 0.380375
O O7 0.338414 0.729703 0.450908
O O8 0.412240 0.710150 0.552844
O O9 0.750000 0.822171 0.254142
O O10 0.804934 0.787140 0.391890
O O11 0.820472 0.000000 0.275837
O O12 0.542533 0.233540 0.773062
O O13 0.491244 0.235617 0.626447
O O14 0.538275 0.000000 0.662995
O O15 0.750000 0.791758 0.530949
O O16 0.812491 0.000000 0.511846
O O17 0.020868 0.234379 0.899388
O O18 0.974849 0.000000 0.868867
O O19 0.934101 0.219797 0.947732
O O20 0.427301 0.000000 0.935391
O O21 0.542755 0.500000 0.361286
#
# Coordination Sequence:
#
# PCOD8212927 Si02
#       8
#     8   8   8   8   8   8   8   8
#     4  11  20  30  46  72 101 130 161 195 237 287
#     4  11  22  35  48  67  98 136 166 195 239 291
#     4   9  18  32  50  71  95 125 161 200 240 283
#     4  11  21  33  50  71  93 126 170 211 243 279
#     4   9  18  33  52  73  95 120 158 207 245 277
#     4   8  16  30  49  70  92 119 158 203 244 279
#     4   9  16  31  51  69  91 123 159 197 238 285
#     4  10  21  34  44  63  99 137 167 195 232 282
#
# _framework density 16.258134999999999
#
# number of rings (size 3 to 8) (size 9 to 14) (size 15 to 20)
#    0.000    2.250    2.500    3.000    0.000    3.500 
#    0.000    3.750    0.000    0.000    0.000    0.875 
#    0.000    7.000    0.000    0.000    0.000    0.000 
#
# Total GULP energy -793535.244851 kJ/mol
# GULP energy per Si atom -12398.988201 kJ/mol
# Density = 1.622113 g / cm^3
# Si number density = 16.258135 Si / 1000 Ang^3
#
#
#
# Elastic Constant Matrix: (Units=GPa)
#
#
# Indices 1 2 3 4 5 6 
#
# 1 97.2713 40.8502 37.8581 0.0000 0.0000 0.0000
# 2 40.8502 58.1334 34.2248 0.0000 0.0000 0.0000
# 3 37.8581 34.2248 71.7977 0.0000 0.0000 0.0000
# 4 0.0000 0.0000 0.0000 17.5442 0.0000 0.0000
# 5 0.0000 0.0000 0.0000 0.0000 21.5798 0.0000
# 6 0.0000 0.0000 0.0000 0.0000 0.0000 25.5616
#
#
#
# Elastic Compliance Matrix: (Units=1/GPa)
#
#
# Indices 1 2 3 4 5 6 
#
# 1 0.015414 -0.008406 -0.004121 0.000000 0.000000 0.000000
# 2 -0.008406 0.028496 -0.009152 0.000000 0.000000 0.000000
# 3 -0.004121 -0.009152 0.020463 0.000000 0.000000 0.000000
# 4 0.000000 0.000000 0.000000 0.056999 0.000000 0.000000
# 5 0.000000 0.000000 0.000000 0.000000 0.046340 0.000000
# 6 0.000000 0.000000 0.000000 0.000000 0.000000 0.039121
#
#
# Mechanical properties :
#
#
# Convention : Reuss Voigt Hill
#
# Bulk Modulus (GPa) = 47.57882 50.34096 48.95989
# Shear Modulus (GPa) = 19.44044 20.55506 19.99775
#
# Velocity S-wave (km/s) = 3.46169 3.55955 3.51096
# Velocity P-wave (km/s) = 6.73097 6.92276 6.82754
#
# Compressibility (1/GPa) = 0.02101775
#
# Stress axis : x y z
#
# Youngs Moduli (GPa) = 64.87422 35.09250 48.86775
#
# Poissons Ratio (x) = 0.29497 0.20139
# Poissons Ratio (y) = 0.54530 0.44721
# Poissons Ratio (z) = 0.26735 0.32115
#
# Static dielectric constant tensor:
#      x y z
#    x 2.976300 0.000000 0.000000 
#    y 0.000000 2.939000 0.000000 
#    z 0.000000 0.000000 3.159940 
# 
# 
# High freq. dielectric constant tensor:
#      x y z
#    x 1.611330 0.000000 0.000000 
#    y 0.000000 1.620340 0.000000 
#    z 0.000000 0.000000 1.608740 
# 
# From -- ./inp_files/26723.got.cif
#   From: 2010.03.12/outbox.cif.g09.slc.cpg/sg51_14_cif.got.tgz:26723.got - 2010.04.16 13:43:02.
