data_PCOD8212608
_publ_section_title
;
Structure prediction by ZEFSAII (Michael W. Deem and Ramdas Pophale) SiO2 
 PCOD8212608
Probable space group: P M M A
;
_chemical_formula_sum "Si O2"
_cell_formula_units_Z 56
_cell_length_a 20.538569
_cell_length_b 13.531289
_cell_length_c 9.784437
_cell_angle_alpha 90.000000
_cell_angle_beta 90.000000
_cell_angle_gamma 90.000000
_cell_volume 2719.225300
_symmetry_space_group_name_H-M "P M M A"
_symmetry_group_IT_number 51
_symmetry_cell_setting 'orthorhombic'
loop_
_space_group_symop_operation_xyz
x,y,z
1/2-x,-y,z
1/2+x,-y,-z
-x,y,-z
-x,-y,-z
1/2+x,y,-z
1/2-x,y,z
x,-y,z
loop_
_atom_site_type_symbol
_atom_site_label
_atom_site_fract_x
_atom_site_fract_y
_atom_site_fract_z
Si Si1 0.677340 0.608407 0.906424
Si Si2 0.924669 0.116194 0.989038
Si Si3 0.867946 0.609396 0.197413
Si Si4 0.994440 0.389138 0.659347
Si Si5 0.323067 0.185532 0.785204
Si Si6 0.825363 0.888356 0.509121
Si Si7 0.612462 0.763114 0.736788
O O1 0.750000 0.618904 0.967638
O O2 0.667732 0.500000 0.839149
O O3 0.627166 0.621689 0.032423
O O4 0.669338 0.692266 0.792383
O O5 0.878489 0.166094 0.102547
O O6 0.917062 0.000000 0.005644
O O7 0.900024 0.147473 0.840366
O O8 0.000000 0.149295 0.000000
O O9 0.838940 0.500000 0.232287
O O10 0.823094 0.697815 0.254607
O O11 0.937874 0.620798 0.264021
O O12 0.965951 0.500000 0.681006
O O13 0.949861 0.306322 0.725451
O O14 0.000000 0.366206 0.500000
O O15 0.250000 0.157100 0.837069
O O16 0.340647 0.123407 0.650932
O O17 0.750000 0.866835 0.540000
O O18 0.868359 0.810566 0.592753
O O19 0.843900 0.000000 0.551220
#
# Coordination Sequence:
#
# PCOD8212608 Si02
#       7
#     8   8   8   8   8   8   8
#     4  10  21  36  56  88 126 159 198 249 307 373
#     4  11  25  42  60  88 125 161 206 264 320 378
#     4  10  20  36  60  90 128 165 201 250 307 369
#     4  10  22  39  60  90 127 169 215 256 304 376
#     4  11  22  41  68  94 123 166 214 262 320 384
#     4  10  23  42  63  90 123 160 210 268 324 386
#     4  12  22  37  64  88 120 161 205 257 316 369
#
# _framework density 20.594100999999998
#
# number of rings (size 3 to 8) (size 9 to 14) (size 15 to 20)
#    0.000    1.429    1.429    3.857    0.000    2.286 
#    0.000    2.857    0.000    6.000    0.000    0.000 
#    0.000    0.000    0.000    0.000    0.000    0.000 
#
# Total GULP energy -694243.151267 kJ/mol
# GULP energy per Si atom -12397.199130 kJ/mol
# Density = 2.054723 g / cm^3
# Si number density = 20.594101 Si / 1000 Ang^3
#
#
#
# Elastic Constant Matrix: (Units=GPa)
#
#
# Indices 1 2 3 4 5 6 
#
# 1 102.0933 38.2385 53.1384 0.0000 0.0000 0.0000
# 2 38.2385 103.5092 34.7599 0.0000 0.0000 0.0000
# 3 53.1384 34.7599 93.5050 0.0000 0.0000 0.0000
# 4 0.0000 0.0000 0.0000 28.9364 0.0000 0.0000
# 5 0.0000 0.0000 0.0000 0.0000 29.2517 0.0000
# 6 0.0000 0.0000 0.0000 0.0000 0.0000 26.9116
#
#
#
# Elastic Compliance Matrix: (Units=1/GPa)
#
#
# Indices 1 2 3 4 5 6 
#
# 1 0.014679 -0.002995 -0.007229 0.000000 0.000000 0.000000
# 2 -0.002995 0.011650 -0.002629 0.000000 0.000000 0.000000
# 3 -0.007229 -0.002629 0.015780 0.000000 0.000000 0.000000
# 4 0.000000 0.000000 0.000000 0.034559 0.000000 0.000000
# 5 0.000000 0.000000 0.000000 0.000000 0.034186 0.000000
# 6 0.000000 0.000000 0.000000 0.000000 0.000000 0.037159
#
#
# Mechanical properties :
#
#
# Convention : Reuss Voigt Hill
#
# Bulk Modulus (GPa) = 60.96072 61.26457 61.11265
# Shear Modulus (GPa) = 27.90395 28.55131 28.22763
#
# Velocity S-wave (km/s) = 3.68496 3.72746 3.70627
# Velocity P-wave (km/s) = 6.91162 6.95258 6.93213
#
# Compressibility (1/GPa) = 0.01640401
#
# Stress axis : x y z
#
# Youngs Moduli (GPa) = 68.12314 85.83493 63.37208
#
# Poissons Ratio (x) = 0.25711 0.45810
# Poissons Ratio (y) = 0.20405 0.16658
# Poissons Ratio (z) = 0.49244 0.22563
#
# Static dielectric constant tensor:
#      x y z
#    x 3.747870 0.000000 0.000000 
#    y 0.000000 4.047400 0.000000 
#    z 0.000000 0.000000 3.594410 
# 
# 
# High freq. dielectric constant tensor:
#      x y z
#    x 1.797200 0.000000 0.000000 
#    y 0.000000 1.828020 0.000000 
#    z 0.000000 0.000000 1.795630 
# 
# From -- ./inp_files/11037.got.cif
#   From: 2010.03.12/outbox.cif.g09.slc.cpg/sg51_6_cif.got.tgz:11037.got - 2010.04.16 13:43:02.
