data_PCOD8212134
_publ_section_title
;
Structure prediction by ZEFSAII (Michael W. Deem and Ramdas Pophale) SiO2 
 PCOD8212134
Probable space group: P M M A
;
_chemical_formula_sum "Si O2"
_cell_formula_units_Z 64
_cell_length_a 19.320090
_cell_length_b 8.990924
_cell_length_c 19.296549
_cell_angle_alpha 90.000000
_cell_angle_beta 90.000000
_cell_angle_gamma 90.000000
_cell_volume 3351.915937
_symmetry_space_group_name_H-M "P M M A"
_symmetry_group_IT_number 51
_symmetry_cell_setting 'orthorhombic'
loop_
_space_group_symop_operation_xyz
x,y,z
1/2-x,-y,z
1/2+x,-y,-z
-x,y,-z
-x,-y,-z
1/2+x,y,-z
1/2-x,y,z
x,-y,z
loop_
_atom_site_type_symbol
_atom_site_label
_atom_site_fract_x
_atom_site_fract_y
_atom_site_fract_z
Si Si1 0.442167 0.171905 0.444883
Si Si2 0.580434 0.674829 0.228893
Si Si3 0.446465 0.826011 0.285430
Si Si4 0.670412 0.672758 0.478550
Si Si5 0.831754 0.167129 0.339880
Si Si6 0.670099 0.676738 0.797680
Si Si7 0.910801 0.676322 0.930419
Si Si8 0.065893 0.325579 0.921815
O O1 0.500000 0.224666 0.500000
O O2 0.464855 0.202172 0.366136
O O3 0.373468 0.269482 0.456674
O O4 0.423705 0.000000 0.456916
O O5 0.572305 0.500000 0.241342
O O6 0.506661 0.749561 0.241714
O O7 0.640234 0.738622 0.276455
O O8 0.604663 0.711985 0.150023
O O9 0.373240 0.753242 0.264188
O O10 0.443721 0.000000 0.268768
O O11 0.750000 0.708455 0.494652
O O12 0.658083 0.500000 0.465284
O O13 0.643354 0.759927 0.411138
O O14 0.750000 0.168408 0.334385
O O15 0.861867 0.000000 0.337101
O O16 0.750000 0.724520 0.790368
O O17 0.661563 0.500000 0.791004
O O18 0.641993 0.737859 0.872195
O O19 0.907283 0.500000 0.924914
O O20 0.987925 0.738747 0.916401
O O21 0.892412 0.731307 0.009552
O O22 0.056847 0.500000 0.931294
#
# Coordination Sequence:
#
# PCOD8212134 Si02
#       8
#     8   8   8   8   8   8   8   8
#     4  10  22  39  57  78 106 141 181 225 273 329
#     4  11  20  33  56  85 113 141 179 232 280 321
#     4  11  23  37  55  80 111 147 186 225 273 339
#     4  10  21  37  58  83 107 135 177 227 276 326
#     4  10  21  37  56  78 109 149 184 215 264 333
#     4  10  20  35  56  80 109 147 191 238 283 328
#     4   8  13  27  49  76 106 137 177 222 273 326
#     4   8  14  25  49  79 107 136 171 223 276 322
#
# _framework density 19.093556
#
# number of rings (size 3 to 8) (size 9 to 14) (size 15 to 20)
#    0.000    2.250    1.250    3.000    0.000    4.500 
#    0.000    3.125    0.000    4.500    0.000    0.000 
#    0.000    0.000    0.000    0.000    0.000    0.000 
#
# Total GULP energy -793340.007310 kJ/mol
# GULP energy per Si atom -12395.937614 kJ/mol
# Density = 1.905010 g / cm^3
# Si number density = 19.093556 Si / 1000 Ang^3
#
#
#
# Elastic Constant Matrix: (Units=GPa)
#
#
# Indices 1 2 3 4 5 6 
#
# 1 50.2301 26.1857 29.1042 0.0000 0.0000 0.0000
# 2 26.1857 65.2555 37.9348 0.0000 0.0000 0.0000
# 3 29.1042 37.9348 106.2642 0.0000 0.0000 0.0000
# 4 0.0000 0.0000 0.0000 10.4877 0.0000 0.0000
# 5 0.0000 0.0000 0.0000 0.0000 32.8949 0.0000
# 6 0.0000 0.0000 0.0000 0.0000 0.0000 27.4573
#
#
#
# Elastic Compliance Matrix: (Units=1/GPa)
#
#
# Indices 1 2 3 4 5 6 
#
# 1 0.026714 -0.008160 -0.004404 0.000000 0.000000 0.000000
# 2 -0.008160 0.021830 -0.005558 0.000000 0.000000 0.000000
# 3 -0.004404 -0.005558 0.012601 0.000000 0.000000 0.000000
# 4 0.000000 0.000000 0.000000 0.095350 0.000000 0.000000
# 5 0.000000 0.000000 0.000000 0.000000 0.030400 0.000000
# 6 0.000000 0.000000 0.000000 0.000000 0.000000 0.036420
#
#
# Mechanical properties :
#
#
# Convention : Reuss Voigt Hill
#
# Bulk Modulus (GPa) = 40.15836 45.35545 42.75690
# Shear Modulus (GPa) = 18.66667 22.73633 20.70150
#
# Velocity S-wave (km/s) = 3.13012 3.45452 3.29631
# Velocity P-wave (km/s) = 5.84308 6.30218 6.07697
#
# Compressibility (1/GPa) = 0.02490142
#
# Stress axis : x y z
#
# Youngs Moduli (GPa) = 37.43403 45.80905 79.36043
#
# Poissons Ratio (x) = 0.37379 0.34947
# Poissons Ratio (y) = 0.30545 0.44109
# Poissons Ratio (z) = 0.16484 0.25461
#
# Static dielectric constant tensor:
#      x y z
#    x 3.345330 0.000000 0.000000 
#    y 0.000000 3.313120 0.000000 
#    z 0.000000 0.000000 3.809270 
# 
# 
# High freq. dielectric constant tensor:
#      x y z
#    x 1.725820 0.000000 0.000000 
#    y 0.000000 1.719120 0.000000 
#    z 0.000000 0.000000 1.757340 
# 
# From -- ./inp_files/30615.got.cif
#   From: 2010.03.12/outbox.cif.g09.slc.cpg/sg51_16_cif.got.tgz:30615.got - 2010.04.16 13:43:02.
