data_PCOD8212687
_publ_section_title
;
Structure prediction by ZEFSAII (Michael W. Deem and Ramdas Pophale) SiO2 
 PCOD8212687
Probable space group: P M M A
;
_chemical_formula_sum "Si O2"
_cell_formula_units_Z 40
_cell_length_a 10.073057
_cell_length_b 9.336051
_cell_length_c 24.447094
_cell_angle_alpha 90.000000
_cell_angle_beta 90.000000
_cell_angle_gamma 90.000000
_cell_volume 2299.067644
_symmetry_space_group_name_H-M "P M M A"
_symmetry_group_IT_number 51
_symmetry_cell_setting 'orthorhombic'
loop_
_space_group_symop_operation_xyz
x,y,z
1/2-x,-y,z
1/2+x,-y,-z
-x,y,-z
-x,-y,-z
1/2+x,y,-z
1/2-x,y,z
x,-y,z
loop_
_atom_site_type_symbol
_atom_site_label
_atom_site_fract_x
_atom_site_fract_y
_atom_site_fract_z
Si Si1 0.098812 0.666572 0.733044
Si Si2 0.407934 0.841069 0.834957
Si Si3 0.488314 0.335111 0.383067
Si Si4 0.750000 0.170854 0.564011
Si Si5 0.101293 0.171086 0.955051
Si Si6 0.750000 0.662691 0.453069
O O1 0.250000 0.716794 0.722415
O O2 0.094787 0.500000 0.745685
O O3 0.035436 0.744096 0.785886
O O4 0.012172 0.704694 0.680084
O O5 0.250000 0.845374 0.832732
O O6 0.448373 0.779134 0.894708
O O7 0.466791 0.000000 0.826859
O O8 0.441364 0.500000 0.389164
O O9 0.379085 0.227593 0.405226
O O10 0.622307 0.309624 0.416311
O O11 0.750000 0.225925 0.502190
O O12 0.750000 0.000000 0.564008
O O13 0.250000 0.228884 0.967431
O O14 0.103126 0.000000 0.956189
O O15 0.000000 0.234219 0.000000
O O16 0.750000 0.500000 0.476098
#
# Coordination Sequence:
#
# PCOD8212687 Si02
#       6
#     8   8   8   4   8   4
#     4   9  16  29  51  77  98 119 160 210 246 285
#     4   8  14  24  40  65  94 123 155 194 242 290
#     4  10  20  37  59  79  99 131 173 210 246 294
#     4  12  26  38  50  76 112 140 163 198 251 308
#     4   8  13  22  38  60  86 118 157 194 229 274
#     4  10  20  38  62  82  98 126 173 216 245 288
#
# _framework density 17.398356
#
# number of rings (size 3 to 8) (size 9 to 14) (size 15 to 20)
#    0.000    2.800    1.000    2.700    0.000    4.000 
#    0.000    0.000    2.200    0.600    0.000    0.000 
#    0.000    0.000    0.000    0.000    0.000    0.000 
#
# Total GULP energy -495829.809435 kJ/mol
# GULP energy per Si atom -12395.745236 kJ/mol
# Density = 1.735876 g / cm^3
# Si number density = 17.398356 Si / 1000 Ang^3
#
#
#
# Elastic Constant Matrix: (Units=GPa)
#
#
# Indices 1 2 3 4 5 6 
#
# 1 79.2356 42.3965 57.1580 0.0000 0.0000 0.0000
# 2 42.3965 74.3527 66.3422 0.0000 0.0000 0.0000
# 3 57.1580 66.3422 170.6060 0.0000 0.0000 0.0000
# 4 0.0000 0.0000 0.0000 25.8899 0.0000 0.0000
# 5 0.0000 0.0000 0.0000 0.0000 17.4097 0.0000
# 6 0.0000 0.0000 0.0000 0.0000 0.0000 15.8626
#
#
#
# Elastic Compliance Matrix: (Units=1/GPa)
#
#
# Indices 1 2 3 4 5 6 
#
# 1 0.019340 -0.008034 -0.003355 0.000000 0.000000 0.000000
# 2 -0.008034 0.023933 -0.006615 0.000000 0.000000 0.000000
# 3 -0.003355 -0.006615 0.009558 0.000000 0.000000 0.000000
# 4 0.000000 0.000000 0.000000 0.038625 0.000000 0.000000
# 5 0.000000 0.000000 0.000000 0.000000 0.057439 0.000000
# 6 0.000000 0.000000 0.000000 0.000000 0.000000 0.063041
#
#
# Mechanical properties :
#
#
# Convention : Reuss Voigt Hill
#
# Bulk Modulus (GPa) = 59.44575 72.88752 66.16663
# Shear Modulus (GPa) = 19.71988 22.38561 21.05274
#
# Velocity S-wave (km/s) = 3.37030 3.59088 3.48234
# Velocity P-wave (km/s) = 7.02758 7.69265 7.36762
#
# Compressibility (1/GPa) = 0.01682206
#
# Stress axis : x y z
#
# Youngs Moduli (GPa) = 51.70724 41.78403 104.62575
#
# Poissons Ratio (x) = 0.33568 0.35105
# Poissons Ratio (y) = 0.41541 0.69209
# Poissons Ratio (z) = 0.17349 0.27640
#
# Static dielectric constant tensor:
#      x y z
#    x 3.060300 0.000000 0.000000 
#    y 0.000000 3.070650 0.000000 
#    z 0.000000 0.000000 3.609620 
# 
# 
# High freq. dielectric constant tensor:
#      x y z
#    x 1.643000 0.000000 0.000000 
#    y 0.000000 1.641540 0.000000 
#    z 0.000000 0.000000 1.690020 
# 
# From -- ./inp_files/36035.got.cif
#   From: 2010.03.12/outbox.cif.g09.slc.cpg/sg51_19_cif.got.tgz:36035.got - 2010.04.16 13:43:02.
