data_PCOD8212740
_publ_section_title
;
Structure prediction by ZEFSAII (Michael W. Deem and Ramdas Pophale) SiO2 
 PCOD8212740
Probable space group: P M M A
;
_chemical_formula_sum "Si O2"
_cell_formula_units_Z 48
_cell_length_a 18.022180
_cell_length_b 13.609447
_cell_length_c 10.005954
_cell_angle_alpha 90.000000
_cell_angle_beta 90.000000
_cell_angle_gamma 90.000000
_cell_volume 2454.179384
_symmetry_space_group_name_H-M "P M M A"
_symmetry_group_IT_number 51
_symmetry_cell_setting 'orthorhombic'
loop_
_space_group_symop_operation_xyz
x,y,z
1/2-x,-y,z
1/2+x,-y,-z
-x,y,-z
-x,-y,-z
1/2+x,y,-z
1/2-x,y,z
x,-y,z
loop_
_atom_site_type_symbol
_atom_site_label
_atom_site_fract_x
_atom_site_fract_y
_atom_site_fract_z
Si Si1 0.671149 0.796022 0.998573
Si Si2 0.015030 0.000000 0.222975
Si Si3 0.163032 0.500000 0.777362
Si Si4 0.445401 0.676202 0.122572
Si Si5 0.020748 0.206176 0.649766
Si Si6 0.667363 0.710335 0.281507
Si Si7 0.116112 0.000000 0.985182
Si Si8 0.158907 0.500000 0.081973
O O1 0.750000 0.780958 0.922578
O O2 0.599682 0.776019 0.908242
O O3 0.670081 0.721365 0.121913
O O4 0.666556 0.907062 0.049628
O O5 0.008114 0.902410 0.313615
O O6 0.953208 0.000000 0.111169
O O7 0.092813 0.000000 0.142517
O O8 0.250000 0.500000 0.793580
O O9 0.139065 0.402275 0.695702
O O10 0.132549 0.500000 0.928371
O O11 0.491243 0.705810 0.254326
O O12 0.382165 0.593813 0.149710
O O13 0.500000 0.647710 0.000000
O O14 0.110556 0.211562 0.655195
O O15 0.000000 0.232518 0.500000
O O16 0.750000 0.727946 0.342315
O O17 0.250000 0.500000 0.104434
#
# Coordination Sequence:
#
# PCOD8212740 Si02
#       8
#     8   4   4   8   8   8   4   4
#     4  11  20  33  58  91 126 157 193 247 308 361
#     4  11  21  38  62  88 120 158 199 248 305 359
#     4   9  16  31  59  90 120 151 196 248 299 357
#     4  12  21  38  61  92 124 157 202 256 306 361
#     4  12  25  42  62  87 120 165 208 247 299 364
#     4  10  20  37  60  90 122 159 202 249 302 358
#     4  11  19  34  62  92 120 152 198 255 306 366
#     4  11  21  35  59  94 126 159 198 252 316 365
#
# _framework density 19.558471999999998
#
# number of rings (size 3 to 8) (size 9 to 14) (size 15 to 20)
#    0.000    1.000    6.667    1.250    0.000    0.667 
#    0.000    3.750    0.000    1.000    0.000    0.000 
#    0.000    0.000    0.000    0.000    0.000    0.000 
#
# Total GULP energy -594788.750192 kJ/mol
# GULP energy per Si atom -12391.432296 kJ/mol
# Density = 1.951396 g / cm^3
# Si number density = 19.558472 Si / 1000 Ang^3
#
#
#
# Elastic Constant Matrix: (Units=GPa)
#
#
# Indices 1 2 3 4 5 6 
#
# 1 114.9084 29.9228 31.7812 0.0000 0.0000 0.0000
# 2 29.9228 97.7294 15.5291 0.0000 0.0000 0.0000
# 3 31.7812 15.5291 80.9538 0.0000 0.0000 0.0000
# 4 0.0000 0.0000 0.0000 12.9663 0.0000 0.0000
# 5 0.0000 0.0000 0.0000 0.0000 14.4369 0.0000
# 6 0.0000 0.0000 0.0000 0.0000 0.0000 38.3404
#
#
#
# Elastic Compliance Matrix: (Units=1/GPa)
#
#
# Indices 1 2 3 4 5 6 
#
# 1 0.010369 -0.002607 -0.003571 0.000000 0.000000 0.000000
# 2 -0.002607 0.011210 -0.001127 0.000000 0.000000 0.000000
# 3 -0.003571 -0.001127 0.013971 0.000000 0.000000 0.000000
# 4 0.000000 0.000000 0.000000 0.077123 0.000000 0.000000
# 5 0.000000 0.000000 0.000000 0.000000 0.069267 0.000000
# 6 0.000000 0.000000 0.000000 0.000000 0.000000 0.026082
#
#
# Mechanical properties :
#
#
# Convention : Reuss Voigt Hill
#
# Bulk Modulus (GPa) = 47.75542 49.78419 48.76981
# Shear Modulus (GPa) = 21.77593 27.57260 24.67426
#
# Velocity S-wave (km/s) = 3.34035 3.75874 3.55570
# Velocity P-wave (km/s) = 6.27272 6.65934 6.46892
#
# Compressibility (1/GPa) = 0.02094003
#
# Stress axis : x y z
#
# Youngs Moduli (GPa) = 96.44015 89.20829 71.57885
#
# Poissons Ratio (x) = 0.23261 0.25558
# Poissons Ratio (y) = 0.25146 0.08065
# Poissons Ratio (z) = 0.34435 0.10051
#
# Static dielectric constant tensor:
#      x y z
#    x 3.807140 0.000000 0.000000 
#    y 0.000000 4.213650 0.000000 
#    z 0.000000 0.000000 3.037630 
# 
# 
# High freq. dielectric constant tensor:
#      x y z
#    x 1.775320 0.000000 0.000000 
#    y 0.000000 1.779270 0.000000 
#    z 0.000000 0.000000 1.694000 
# 
# From -- ./inp_files/9748.got.cif
#   From: 2010.03.12/outbox.cif.g09.slc.cpg/sg51_5_cif.got.tgz:9748.got - 2010.04.16 13:43:02.
