data_PCOD8212342
_publ_section_title
;
Structure prediction by ZEFSAII (Michael W. Deem and Ramdas Pophale) SiO2 
 PCOD8212342
Probable space group: P M M A
;
_chemical_formula_sum "Si O2"
_cell_formula_units_Z 48
_cell_length_a 32.615881
_cell_length_b 7.462077
_cell_length_c 9.717997
_cell_angle_alpha 90.000000
_cell_angle_beta 90.000000
_cell_angle_gamma 90.000000
_cell_volume 2365.187640
_symmetry_space_group_name_H-M "P M M A"
_symmetry_group_IT_number 51
_symmetry_cell_setting 'orthorhombic'
loop_
_space_group_symop_operation_xyz
x,y,z
1/2-x,-y,z
1/2+x,-y,-z
-x,y,-z
-x,-y,-z
1/2+x,y,-z
1/2-x,y,z
x,-y,z
loop_
_atom_site_type_symbol
_atom_site_label
_atom_site_fract_x
_atom_site_fract_y
_atom_site_fract_z
Si Si1 0.151619 0.198713 0.667025
Si Si2 0.575183 0.199709 0.136222
Si Si3 0.040573 0.500000 0.406934
Si Si4 0.795933 0.785144 0.090635
Si Si5 0.391076 0.215356 0.402883
Si Si6 0.512735 0.500000 0.155311
Si Si7 0.867070 0.212122 0.899686
O O1 0.108759 0.196644 0.745586
O O2 0.185701 0.293942 0.764543
O O3 0.142622 0.281825 0.516225
O O4 0.168002 0.000000 0.640265
O O5 0.538617 0.322922 0.188330
O O6 0.557650 0.000000 0.111922
O O7 0.595157 0.277588 0.995108
O O8 0.066756 0.680327 0.433879
O O9 0.000000 0.500000 0.500000
O O10 0.027505 0.500000 0.248040
O O11 0.750000 0.711517 0.070101
O O12 0.797105 0.000000 0.095978
O O13 0.824036 0.716035 0.963521
O O14 0.373119 0.278921 0.255826
O O15 0.398963 0.000000 0.410386
O O16 0.500000 0.500000 0.000000
O O17 0.866250 0.000000 0.905978
#
# Coordination Sequence:
#
# PCOD8212342 Si02
#       7
#     8   8   4   8   8   4   8
#     4   8  15  29  50  71  95 134 172 198 238 294
#     4   9  18  34  51  68  95 130 166 203 245 298
#     4  12  26  38  52  78 103 129 168 211 267 314
#     4   8  13  24  46  79 112 134 163 211 252 287
#     4  10  20  36  54  73 101 135 173 211 245 299
#     4  12  24  34  50  76  97 121 164 209 255 306
#     4   8  15  29  50  73 100 138 174 203 249 305
#
# _framework density 20.294374000000001
#
# number of rings (size 3 to 8) (size 9 to 14) (size 15 to 20)
#    0.000    2.833    0.000    4.000    0.000    1.333 
#    0.000    0.833    0.000    5.000    0.000   22.167 
#    0.000    0.000    0.000    0.000    0.000    0.000 
#
# Total GULP energy -594704.226209 kJ/mol
# GULP energy per Si atom -12389.671379 kJ/mol
# Density = 2.024818 g / cm^3
# Si number density = 20.294374 Si / 1000 Ang^3
#
#
#
# Elastic Constant Matrix: (Units=GPa)
#
#
# Indices 1 2 3 4 5 6 
#
# 1 103.5360 30.2099 40.9758 0.0000 0.0000 0.0000
# 2 30.2099 65.5324 11.7757 0.0000 0.0000 0.0000
# 3 40.9758 11.7757 142.9006 0.0000 0.0000 0.0000
# 4 0.0000 0.0000 0.0000 8.8187 0.0000 0.0000
# 5 0.0000 0.0000 0.0000 0.0000 27.4486 0.0000
# 6 0.0000 0.0000 0.0000 0.0000 0.0000 36.1226
#
#
#
# Elastic Compliance Matrix: (Units=1/GPa)
#
#
# Indices 1 2 3 4 5 6 
#
# 1 0.012402 -0.005154 -0.003131 0.000000 0.000000 0.000000
# 2 -0.005154 0.017631 0.000025 0.000000 0.000000 0.000000
# 3 -0.003131 0.000025 0.007894 0.000000 0.000000 0.000000
# 4 0.000000 0.000000 0.000000 0.113395 0.000000 0.000000
# 5 0.000000 0.000000 0.000000 0.000000 0.036432 0.000000
# 6 0.000000 0.000000 0.000000 0.000000 0.000000 0.027683
#
#
# Mechanical properties :
#
#
# Convention : Reuss Voigt Hill
#
# Bulk Modulus (GPa) = 46.71739 53.09912 49.90825
# Shear Modulus (GPa) = 20.91232 29.74517 25.32875
#
# Velocity S-wave (km/s) = 3.21354 3.83258 3.53663
# Velocity P-wave (km/s) = 6.06951 6.76802 6.42826
#
# Compressibility (1/GPa) = 0.02140530
#
# Stress axis : x y z
#
# Youngs Moduli (GPa) = 80.63403 56.71749 126.68325
#
# Poissons Ratio (x) = 0.29234 0.39669
# Poissons Ratio (y) = 0.41562 -0.00318
# Poissons Ratio (z) = 0.25249 -0.00142
#
# Static dielectric constant tensor:
#      x y z
#    x 3.795260 0.000000 0.000000 
#    y 0.000000 3.312290 0.000000 
#    z 0.000000 0.000000 4.056230 
# 
# 
# High freq. dielectric constant tensor:
#      x y z
#    x 1.769380 0.000000 0.000000 
#    y 0.000000 1.773500 0.000000 
#    z 0.000000 0.000000 1.801460 
# 
# From -- ./inp_files/12881.got.cif
#   From: 2010.03.12/outbox.cif.g09.slc.cpg/sg51_7_cif.got.tgz:12881.got - 2010.04.16 13:43:02.
