data_PCOD8212741
_publ_section_title
;
Structure prediction by ZEFSAII (Michael W. Deem and Ramdas Pophale) SiO2 
 PCOD8212741
Probable space group: P M M A
;
_chemical_formula_sum "Si O2"
_cell_formula_units_Z 56
_cell_length_a 16.775296
_cell_length_b 8.999693
_cell_length_c 19.634427
_cell_angle_alpha 90.000000
_cell_angle_beta 90.000000
_cell_angle_gamma 90.000000
_cell_volume 2964.258805
_symmetry_space_group_name_H-M "P M M A"
_symmetry_group_IT_number 51
_symmetry_cell_setting 'orthorhombic'
loop_
_space_group_symop_operation_xyz
x,y,z
1/2-x,-y,z
1/2+x,-y,-z
-x,y,-z
-x,-y,-z
1/2+x,y,-z
1/2-x,y,z
x,-y,z
loop_
_atom_site_type_symbol
_atom_site_label
_atom_site_fract_x
_atom_site_fract_y
_atom_site_fract_z
Si Si1 0.567939 0.675762 0.646798
Si Si2 0.901926 0.174133 0.376097
Si Si3 0.570500 0.324268 0.911543
Si Si4 0.106771 0.324272 0.938654
Si Si5 0.339798 0.322903 0.219929
Si Si6 0.750000 0.176317 0.293823
Si Si7 0.750000 0.824056 0.138809
Si Si8 0.342913 0.171287 0.474426
O O1 0.561348 0.500000 0.645899
O O2 0.480189 0.742013 0.647927
O O3 0.612970 0.733788 0.714067
O O4 0.618168 0.725580 0.581903
O O5 0.828664 0.237287 0.331549
O O6 0.885875 0.208289 0.454916
O O7 0.914198 0.000000 0.363860
O O8 0.571233 0.500000 0.907714
O O9 0.478724 0.272467 0.909581
O O10 0.617923 0.256000 0.847530
O O11 0.612680 0.276413 0.982027
O O12 0.120180 0.500000 0.930198
O O13 0.171993 0.236304 0.897204
O O14 0.250000 0.260546 0.223242
O O15 0.339134 0.500000 0.217168
O O16 0.750000 0.232665 0.216461
O O17 0.750000 0.000000 0.299685
O O18 0.750000 0.000000 0.135228
O O19 0.250000 0.208657 0.481431
O O20 0.356323 0.000000 0.454304
#
# Coordination Sequence:
#
# PCOD8212741 Si02
#       8
#     8   8   8   8   8   4   4   8
#     4  11  23  35  52  83 119 148 174 217 281 339
#     4  10  20  39  62  80 101 140 192 234 266 316
#     4   8  16  32  55  82 108 136 182 232 271 311
#     4   9  18  34  57  84 108 139 184 232 269 314
#     4   9  18  32  51  77 110 145 177 216 268 322
#     4   9  20  39  59  79 106 143 186 228 275 329
#     4  11  23  35  53  83 118 149 176 216 281 343
#     4  10  20  37  61  83 104 139 188 234 267 310
#
# _framework density 18.891739000000001
#
# number of rings (size 3 to 8) (size 9 to 14) (size 15 to 20)
#    0.000    2.429    0.714    2.357    3.000    3.143 
#    0.000    2.500    0.000    1.714    0.000    0.000 
#    0.000    0.000    0.000    0.000    0.000    0.000 
#
# Total GULP energy -694424.078371 kJ/mol
# GULP energy per Si atom -12400.429971 kJ/mol
# Density = 1.884874 g / cm^3
# Si number density = 18.891739 Si / 1000 Ang^3
#
#
#
# Elastic Constant Matrix: (Units=GPa)
#
#
# Indices 1 2 3 4 5 6 
#
# 1 150.9970 38.3468 95.5562 0.0000 0.0000 0.0000
# 2 38.3468 39.6998 43.4845 0.0000 0.0000 0.0000
# 3 95.5562 43.4845 165.4203 0.0000 0.0000 0.0000
# 4 0.0000 0.0000 0.0000 21.6971 0.0000 0.0000
# 5 0.0000 0.0000 0.0000 0.0000 35.9430 0.0000
# 6 0.0000 0.0000 0.0000 0.0000 0.0000 27.3944
#
#
#
# Elastic Compliance Matrix: (Units=1/GPa)
#
#
# Indices 1 2 3 4 5 6 
#
# 1 0.011160 -0.005222 -0.005074 0.000000 0.000000 0.000000
# 2 -0.005222 0.037818 -0.006925 0.000000 0.000000 0.000000
# 3 -0.005074 -0.006925 0.010796 0.000000 0.000000 0.000000
# 4 0.000000 0.000000 0.000000 0.046089 0.000000 0.000000
# 5 0.000000 0.000000 0.000000 0.000000 0.027822 0.000000
# 6 0.000000 0.000000 0.000000 0.000000 0.000000 0.036504
#
#
# Mechanical properties :
#
#
# Convention : Reuss Voigt Hill
#
# Bulk Modulus (GPa) = 39.47407 78.98801 59.23104
# Shear Modulus (GPa) = 23.46601 28.92220 26.19411
#
# Velocity S-wave (km/s) = 3.52821 3.91697 3.72766
# Velocity P-wave (km/s) = 6.12682 7.89674 7.06741
#
# Compressibility (1/GPa) = 0.02533309
#
# Stress axis : x y z
#
# Youngs Moduli (GPa) = 89.60877 26.44248 92.62292
#
# Poissons Ratio (x) = 0.13808 0.46995
# Poissons Ratio (y) = 0.46792 0.64140
# Poissons Ratio (z) = 0.45465 0.18311
#
# Static dielectric constant tensor:
#      x y z
#    x 3.677010 0.000000 0.000000 
#    y 0.000000 3.053030 0.000000 
#    z 0.000000 0.000000 3.786700 
# 
# 
# High freq. dielectric constant tensor:
#      x y z
#    x 1.751100 0.000000 0.000000 
#    y 0.000000 1.691420 0.000000 
#    z 0.000000 0.000000 1.748670 
# 
# From -- ./inp_files/33584.got.cif
#   From: 2010.03.12/outbox.cif.g09.slc.cpg/sg51_17_cif.got.tgz:33584.got - 2010.04.16 13:43:02.
