data_PCOD8212514
_publ_section_title
;
Structure prediction by ZEFSAII (Michael W. Deem and Ramdas Pophale) SiO2 
 PCOD8212514
Probable space group: P M M A
;
_chemical_formula_sum "Si O2"
_cell_formula_units_Z 48
_cell_length_a 9.152678
_cell_length_b 29.028500
_cell_length_c 9.042265
_cell_angle_alpha 90.000000
_cell_angle_beta 90.000000
_cell_angle_gamma 90.000000
_cell_volume 2402.425945
_symmetry_space_group_name_H-M "P M M A"
_symmetry_group_IT_number 51
_symmetry_cell_setting 'orthorhombic'
loop_
_space_group_symop_operation_xyz
x,y,z
1/2-x,-y,z
1/2+x,-y,-z
-x,y,-z
-x,-y,-z
1/2+x,y,-z
1/2-x,y,z
x,-y,z
loop_
_atom_site_type_symbol
_atom_site_label
_atom_site_fract_x
_atom_site_fract_y
_atom_site_fract_z
Si Si1 0.987933 0.398621 0.824797
Si Si2 0.419177 0.051029 0.350844
Si Si3 0.427864 0.228194 0.838793
Si Si4 0.750000 0.448511 0.670153
Si Si5 0.575467 0.863065 0.845048
Si Si6 0.250000 0.556148 0.661508
Si Si7 0.078482 0.307060 0.345861
O O1 0.127859 0.417285 0.747409
O O2 0.881791 0.438983 0.777660
O O3 0.929944 0.350594 0.761638
O O4 0.000000 0.393737 0.000000
O O5 0.500000 0.062819 0.500000
O O6 0.250000 0.053304 0.387544
O O7 0.464438 0.089938 0.236387
O O8 0.462326 0.000000 0.290357
O O9 0.250000 0.227785 0.848548
O O10 0.492981 0.180574 0.770880
O O11 0.483578 0.266986 0.728295
O O12 0.500000 0.236260 0.000000
O O13 0.750000 0.500000 0.616923
O O14 0.750000 0.424507 0.507869
O O15 0.750000 0.854186 0.856498
O O16 0.500000 0.870093 0.000000
O O17 0.250000 0.500000 0.678314
O O18 0.250000 0.293625 0.366924
O O19 0.000000 0.318734 0.500000
#
# Coordination Sequence:
#
# PCOD8212514 Si02
#       7
#     8   8   8   4   8   4   8
#     4  12  26  42  67  97 131 169 213 265 319 381
#     4   9  19  35  55  81 115 157 204 256 312 372
#     4  11  23  41  66  93 126 165 208 260 317 380
#     4  11  23  45  67  95 131 171 215 261 318 377
#     4  10  20  36  58  86 122 161 205 259 314 376
#     4  11  25  43  69  97 131 175 215 261 318 383
#     4  12  26  45  68  95 127 165 212 264 323 389
#
# _framework density 19.979804999999999
#
# number of rings (size 3 to 8) (size 9 to 14) (size 15 to 20)
#    0.000    1.167    0.833    6.500    2.333    5.667 
#    0.000    1.667    0.000    0.000    0.000    0.000 
#    0.000    0.000    0.000    0.000    0.000    0.000 
#
# Total GULP energy -594634.582540 kJ/mol
# GULP energy per Si atom -12388.220470 kJ/mol
# Density = 1.993433 g / cm^3
# Si number density = 19.979805 Si / 1000 Ang^3
#
#
#
# Elastic Constant Matrix: (Units=GPa)
#
#
# Indices 1 2 3 4 5 6 
#
# 1 145.7526 40.5987 42.5583 0.0000 0.0000 0.0000
# 2 40.5987 97.5703 43.6303 0.0000 0.0000 0.0000
# 3 42.5583 43.6303 116.7727 0.0000 0.0000 0.0000
# 4 0.0000 0.0000 0.0000 91.1668 0.0000 0.0000
# 5 0.0000 0.0000 0.0000 0.0000 40.1645 0.0000
# 6 0.0000 0.0000 0.0000 0.0000 0.0000 19.5391
#
#
#
# Elastic Compliance Matrix: (Units=1/GPa)
#
#
# Indices 1 2 3 4 5 6 
#
# 1 0.008148 -0.002476 -0.002044 0.000000 0.000000 0.000000
# 2 -0.002476 0.013057 -0.003976 0.000000 0.000000 0.000000
# 3 -0.002044 -0.003976 0.010794 0.000000 0.000000 0.000000
# 4 0.000000 0.000000 0.000000 0.010969 0.000000 0.000000
# 5 0.000000 0.000000 0.000000 0.000000 0.024898 0.000000
# 6 0.000000 0.000000 0.000000 0.000000 0.000000 0.051179
#
#
# Mechanical properties :
#
#
# Convention : Reuss Voigt Hill
#
# Bulk Modulus (GPa) = 66.63961 68.18558 67.41259
# Shear Modulus (GPa) = 35.45085 45.72797 40.58941
#
# Velocity S-wave (km/s) = 4.21685 4.78924 4.51213
# Velocity P-wave (km/s) = 7.55877 8.04883 7.80765
#
# Compressibility (1/GPa) = 0.01500609
#
# Stress axis : x y z
#
# Youngs Moduli (GPa) = 122.73651 76.58515 92.64095
#
# Poissons Ratio (x) = 0.18963 0.18938
# Poissons Ratio (y) = 0.30390 0.36837
# Poissons Ratio (z) = 0.25091 0.30452
#
# Static dielectric constant tensor:
#      x y z
#    x 3.751920 0.000000 0.000000 
#    y 0.000000 4.188450 0.000000 
#    z 0.000000 0.000000 3.635170 
# 
# 
# High freq. dielectric constant tensor:
#      x y z
#    x 1.801010 0.000000 0.000000 
#    y 0.000000 1.794850 0.000000 
#    z 0.000000 0.000000 1.778130 
# 
# From -- ./inp_files/6265.got.cif
#   From: 2010.03.12/outbox.cif.g09.slc.cpg/sg51_4_cif.got.tgz:6265.got - 2010.04.16 13:43:02.
