data_PCOD8212667
_publ_section_title
;
Structure prediction by ZEFSAII (Michael W. Deem and Ramdas Pophale) SiO2 
 PCOD8212667
Probable space group: P M M A
;
_chemical_formula_sum "Si O2"
_cell_formula_units_Z 44
_cell_length_a 8.540742
_cell_length_b 28.585401
_cell_length_c 9.456605
_cell_angle_alpha 90.000000
_cell_angle_beta 90.000000
_cell_angle_gamma 90.000000
_cell_volume 2308.740603
_symmetry_space_group_name_H-M "P M M A"
_symmetry_group_IT_number 51
_symmetry_cell_setting 'orthorhombic'
loop_
_space_group_symop_operation_xyz
x,y,z
1/2-x,-y,z
1/2+x,-y,-z
-x,y,-z
-x,-y,-z
1/2+x,y,-z
1/2-x,y,z
x,-y,z
loop_
_atom_site_type_symbol
_atom_site_label
_atom_site_fract_x
_atom_site_fract_y
_atom_site_fract_z
Si Si1 0.565372 0.769199 0.148874
Si Si2 0.064154 0.663168 0.846664
Si Si3 0.435580 0.500000 0.841658
Si Si4 0.565205 0.950594 0.343831
Si Si5 0.435353 0.415814 0.342287
Si Si6 0.435553 0.149862 0.655537
O O1 0.750000 0.771965 0.144320
O O2 0.512932 0.716459 0.186103
O O3 0.493403 0.806631 0.258037
O O4 0.500000 0.785064 0.000000
O O5 0.250000 0.655927 0.844744
O O6 0.984681 0.633987 0.721578
O O7 0.000000 0.647307 0.000000
O O8 0.250000 0.500000 0.848159
O O9 0.493355 0.454666 0.759436
O O10 0.500000 0.500000 0.000000
O O11 0.500000 0.951133 0.500000
O O12 0.750000 0.950467 0.354058
O O13 0.512522 0.900763 0.274568
O O14 0.510824 0.000000 0.267445
O O15 0.500000 0.421633 0.500000
O O16 0.250000 0.420910 0.346733
O O17 0.500000 0.154529 0.500000
O O18 0.250000 0.153668 0.651229
#
# Coordination Sequence:
#
# PCOD8212667 Si02
#       6
#     8   8   4   8   8   8
#     4   9  19  34  52  73 100 134 173 213 255 307
#     4  10  20  37  58  81 107 140 181 223 266 317
#     4  12  25  44  67  92 120 154 192 228 265 312
#     4   8  13  22  38  60  87 119 155 197 247 301
#     4  12  25  42  62  88 119 151 184 224 272 318
#     4   9  17  29  45  69  97 125 161 207 256 307
#
# _framework density 19.058009999999999
#
# number of rings (size 3 to 8) (size 9 to 14) (size 15 to 20)
#    0.000    2.182    0.000    3.818    0.000    2.182 
#    0.000    1.818    0.000    0.545    0.000    0.000 
#    0.000    0.000    0.000    0.000    0.000    0.000 
#
# Total GULP energy -545132.646167 kJ/mol
# GULP energy per Si atom -12389.378322 kJ/mol
# Density = 1.901463 g / cm^3
# Si number density = 19.058010 Si / 1000 Ang^3
#
#
#
# Elastic Constant Matrix: (Units=GPa)
#
#
# Indices 1 2 3 4 5 6 
#
# 1 73.2155 37.3970 38.6110 0.0000 0.0000 0.0000
# 2 37.3970 160.9374 86.4098 0.0000 0.0000 0.0000
# 3 38.6110 86.4098 120.9653 0.0000 0.0000 0.0000
# 4 0.0000 0.0000 0.0000 21.4725 0.0000 0.0000
# 5 0.0000 0.0000 0.0000 0.0000 29.0104 0.0000
# 6 0.0000 0.0000 0.0000 0.0000 0.0000 22.7752
#
#
#
# Elastic Compliance Matrix: (Units=1/GPa)
#
#
# Indices 1 2 3 4 5 6 
#
# 1 0.016689 -0.001651 -0.004147 0.000000 0.000000 0.000000
# 2 -0.001651 0.010243 -0.006790 0.000000 0.000000 0.000000
# 3 -0.004147 -0.006790 0.014441 0.000000 0.000000 0.000000
# 4 0.000000 0.000000 0.000000 0.046571 0.000000 0.000000
# 5 0.000000 0.000000 0.000000 0.000000 0.034470 0.000000
# 6 0.000000 0.000000 0.000000 0.000000 0.000000 0.043907
#
#
# Mechanical properties :
#
#
# Convention : Reuss Voigt Hill
#
# Bulk Modulus (GPa) = 61.74450 75.55042 68.64746
# Shear Modulus (GPa) = 25.39398 27.49830 26.44614
#
# Velocity S-wave (km/s) = 3.65424 3.80264 3.72918
# Velocity P-wave (km/s) = 7.09036 7.68170 7.39194
#
# Compressibility (1/GPa) = 0.01619577
#
# Stress axis : x y z
#
# Youngs Moduli (GPa) = 59.92002 97.62947 69.24801
#
# Poissons Ratio (x) = 0.16120 0.28720
# Poissons Ratio (y) = 0.09894 0.47018
# Poissons Ratio (z) = 0.24852 0.66288
#
# Static dielectric constant tensor:
#      x y z
#    x 3.491370 0.000000 0.000000 
#    y 0.000000 4.450760 0.000000 
#    z 0.000000 0.000000 3.428640 
# 
# 
# High freq. dielectric constant tensor:
#      x y z
#    x 1.741920 0.000000 0.000000 
#    y 0.000000 1.772960 0.000000 
#    z 0.000000 0.000000 1.710230 
# 
# From -- ./inp_files/5851.got.cif
#   From: 2010.03.12/outbox.cif.g09.slc.cpg/sg51_3_cif.got.tgz:5851.got - 2010.04.16 13:43:02.
