data_PCOD8212478
_publ_section_title
;
Structure prediction by ZEFSAII (Michael W. Deem and Ramdas Pophale) SiO2 
 PCOD8212478
Probable space group: P M M A
;
_chemical_formula_sum "Si O2"
_cell_formula_units_Z 64
_cell_length_a 8.899457
_cell_length_b 23.266791
_cell_length_c 15.508019
_cell_angle_alpha 90.000000
_cell_angle_beta 90.000000
_cell_angle_gamma 90.000000
_cell_volume 3211.118422
_symmetry_space_group_name_H-M "P M M A"
_symmetry_group_IT_number 51
_symmetry_cell_setting 'orthorhombic'
loop_
_space_group_symop_operation_xyz
x,y,z
1/2-x,-y,z
1/2+x,-y,-z
-x,y,-z
-x,-y,-z
1/2+x,y,-z
1/2-x,y,z
x,-y,z
loop_
_atom_site_type_symbol
_atom_site_label
_atom_site_fract_x
_atom_site_fract_y
_atom_site_fract_z
Si Si1 0.426470 0.433755 0.589605
Si Si2 0.424787 0.376072 0.248949
Si Si3 0.572769 0.180494 0.586680
Si Si4 0.924603 0.064891 0.853901
Si Si5 0.423881 0.757963 0.239958
Si Si6 0.071714 0.062162 0.342999
Si Si7 0.920417 0.568225 0.086505
Si Si8 0.573333 0.175172 0.085877
O O1 0.500000 0.414085 0.500000
O O2 0.250000 0.423706 0.582984
O O3 0.465632 0.500000 0.609749
O O4 0.491697 0.394605 0.664678
O O5 0.250000 0.390599 0.258891
O O6 0.453805 0.309286 0.233503
O O7 0.489114 0.410260 0.168419
O O8 0.500000 0.205734 0.500000
O O9 0.750000 0.180970 0.575458
O O10 0.523377 0.220354 0.666189
O O11 0.510053 0.115372 0.601055
O O12 0.750000 0.081693 0.863180
O O13 0.978596 0.070953 0.755355
O O14 0.023870 0.108586 0.909115
O O15 0.953032 0.000000 0.886928
O O16 0.250000 0.773917 0.224948
O O17 0.521101 0.789316 0.168344
O O18 0.250000 0.061671 0.345445
O O19 0.010549 0.000000 0.377188
O O20 0.750000 0.591693 0.089029
O O21 0.921802 0.500000 0.088227
O O22 0.000000 0.591550 0.000000
O O23 0.750000 0.179432 0.077584
O O24 0.500000 0.202541 0.000000
#
# Coordination Sequence:
#
# PCOD8212478 Si02
#       8
#     8   8   8   8   8   8   8   8
#     4  10  21  38  61  90 125 162 200 245 295 350
#     4  11  23  38  61  89 118 156 200 247 298 353
#     4  10  20  36  58  81 112 148 188 236 284 343
#     4   9  17  34  61  87 114 150 189 233 290 353
#     4  10  23  44  62  81 114 155 200 247 293 342
#     4   8  14  28  54  82 108 144 183 223 280 342
#     4  10  21  38  61  90 124 159 194 235 286 345
#     4  12  25  40  62  87 115 151 193 243 297 353
#
# _framework density 19.930748999999999
#
# number of rings (size 3 to 8) (size 9 to 14) (size 15 to 20)
#    0.000    2.000    1.250    3.375    0.000    6.250 
#    0.000    1.250    0.000    0.000    0.000    0.000 
#    0.000    0.000    0.000    0.000    0.000    0.000 
#
# Total GULP energy -793671.273101 kJ/mol
# GULP energy per Si atom -12401.113642 kJ/mol
# Density = 1.988539 g / cm^3
# Si number density = 19.930749 Si / 1000 Ang^3
#
#
#
# Elastic Constant Matrix: (Units=GPa)
#
#
# Indices 1 2 3 4 5 6 
#
# 1 97.7237 36.2926 56.5915 0.0000 0.0000 0.0000
# 2 36.2926 41.1402 24.6487 0.0000 0.0000 0.0000
# 3 56.5915 24.6487 129.9828 0.0000 0.0000 0.0000
# 4 0.0000 0.0000 0.0000 6.4232 0.0000 0.0000
# 5 0.0000 0.0000 0.0000 0.0000 37.2029 0.0000
# 6 0.0000 0.0000 0.0000 0.0000 0.0000 10.9298
#
#
#
# Elastic Compliance Matrix: (Units=1/GPa)
#
#
# Indices 1 2 3 4 5 6 
#
# 1 0.018127 -0.012706 -0.005482 0.000000 0.000000 0.000000
# 2 -0.012706 0.036329 -0.001357 0.000000 0.000000 0.000000
# 3 -0.005482 -0.001357 0.010338 0.000000 0.000000 0.000000
# 4 0.000000 0.000000 0.000000 0.155685 0.000000 0.000000
# 5 0.000000 0.000000 0.000000 0.000000 0.026880 0.000000
# 6 0.000000 0.000000 0.000000 0.000000 0.000000 0.091493
#
#
# Mechanical properties :
#
#
# Convention : Reuss Voigt Hill
#
# Bulk Modulus (GPa) = 38.90746 55.99026 47.44886
# Shear Modulus (GPa) = 12.93628 20.99876 16.96752
#
# Velocity S-wave (km/s) = 2.55043 3.24942 2.92091
# Velocity P-wave (km/s) = 5.31382 6.49859 5.93584
#
# Compressibility (1/GPa) = 0.02570201
#
# Stress axis : x y z
#
# Youngs Moduli (GPa) = 55.16777 27.52621 96.73395
#
# Poissons Ratio (x) = 0.34975 0.53034
# Poissons Ratio (y) = 0.70096 0.13129
# Poissons Ratio (z) = 0.30245 0.03736
#
# Static dielectric constant tensor:
#      x y z
#    x 3.420890 0.000000 0.000000 
#    y 0.000000 3.747490 0.000000 
#    z 0.000000 0.000000 3.567920 
# 
# 
# High freq. dielectric constant tensor:
#      x y z
#    x 1.764460 0.000000 0.000000 
#    y 0.000000 1.775950 0.000000 
#    z 0.000000 0.000000 1.785940 
# 
# From -- ./inp_files/22357.got.cif
#   From: 2010.03.12/outbox.cif.g09.slc.cpg/sg51_12_cif.got.tgz:22357.got - 2010.04.16 13:43:02.
