data_PCOD8212859
_publ_section_title
;
Structure prediction by ZEFSAII (Michael W. Deem and Ramdas Pophale) SiO2 
 PCOD8212859
Probable space group: P M M A
;
_chemical_formula_sum "Si O2"
_cell_formula_units_Z 40
_cell_length_a 16.254744
_cell_length_b 8.869996
_cell_length_c 13.228770
_cell_angle_alpha 90.000000
_cell_angle_beta 90.000000
_cell_angle_gamma 90.000000
_cell_volume 1907.317633
_symmetry_space_group_name_H-M "P M M A"
_symmetry_group_IT_number 51
_symmetry_cell_setting 'orthorhombic'
loop_
_space_group_symop_operation_xyz
x,y,z
1/2-x,-y,z
1/2+x,-y,-z
-x,y,-z
-x,-y,-z
1/2+x,y,-z
1/2-x,y,z
x,-y,z
loop_
_atom_site_type_symbol
_atom_site_label
_atom_site_fract_x
_atom_site_fract_y
_atom_site_fract_z
Si Si1 0.109691 0.177882 0.568577
Si Si2 0.005959 0.326729 0.719905
Si Si3 0.250000 0.172818 0.898974
Si Si4 0.433152 0.174703 0.921060
Si Si5 0.250000 0.676023 0.694162
Si Si6 0.341093 0.671272 0.364903
O O1 0.171566 0.241607 0.650813
O O2 0.137484 0.220950 0.457375
O O3 0.024807 0.250025 0.609961
O O4 0.102639 0.000000 0.574601
O O5 0.034031 0.500000 0.717790
O O6 0.906416 0.309198 0.726831
O O7 0.052174 0.250981 0.813054
O O8 0.337452 0.198837 0.958615
O O9 0.250000 0.298322 0.813131
O O10 0.250000 0.000000 0.857638
O O11 0.452390 0.000000 0.905930
O O12 0.500000 0.243180 0.000000
O O13 0.250000 0.500000 0.667447
O O14 0.250000 0.711362 0.323383
O O15 0.344052 0.500000 0.405828
#
# Coordination Sequence:
#
# PCOD8212859 Si02
#       6
#     8   8   4   8   4   8
#     4  12  23  36  58  89 122 158 200 249 301 353
#     4  11  23  39  61  88 119 158 203 251 304 359
#     4  10  20  38  64  89 118 157 198 243 302 366
#     4  10  22  41  64  90 121 157 198 249 308 365
#     4  12  22  34  58  89 120 157 200 247 296 348
#     4  10  22  40  59  81 118 166 208 245 294 357
#
# _framework density 20.971861000000001
#
# number of rings (size 3 to 8) (size 9 to 14) (size 15 to 20)
#    0.000    1.200    3.000    3.900    0.000    4.400 
#    1.800    0.000    0.000    0.000    0.000    0.000 
#    0.000    0.000    0.000    0.000    0.000    0.000 
#
# Total GULP energy -495669.397447 kJ/mol
# GULP energy per Si atom -12391.734936 kJ/mol
# Density = 2.092413 g / cm^3
# Si number density = 20.971861 Si / 1000 Ang^3
#
#
#
# Elastic Constant Matrix: (Units=GPa)
#
#
# Indices 1 2 3 4 5 6 
#
# 1 166.3456 34.2247 30.6774 0.0000 0.0000 0.0000
# 2 34.2247 95.4472 15.5012 0.0000 0.0000 0.0000
# 3 30.6774 15.5012 39.8421 0.0000 0.0000 0.0000
# 4 0.0000 0.0000 0.0000 19.8397 0.0000 0.0000
# 5 0.0000 0.0000 0.0000 0.0000 43.4710 0.0000
# 6 0.0000 0.0000 0.0000 0.0000 0.0000 28.1308
#
#
#
# Elastic Compliance Matrix: (Units=1/GPa)
#
#
# Indices 1 2 3 4 5 6 
#
# 1 0.007290 -0.001817 -0.004906 0.000000 0.000000 0.000000
# 2 -0.001817 0.011637 -0.003128 0.000000 0.000000 0.000000
# 3 -0.004906 -0.003128 0.030094 0.000000 0.000000 0.000000
# 4 0.000000 0.000000 0.000000 0.050404 0.000000 0.000000
# 5 0.000000 0.000000 0.000000 0.000000 0.023004 0.000000
# 6 0.000000 0.000000 0.000000 0.000000 0.000000 0.035548
#
#
# Mechanical properties :
#
#
# Convention : Reuss Voigt Hill
#
# Bulk Modulus (GPa) = 34.10951 51.38240 42.74596
# Shear Modulus (GPa) = 26.67337 33.03707 29.85522
#
# Velocity S-wave (km/s) = 3.57019 3.97332 3.77714
# Velocity P-wave (km/s) = 5.77016 6.75304 6.28085
#
# Compressibility (1/GPa) = 0.02931733
#
# Stress axis : x y z
#
# Youngs Moduli (GPa) = 137.16864 85.93537 33.22931
#
# Poissons Ratio (x) = 0.15617 0.16303
# Poissons Ratio (y) = 0.24927 0.10395
# Poissons Ratio (z) = 0.67299 0.26882
#
# Static dielectric constant tensor:
#      x y z
#    x 4.523050 0.000000 0.000000 
#    y 0.000000 3.737990 0.000000 
#    z 0.000000 0.000000 3.401870 
# 
# 
# High freq. dielectric constant tensor:
#      x y z
#    x 1.856500 0.000000 0.000000 
#    y 0.000000 1.819960 0.000000 
#    z 0.000000 0.000000 1.776180 
# 
# From -- ./inp_files/23747.got.cif
#   From: 2010.03.12/outbox.cif.g09.slc.cpg/sg51_12_cif.got.tgz:23747.got - 2010.04.16 13:43:02.
