data_PCOD8212605
_publ_section_title
;
Structure prediction by ZEFSAII (Michael W. Deem and Ramdas Pophale) SiO2 
 PCOD8212605
Probable space group: P M M A
;
_chemical_formula_sum "Si O2"
_cell_formula_units_Z 64
_cell_length_a 8.824546
_cell_length_b 23.386614
_cell_length_c 15.331338
_cell_angle_alpha 90.000000
_cell_angle_beta 90.000000
_cell_angle_gamma 90.000000
_cell_volume 3164.024060
_symmetry_space_group_name_H-M "P M M A"
_symmetry_group_IT_number 51
_symmetry_cell_setting 'orthorhombic'
loop_
_space_group_symop_operation_xyz
x,y,z
1/2-x,-y,z
1/2+x,-y,-z
-x,y,-z
-x,-y,-z
1/2+x,y,-z
1/2-x,y,z
x,-y,z
loop_
_atom_site_type_symbol
_atom_site_label
_atom_site_fract_x
_atom_site_fract_y
_atom_site_fract_z
Si Si1 0.071244 0.636251 0.087803
Si Si2 0.073834 0.139711 0.410327
Si Si3 0.074424 0.066093 0.248954
Si Si4 0.426715 0.383418 0.408666
Si Si5 0.927706 0.747312 0.151878
Si Si6 0.424120 0.260481 0.334917
Si Si7 0.424046 0.433618 0.758106
Si Si8 0.428555 0.127515 0.907997
O O1 0.250000 0.632661 0.081787
O O2 0.019224 0.701868 0.094572
O O3 0.017537 0.601444 0.171282
O O4 0.000000 0.609301 0.000000
O O5 0.250000 0.127884 0.419316
O O6 0.008769 0.102526 0.330075
O O7 0.036466 0.206223 0.394591
O O8 0.000000 0.119057 0.500000
O O9 0.250000 0.081021 0.232823
O O10 0.982943 0.081611 0.162434
O O11 0.049745 0.000000 0.270982
O O12 0.500000 0.400648 0.500000
O O13 0.250000 0.398355 0.409770
O O14 0.455308 0.316479 0.391733
O O15 0.507068 0.421893 0.336328
O O16 0.750000 0.737854 0.137204
O O17 0.982417 0.809531 0.121095
O O18 0.964995 0.738739 0.253040
O O19 0.250000 0.258166 0.301801
O O20 0.250000 0.413382 0.760294
O O21 0.439099 0.500000 0.780516
O O22 0.250000 0.124157 0.916290
O O23 0.500000 0.110777 0.000000
#
# Coordination Sequence:
#
# PCOD8212605 Si02
#       8
#     8   8   8   8   8   8   8   8
#     4  12  25  42  66  95 128 165 205 250 305 366
#     4  10  21  37  59  88 123 160 201 248 302 362
#     4  10  22  41  63  86 117 160 206 254 306 360
#     4  11  23  39  63  94 126 165 208 253 310 370
#     4  11  22  37  62  94 126 161 200 246 305 368
#     4  10  20  36  60  90 123 163 200 246 307 365
#     4  11  25  45  67  92 124 163 209 261 312 363
#     4  11  24  40  62  92 122 159 200 247 305 363
#
# _framework density 20.227406999999999
#
# number of rings (size 3 to 8) (size 9 to 14) (size 15 to 20)
#    0.000    1.250    2.500    3.375    0.000    6.250 
#    0.000    0.000    0.000    0.000    0.000    0.000 
#    0.000    0.000    0.000    0.000    0.000    0.000 
#
# Total GULP energy -794044.640433 kJ/mol
# GULP energy per Si atom -12406.947507 kJ/mol
# Density = 2.018137 g / cm^3
# Si number density = 20.227407 Si / 1000 Ang^3
#
#
#
# Elastic Constant Matrix: (Units=GPa)
#
#
# Indices 1 2 3 4 5 6 
#
# 1 105.0801 28.3147 44.4992 0.0000 0.0000 0.0000
# 2 28.3147 65.6673 14.6974 0.0000 0.0000 0.0000
# 3 44.4992 14.6974 133.2550 0.0000 0.0000 0.0000
# 4 0.0000 0.0000 0.0000 10.6482 0.0000 0.0000
# 5 0.0000 0.0000 0.0000 0.0000 41.1535 0.0000
# 6 0.0000 0.0000 0.0000 0.0000 0.0000 23.6104
#
#
#
# Elastic Compliance Matrix: (Units=1/GPa)
#
#
# Indices 1 2 3 4 5 6 
#
# 1 0.012245 -0.004475 -0.003596 0.000000 0.000000 0.000000
# 2 -0.004475 0.017249 -0.000408 0.000000 0.000000 0.000000
# 3 -0.003596 -0.000408 0.008750 0.000000 0.000000 0.000000
# 4 0.000000 0.000000 0.000000 0.093912 0.000000 0.000000
# 5 0.000000 0.000000 0.000000 0.000000 0.024299 0.000000
# 6 0.000000 0.000000 0.000000 0.000000 0.000000 0.042354
#
#
# Mechanical properties :
#
#
# Convention : Reuss Voigt Hill
#
# Bulk Modulus (GPa) = 46.97725 53.22499 50.10112
# Shear Modulus (GPa) = 22.43527 29.51516 25.97522
#
# Velocity S-wave (km/s) = 3.33401 3.82405 3.58740
# Velocity P-wave (km/s) = 6.17218 6.77261 6.47935
#
# Compressibility (1/GPa) = 0.02128690
#
# Stress axis : x y z
#
# Youngs Moduli (GPa) = 81.66574 57.97363 114.28433
#
# Poissons Ratio (x) = 0.25944 0.41091
# Poissons Ratio (y) = 0.36546 0.04664
# Poissons Ratio (z) = 0.29363 0.02366
#
# Static dielectric constant tensor:
#      x y z
#    x 3.692960 0.000000 0.000000 
#    y 0.000000 3.695990 0.000000 
#    z 0.000000 0.000000 3.713840 
# 
# 
# High freq. dielectric constant tensor:
#      x y z
#    x 1.792790 0.000000 0.000000 
#    y 0.000000 1.788580 0.000000 
#    z 0.000000 0.000000 1.801070 
# 
# From -- ./inp_files/22372.got.cif
#   From: 2010.03.12/outbox.cif.g09.slc.cpg/sg51_12_cif.got.tgz:22372.got - 2010.04.16 13:43:02.
