data_PCOD8212215
_publ_section_title
;
Structure prediction by ZEFSAII (Michael W. Deem and Ramdas Pophale) SiO2 
 PCOD8212215
Probable space group: P M M A
;
_chemical_formula_sum "Si O2"
_cell_formula_units_Z 48
_cell_length_a 16.034181
_cell_length_b 8.742644
_cell_length_c 18.091183
_cell_angle_alpha 90.000000
_cell_angle_beta 90.000000
_cell_angle_gamma 90.000000
_cell_volume 2536.042590
_symmetry_space_group_name_H-M "P M M A"
_symmetry_group_IT_number 51
_symmetry_cell_setting 'orthorhombic'
loop_
_space_group_symop_operation_xyz
x,y,z
1/2-x,-y,z
1/2+x,-y,-z
-x,y,-z
-x,-y,-z
1/2+x,y,-z
1/2-x,y,z
x,-y,z
loop_
_atom_site_type_symbol
_atom_site_label
_atom_site_fract_x
_atom_site_fract_y
_atom_site_fract_z
Si Si1 0.750000 0.181301 0.949738
Si Si2 0.844465 0.324065 0.340065
Si Si3 0.070812 0.677939 0.805841
Si Si4 0.250000 0.180342 0.218832
Si Si5 0.086277 0.681001 0.284462
Si Si6 0.506116 0.821549 0.415770
Si Si7 0.909218 0.318981 0.031271
O O1 0.750000 0.240431 0.865282
O O2 0.750000 0.000000 0.954730
O O3 0.834432 0.242053 0.986695
O O4 0.750000 0.293337 0.362855
O O5 0.871276 0.500000 0.354271
O O6 0.855845 0.287783 0.252819
O O7 0.900176 0.213348 0.389365
O O8 0.057887 0.500000 0.819753
O O9 0.093923 0.749157 0.885187
O O10 0.984221 0.742321 0.772488
O O11 0.328723 0.240401 0.263018
O O12 0.250000 0.000000 0.220365
O O13 0.096179 0.500000 0.281204
O O14 0.060898 0.728559 0.367456
O O15 0.500000 0.766603 0.500000
O O16 0.486959 0.000000 0.407559
O O17 0.894751 0.500000 0.027516
O O18 0.000000 0.273960 0.000000
#
# Coordination Sequence:
#
# PCOD8212215 Si02
#       7
#     4   8   8   4   8   8   8
#     4  11  25  39  53  81 120 157 190 235 295 348
#     4   9  18  33  55  82 109 143 187 234 276 320
#     4   8  16  31  54  80 108 140 181 234 282 323
#     4  11  23  39  57  79 114 151 188 233 283 340
#     4  10  20  37  62  87 109 143 191 238 280 328
#     4  10  21  38  58  82 116 153 182 217 274 339
#     4  10  20  35  57  83 110 147 195 241 285 336
#
# _framework density 18.927126999999999
#
# number of rings (size 3 to 8) (size 9 to 14) (size 15 to 20)
#    0.000    2.333    0.000    3.500    1.167    4.667 
#    1.500    4.167    0.000    0.000    0.000    0.000 
#    0.000    0.000    0.000    0.000    0.000    0.000 
#
# Total GULP energy -595140.672587 kJ/mol
# GULP energy per Si atom -12398.764012 kJ/mol
# Density = 1.888405 g / cm^3
# Si number density = 18.927127 Si / 1000 Ang^3
#
#
#
# Elastic Constant Matrix: (Units=GPa)
#
#
# Indices 1 2 3 4 5 6 
#
# 1 125.1571 29.9501 60.4860 0.0000 0.0000 0.0000
# 2 29.9501 45.2888 34.0204 0.0000 0.0000 0.0000
# 3 60.4860 34.0204 149.7898 0.0000 0.0000 0.0000
# 4 0.0000 0.0000 0.0000 25.0528 0.0000 0.0000
# 5 0.0000 0.0000 0.0000 0.0000 41.3579 0.0000
# 6 0.0000 0.0000 0.0000 0.0000 0.0000 22.3335
#
#
#
# Elastic Compliance Matrix: (Units=1/GPa)
#
#
# Indices 1 2 3 4 5 6 
#
# 1 0.010668 -0.004605 -0.003262 0.000000 0.000000 0.000000
# 2 -0.004605 0.028610 -0.004639 0.000000 0.000000 0.000000
# 3 -0.003262 -0.004639 0.009047 0.000000 0.000000 0.000000
# 4 0.000000 0.000000 0.000000 0.039916 0.000000 0.000000
# 5 0.000000 0.000000 0.000000 0.000000 0.024179 0.000000
# 6 0.000000 0.000000 0.000000 0.000000 0.000000 0.044776
#
#
# Mechanical properties :
#
#
# Convention : Reuss Voigt Hill
#
# Bulk Modulus (GPa) = 42.89171 63.23874 53.06522
# Shear Modulus (GPa) = 26.31881 30.80078 28.55979
#
# Velocity S-wave (km/s) = 3.73303 4.03840 3.88871
# Velocity P-wave (km/s) = 6.42584 7.43163 6.94696
#
# Compressibility (1/GPa) = 0.02331453
#
# Stress axis : x y z
#
# Youngs Moduli (GPa) = 93.73489 34.95278 110.53633
#
# Poissons Ratio (x) = 0.16095 0.36059
# Poissons Ratio (y) = 0.43162 0.51273
# Poissons Ratio (z) = 0.30578 0.16213
#
# Static dielectric constant tensor:
#      x y z
#    x 3.481850 0.000000 0.000000 
#    y 0.000000 3.288640 0.000000 
#    z 0.000000 0.000000 3.706860 
# 
# 
# High freq. dielectric constant tensor:
#      x y z
#    x 1.739760 0.000000 0.000000 
#    y 0.000000 1.717970 0.000000 
#    z 0.000000 0.000000 1.742740 
# 
# From -- ./inp_files/29600.got.cif
#   From: 2010.03.12/outbox.cif.g09.slc.cpg/sg51_15_cif.got.tgz:29600.got - 2010.04.16 13:43:02.
