data_PCOD8212816
_publ_section_title
;
Structure prediction by ZEFSAII (Michael W. Deem and Ramdas Pophale) SiO2 
 PCOD8212816
Probable space group: P M M A
;
_chemical_formula_sum "Si O2"
_cell_formula_units_Z 48
_cell_length_a 10.009848
_cell_length_b 9.080877
_cell_length_c 28.995964
_cell_angle_alpha 90.000000
_cell_angle_beta 90.000000
_cell_angle_gamma 90.000000
_cell_volume 2635.680891
_symmetry_space_group_name_H-M "P M M A"
_symmetry_group_IT_number 51
_symmetry_cell_setting 'orthorhombic'
loop_
_space_group_symop_operation_xyz
x,y,z
1/2-x,-y,z
1/2+x,-y,-z
-x,y,-z
-x,-y,-z
1/2+x,y,-z
1/2-x,y,z
x,-y,z
loop_
_atom_site_type_symbol
_atom_site_label
_atom_site_fract_x
_atom_site_fract_y
_atom_site_fract_z
Si Si1 0.750000 0.667587 0.951603
Si Si2 0.597264 0.830119 0.540738
Si Si3 0.594962 0.666968 0.200719
Si Si4 0.750000 0.173593 0.047242
Si Si5 0.019409 0.669663 0.899311
Si Si6 0.903214 0.327052 0.635270
Si Si7 0.904671 0.827227 0.292626
O O1 0.750000 0.500000 0.970018
O O2 0.625063 0.700143 0.919442
O O3 0.750000 0.774393 0.994766
O O4 0.500000 0.777985 0.500000
O O5 0.750000 0.805979 0.524677
O O6 0.562351 0.731829 0.584672
O O7 0.570948 0.000000 0.553723
O O8 0.750000 0.685033 0.188595
O O9 0.561857 0.500000 0.215920
O O10 0.514980 0.712099 0.154725
O O11 0.551477 0.774303 0.241885
O O12 0.619429 0.228849 0.072915
O O13 0.750000 0.000000 0.047712
O O14 0.064550 0.500000 0.904897
O O15 0.750000 0.288165 0.648279
O O16 0.928345 0.500000 0.636062
O O17 0.002650 0.251738 0.670665
O O18 0.750000 0.784977 0.301983
O O19 0.927967 0.000000 0.296144
#
# Coordination Sequence:
#
# PCOD8212816 Si02
#       7
#     4   8   8   4   8   8   8
#     4  10  22  38  58  82 110 142 180 224 269 324
#     4   9  18  33  53  77 108 146 185 226 273 327
#     4   9  17  33  57  81 106 138 179 224 269 319
#     4  12  24  36  56  82 110 146 184 222 269 322
#     4  10  20  38  60  82 108 142 182 223 269 324
#     4  10  21  37  56  80 111 148 189 231 275 323
#     4  10  21  36  56  82 111 142 180 225 274 330
#
# _framework density 18.211613
#
# number of rings (size 3 to 8) (size 9 to 14) (size 15 to 20)
#    0.000    2.167    0.833    2.250    0.000    6.333 
#    1.500    1.667    0.000    0.000    0.000    0.000 
#    0.000    0.000    0.000    0.000    0.000    0.000 
#
# Total GULP energy -595337.153241 kJ/mol
# GULP energy per Si atom -12402.857359 kJ/mol
# Density = 1.817016 g / cm^3
# Si number density = 18.211613 Si / 1000 Ang^3
#
#
#
# Elastic Constant Matrix: (Units=GPa)
#
#
# Indices 1 2 3 4 5 6 
#
# 1 114.1979 68.9735 90.7703 0.0000 0.0000 0.0000
# 2 68.9735 107.6610 84.7254 0.0000 0.0000 0.0000
# 3 90.7703 84.7254 159.9243 0.0000 0.0000 0.0000
# 4 0.0000 0.0000 0.0000 74.8490 0.0000 0.0000
# 5 0.0000 0.0000 0.0000 0.0000 68.8076 0.0000
# 6 0.0000 0.0000 0.0000 0.0000 0.0000 19.4814
#
#
#
# Elastic Compliance Matrix: (Units=1/GPa)
#
#
# Indices 1 2 3 4 5 6 
#
# 1 0.017944 -0.005970 -0.007022 0.000000 0.000000 0.000000
# 2 -0.005970 0.017916 -0.006103 0.000000 0.000000 0.000000
# 3 -0.007022 -0.006103 0.013472 0.000000 0.000000 0.000000
# 4 0.000000 0.000000 0.000000 0.013360 0.000000 0.000000
# 5 0.000000 0.000000 0.000000 0.000000 0.014533 0.000000
# 6 0.000000 0.000000 0.000000 0.000000 0.000000 0.051331
#
#
# Mechanical properties :
#
#
# Convention : Reuss Voigt Hill
#
# Bulk Modulus (GPa) = 89.75221 96.74684 93.24953
# Shear Modulus (GPa) = 29.33239 41.78185 35.55712
#
# Velocity S-wave (km/s) = 4.01763 4.79502 4.42344
# Velocity P-wave (km/s) = 8.42091 9.15944 8.79793
#
# Compressibility (1/GPa) = 0.01114179
#
# Stress axis : x y z
#
# Youngs Moduli (GPa) = 55.72995 55.81583 74.22863
#
# Poissons Ratio (x) = 0.33321 0.52122
# Poissons Ratio (y) = 0.33269 0.45304
# Poissons Ratio (z) = 0.39133 0.34066
#
# Static dielectric constant tensor:
#      x y z
#    x 3.381950 0.000000 0.000000 
#    y 0.000000 3.373300 0.000000 
#    z 0.000000 0.000000 3.447270 
# 
# 
# High freq. dielectric constant tensor:
#      x y z
#    x 1.702180 0.000000 0.000000 
#    y 0.000000 1.704600 0.000000 
#    z 0.000000 0.000000 1.713700 
# 
# From -- ./inp_files/37166.got.cif
#   From: 2010.03.12/outbox.cif.g09.slc.cpg/sg51_19_cif.got.tgz:37166.got - 2010.04.16 13:43:02.
