data_PCOD8212095
_publ_section_title
;
Structure prediction by ZEFSAII (Michael W. Deem and Ramdas Pophale) SiO2 
 PCOD8212095
Probable space group: P M M A
;
_chemical_formula_sum "Si O2"
_cell_formula_units_Z 56
_cell_length_a 8.748868
_cell_length_b 14.560147
_cell_length_c 23.174017
_cell_angle_alpha 90.000000
_cell_angle_beta 90.000000
_cell_angle_gamma 90.000000
_cell_volume 2952.017617
_symmetry_space_group_name_H-M "P M M A"
_symmetry_group_IT_number 51
_symmetry_cell_setting 'orthorhombic'
loop_
_space_group_symop_operation_xyz
x,y,z
1/2-x,-y,z
1/2+x,-y,-z
-x,y,-z
-x,-y,-z
1/2+x,y,-z
1/2-x,y,z
x,-y,z
loop_
_atom_site_type_symbol
_atom_site_label
_atom_site_fract_x
_atom_site_fract_y
_atom_site_fract_z
Si Si1 0.573497 0.894706 0.221695
Si Si2 0.920288 0.398206 0.237658
Si Si3 0.576874 0.344114 0.365680
Si Si4 0.930046 0.395584 0.061572
Si Si5 0.570467 0.000000 0.563854
Si Si6 0.430363 0.849055 0.344811
Si Si7 0.069382 0.500000 0.438122
Si Si8 0.427425 0.733151 0.157656
O O1 0.750000 0.865782 0.225336
O O2 0.504272 0.880974 0.284968
O O3 0.494132 0.833934 0.171578
O O4 0.552557 0.000000 0.202572
O O5 0.750000 0.371421 0.214785
O O6 0.961748 0.500000 0.215550
O O7 0.921721 0.398248 0.305982
O O8 0.045876 0.327271 0.214960
O O9 0.750000 0.324555 0.386500
O O10 0.483573 0.251302 0.361116
O O11 0.489270 0.407207 0.409921
O O12 0.750000 0.386650 0.057046
O O13 0.976604 0.500000 0.080248
O O14 0.990008 0.319147 0.105622
O O15 0.000000 0.371439 0.000000
O O16 0.500000 0.000000 0.500000
O O17 0.517722 0.087595 0.601563
O O18 0.750000 0.000000 0.554695
O O19 0.250000 0.853442 0.335579
O O20 0.250000 0.500000 0.438511
O O21 0.000000 0.500000 0.500000
O O22 0.250000 0.742351 0.143421
#
# Coordination Sequence:
#
# PCOD8212095 Si02
#       8
#     8   8   8   8   4   8   4   8
#     4  11  23  39  61  88 118 157 202 250 307 370
#     4  10  20  35  55  81 117 155 192 236 290 348
#     4  11  22  39  61  86 116 152 192 239 295 358
#     4  10  21  39  63  91 128 171 214 256 300 352
#     4  10  24  42  62  86 116 148 189 242 299 364
#     4  11  22  39  61  89 119 151 191 244 303 364
#     4  12  26  44  64  84 112 152 201 248 297 360
#     4  12  24  36  57  90 126 161 203 251 300 359
#
# _framework density 18.970075000000001
#
# number of rings (size 3 to 8) (size 9 to 14) (size 15 to 20)
#    0.000    1.143    2.857    4.071    0.000    6.000 
#    0.000    1.429    0.000    0.429    0.000    0.000 
#    0.000    0.000    0.000    0.000    0.000    0.000 
#
# Total GULP energy -694408.339728 kJ/mol
# GULP energy per Si atom -12400.148924 kJ/mol
# Density = 1.892690 g / cm^3
# Si number density = 18.970075 Si / 1000 Ang^3
#
#
#
# Elastic Constant Matrix: (Units=GPa)
#
#
# Indices 1 2 3 4 5 6 
#
# 1 98.8152 43.7419 52.9484 0.0000 0.0000 0.0000
# 2 43.7419 125.6212 52.9857 0.0000 0.0000 0.0000
# 3 52.9484 52.9857 111.3784 0.0000 0.0000 0.0000
# 4 0.0000 0.0000 0.0000 9.0371 0.0000 0.0000
# 5 0.0000 0.0000 0.0000 0.0000 35.0760 0.0000
# 6 0.0000 0.0000 0.0000 0.0000 0.0000 29.2461
#
#
#
# Elastic Compliance Matrix: (Units=1/GPa)
#
#
# Indices 1 2 3 4 5 6 
#
# 1 0.014242 -0.002631 -0.005519 0.000000 0.000000 0.000000
# 2 -0.002631 0.010445 -0.003718 0.000000 0.000000 0.000000
# 3 -0.005519 -0.003718 0.013371 0.000000 0.000000 0.000000
# 4 0.000000 0.000000 0.000000 0.110655 0.000000 0.000000
# 5 0.000000 0.000000 0.000000 0.000000 0.028510 0.000000
# 6 0.000000 0.000000 0.000000 0.000000 0.000000 0.034193
#
#
# Mechanical properties :
#
#
# Convention : Reuss Voigt Hill
#
# Bulk Modulus (GPa) = 69.82561 70.57408 70.19985
# Shear Modulus (GPa) = 20.83996 27.08110 23.96053
#
# Velocity S-wave (km/s) = 3.31806 3.78242 3.55782
# Velocity P-wave (km/s) = 7.18106 7.50728 7.34598
#
# Compressibility (1/GPa) = 0.01432139
#
# Stress axis : x y z
#
# Youngs Moduli (GPa) = 70.21607 95.74050 74.79061
#
# Poissons Ratio (x) = 0.25193 0.41274
# Poissons Ratio (y) = 0.18476 0.27807
# Poissons Ratio (z) = 0.38750 0.35596
#
# Static dielectric constant tensor:
#      x y z
#    x 3.644070 0.000000 0.000000 
#    y 0.000000 3.755730 0.000000 
#    z 0.000000 0.000000 3.389210 
# 
# 
# High freq. dielectric constant tensor:
#      x y z
#    x 1.748200 0.000000 0.000000 
#    y 0.000000 1.745960 0.000000 
#    z 0.000000 0.000000 1.727840 
# 
# From -- ./inp_files/32087.got.cif
#   From: 2010.03.12/outbox.cif.g09.slc.cpg/sg51_17_cif.got.tgz:32087.got - 2010.04.16 13:43:02.
