data_PCOD8212585
_publ_section_title
;
Structure prediction by ZEFSAII (Michael W. Deem and Ramdas Pophale) SiO2 
 PCOD8212585
Probable space group: P M M A
;
_chemical_formula_sum "Si O2"
_cell_formula_units_Z 48
_cell_length_a 27.566558
_cell_length_b 9.481252
_cell_length_c 9.653636
_cell_angle_alpha 90.000000
_cell_angle_beta 90.000000
_cell_angle_gamma 90.000000
_cell_volume 2523.127237
_symmetry_space_group_name_H-M "P M M A"
_symmetry_group_IT_number 51
_symmetry_cell_setting 'orthorhombic'
loop_
_space_group_symop_operation_xyz
x,y,z
1/2-x,-y,z
1/2+x,-y,-z
-x,y,-z
-x,-y,-z
1/2+x,y,-z
1/2-x,y,z
x,-y,z
loop_
_atom_site_type_symbol
_atom_site_label
_atom_site_fract_x
_atom_site_fract_y
_atom_site_fract_z
Si Si1 0.304143 0.840866 0.796802
Si Si2 0.861013 0.834518 0.475803
Si Si3 0.452259 0.662926 0.590230
Si Si4 0.956241 0.667336 0.092428
Si Si5 0.146849 0.662849 0.014594
Si Si6 0.805913 0.339003 0.696601
O O1 0.250000 0.816953 0.738947
O O2 0.342007 0.804398 0.677577
O O3 0.312393 0.740836 0.926606
O O4 0.311286 0.000000 0.848706
O O5 0.912272 0.756259 0.488038
O O6 0.821828 0.769479 0.579460
O O7 0.866892 0.000000 0.507434
O O8 0.500000 0.682779 0.500000
O O9 0.435317 0.500000 0.591242
O O10 0.460873 0.717134 0.747683
O O11 0.958612 0.500000 0.085818
O O12 0.906352 0.722839 0.023755
O O13 0.000000 0.731510 0.000000
O O14 0.150228 0.500000 0.974600
O O15 0.158571 0.688714 0.174527
O O16 0.750000 0.309824 0.737368
O O17 0.812024 0.500000 0.644305
#
# Coordination Sequence:
#
# PCOD8212585 Si02
#       6
#     8   8   8   8   8   8
#     4  10  21  37  57  81 112 151 191 232 282 343
#     4  11  23  39  59  83 118 157 196 238 286 346
#     4  10  21  37  61  89 116 149 192 239 291 347
#     4   9  18  33  56  87 116 145 182 230 288 345
#     4  10  20  36  60  87 116 146 188 241 290 343
#     4  10  22  38  57  85 118 152 195 245 292 341
#
# _framework density 19.024011999999999
#
# number of rings (size 3 to 8) (size 9 to 14) (size 15 to 20)
#    0.000    2.000    1.667    1.500    2.333    3.667 
#    0.000    0.000    0.000    1.000    0.000    0.000 
#    0.000    0.000    0.000    0.000    0.000    0.000 
#
# Total GULP energy -595292.997151 kJ/mol
# GULP energy per Si atom -12401.937441 kJ/mol
# Density = 1.898071 g / cm^3
# Si number density = 19.024012 Si / 1000 Ang^3
#
#
#
# Elastic Constant Matrix: (Units=GPa)
#
#
# Indices 1 2 3 4 5 6 
#
# 1 105.0063 40.8363 42.3360 0.0000 0.0000 0.0000
# 2 40.8363 73.8847 42.3092 0.0000 0.0000 0.0000
# 3 42.3360 42.3092 83.2508 0.0000 0.0000 0.0000
# 4 0.0000 0.0000 0.0000 21.8252 0.0000 0.0000
# 5 0.0000 0.0000 0.0000 0.0000 38.8514 0.0000
# 6 0.0000 0.0000 0.0000 0.0000 0.0000 17.9763
#
#
#
# Elastic Compliance Matrix: (Units=1/GPa)
#
#
# Indices 1 2 3 4 5 6 
#
# 1 0.013097 -0.004831 -0.004205 0.000000 0.000000 0.000000
# 2 -0.004831 0.020872 -0.008151 0.000000 0.000000 0.000000
# 3 -0.004205 -0.008151 0.018293 0.000000 0.000000 0.000000
# 4 0.000000 0.000000 0.000000 0.045818 0.000000 0.000000
# 5 0.000000 0.000000 0.000000 0.000000 0.025739 0.000000
# 6 0.000000 0.000000 0.000000 0.000000 0.000000 0.055629
#
#
# Mechanical properties :
#
#
# Convention : Reuss Voigt Hill
#
# Bulk Modulus (GPa) = 55.90263 57.01164 56.45714
# Shear Modulus (GPa) = 22.74943 24.84126 23.79535
#
# Velocity S-wave (km/s) = 3.46182 3.61748 3.54051
# Velocity P-wave (km/s) = 6.74003 6.89069 6.81578
#
# Compressibility (1/GPa) = 0.01788824
#
# Stress axis : x y z
#
# Youngs Moduli (GPa) = 76.35076 47.91083 54.66602
#
# Poissons Ratio (x) = 0.23145 0.22989
# Poissons Ratio (y) = 0.36884 0.44557
# Poissons Ratio (z) = 0.32109 0.39051
#
# Static dielectric constant tensor:
#      x y z
#    x 3.607880 0.000000 0.000000 
#    y 0.000000 3.284700 0.000000 
#    z 0.000000 0.000000 3.434610 
# 
# 
# High freq. dielectric constant tensor:
#      x y z
#    x 1.751520 0.000000 0.000000 
#    y 0.000000 1.716810 0.000000 
#    z 0.000000 0.000000 1.741060 
# 
# From -- ./inp_files/12741.got.cif
#   From: 2010.03.12/outbox.cif.g09.slc.cpg/sg51_7_cif.got.tgz:12741.got - 2010.04.16 13:43:02.
