data_PCOD8212016
_publ_section_title
;
Structure prediction by ZEFSAII (Michael W. Deem and Ramdas Pophale) SiO2 
 PCOD8212016
Probable space group: P M M A
;
_chemical_formula_sum "Si O2"
_cell_formula_units_Z 64
_cell_length_a 8.876352
_cell_length_b 25.506575
_cell_length_c 14.674275
_cell_angle_alpha 90.000000
_cell_angle_beta 90.000000
_cell_angle_gamma 90.000000
_cell_volume 3322.334191
_symmetry_space_group_name_H-M "P M M A"
_symmetry_group_IT_number 51
_symmetry_cell_setting 'orthorhombic'
loop_
_space_group_symop_operation_xyz
x,y,z
1/2-x,-y,z
1/2+x,-y,-z
-x,y,-z
-x,-y,-z
1/2+x,y,-z
1/2-x,y,z
x,-y,z
loop_
_atom_site_type_symbol
_atom_site_label
_atom_site_fract_x
_atom_site_fract_y
_atom_site_fract_z
Si Si1 0.423724 0.558492 0.761441
Si Si2 0.922676 0.706246 0.404069
Si Si3 0.927555 0.236947 0.097329
Si Si4 0.576370 0.177456 0.401664
Si Si5 0.073461 0.058829 0.093085
Si Si6 0.072417 0.395030 0.400705
Si Si7 0.572049 0.151055 0.775964
Si Si8 0.926173 0.643273 0.095380
O O1 0.250000 0.570765 0.738932
O O2 0.442453 0.500000 0.802592
O O3 0.517933 0.559813 0.667419
O O4 0.489285 0.601584 0.831453
O O5 0.750000 0.688321 0.414415
O O6 0.934336 0.763508 0.359277
O O7 0.000000 0.713453 0.500000
O O8 0.013711 0.659730 0.353995
O O9 0.750000 0.226881 0.090730
O O10 0.963496 0.297106 0.125478
O O11 0.997736 0.200433 0.174327
O O12 0.000000 0.223273 0.000000
O O13 0.500000 0.170554 0.500000
O O14 0.750000 0.160301 0.411240
O O15 0.490645 0.143008 0.326441
O O16 0.250000 0.059933 0.077491
O O17 0.025246 0.097602 0.173518
O O18 0.017474 0.000000 0.117352
O O19 0.000000 0.079212 0.000000
O O20 0.250000 0.395245 0.410844
O O21 0.000000 0.403079 0.500000
O O22 0.750000 0.159780 0.772985
O O23 0.750000 0.635379 0.083215
O O24 0.000000 0.629317 0.000000
#
# Coordination Sequence:
#
# PCOD8212016 Si02
#       8
#     8   8   8   8   8   8   8   8
#     4  10  22  40  59  79 105 139 180 225 272 326
#     4   9  17  31  51  74 102 136 175 216 262 317
#     4  10  20  35  54  80 114 148 181 222 275 335
#     4  10  21  36  54  78 112 151 190 233 278 328
#     4   9  19  36  57  82 114 152 192 237 284 330
#     4  11  22  36  56  81 108 140 176 220 271 327
#     4  11  22  34  54  84 116 151 191 233 279 334
#     4   9  20  38  59  81 107 140 176 219 272 326
#
# _framework density 19.263563999999999
#
# number of rings (size 3 to 8) (size 9 to 14) (size 15 to 20)
#    0.000    2.125    0.000    3.750    1.750    5.250 
#    0.000    0.000    0.000    0.375    0.000    0.000 
#    0.000    0.000    0.000    0.000    0.000    0.000 
#
# Total GULP energy -793406.800837 kJ/mol
# GULP energy per Si atom -12396.981263 kJ/mol
# Density = 1.921972 g / cm^3
# Si number density = 19.263564 Si / 1000 Ang^3
#
#
#
# Elastic Constant Matrix: (Units=GPa)
#
#
# Indices 1 2 3 4 5 6 
#
# 1 105.5132 44.4552 56.1816 0.0000 0.0000 0.0000
# 2 44.4552 95.0577 70.0076 0.0000 0.0000 0.0000
# 3 56.1816 70.0076 127.6944 0.0000 0.0000 0.0000
# 4 0.0000 0.0000 0.0000 23.4622 0.0000 0.0000
# 5 0.0000 0.0000 0.0000 0.0000 33.1199 0.0000
# 6 0.0000 0.0000 0.0000 0.0000 0.0000 20.8468
#
#
#
# Elastic Compliance Matrix: (Units=1/GPa)
#
#
# Indices 1 2 3 4 5 6 
#
# 1 0.012902 -0.003108 -0.003973 0.000000 0.000000 0.000000
# 2 -0.003108 0.018393 -0.008716 0.000000 0.000000 0.000000
# 3 -0.003973 -0.008716 0.014358 0.000000 0.000000 0.000000
# 4 0.000000 0.000000 0.000000 0.042622 0.000000 0.000000
# 5 0.000000 0.000000 0.000000 0.000000 0.030193 0.000000
# 6 0.000000 0.000000 0.000000 0.000000 0.000000 0.047969
#
#
# Mechanical properties :
#
#
# Convention : Reuss Voigt Hill
#
# Bulk Modulus (GPa) = 71.13036 74.39491 72.76263
# Shear Modulus (GPa) = 24.66495 25.99386 25.32940
#
# Velocity S-wave (km/s) = 3.58214 3.67738 3.63007
# Velocity P-wave (km/s) = 7.35622 7.53221 7.44473
#
# Compressibility (1/GPa) = 0.01405869
#
# Stress axis : x y z
#
# Youngs Moduli (GPa) = 77.50563 54.36909 69.64965
#
# Poissons Ratio (x) = 0.16899 0.27668
# Poissons Ratio (y) = 0.24091 0.60708
# Poissons Ratio (z) = 0.30789 0.47389
#
# Static dielectric constant tensor:
#      x y z
#    x 3.493430 0.000000 0.000000 
#    y 0.000000 3.814390 0.000000 
#    z 0.000000 0.000000 3.455700 
# 
# 
# High freq. dielectric constant tensor:
#      x y z
#    x 1.754390 0.000000 0.000000 
#    y 0.000000 1.738960 0.000000 
#    z 0.000000 0.000000 1.742510 
# 
# From -- ./inp_files/22376.got.cif
#   From: 2010.03.12/outbox.cif.g09.slc.cpg/sg51_12_cif.got.tgz:22376.got - 2010.04.16 13:43:02.
