data_PCOD8212221
_publ_section_title
;
Structure prediction by ZEFSAII (Michael W. Deem and Ramdas Pophale) SiO2 
 PCOD8212221
Probable space group: P M M A
;
_chemical_formula_sum "Si O2"
_cell_formula_units_Z 64
_cell_length_a 8.831543
_cell_length_b 14.307038
_cell_length_c 25.377367
_cell_angle_alpha 90.000000
_cell_angle_beta 90.000000
_cell_angle_gamma 90.000000
_cell_volume 3206.512069
_symmetry_space_group_name_H-M "P M M A"
_symmetry_group_IT_number 51
_symmetry_cell_setting 'orthorhombic'
loop_
_space_group_symop_operation_xyz
x,y,z
1/2-x,-y,z
1/2+x,-y,-z
-x,y,-z
-x,-y,-z
1/2+x,y,-z
1/2-x,y,z
x,-y,z
loop_
_atom_site_type_symbol
_atom_site_label
_atom_site_fract_x
_atom_site_fract_y
_atom_site_fract_z
Si Si1 0.925063 0.795878 0.748636
Si Si2 0.425943 0.394208 0.592575
Si Si3 0.572452 0.600782 0.942746
Si Si4 0.925109 0.106478 0.157081
Si Si5 0.577526 0.603494 0.702080
Si Si6 0.426461 0.109130 0.649839
Si Si7 0.574952 0.782660 0.056039
Si Si8 0.571852 0.215642 0.553135
O O1 0.750000 0.820329 0.739302
O O2 0.953249 0.683834 0.745174
O O3 0.974252 0.827369 0.806410
O O4 0.022850 0.850427 0.705677
O O5 0.250000 0.371170 0.584908
O O6 0.464867 0.500000 0.575146
O O7 0.465698 0.378990 0.653651
O O8 0.523167 0.324047 0.557167
O O9 0.750000 0.618687 0.947236
O O10 0.540618 0.500000 0.914454
O O11 0.495190 0.690076 0.915088
O O12 0.500000 0.597752 0.000000
O O13 0.750000 0.120519 0.172270
O O14 0.952909 0.132185 0.096024
O O15 0.976133 0.000000 0.165340
O O16 0.750000 0.610999 0.680913
O O17 0.549123 0.500000 0.726895
O O18 0.250000 0.129441 0.641842
O O19 0.517169 0.158162 0.603300
O O20 0.463469 0.000000 0.648814
O O21 0.750000 0.764246 0.045571
O O22 0.500000 0.807119 0.000000
O O23 0.500000 0.172465 0.500000
O O24 0.750000 0.208028 0.549080
#
# Coordination Sequence:
#
# PCOD8212221 Si02
#       8
#     8   8   8   8   8   8   8   8
#     4  11  22  37  62  93 120 151 192 241 289 341
#     4  10  20  35  58  88 120 156 198 241 288 348
#     4   9  16  27  47  76 109 145 184 226 273 328
#     4  10  23  42  60  81 113 153 194 240 295 351
#     4   9  18  34  57  86 120 156 190 229 284 345
#     4  11  24  42  64  88 116 153 195 242 299 358
#     4  10  20  35  57  83 113 151 194 239 290 347
#     4  12  25  41  61  86 119 158 199 248 299 352
#
# _framework density 19.959382999999999
#
# number of rings (size 3 to 8) (size 9 to 14) (size 15 to 20)
#    0.000    1.750    1.250    4.125    0.000    6.500 
#    0.000    0.625    0.000    2.250    0.000    0.000 
#    0.000    0.000    0.000    0.000    0.000    0.000 
#
# Total GULP energy -793511.409586 kJ/mol
# GULP energy per Si atom -12398.615775 kJ/mol
# Density = 1.991395 g / cm^3
# Si number density = 19.959383 Si / 1000 Ang^3
#
#
#
# Elastic Constant Matrix: (Units=GPa)
#
#
# Indices 1 2 3 4 5 6 
#
# 1 114.8195 49.7985 37.7800 0.0000 0.0000 0.0000
# 2 49.7985 106.6090 40.5332 0.0000 0.0000 0.0000
# 3 37.7800 40.5332 83.9020 0.0000 0.0000 0.0000
# 4 0.0000 0.0000 0.0000 19.5579 0.0000 0.0000
# 5 0.0000 0.0000 0.0000 0.0000 31.7050 0.0000
# 6 0.0000 0.0000 0.0000 0.0000 0.0000 23.3787
#
#
#
# Elastic Compliance Matrix: (Units=1/GPa)
#
#
# Indices 1 2 3 4 5 6 
#
# 1 0.011578 -0.004197 -0.003186 0.000000 0.000000 0.000000
# 2 -0.004197 0.013012 -0.004396 0.000000 0.000000 0.000000
# 3 -0.003186 -0.004396 0.015477 0.000000 0.000000 0.000000
# 4 0.000000 0.000000 0.000000 0.051130 0.000000 0.000000
# 5 0.000000 0.000000 0.000000 0.000000 0.031541 0.000000
# 6 0.000000 0.000000 0.000000 0.000000 0.000000 0.042774
#
#
# Mechanical properties :
#
#
# Convention : Reuss Voigt Hill
#
# Bulk Modulus (GPa) = 60.57363 62.39489 61.48426
# Shear Modulus (GPa) = 25.69730 26.74290 26.22010
#
# Velocity S-wave (km/s) = 3.59204 3.66439 3.62839
# Velocity P-wave (km/s) = 6.90058 7.01658 6.95882
#
# Compressibility (1/GPa) = 0.01650883
#
# Stress axis : x y z
#
# Youngs Moduli (GPa) = 86.37201 76.85214 64.61168
#
# Poissons Ratio (x) = 0.32254 0.20584
# Poissons Ratio (y) = 0.36249 0.28405
# Poissons Ratio (z) = 0.27517 0.33787
#
# Static dielectric constant tensor:
#      x y z
#    x 3.812820 0.000000 0.000000 
#    y 0.000000 4.144630 0.000000 
#    z 0.000000 0.000000 3.326200 
# 
# 
# High freq. dielectric constant tensor:
#      x y z
#    x 1.788590 0.000000 0.000000 
#    y 0.000000 1.793180 0.000000 
#    z 0.000000 0.000000 1.751610 
# 
# From -- ./inp_files/34824.got.cif
#   From: 2010.03.12/outbox.cif.g09.slc.cpg/sg51_18_cif.got.tgz:34824.got - 2010.04.16 13:43:02.
