data_PCOD8212663
_publ_section_title
;
Structure prediction by ZEFSAII (Michael W. Deem and Ramdas Pophale) SiO2 
 PCOD8212663
Probable space group: P M M A
;
_chemical_formula_sum "Si O2"
_cell_formula_units_Z 40
_cell_length_a 8.661476
_cell_length_b 24.925987
_cell_length_c 9.752355
_cell_angle_alpha 90.000000
_cell_angle_beta 90.000000
_cell_angle_gamma 90.000000
_cell_volume 2105.492857
_symmetry_space_group_name_H-M "P M M A"
_symmetry_group_IT_number 51
_symmetry_cell_setting 'orthorhombic'
loop_
_space_group_symop_operation_xyz
x,y,z
1/2-x,-y,z
1/2+x,-y,-z
-x,y,-z
-x,-y,-z
1/2+x,y,-z
1/2-x,y,z
x,-y,z
loop_
_atom_site_type_symbol
_atom_site_label
_atom_site_fract_x
_atom_site_fract_y
_atom_site_fract_z
Si Si1 0.933041 0.645681 0.152285
Si Si2 0.931887 0.853877 0.642863
Si Si3 0.567093 0.732037 0.646751
Si Si4 0.570565 0.562734 0.644870
Si Si5 0.067477 0.940109 0.145471
O O1 0.750000 0.647739 0.144194
O O2 0.995060 0.697436 0.231994
O O3 0.985398 0.592185 0.231081
O O4 0.000000 0.645005 0.000000
O O5 0.750000 0.858040 0.634624
O O6 0.982200 0.793223 0.678648
O O7 0.000520 0.895636 0.752151
O O8 0.000000 0.872665 0.500000
O O9 0.500000 0.713547 0.500000
O O10 0.750000 0.724110 0.643603
O O11 0.500000 0.581473 0.500000
O O12 0.750000 0.578325 0.645241
O O13 0.543565 0.500000 0.668035
O O14 0.250000 0.936693 0.137430
O O15 0.014890 0.000000 0.190819
O O16 0.000000 0.924770 0.000000
#
# Coordination Sequence:
#
# PCOD8212663 Si02
#       5
#     8   8   8   8   8
#     4  12  25  40  58  82 113 147 184 226 274 324
#     4   9  19  34  53  78 106 137 174 219 267 316
#     4  10  20  37  58  80 108 142 182 224 270 324
#     4  10  21  39  63  89 116 148 186 225 267 318
#     4   9  18  33  51  73 103 138 176 217 263 317
#
# _framework density 18.997927000000001
#
# number of rings (size 3 to 8) (size 9 to 14) (size 15 to 20)
#    0.000    2.000    0.000    3.600    0.000    4.400 
#    0.000    2.000    0.000    0.000    0.000    0.000 
#    0.000    0.000    0.000    0.000    0.000    0.000 
#
# Total GULP energy -496068.717616 kJ/mol
# GULP energy per Si atom -12401.717940 kJ/mol
# Density = 1.895469 g / cm^3
# Si number density = 18.997927 Si / 1000 Ang^3
#
#
#
# Elastic Constant Matrix: (Units=GPa)
#
#
# Indices 1 2 3 4 5 6 
#
# 1 90.0238 40.3341 62.2748 0.0000 0.0000 0.0000
# 2 40.3341 117.1068 94.6834 0.0000 0.0000 0.0000
# 3 62.2748 94.6834 175.7169 0.0000 0.0000 0.0000
# 4 0.0000 0.0000 0.0000 24.4609 0.0000 0.0000
# 5 0.0000 0.0000 0.0000 0.0000 37.8234 0.0000
# 6 0.0000 0.0000 0.0000 0.0000 0.0000 39.3363
#
#
#
# Elastic Compliance Matrix: (Units=1/GPa)
#
#
# Indices 1 2 3 4 5 6 
#
# 1 0.014868 -0.001525 -0.004448 0.000000 0.000000 0.000000
# 2 -0.001525 0.015288 -0.007697 0.000000 0.000000 0.000000
# 3 -0.004448 -0.007697 0.011415 0.000000 0.000000 0.000000
# 4 0.000000 0.000000 0.000000 0.040882 0.000000 0.000000
# 5 0.000000 0.000000 0.000000 0.000000 0.026439 0.000000
# 6 0.000000 0.000000 0.000000 0.000000 0.000000 0.025422
#
#
# Mechanical properties :
#
#
# Convention : Reuss Voigt Hill
#
# Bulk Modulus (GPa) = 70.26836 86.38134 78.32485
# Shear Modulus (GPa) = 30.04878 32.69447 31.37162
#
# Velocity S-wave (km/s) = 3.98136 4.15293 4.06805
# Velocity P-wave (km/s) = 7.62906 8.28030 7.96134
#
# Compressibility (1/GPa) = 0.01423116
#
# Stress axis : x y z
#
# Youngs Moduli (GPa) = 67.25820 65.41150 87.60523
#
# Poissons Ratio (x) = 0.09974 0.38964
# Poissons Ratio (y) = 0.10256 0.67432
# Poissons Ratio (z) = 0.29914 0.50349
#
# Static dielectric constant tensor:
#      x y z
#    x 3.509340 0.000000 0.000000 
#    y 0.000000 3.772630 0.000000 
#    z 0.000000 0.000000 3.525420 
# 
# 
# High freq. dielectric constant tensor:
#      x y z
#    x 1.744180 0.000000 0.000000 
#    y 0.000000 1.751950 0.000000 
#    z 0.000000 0.000000 1.738330 
# 
# From -- ./inp_files/5224.got.cif
#   From: 2010.03.12/outbox.cif.g09.slc.cpg/sg51_3_cif.got.tgz:5224.got - 2010.04.16 13:43:02.
