data_PCOD8212760
_publ_section_title
;
Structure prediction by ZEFSAII (Michael W. Deem and Ramdas Pophale) SiO2 
 PCOD8212760
Probable space group: P M M A
;
_chemical_formula_sum "Si O2"
_cell_formula_units_Z 40
_cell_length_a 15.565741
_cell_length_b 9.325799
_cell_length_c 13.775895
_cell_angle_alpha 90.000000
_cell_angle_beta 90.000000
_cell_angle_gamma 90.000000
_cell_volume 1999.749858
_symmetry_space_group_name_H-M "P M M A"
_symmetry_group_IT_number 51
_symmetry_cell_setting 'orthorhombic'
loop_
_space_group_symop_operation_xyz
x,y,z
1/2-x,-y,z
1/2+x,-y,-z
-x,y,-z
-x,-y,-z
1/2+x,y,-z
1/2-x,y,z
x,-y,z
loop_
_atom_site_type_symbol
_atom_site_label
_atom_site_fract_x
_atom_site_fract_y
_atom_site_fract_z
Si Si1 0.409140 0.337501 0.550745
Si Si2 0.846266 0.840495 0.611330
Si Si3 0.407788 0.336160 0.214934
Si Si4 0.901551 0.664195 0.223699
Si Si5 0.250000 0.668243 0.078460
Si Si6 0.250000 0.828301 0.877514
O O1 0.500000 0.312478 0.500000
O O2 0.377630 0.500000 0.537827
O O3 0.344057 0.233975 0.494212
O O4 0.410757 0.296315 0.663364
O O5 0.750000 0.844458 0.652136
O O6 0.903657 0.755576 0.687726
O O7 0.884312 0.000000 0.600955
O O8 0.392246 0.500000 0.246779
O O9 0.504539 0.316827 0.173076
O O10 0.336263 0.290441 0.136975
O O11 0.869681 0.500000 0.209840
O O12 0.835035 0.772871 0.176081
O O13 0.250000 0.500000 0.050203
O O14 0.250000 0.767817 0.985451
O O15 0.250000 0.000000 0.878864
#
# Coordination Sequence:
#
# PCOD8212760 Si02
#       6
#     8   8   8   8   4   4
#     4  10  20  37  61  88 119 159 208 255 297 353
#     4  11  23  35  52  87 132 170 201 243 300 367
#     4  10  20  39  69  97 121 155 204 260 309 360
#     4  10  22  42  66  92 123 161 209 259 303 356
#     4  10  22  42  71  98 119 150 199 260 316 370
#     4  12  28  46  63  86 125 168 205 252 310 376
#
# _framework density 20.002502
#
# number of rings (size 3 to 8) (size 9 to 14) (size 15 to 20)
#    0.000    1.600    3.000    1.500    1.400    4.800 
#    0.000    4.000    0.000    0.000    0.000    0.000 
#    0.000    0.000    0.000    0.000    0.000    0.000 
#
# Total GULP energy -495985.237617 kJ/mol
# GULP energy per Si atom -12399.630940 kJ/mol
# Density = 1.995698 g / cm^3
# Si number density = 20.002502 Si / 1000 Ang^3
#
#
#
# Elastic Constant Matrix: (Units=GPa)
#
#
# Indices 1 2 3 4 5 6 
#
# 1 118.8125 60.4622 60.8049 0.0000 0.0000 0.0000
# 2 60.4622 122.3439 74.8124 0.0000 0.0000 0.0000
# 3 60.8049 74.8124 122.4943 0.0000 0.0000 0.0000
# 4 0.0000 0.0000 0.0000 11.2654 0.0000 0.0000
# 5 0.0000 0.0000 0.0000 0.0000 27.5140 0.0000
# 6 0.0000 0.0000 0.0000 0.0000 0.0000 22.3961
#
#
#
# Elastic Compliance Matrix: (Units=1/GPa)
#
#
# Indices 1 2 3 4 5 6 
#
# 1 0.012265 -0.003732 -0.003809 0.000000 0.000000 0.000000
# 2 -0.003732 0.014182 -0.006809 0.000000 0.000000 0.000000
# 3 -0.003809 -0.006809 0.014213 0.000000 0.000000 0.000000
# 4 0.000000 0.000000 0.000000 0.088767 0.000000 0.000000
# 5 0.000000 0.000000 0.000000 0.000000 0.036345 0.000000
# 6 0.000000 0.000000 0.000000 0.000000 0.000000 0.044651
#
#
# Mechanical properties :
#
#
# Convention : Reuss Voigt Hill
#
# Bulk Modulus (GPa) = 83.61302 83.97887 83.79595
# Shear Modulus (GPa) = 20.56692 23.40651 21.98672
#
# Velocity S-wave (km/s) = 3.21006 3.42450 3.31901
# Velocity P-wave (km/s) = 7.45864 7.59681 7.52805
#
# Compressibility (1/GPa) = 0.01195986
#
# Stress axis : x y z
#
# Youngs Moduli (GPa) = 81.53132 70.51374 70.36019
#
# Poissons Ratio (x) = 0.26319 0.26799
# Poissons Ratio (y) = 0.30431 0.47905
# Poissons Ratio (z) = 0.31054 0.48010
#
# Static dielectric constant tensor:
#      x y z
#    x 3.817210 0.000000 0.000000 
#    y 0.000000 3.597640 0.000000 
#    z 0.000000 0.000000 3.537790 
# 
# 
# High freq. dielectric constant tensor:
#      x y z
#    x 1.789740 0.000000 0.000000 
#    y 0.000000 1.771420 0.000000 
#    z 0.000000 0.000000 1.770390 
# 
# From -- ./inp_files/23746.got.cif
#   From: 2010.03.12/outbox.cif.g09.slc.cpg/sg51_12_cif.got.tgz:23746.got - 2010.04.16 13:43:02.
