data_PCOD8212152
_publ_section_title
;
Structure prediction by ZEFSAII (Michael W. Deem and Ramdas Pophale) SiO2 
 PCOD8212152
Probable space group: P M M A
;
_chemical_formula_sum "Si O2"
_cell_formula_units_Z 48
_cell_length_a 20.209864
_cell_length_b 9.111417
_cell_length_c 14.355878
_cell_angle_alpha 90.000000
_cell_angle_beta 90.000000
_cell_angle_gamma 90.000000
_cell_volume 2643.498530
_symmetry_space_group_name_H-M "P M M A"
_symmetry_group_IT_number 51
_symmetry_cell_setting 'orthorhombic'
loop_
_space_group_symop_operation_xyz
x,y,z
1/2-x,-y,z
1/2+x,-y,-z
-x,y,-z
-x,-y,-z
1/2+x,y,-z
1/2-x,y,z
x,-y,z
loop_
_atom_site_type_symbol
_atom_site_label
_atom_site_fract_x
_atom_site_fract_y
_atom_site_fract_z
Si Si1 0.674371 0.830661 0.935374
Si Si2 0.560335 0.171488 0.437262
Si Si3 0.127866 0.673792 0.246810
Si Si4 0.066841 0.329628 0.949119
Si Si5 0.175012 0.167206 0.425947
Si Si6 0.022950 0.330307 0.743679
O O1 0.750000 0.812654 0.968172
O O2 0.665209 0.746973 0.838729
O O3 0.655671 0.000000 0.920476
O O4 0.628578 0.763489 0.015505
O O5 0.500000 0.232655 0.500000
O O6 0.628758 0.211541 0.487814
O O7 0.561621 0.246401 0.336974
O O8 0.551411 0.000000 0.420562
O O9 0.133451 0.500000 0.236194
O O10 0.163091 0.724023 0.340830
O O11 0.051999 0.727405 0.247204
O O12 0.079230 0.500000 0.972828
O O13 0.061240 0.301155 0.839436
O O14 0.000000 0.276625 0.000000
O O15 0.250000 0.183786 0.460887
O O16 0.159723 0.000000 0.393988
O O17 0.022146 0.500000 0.717134
#
# Coordination Sequence:
#
# PCOD8212152 Si02
#       6
#     8   8   8   8   8   8
#     4  11  24  39  56  84 119 152 188 231 281 337
#     4  10  20  35  56  81 109 146 188 225 268 329
#     4  11  21  35  57  85 116 147 182 229 283 337
#     4  10  20  39  61  83 113 149 190 233 279 334
#     4  10  21  37  55  79 113 148 183 228 279 329
#     4  10  21  36  57  85 113 142 181 233 281 325
#
# _framework density 18.157755000000002
#
# number of rings (size 3 to 8) (size 9 to 14) (size 15 to 20)
#    0.000    1.667    3.333    1.500    0.000    6.333 
#    0.000    0.833    0.000    3.000    0.000    0.000 
#    0.000    0.000    0.000    0.000    0.000    0.000 
#
# Total GULP energy -595442.196295 kJ/mol
# GULP energy per Si atom -12405.045756 kJ/mol
# Density = 1.811643 g / cm^3
# Si number density = 18.157755 Si / 1000 Ang^3
#
#
#
# Elastic Constant Matrix: (Units=GPa)
#
#
# Indices 1 2 3 4 5 6 
#
# 1 127.2831 53.0447 57.7376 0.0000 0.0000 0.0000
# 2 53.0447 71.2634 52.0851 0.0000 0.0000 0.0000
# 3 57.7376 52.0851 112.0705 0.0000 0.0000 0.0000
# 4 0.0000 0.0000 0.0000 35.4766 0.0000 0.0000
# 5 0.0000 0.0000 0.0000 0.0000 26.3585 0.0000
# 6 0.0000 0.0000 0.0000 0.0000 0.0000 27.0119
#
#
#
# Elastic Compliance Matrix: (Units=1/GPa)
#
#
# Indices 1 2 3 4 5 6 
#
# 1 0.012057 -0.006716 -0.003090 0.000000 0.000000 0.000000
# 2 -0.006716 0.024992 -0.008155 0.000000 0.000000 0.000000
# 3 -0.003090 -0.008155 0.014305 0.000000 0.000000 0.000000
# 4 0.000000 0.000000 0.000000 0.028188 0.000000 0.000000
# 5 0.000000 0.000000 0.000000 0.000000 0.037938 0.000000
# 6 0.000000 0.000000 0.000000 0.000000 0.000000 0.037021
#
#
# Mechanical properties :
#
#
# Convention : Reuss Voigt Hill
#
# Bulk Modulus (GPa) = 64.80343 70.70577 67.75460
# Shear Modulus (GPa) = 25.56658 27.61939 26.59298
#
# Velocity S-wave (km/s) = 3.75644 3.90433 3.83110
# Velocity P-wave (km/s) = 7.38790 7.70385 7.54753
#
# Compressibility (1/GPa) = 0.01543128
#
# Stress axis : x y z
#
# Youngs Moduli (GPa) = 82.93753 40.01304 69.90450
#
# Poissons Ratio (x) = 0.26873 0.21604
# Poissons Ratio (y) = 0.55701 0.57007
# Poissons Ratio (z) = 0.25632 0.32631
#
# Static dielectric constant tensor:
#      x y z
#    x 3.405090 0.000000 0.000000 
#    y 0.000000 3.336420 0.000000 
#    z 0.000000 0.000000 3.279270 
# 
# 
# High freq. dielectric constant tensor:
#      x y z
#    x 1.703890 0.000000 0.000000 
#    y 0.000000 1.703160 0.000000 
#    z 0.000000 0.000000 1.702020 
# 
# From -- ./inp_files/24769.got.cif
#   From: 2010.03.12/outbox.cif.g09.slc.cpg/sg51_13_cif.got.tgz:24769.got - 2010.04.16 13:43:02.
