data_PCOD8212183
_publ_section_title
;
Structure prediction by ZEFSAII (Michael W. Deem and Ramdas Pophale) SiO2 
 PCOD8212183
Probable space group: P M M A
;
_chemical_formula_sum "Si O2"
_cell_formula_units_Z 52
_cell_length_a 8.650982
_cell_length_b 22.636043
_cell_length_c 14.196356
_cell_angle_alpha 90.000000
_cell_angle_beta 90.000000
_cell_angle_gamma 90.000000
_cell_volume 2779.987225
_symmetry_space_group_name_H-M "P M M A"
_symmetry_group_IT_number 51
_symmetry_cell_setting 'orthorhombic'
loop_
_space_group_symop_operation_xyz
x,y,z
1/2-x,-y,z
1/2+x,-y,-z
-x,y,-z
-x,-y,-z
1/2+x,y,-z
1/2-x,y,z
x,-y,z
loop_
_atom_site_type_symbol
_atom_site_label
_atom_site_fract_x
_atom_site_fract_y
_atom_site_fract_z
Si Si1 0.567872 0.669388 0.786926
Si Si2 0.932233 0.223482 0.101517
Si Si3 0.569562 0.431515 0.100075
Si Si4 0.932151 0.000000 0.896781
Si Si5 0.930788 0.283806 0.401231
Si Si6 0.931028 0.853971 0.401377
Si Si7 0.432349 0.884002 0.212617
O O1 0.750000 0.676147 0.790514
O O2 0.494670 0.714809 0.860639
O O3 0.515856 0.604130 0.817483
O O4 0.510921 0.679623 0.681179
O O5 0.750000 0.227596 0.094504
O O6 0.977705 0.171837 0.172259
O O7 0.000000 0.208521 0.000000
O O8 0.750000 0.416482 0.099895
O O9 0.537257 0.500000 0.120361
O O10 0.500000 0.412305 0.000000
O O11 0.989544 0.942227 0.841568
O O12 0.750000 0.000000 0.904583
O O13 0.000000 0.000000 0.000000
O O14 0.750000 0.296721 0.399736
O O15 0.967295 0.214995 0.386080
O O16 0.000000 0.305969 0.500000
O O17 0.750000 0.867406 0.397955
O O18 0.000000 0.875935 0.500000
O O19 0.019459 0.890913 0.321322
O O20 0.250000 0.874022 0.202797
#
# Coordination Sequence:
#
# PCOD8212183 Si02
#       7
#     8   8   8   4   8   8   8
#     4  12  23  36  57  85 117 152 190 235 286 339
#     4  12  24  38  55  81 114 148 187 234 288 341
#     4  10  21  38  59  83 115 155 197 240 285 337
#     4  10  24  42  61  84 111 150 193 236 282 340
#     4  10  20  35  56  84 118 151 189 232 283 342
#     4  10  20  35  58  86 116 150 186 232 284 341
#     4  11  22  39  60  84 114 148 189 235 285 342
#
# _framework density 18.705123
#
# number of rings (size 3 to 8) (size 9 to 14) (size 15 to 20)
#    0.000    1.231    1.538    5.538    0.000    4.615 
#    0.000    0.385    0.000    0.462    0.000    0.000 
#    0.000    0.000    0.000    0.000    0.000    0.000 
#
# Total GULP energy -645151.808068 kJ/mol
# GULP energy per Si atom -12406.765540 kJ/mol
# Density = 1.866255 g / cm^3
# Si number density = 18.705123 Si / 1000 Ang^3
#
#
#
# Elastic Constant Matrix: (Units=GPa)
#
#
# Indices 1 2 3 4 5 6 
#
# 1 120.9505 37.3912 53.0902 0.0000 0.0000 0.0000
# 2 37.3912 76.2591 48.8924 0.0000 0.0000 0.0000
# 3 53.0902 48.8924 149.7335 0.0000 0.0000 0.0000
# 4 0.0000 0.0000 0.0000 33.4158 0.0000 0.0000
# 5 0.0000 0.0000 0.0000 0.0000 40.8168 0.0000
# 6 0.0000 0.0000 0.0000 0.0000 0.0000 17.6258
#
#
#
# Elastic Compliance Matrix: (Units=1/GPa)
#
#
# Indices 1 2 3 4 5 6 
#
# 1 0.010476 -0.003485 -0.002577 0.000000 0.000000 0.000000
# 2 -0.003485 0.017744 -0.004559 0.000000 0.000000 0.000000
# 3 -0.002577 -0.004559 0.009081 0.000000 0.000000 0.000000
# 4 0.000000 0.000000 0.000000 0.029926 0.000000 0.000000
# 5 0.000000 0.000000 0.000000 0.000000 0.024500 0.000000
# 6 0.000000 0.000000 0.000000 0.000000 0.000000 0.056735
#
#
# Mechanical properties :
#
#
# Convention : Reuss Voigt Hill
#
# Bulk Modulus (GPa) = 62.26070 69.52120 65.89095
# Shear Modulus (GPa) = 28.56243 32.20965 30.38604
#
# Velocity S-wave (km/s) = 3.91190 4.15416 4.03485
# Velocity P-wave (km/s) = 7.33223 7.76254 7.55045
#
# Compressibility (1/GPa) = 0.01606150
#
# Stress axis : x y z
#
# Youngs Moduli (GPa) = 95.45549 56.35579 110.12487
#
# Poissons Ratio (x) = 0.19638 0.28375
# Poissons Ratio (y) = 0.33263 0.50201
# Poissons Ratio (z) = 0.24595 0.25690
#
# Static dielectric constant tensor:
#      x y z
#    x 3.531400 0.000000 0.000000 
#    y 0.000000 3.348290 0.000000 
#    z 0.000000 0.000000 3.560460 
# 
# 
# High freq. dielectric constant tensor:
#      x y z
#    x 1.744440 0.000000 0.000000 
#    y 0.000000 1.707220 0.000000 
#    z 0.000000 0.000000 1.738350 
# 
# From -- ./inp_files/21532.got.cif
#   From: 2010.03.12/outbox.cif.g09.slc.cpg/sg51_11_cif.got.tgz:21532.got - 2010.04.16 13:43:02.
