data_PCOD8212647
_publ_section_title
;
Structure prediction by ZEFSAII (Michael W. Deem and Ramdas Pophale) SiO2 
 PCOD8212647
Probable space group: P M M A
;
_chemical_formula_sum "Si O2"
_cell_formula_units_Z 48
_cell_length_a 31.376922
_cell_length_b 8.766363
_cell_length_c 9.687475
_cell_angle_alpha 90.000000
_cell_angle_beta 90.000000
_cell_angle_gamma 90.000000
_cell_volume 2664.651289
_symmetry_space_group_name_H-M "P M M A"
_symmetry_group_IT_number 51
_symmetry_cell_setting 'orthorhombic'
loop_
_space_group_symop_operation_xyz
x,y,z
1/2-x,-y,z
1/2+x,-y,-z
-x,y,-z
-x,-y,-z
1/2+x,y,-z
1/2-x,y,z
x,-y,z
loop_
_atom_site_type_symbol
_atom_site_label
_atom_site_fract_x
_atom_site_fract_y
_atom_site_fract_z
Si Si1 0.795518 0.172999 0.362402
Si Si2 0.703784 0.677169 0.649692
Si Si3 0.045757 0.320803 0.860645
Si Si4 0.456667 0.181648 0.153496
Si Si5 0.618248 0.177552 0.652473
Si Si6 0.612905 0.825102 0.330798
O O1 0.750000 0.191110 0.280110
O O2 0.795392 0.290729 0.487051
O O3 0.838456 0.200510 0.272714
O O4 0.799015 0.000000 0.422949
O O5 0.750000 0.730411 0.712381
O O6 0.697683 0.500000 0.675119
O O7 0.662691 0.759081 0.715610
O O8 0.042773 0.500000 0.889383
O O9 0.082054 0.288091 0.748941
O O10 0.000910 0.259984 0.802240
O O11 0.057280 0.233257 0.001126
O O12 0.421350 0.242948 0.260542
O O13 0.462257 0.000000 0.157286
O O14 0.611944 0.220057 0.492216
O O15 0.620115 0.000000 0.675559
O O16 0.598164 0.000000 0.308949
#
# Coordination Sequence:
#
# PCOD8212647 Si02
#       6
#     8   8   8   8   8   8
#     4   8  14  26  45  68  95 128 165 202 237 277
#     4   9  16  25  41  68 101 133 160 190 235 288
#     4  11  22  35  51  73  99 129 163 196 239 296
#     4  10  20  37  57  73  92 124 165 205 245 288
#     4   9  19  33  52  76  98 125 164 206 244 282
#     4   9  17  31  50  74 102 129 160 201 244 283
#
# _framework density 18.013614
#
# number of rings (size 3 to 8) (size 9 to 14) (size 15 to 20)
#    0.000    2.667    0.000    4.500    0.000    5.667 
#    0.000    3.333    0.000    1.000    0.000    2.333 
#    0.000    0.000    0.000    0.000    0.000    0.000 
#
# Total GULP energy -594703.066641 kJ/mol
# GULP energy per Si atom -12389.647222 kJ/mol
# Density = 1.797261 g / cm^3
# Si number density = 18.013614 Si / 1000 Ang^3
#
#
#
# Elastic Constant Matrix: (Units=GPa)
#
#
# Indices 1 2 3 4 5 6 
#
# 1 174.3504 37.4168 56.6894 0.0000 0.0000 0.0000
# 2 37.4168 44.3129 14.2735 0.0000 0.0000 0.0000
# 3 56.6894 14.2735 40.1641 0.0000 0.0000 0.0000
# 4 0.0000 0.0000 0.0000 13.5503 0.0000 0.0000
# 5 0.0000 0.0000 0.0000 0.0000 3.3514 0.0000
# 6 0.0000 0.0000 0.0000 0.0000 0.0000 26.1086
#
#
#
# Elastic Compliance Matrix: (Units=1/GPa)
#
#
# Indices 1 2 3 4 5 6 
#
# 1 0.011529 -0.005074 -0.014470 0.000000 0.000000 0.000000
# 2 -0.005074 0.027717 -0.002688 0.000000 0.000000 0.000000
# 3 -0.014470 -0.002688 0.046276 0.000000 0.000000 0.000000
# 4 0.000000 0.000000 0.000000 0.073799 0.000000 0.000000
# 5 0.000000 0.000000 0.000000 0.000000 0.298379 0.000000
# 6 0.000000 0.000000 0.000000 0.000000 0.000000 0.038302
#
#
# Mechanical properties :
#
#
# Convention : Reuss Voigt Hill
#
# Bulk Modulus (GPa) = 24.35531 52.84297 38.59914
# Shear Modulus (GPa) = 9.02278 18.63192 13.82735
#
# Velocity S-wave (km/s) = 2.24048 3.21958 2.77358
# Velocity P-wave (km/s) = 4.49920 6.57416 5.63305
#
# Compressibility (1/GPa) = 0.04105881
#
# Stress axis : x y z
#
# Youngs Moduli (GPa) = 86.73530 36.07858 21.60930
#
# Poissons Ratio (x) = 0.18307 0.31268
# Poissons Ratio (y) = 0.44012 0.05809
# Poissons Ratio (z) = 1.25504 0.09698
#
# Static dielectric constant tensor:
#      x y z
#    x 3.939550 0.000000 0.000000 
#    y 0.000000 3.251600 0.000000 
#    z 0.000000 0.000000 2.909370 
# 
# 
# High freq. dielectric constant tensor:
#      x y z
#    x 1.726490 0.000000 0.000000 
#    y 0.000000 1.696630 0.000000 
#    z 0.000000 0.000000 1.637210 
# 
# From -- ./inp_files/18567.got.cif
#   From: 2010.03.12/outbox.cif.g09.slc.cpg/sg51_10_cif.got.tgz:18567.got - 2010.04.16 13:43:02.
