data_PCOD8212662
_publ_section_title
;
Structure prediction by ZEFSAII (Michael W. Deem and Ramdas Pophale) SiO2 
 PCOD8212662
Probable space group: P M M A
;
_chemical_formula_sum "Si O2"
_cell_formula_units_Z 40
_cell_length_a 8.783467
_cell_length_b 25.081734
_cell_length_c 9.766047
_cell_angle_alpha 90.000000
_cell_angle_beta 90.000000
_cell_angle_gamma 90.000000
_cell_volume 2151.504911
_symmetry_space_group_name_H-M "P M M A"
_symmetry_group_IT_number 51
_symmetry_cell_setting 'orthorhombic'
loop_
_space_group_symop_operation_xyz
x,y,z
1/2-x,-y,z
1/2+x,-y,-z
-x,y,-z
-x,-y,-z
1/2+x,y,-z
1/2-x,y,z
x,-y,z
loop_
_atom_site_type_symbol
_atom_site_label
_atom_site_fract_x
_atom_site_fract_y
_atom_site_fract_z
Si Si1 0.432161 0.500000 0.152215
Si Si2 0.070550 0.089937 0.856005
Si Si3 0.428288 0.293795 0.641142
Si Si4 0.929782 0.789931 0.142058
Si Si5 0.929971 0.000000 0.350215
Si Si6 0.430490 0.415630 0.646461
O O1 0.250000 0.500000 0.144942
O O2 0.491153 0.448178 0.232250
O O3 0.500000 0.500000 0.000000
O O4 0.250000 0.085472 0.873615
O O5 0.018902 0.150085 0.818396
O O6 0.013528 0.051955 0.733516
O O7 0.000000 0.071375 0.000000
O O8 0.500000 0.275986 0.500000
O O9 0.250000 0.287257 0.627534
O O10 0.495789 0.252652 0.750968
O O11 0.471249 0.354361 0.679073
O O12 0.750000 0.786227 0.131274
O O13 0.000000 0.772151 0.000000
O O14 0.000000 0.000000 0.500000
O O15 0.750000 0.000000 0.366359
O O16 0.500000 0.432874 0.500000
O O17 0.250000 0.426436 0.643582
#
# Coordination Sequence:
#
# PCOD8212662 Si02
#       6
#     4   8   8   8   4   8
#     4  12  25  40  57  80 108 138 172 214 261 308
#     4   9  18  33  52  72  98 131 170 210 251 300
#     4   9  19  34  53  77 105 135 170 209 251 298
#     4   9  18  33  51  74 102 133 168 209 253 300
#     4  10  21  34  48  72 102 132 165 208 256 302
#     4  10  20  37  58  80 106 139 176 213 254 306
#
# _framework density 18.591636999999999
#
# number of rings (size 3 to 8) (size 9 to 14) (size 15 to 20)
#    0.000    2.400    0.000    2.100    0.000    4.000 
#    0.000    2.000    0.000    0.000    0.000    0.000 
#    0.000    0.000    0.000    0.000    0.000    0.000 
#
# Total GULP energy -495985.858081 kJ/mol
# GULP energy per Si atom -12399.646452 kJ/mol
# Density = 1.854932 g / cm^3
# Si number density = 18.591637 Si / 1000 Ang^3
#
#
#
# Elastic Constant Matrix: (Units=GPa)
#
#
# Indices 1 2 3 4 5 6 
#
# 1 50.1992 36.5267 52.2505 0.0000 0.0000 0.0000
# 2 36.5267 133.1912 112.6310 0.0000 0.0000 0.0000
# 3 52.2505 112.6310 188.3749 0.0000 0.0000 0.0000
# 4 0.0000 0.0000 0.0000 42.4065 0.0000 0.0000
# 5 0.0000 0.0000 0.0000 0.0000 36.5749 0.0000
# 6 0.0000 0.0000 0.0000 0.0000 0.0000 21.7033
#
#
#
# Elastic Compliance Matrix: (Units=1/GPa)
#
#
# Indices 1 2 3 4 5 6 
#
# 1 0.028343 -0.002275 -0.006501 0.000000 0.000000 0.000000
# 2 -0.002275 0.015369 -0.008558 0.000000 0.000000 0.000000
# 3 -0.006501 -0.008558 0.012229 0.000000 0.000000 0.000000
# 4 0.000000 0.000000 0.000000 0.023581 0.000000 0.000000
# 5 0.000000 0.000000 0.000000 0.000000 0.027341 0.000000
# 6 0.000000 0.000000 0.000000 0.000000 0.000000 0.046076
#
#
# Mechanical properties :
#
#
# Convention : Reuss Voigt Hill
#
# Bulk Modulus (GPa) = 47.01087 86.06462 66.53774
# Shear Modulus (GPa) = 25.68059 31.49408 28.58734
#
# Velocity S-wave (km/s) = 3.72061 4.12028 3.92554
# Velocity P-wave (km/s) = 6.61802 8.30832 7.51087
#
# Compressibility (1/GPa) = 0.02127168
#
# Stress axis : x y z
#
# Youngs Moduli (GPa) = 35.28192 65.06568 81.77337
#
# Poissons Ratio (x) = 0.14803 0.53164
# Poissons Ratio (y) = 0.08027 0.69984
# Poissons Ratio (z) = 0.22938 0.55685
#
# Static dielectric constant tensor:
#      x y z
#    x 3.346660 0.000000 0.000000 
#    y 0.000000 3.774810 0.000000 
#    z 0.000000 0.000000 3.503130 
# 
# 
# High freq. dielectric constant tensor:
#      x y z
#    x 1.717030 0.000000 0.000000 
#    y 0.000000 1.734620 0.000000 
#    z 0.000000 0.000000 1.720640 
# 
# From -- ./inp_files/5618.got.cif
#   From: 2010.03.12/outbox.cif.g09.slc.cpg/sg51_3_cif.got.tgz:5618.got - 2010.04.16 13:43:02.
