data_PCOD8212188
_publ_section_title
;
Structure prediction by ZEFSAII (Michael W. Deem and Ramdas Pophale) SiO2 
 PCOD8212188
Probable space group: P M M A
;
_chemical_formula_sum "Si O2"
_cell_formula_units_Z 56
_cell_length_a 15.671007
_cell_length_b 8.547790
_cell_length_c 19.990059
_cell_angle_alpha 90.000000
_cell_angle_beta 90.000000
_cell_angle_gamma 90.000000
_cell_volume 2677.717917
_symmetry_space_group_name_H-M "P M M A"
_symmetry_group_IT_number 51
_symmetry_cell_setting 'orthorhombic'
loop_
_space_group_symop_operation_xyz
x,y,z
1/2-x,-y,z
1/2+x,-y,-z
-x,y,-z
-x,-y,-z
1/2+x,y,-z
1/2-x,y,z
x,-y,z
loop_
_atom_site_type_symbol
_atom_site_label
_atom_site_fract_x
_atom_site_fract_y
_atom_site_fract_z
Si Si1 0.873442 0.674718 0.270626
Si Si2 0.489328 0.814268 0.076320
Si Si3 0.750000 0.681489 0.503718
Si Si4 0.063907 0.676963 0.306779
Si Si5 0.750000 0.179469 0.365266
Si Si6 0.576537 0.182873 0.551093
Si Si7 0.840308 0.818177 0.136676
Si Si8 0.652811 0.685052 0.826249
O O1 0.840180 0.500000 0.256490
O O2 0.835760 0.735545 0.340390
O O3 0.836409 0.790783 0.215536
O O4 0.974265 0.677726 0.269806
O O5 0.574843 0.737455 0.108102
O O6 0.405731 0.750911 0.113916
O O7 0.485625 0.000000 0.083088
O O8 0.500000 0.760754 0.000000
O O9 0.750000 0.500000 0.482033
O O10 0.750000 0.803676 0.443948
O O11 0.836949 0.717209 0.543416
O O12 0.089303 0.500000 0.328868
O O13 0.053780 0.787605 0.371327
O O14 0.127469 0.743306 0.249011
O O15 0.750000 0.000000 0.344477
O O16 0.500000 0.236915 0.500000
O O17 0.594248 0.000000 0.539467
O O18 0.750000 0.754839 0.105663
O O19 0.846233 0.000000 0.120845
O O20 0.750000 0.738892 0.840097
O O21 0.643244 0.500000 0.827271
#
# Coordination Sequence:
#
# PCOD8212188 Si02
#       8
#     8   8   4   8   4   8   8   8
#     4  11  21  35  58  88 120 157 204 253 304 367
#     4  10  22  40  63  92 127 166 208 254 307 370
#     4  12  26  44  66  90 124 167 212 259 312 376
#     4  10  22  39  62  90 121 160 207 261 316 372
#     4  12  24  38  58  88 126 161 200 253 314 376
#     4  11  25  44  65  93 128 167 213 266 320 379
#     4  10  20  35  56  85 120 159 201 250 307 363
#     4  10  22  41  64  92 126 164 209 260 315 371
#
# _framework density 20.913329000000001
#
# number of rings (size 3 to 8) (size 9 to 14) (size 15 to 20)
#    0.000    1.429    2.143    3.000    1.000    6.286 
#    0.000    1.429    0.000    0.000    0.000    0.000 
#    0.000    0.000    0.000    0.000    0.000    0.000 
#
# Total GULP energy -694015.776482 kJ/mol
# GULP energy per Si atom -12393.138866 kJ/mol
# Density = 2.086573 g / cm^3
# Si number density = 20.913329 Si / 1000 Ang^3
#
#
#
# Elastic Constant Matrix: (Units=GPa)
#
#
# Indices 1 2 3 4 5 6 
#
# 1 166.4597 34.9660 61.5942 0.0000 0.0000 0.0000
# 2 34.9660 52.1755 19.5714 0.0000 0.0000 0.0000
# 3 61.5942 19.5714 124.7678 0.0000 0.0000 0.0000
# 4 0.0000 0.0000 0.0000 21.4948 0.0000 0.0000
# 5 0.0000 0.0000 0.0000 0.0000 34.5849 0.0000
# 6 0.0000 0.0000 0.0000 0.0000 0.0000 24.3560
#
#
#
# Elastic Compliance Matrix: (Units=1/GPa)
#
#
# Indices 1 2 3 4 5 6 
#
# 1 0.008129 -0.004189 -0.003356 0.000000 0.000000 0.000000
# 2 -0.004189 0.022523 -0.001465 0.000000 0.000000 0.000000
# 3 -0.003356 -0.001465 0.009901 0.000000 0.000000 0.000000
# 4 0.000000 0.000000 0.000000 0.046523 0.000000 0.000000
# 5 0.000000 0.000000 0.000000 0.000000 0.028914 0.000000
# 6 0.000000 0.000000 0.000000 0.000000 0.000000 0.041058
#
#
# Mechanical properties :
#
#
# Convention : Reuss Voigt Hill
#
# Bulk Modulus (GPa) = 44.37846 63.96293 54.17070
# Shear Modulus (GPa) = 27.38528 31.23856 29.31192
#
# Velocity S-wave (km/s) = 3.62258 3.86905 3.74784
# Velocity P-wave (km/s) = 6.22605 7.11411 6.68484
#
# Compressibility (1/GPa) = 0.02253345
#
# Stress axis : x y z
#
# Youngs Moduli (GPa) = 123.01313 44.39922 100.99495
#
# Poissons Ratio (x) = 0.18599 0.33894
# Poissons Ratio (y) = 0.51530 0.14796
# Poissons Ratio (z) = 0.41284 0.06505
#
# Static dielectric constant tensor:
#      x y z
#    x 3.384220 0.000000 0.000000 
#    y 0.000000 3.586260 0.000000 
#    z 0.000000 0.000000 3.656010 
# 
# 
# High freq. dielectric constant tensor:
#      x y z
#    x 1.839700 0.000000 0.000000 
#    y 0.000000 1.803050 0.000000 
#    z 0.000000 0.000000 1.813080 
# 
# From -- ./inp_files/33614.got.cif
#   From: 2010.03.12/outbox.cif.g09.slc.cpg/sg51_17_cif.got.tgz:33614.got - 2010.04.16 13:43:02.
