data_PCOD8212995
_publ_section_title
;
Structure prediction by ZEFSAII (Michael W. Deem and Ramdas Pophale) SiO2 
 PCOD8212995
Probable space group: P M M A
;
_chemical_formula_sum "Si O2"
_cell_formula_units_Z 64
_cell_length_a 13.962636
_cell_length_b 9.082134
_cell_length_c 31.869484
_cell_angle_alpha 90.000000
_cell_angle_beta 90.000000
_cell_angle_gamma 90.000000
_cell_volume 4041.386193
_symmetry_space_group_name_H-M "P M M A"
_symmetry_group_IT_number 51
_symmetry_cell_setting 'orthorhombic'
loop_
_space_group_symop_operation_xyz
x,y,z
1/2-x,-y,z
1/2+x,-y,-z
-x,y,-z
-x,-y,-z
1/2+x,y,-z
1/2-x,y,z
x,-y,z
loop_
_atom_site_type_symbol
_atom_site_label
_atom_site_fract_x
_atom_site_fract_y
_atom_site_fract_z
Si Si1 0.360578 0.828408 0.767984
Si Si2 0.540556 0.674208 0.065134
Si Si3 0.975566 0.673711 0.396281
Si Si4 0.855827 0.674614 0.981815
Si Si5 0.139310 0.669084 0.521598
Si Si6 0.139173 0.827710 0.437281
Si Si7 0.639432 0.824918 0.141379
Si Si8 0.637086 0.826850 0.322919
O O1 0.250000 0.791037 0.768950
O O2 0.400624 0.768756 0.812736
O O3 0.400178 0.769064 0.723232
O O4 0.378392 0.000000 0.767037
O O5 0.547455 0.500000 0.071346
O O6 0.431768 0.723818 0.053737
O O7 0.570563 0.752415 0.107617
O O8 0.609900 0.728357 0.027649
O O9 0.986940 0.500000 0.392039
O O10 0.916052 0.720860 0.437215
O O11 0.922042 0.733385 0.355817
O O12 0.079829 0.748518 0.400325
O O13 0.750000 0.740088 0.972116
O O14 0.852644 0.500000 0.982744
O O15 0.250000 0.695115 0.531506
O O16 0.117134 0.500000 0.510291
O O17 0.105175 0.765395 0.482245
O O18 0.250000 0.790308 0.429366
O O19 0.118788 0.000000 0.436375
O O20 0.750000 0.776004 0.134512
O O21 0.632065 0.000000 0.138150
O O22 0.750000 0.795598 0.328319
O O23 0.616613 0.000000 0.328944
#
# Coordination Sequence:
#
# PCOD8212995 Si02
#       8
#     8   8   8   8   8   8   8   8
#     4   7  12  25  43  61  83 113 143 167 201 253
#     4   9  16  25  40  61  80 104 143 183 212 245
#     4  11  21  31  46  68  93 120 146 173 212 261
#     4   8  14  25  39  55  80 113 143 172 211 256
#     4   9  18  32  47  64  90 121 146 169 206 257
#     4  10  21  35  49  65  85 111 148 191 223 247
#     4   9  16  26  41  61  86 114 140 169 210 255
#     4   9  17  30  48  68  90 116 145 175 206 248
#
# _framework density 15.836150999999999
#
# number of rings (size 3 to 8) (size 9 to 14) (size 15 to 20)
#    0.000    3.000    0.000    4.125    0.000    4.750 
#    0.000    3.125    0.000    3.375    0.000    0.875 
#    0.000    5.000    0.000    0.000    0.000    0.000 
#
# Total GULP energy -792980.489145 kJ/mol
# GULP energy per Si atom -12390.320143 kJ/mol
# Density = 1.580011 g / cm^3
# Si number density = 15.836151 Si / 1000 Ang^3
#
#
#
# Elastic Constant Matrix: (Units=GPa)
#
#
# Indices 1 2 3 4 5 6 
#
# 1 86.5442 30.9449 67.1282 0.0000 0.0000 0.0000
# 2 30.9449 46.2320 47.6073 0.0000 0.0000 0.0000
# 3 67.1282 47.6073 139.8505 0.0000 0.0000 0.0000
# 4 0.0000 0.0000 0.0000 99.6549 0.0000 0.0000
# 5 0.0000 0.0000 0.0000 0.0000 23.9132 0.0000
# 6 0.0000 0.0000 0.0000 0.0000 0.0000 19.0932
#
#
#
# Elastic Compliance Matrix: (Units=1/GPa)
#
#
# Indices 1 2 3 4 5 6 
#
# 1 0.019179 -0.005170 -0.007446 0.000000 0.000000 0.000000
# 2 -0.005170 0.034698 -0.009330 0.000000 0.000000 0.000000
# 3 -0.007446 -0.009330 0.013901 0.000000 0.000000 0.000000
# 4 0.000000 0.000000 0.000000 0.010035 0.000000 0.000000
# 5 0.000000 0.000000 0.000000 0.000000 0.041818 0.000000
# 6 0.000000 0.000000 0.000000 0.000000 0.000000 0.052375
#
#
# Mechanical properties :
#
#
# Convention : Reuss Voigt Hill
#
# Bulk Modulus (GPa) = 41.86595 62.66528 52.26561
# Shear Modulus (GPa) = 22.33550 36.99535 29.66542
#
# Velocity S-wave (km/s) = 3.75962 4.83860 4.33283
# Velocity P-wave (km/s) = 6.73355 8.41861 7.62278
#
# Compressibility (1/GPa) = 0.02388576
#
# Stress axis : x y z
#
# Youngs Moduli (GPa) = 52.14109 28.81991 71.93835
#
# Poissons Ratio (x) = 0.14899 0.53565
# Poissons Ratio (y) = 0.26955 0.67122
# Poissons Ratio (z) = 0.38824 0.26890
#
# Static dielectric constant tensor:
#      x y z
#    x 3.072060 0.000000 0.000000 
#    y 0.000000 2.767110 0.000000 
#    z 0.000000 0.000000 3.236310 
# 
# 
# High freq. dielectric constant tensor:
#      x y z
#    x 1.589360 0.000000 0.000000 
#    y 0.000000 1.587490 0.000000 
#    z 0.000000 0.000000 1.606650 
# 
# From -- ./inp_files/37813.got.cif
#   From: 2010.03.12/outbox.cif.g09.slc.cpg/sg51_19_cif.got.tgz:37813.got - 2010.04.16 13:43:02.
