data_PCOD8212542
_publ_section_title
;
Structure prediction by ZEFSAII (Michael W. Deem and Ramdas Pophale) SiO2 
 PCOD8212542
Probable space group: P M M A
;
_chemical_formula_sum "Si O2"
_cell_formula_units_Z 64
_cell_length_a 24.934808
_cell_length_b 8.966717
_cell_length_c 14.614280
_cell_angle_alpha 90.000000
_cell_angle_beta 90.000000
_cell_angle_gamma 90.000000
_cell_volume 3267.509926
_symmetry_space_group_name_H-M "P M M A"
_symmetry_group_IT_number 51
_symmetry_cell_setting 'orthorhombic'
loop_
_space_group_symop_operation_xyz
x,y,z
1/2-x,-y,z
1/2+x,-y,-z
-x,y,-z
-x,-y,-z
1/2+x,y,-z
1/2-x,y,z
x,-y,z
loop_
_atom_site_type_symbol
_atom_site_label
_atom_site_fract_x
_atom_site_fract_y
_atom_site_fract_z
Si Si1 0.189998 0.829155 0.183381
Si Si2 0.152647 0.828175 0.986349
Si Si3 0.592392 0.676803 0.722574
Si Si4 0.512256 0.824478 0.227242
Si Si5 0.052794 0.666993 0.941743
Si Si6 0.441979 0.327115 0.474272
Si Si7 0.400630 0.327008 0.664143
Si Si8 0.188890 0.173367 0.785077
O O1 0.250000 0.794311 0.218104
O O2 0.150039 0.725715 0.240303
O O3 0.174076 0.000000 0.202697
O O4 0.189994 0.798780 0.074007
O O5 0.101316 0.723860 0.004083
O O6 0.181152 0.780506 0.891344
O O7 0.134864 0.000000 0.981634
O O8 0.588447 0.500000 0.730017
O O9 0.545825 0.749026 0.784915
O O10 0.583135 0.739162 0.619294
O O11 0.549321 0.783094 0.141183
O O12 0.543841 0.756823 0.312979
O O13 0.505883 0.000000 0.236449
O O14 0.063949 0.500000 0.905015
O O15 0.000000 0.670867 0.000000
O O16 0.500000 0.254211 0.500000
O O17 0.452572 0.500000 0.455612
O O18 0.397457 0.304172 0.554325
O O19 0.406135 0.500000 0.690194
O O20 0.349023 0.262867 0.715886
O O21 0.250000 0.209994 0.757986
O O22 0.175726 0.000000 0.771940
#
# Coordination Sequence:
#
# PCOD8212542 Si02
#       8
#     8   8   8   8   8   8   8   8
#     4  10  22  41  62  86 120 161 201 242 291 348
#     4  10  20  36  59  84 113 154 201 241 285 345
#     4  11  22  39  63  89 117 152 197 248 298 349
#     4  12  23  36  56  85 121 156 190 233 293 358
#     4  11  23  36  52  80 118 157 196 241 291 343
#     4   9  18  36  61  87 116 152 191 236 297 358
#     4  11  21  37  61  87 117 151 193 243 291 345
#     4  10  21  38  59  85 118 156 197 240 289 347
#
# _framework density 19.586781999999999
#
# number of rings (size 3 to 8) (size 9 to 14) (size 15 to 20)
#    0.000    1.500    2.500    3.375    0.000    5.500 
#    0.000    3.750    0.000    6.000    0.000    0.000 
#    0.000    0.000    0.000    0.000    0.000    0.000 
#
# Total GULP energy -793536.795861 kJ/mol
# GULP energy per Si atom -12399.012435 kJ/mol
# Density = 1.954220 g / cm^3
# Si number density = 19.586782 Si / 1000 Ang^3
#
#
#
# Elastic Constant Matrix: (Units=GPa)
#
#
# Indices 1 2 3 4 5 6 
#
# 1 112.0210 52.3067 34.9314 0.0000 0.0000 0.0000
# 2 52.3067 101.1257 34.4337 0.0000 0.0000 0.0000
# 3 34.9314 34.4337 89.1546 0.0000 0.0000 0.0000
# 4 0.0000 0.0000 0.0000 14.1918 0.0000 0.0000
# 5 0.0000 0.0000 0.0000 0.0000 22.9441 0.0000
# 6 0.0000 0.0000 0.0000 0.0000 0.0000 27.7818
#
#
#
# Elastic Compliance Matrix: (Units=1/GPa)
#
#
# Indices 1 2 3 4 5 6 
#
# 1 0.012318 -0.005444 -0.002724 0.000000 0.000000 0.000000
# 2 -0.005444 0.013792 -0.003194 0.000000 0.000000 0.000000
# 3 -0.002724 -0.003194 0.013517 0.000000 0.000000 0.000000
# 4 0.000000 0.000000 0.000000 0.070463 0.000000 0.000000
# 5 0.000000 0.000000 0.000000 0.000000 0.043584 0.000000
# 6 0.000000 0.000000 0.000000 0.000000 0.000000 0.035995
#
#
# Mechanical properties :
#
#
# Convention : Reuss Voigt Hill
#
# Bulk Modulus (GPa) = 59.15672 60.62721 59.89197
# Shear Modulus (GPa) = 22.93283 25.02551 23.97917
#
# Velocity S-wave (km/s) = 3.42545 3.57833 3.50273
# Velocity P-wave (km/s) = 6.77591 6.93491 6.85587
#
# Compressibility (1/GPa) = 0.01690425
#
# Stress axis : x y z
#
# Youngs Moduli (GPa) = 81.17996 72.50503 73.97998
#
# Poissons Ratio (x) = 0.39473 0.20150
# Poissons Ratio (y) = 0.44196 0.23628
# Poissons Ratio (z) = 0.22111 0.23157
#
# Static dielectric constant tensor:
#      x y z
#    x 3.528390 0.000000 0.000000 
#    y 0.000000 3.460070 0.000000 
#    z 0.000000 0.000000 3.803580 
# 
# 
# High freq. dielectric constant tensor:
#      x y z
#    x 1.758270 0.000000 0.000000 
#    y 0.000000 1.751840 0.000000 
#    z 0.000000 0.000000 1.763480 
# 
# From -- ./inp_files/26231.got.cif
#   From: 2010.03.12/outbox.cif.g09.slc.cpg/sg51_14_cif.got.tgz:26231.got - 2010.04.16 13:43:02.
