data_PCOD8212748
_publ_section_title
;
Structure prediction by ZEFSAII (Michael W. Deem and Ramdas Pophale) SiO2 
 PCOD8212748
Probable space group: P M M A
;
_chemical_formula_sum "Si O2"
_cell_formula_units_Z 48
_cell_length_a 15.539101
_cell_length_b 9.310032
_cell_length_c 16.599329
_cell_angle_alpha 90.000000
_cell_angle_beta 90.000000
_cell_angle_gamma 90.000000
_cell_volume 2401.417084
_symmetry_space_group_name_H-M "P M M A"
_symmetry_group_IT_number 51
_symmetry_cell_setting 'orthorhombic'
loop_
_space_group_symop_operation_xyz
x,y,z
1/2-x,-y,z
1/2+x,-y,-z
-x,y,-z
-x,-y,-z
1/2+x,y,-z
1/2-x,y,z
x,-y,z
loop_
_atom_site_type_symbol
_atom_site_label
_atom_site_fract_x
_atom_site_fract_y
_atom_site_fract_z
Si Si1 0.651761 0.837607 0.498336
Si Si2 0.497736 0.833920 0.905130
Si Si3 0.414169 0.338453 0.646690
Si Si4 0.387912 0.339643 0.346598
Si Si5 0.154316 0.334731 0.169440
Si Si6 0.847999 0.331779 0.183640
O O1 0.750000 0.828501 0.470487
O O2 0.595425 0.758972 0.431581
O O3 0.641165 0.770052 0.585745
O O4 0.618819 0.000000 0.503643
O O5 0.585743 0.768109 0.871808
O O6 0.412604 0.756619 0.872077
O O7 0.493563 0.000000 0.879493
O O8 0.500000 0.814022 0.000000
O O9 0.387714 0.500000 0.622081
O O10 0.512006 0.328437 0.674526
O O11 0.357983 0.285637 0.722690
O O12 0.364510 0.500000 0.376661
O O13 0.339174 0.301967 0.264496
O O14 0.250000 0.306337 0.133373
O O15 0.126302 0.500000 0.155106
O O16 0.750000 0.298993 0.156827
O O17 0.870201 0.500000 0.174662
#
# Coordination Sequence:
#
# PCOD8212748 Si02
#       6
#     8   8   8   8   8   8
#     4  11  24  37  50  78 120 161 202 246 293 349
#     4  11  25  43  63  90 127 166 199 241 302 371
#     4  10  20  37  61  86 114 152 199 249 300 353
#     4  10  20  37  61  86 114 152 199 249 300 353
#     4  10  21  40  67  95 122 157 204 256 306 358
#     4  10  21  40  67  95 122 157 204 256 306 358
#
# _framework density 19.988198000000001
#
# number of rings (size 3 to 8) (size 9 to 14) (size 15 to 20)
#    0.000    1.667    1.667    2.500    0.000    9.333 
#    0.000    3.333    0.000    0.000    0.000    0.000 
#    0.000    0.000    0.000    0.000    0.000    0.000 
#
# Total GULP energy -595325.497574 kJ/mol
# GULP energy per Si atom -12402.614533 kJ/mol
# Density = 1.994270 g / cm^3
# Si number density = 19.988198 Si / 1000 Ang^3
#
#
#
# Elastic Constant Matrix: (Units=GPa)
#
#
# Indices 1 2 3 4 5 6 
#
# 1 113.3992 54.4136 41.8583 0.0000 0.0000 0.0000
# 2 54.4136 122.0741 64.4553 0.0000 0.0000 0.0000
# 3 41.8583 64.4553 85.9004 0.0000 0.0000 0.0000
# 4 0.0000 0.0000 0.0000 72.4748 0.0000 0.0000
# 5 0.0000 0.0000 0.0000 0.0000 6.8962 0.0000
# 6 0.0000 0.0000 0.0000 0.0000 0.0000 25.8788
#
#
#
# Elastic Compliance Matrix: (Units=1/GPa)
#
#
# Indices 1 2 3 4 5 6 
#
# 1 0.011652 -0.003637 -0.002949 0.000000 0.000000 0.000000
# 2 -0.003637 0.014702 -0.009259 0.000000 0.000000 0.000000
# 3 -0.002949 -0.009259 0.020026 0.000000 0.000000 0.000000
# 4 0.000000 0.000000 0.000000 0.013798 0.000000 0.000000
# 5 0.000000 0.000000 0.000000 0.000000 0.145007 0.000000
# 6 0.000000 0.000000 0.000000 0.000000 0.000000 0.038642
#
#
# Mechanical properties :
#
#
# Convention : Reuss Voigt Hill
#
# Bulk Modulus (GPa) = 68.07490 71.42536 69.75013
# Shear Modulus (GPa) = 17.83086 31.75972 24.79529
#
# Velocity S-wave (km/s) = 2.98999 3.99045 3.52589
# Velocity P-wave (km/s) = 6.78613 7.55268 7.17964
#
# Compressibility (1/GPa) = 0.01468970
#
# Stress axis : x y z
#
# Youngs Moduli (GPa) = 85.82203 68.01949 49.93463
#
# Poissons Ratio (x) = 0.24736 0.14726
# Poissons Ratio (y) = 0.31210 0.46236
# Poissons Ratio (z) = 0.25310 0.62981
#
# Static dielectric constant tensor:
#      x y z
#    x 3.910800 0.000000 0.000000 
#    y 0.000000 3.650990 0.000000 
#    z 0.000000 0.000000 3.479580 
# 
# 
# High freq. dielectric constant tensor:
#      x y z
#    x 1.795720 0.000000 0.000000 
#    y 0.000000 1.772760 0.000000 
#    z 0.000000 0.000000 1.775290 
# 
# From -- ./inp_files/29415.got.cif
#   From: 2010.03.12/outbox.cif.g09.slc.cpg/sg51_15_cif.got.tgz:29415.got - 2010.04.16 13:43:02.
