data_PCOD8212578
_publ_section_title
;
Structure prediction by ZEFSAII (Michael W. Deem and Ramdas Pophale) SiO2 
 PCOD8212578
Probable space group: P M M A
;
_chemical_formula_sum "Si O2"
_cell_formula_units_Z 64
_cell_length_a 23.000317
_cell_length_b 8.718449
_cell_length_c 16.148088
_cell_angle_alpha 90.000000
_cell_angle_beta 90.000000
_cell_angle_gamma 90.000000
_cell_volume 3238.129108
_symmetry_space_group_name_H-M "P M M A"
_symmetry_group_IT_number 51
_symmetry_cell_setting 'orthorhombic'
loop_
_space_group_symop_operation_xyz
x,y,z
1/2-x,-y,z
1/2+x,-y,-z
-x,y,-z
-x,-y,-z
1/2+x,y,-z
1/2-x,y,z
x,-y,z
loop_
_atom_site_type_symbol
_atom_site_label
_atom_site_fract_x
_atom_site_fract_y
_atom_site_fract_z
Si Si1 0.315866 0.823024 0.661373
Si Si2 0.965389 0.680418 0.106692
Si Si3 0.317075 0.328435 0.492626
Si Si4 0.494686 0.179222 0.405283
Si Si5 0.583881 0.180541 0.951597
Si Si6 0.683120 0.819283 0.826791
Si Si7 0.882324 0.319026 0.669380
Si Si8 0.577502 0.322918 0.284953
O O1 0.250000 0.776591 0.680413
O O2 0.331360 0.787938 0.566014
O O3 0.354152 0.716276 0.721320
O O4 0.327876 0.000000 0.679452
O O5 0.959808 0.500000 0.090714
O O6 0.951318 0.727193 0.199659
O O7 0.031442 0.732392 0.093799
O O8 0.918724 0.765523 0.047139
O O9 0.250000 0.333091 0.470688
O O10 0.339256 0.500000 0.515987
O O11 0.347846 0.264328 0.411332
O O12 0.500000 0.240751 0.500000
O O13 0.447802 0.264071 0.346954
O O14 0.554980 0.217647 0.360322
O O15 0.480919 0.000000 0.405691
O O16 0.645843 0.224213 0.909336
O O17 0.572593 0.000000 0.945632
O O18 0.750000 0.755584 0.833559
O O19 0.648431 0.753059 0.748898
O O20 0.685554 0.000000 0.815675
O O21 0.881861 0.500000 0.682219
O O22 0.566473 0.500000 0.304786
#
# Coordination Sequence:
#
# PCOD8212578 Si02
#       8
#     8   8   8   8   8   8   8   8
#     4  10  21  36  55  79 106 139 179 222 269 320
#     4  10  21  37  59  86 113 141 178 226 278 332
#     4   9  18  33  52  74 103 141 184 228 271 317
#     4  11  24  39  56  81 114 152 192 236 287 338
#     4  10  20  36  60  86 111 143 182 223 274 334
#     4  10  22  39  58  83 117 155 193 235 285 342
#     4  11  22  35  54  81 112 148 191 234 280 336
#     4  11  23  38  58  83 110 143 182 224 272 326
#
# _framework density 19.764498
#
# number of rings (size 3 to 8) (size 9 to 14) (size 15 to 20)
#    0.000    1.750    0.000    4.875    0.000   10.500 
#    0.000    1.875    0.000    2.250    0.000    0.000 
#    0.000    0.000    0.000    0.000    0.000    0.000 
#
# Total GULP energy -793532.131601 kJ/mol
# GULP energy per Si atom -12398.939556 kJ/mol
# Density = 1.971951 g / cm^3
# Si number density = 19.764498 Si / 1000 Ang^3
#
#
#
# Elastic Constant Matrix: (Units=GPa)
#
#
# Indices 1 2 3 4 5 6 
#
# 1 104.8881 23.4739 52.9381 0.0000 0.0000 0.0000
# 2 23.4739 32.2244 28.7353 0.0000 0.0000 0.0000
# 3 52.9381 28.7353 98.4630 0.0000 0.0000 0.0000
# 4 0.0000 0.0000 0.0000 28.6103 0.0000 0.0000
# 5 0.0000 0.0000 0.0000 0.0000 33.8918 0.0000
# 6 0.0000 0.0000 0.0000 0.0000 0.0000 26.2284
#
#
#
# Elastic Compliance Matrix: (Units=1/GPa)
#
#
# Indices 1 2 3 4 5 6 
#
# 1 0.013564 -0.004566 -0.005960 0.000000 0.000000 0.000000
# 2 -0.004566 0.043486 -0.010236 0.000000 0.000000 0.000000
# 3 -0.005960 -0.010236 0.016348 0.000000 0.000000 0.000000
# 4 0.000000 0.000000 0.000000 0.034953 0.000000 0.000000
# 5 0.000000 0.000000 0.000000 0.000000 0.029506 0.000000
# 6 0.000000 0.000000 0.000000 0.000000 0.000000 0.038127
#
#
# Mechanical properties :
#
#
# Convention : Reuss Voigt Hill
#
# Bulk Modulus (GPa) = 31.37375 49.54112 40.45744
# Shear Modulus (GPa) = 21.91717 26.44131 24.17924
#
# Velocity S-wave (km/s) = 3.33365 3.66159 3.50146
# Velocity P-wave (km/s) = 5.54309 6.55717 6.07134
#
# Compressibility (1/GPa) = 0.03187378
#
# Stress axis : x y z
#
# Youngs Moduli (GPa) = 73.72500 22.99574 61.17036
#
# Poissons Ratio (x) = 0.10500 0.36458
# Poissons Ratio (y) = 0.33662 0.62615
# Poissons Ratio (z) = 0.43940 0.23539
#
# Static dielectric constant tensor:
#      x y z
#    x 3.838580 0.000000 0.000000 
#    y 0.000000 3.573160 0.000000 
#    z 0.000000 0.000000 3.644380 
# 
# 
# High freq. dielectric constant tensor:
#      x y z
#    x 1.777180 0.000000 0.000000 
#    y 0.000000 1.772720 0.000000 
#    z 0.000000 0.000000 1.765270 
# 
# From -- ./inp_files/26203.got.cif
#   From: 2010.03.12/outbox.cif.g09.slc.cpg/sg51_14_cif.got.tgz:26203.got - 2010.04.16 13:43:02.
