data_PCOD8212669
_publ_section_title
;
Structure prediction by ZEFSAII (Michael W. Deem and Ramdas Pophale) SiO2 
 PCOD8212669
Probable space group: P M M A
;
_chemical_formula_sum "Si O2"
_cell_formula_units_Z 40
_cell_length_a 8.546313
_cell_length_b 25.751854
_cell_length_c 9.455573
_cell_angle_alpha 90.000000
_cell_angle_beta 90.000000
_cell_angle_gamma 90.000000
_cell_volume 2081.014698
_symmetry_space_group_name_H-M "P M M A"
_symmetry_group_IT_number 51
_symmetry_cell_setting 'orthorhombic'
loop_
_space_group_symop_operation_xyz
x,y,z
1/2-x,-y,z
1/2+x,-y,-z
-x,y,-z
-x,-y,-z
1/2+x,y,-z
1/2-x,y,z
x,-y,z
loop_
_atom_site_type_symbol
_atom_site_label
_atom_site_fract_x
_atom_site_fract_y
_atom_site_fract_z
Si Si1 0.064711 0.906572 0.842297
Si Si2 0.435525 0.000000 0.341659
Si Si3 0.064667 0.388604 0.155603
Si Si4 0.566167 0.500000 0.844970
Si Si5 0.434493 0.701216 0.351133
Si Si6 0.435719 0.181059 0.346662
O O1 0.250000 0.912204 0.846756
O O2 0.993397 0.949688 0.740555
O O3 0.015329 0.851299 0.778415
O O4 0.000000 0.913040 0.000000
O O5 0.500000 0.000000 0.500000
O O6 0.250000 0.000000 0.348106
O O7 0.250000 0.384009 0.150787
O O8 0.014228 0.444851 0.226230
O O9 0.993424 0.340304 0.241899
O O10 0.000000 0.383802 0.000000
O O11 0.750000 0.500000 0.858530
O O12 0.500000 0.500000 0.000000
O O13 0.500000 0.683664 0.500000
O O14 0.250000 0.698013 0.355954
O O15 0.486592 0.759773 0.313767
O O16 0.500000 0.163507 0.500000
O O17 0.250000 0.172923 0.344826
#
# Coordination Sequence:
#
# PCOD8212669 Si02
#       6
#     8   4   8   4   8   8
#     4  12  25  42  62  88 119 151 185 228 276 322
#     4  12  25  44  67  92 120 154 192 228 267 320
#     4   9  17  30  48  72  98 130 170 216 264 317
#     4   8  14  26  45  66  94 128 166 210 261 314
#     4   9  19  34  52  74 104 138 176 217 264 317
#     4  10  20  37  58  81 108 144 185 226 270 325
#
# _framework density 19.221392999999999
#
# number of rings (size 3 to 8) (size 9 to 14) (size 15 to 20)
#    0.000    2.000    0.000    4.200    0.000    2.400 
#    0.000    2.500    0.000    0.000    0.000    0.000 
#    0.000    0.000    0.000    0.000    0.000    0.000 
#
# Total GULP energy -495745.139744 kJ/mol
# GULP energy per Si atom -12393.628494 kJ/mol
# Density = 1.917764 g / cm^3
# Si number density = 19.221393 Si / 1000 Ang^3
#
#
#
# Elastic Constant Matrix: (Units=GPa)
#
#
# Indices 1 2 3 4 5 6 
#
# 1 81.6508 39.6004 44.2607 0.0000 0.0000 0.0000
# 2 39.6004 151.4973 90.0974 0.0000 0.0000 0.0000
# 3 44.2607 90.0974 136.3744 0.0000 0.0000 0.0000
# 4 0.0000 0.0000 0.0000 227.1555 0.0000 0.0000
# 5 0.0000 0.0000 0.0000 0.0000 32.4121 0.0000
# 6 0.0000 0.0000 0.0000 0.0000 0.0000 25.7760
#
#
#
# Elastic Compliance Matrix: (Units=1/GPa)
#
#
# Indices 1 2 3 4 5 6 
#
# 1 0.015124 -0.001703 -0.003783 0.000000 0.000000 0.000000
# 2 -0.001703 0.011065 -0.006757 0.000000 0.000000 0.000000
# 3 -0.003783 -0.006757 0.013025 0.000000 0.000000 0.000000
# 4 0.000000 0.000000 0.000000 0.004402 0.000000 0.000000
# 5 0.000000 0.000000 0.000000 0.000000 0.030853 0.000000
# 6 0.000000 0.000000 0.000000 0.000000 0.000000 0.038796
#
#
# Mechanical properties :
#
#
# Convention : Reuss Voigt Hill
#
# Bulk Modulus (GPa) = 67.90679 79.71551 73.81115
# Shear Modulus (GPa) = 35.04827 70.10633 52.57730
#
# Velocity S-wave (km/s) = 4.27476 6.04585 5.23573
# Velocity P-wave (km/s) = 7.73112 9.50256 8.66224
#
# Compressibility (1/GPa) = 0.01472607
#
# Stress axis : x y z
#
# Youngs Moduli (GPa) = 66.11909 90.37854 76.77685
#
# Poissons Ratio (x) = 0.15395 0.29046
# Poissons Ratio (y) = 0.11263 0.51879
# Poissons Ratio (z) = 0.25014 0.61070
#
# Static dielectric constant tensor:
#      x y z
#    x 3.533330 0.000000 0.000000 
#    y 0.000000 4.300800 0.000000 
#    z 0.000000 0.000000 3.522790 
# 
# 
# High freq. dielectric constant tensor:
#      x y z
#    x 1.750500 0.000000 0.000000 
#    y 0.000000 1.773880 0.000000 
#    z 0.000000 0.000000 1.731530 
# 
# From -- ./inp_files/5631.got.cif
#   From: 2010.03.12/outbox.cif.g09.slc.cpg/sg51_3_cif.got.tgz:5631.got - 2010.04.16 13:43:02.
