data_PCOD8212247
_publ_section_title
;
Structure prediction by ZEFSAII (Michael W. Deem and Ramdas Pophale) SiO2 
 PCOD8212247
Probable space group: P M M A
;
_chemical_formula_sum "Si O2"
_cell_formula_units_Z 64
_cell_length_a 8.824754
_cell_length_b 14.288400
_cell_length_c 25.446175
_cell_angle_alpha 90.000000
_cell_angle_beta 90.000000
_cell_angle_gamma 90.000000
_cell_volume 3208.549303
_symmetry_space_group_name_H-M "P M M A"
_symmetry_group_IT_number 51
_symmetry_cell_setting 'orthorhombic'
loop_
_space_group_symop_operation_xyz
x,y,z
1/2-x,-y,z
1/2+x,-y,-z
-x,y,-z
-x,-y,-z
1/2+x,y,-z
1/2-x,y,z
x,-y,z
loop_
_atom_site_type_symbol
_atom_site_label
_atom_site_fract_x
_atom_site_fract_y
_atom_site_fract_z
Si Si1 0.572695 0.601134 0.556953
Si Si2 0.071904 0.780844 0.947032
Si Si3 0.427237 0.108720 0.843175
Si Si4 0.571704 0.215512 0.442760
Si Si5 0.426627 0.394520 0.787728
Si Si6 0.424355 0.892429 0.354345
Si Si7 0.427314 0.606184 0.100053
Si Si8 0.071184 0.218934 0.252049
O O1 0.500000 0.595123 0.500000
O O2 0.750000 0.622793 0.552017
O O3 0.546079 0.500000 0.585543
O O4 0.490954 0.688654 0.585192
O O5 0.250000 0.775858 0.953895
O O6 0.024433 0.847225 0.898840
O O7 0.009408 0.675741 0.939826
O O8 0.000000 0.823663 0.000000
O O9 0.250000 0.124295 0.832428
O O10 0.520373 0.159426 0.797957
O O11 0.470874 0.000000 0.843959
O O12 0.500000 0.200059 0.500000
O O13 0.750000 0.220491 0.448948
O O14 0.524976 0.130556 0.405232
O O15 0.250000 0.376200 0.796939
O O16 0.457156 0.500000 0.767267
O O17 0.510434 0.375050 0.842036
O O18 0.492816 0.321036 0.745928
O O19 0.250000 0.870252 0.367651
O O20 0.481544 0.833659 0.304539
O O21 0.448453 0.000000 0.339732
O O22 0.250000 0.627216 0.100382
O O23 0.462802 0.500000 0.082314
O O24 0.250000 0.231838 0.250154
#
# Coordination Sequence:
#
# PCOD8212247 Si02
#       8
#     8   8   8   8   8   8   8   8
#     4   9  16  28  50  80 114 152 193 236 282 334
#     4  11  23  38  57  82 116 156 197 245 297 350
#     4  10  22  40  61  85 114 151 195 242 295 354
#     4  11  22  37  60  88 120 159 200 243 294 352
#     4  10  20  35  58  88 122 159 195 233 284 346
#     4  10  23  43  63  86 118 154 196 247 297 347
#     4  10  20  35  57  85 116 151 193 240 290 348
#     4  11  22  38  64  93 120 151 192 241 293 347
#
# _framework density 19.946708999999998
#
# number of rings (size 3 to 8) (size 9 to 14) (size 15 to 20)
#    0.000    1.750    1.250    4.125    0.000    5.500 
#    0.000    0.625    0.000    0.750    0.000    0.000 
#    0.000    0.000    0.000    0.000    0.000    0.000 
#
# Total GULP energy -793641.951416 kJ/mol
# GULP energy per Si atom -12400.655491 kJ/mol
# Density = 1.990131 g / cm^3
# Si number density = 19.946709 Si / 1000 Ang^3
#
#
#
# Elastic Constant Matrix: (Units=GPa)
#
#
# Indices 1 2 3 4 5 6 
#
# 1 89.3717 36.3067 40.4277 0.0000 0.0000 0.0000
# 2 36.3067 114.3097 49.6534 0.0000 0.0000 0.0000
# 3 40.4277 49.6534 97.0358 0.0000 0.0000 0.0000
# 4 0.0000 0.0000 0.0000 29.5858 0.0000 0.0000
# 5 0.0000 0.0000 0.0000 0.0000 29.4809 0.0000
# 6 0.0000 0.0000 0.0000 0.0000 0.0000 32.1000
#
#
#
# Elastic Compliance Matrix: (Units=1/GPa)
#
#
# Indices 1 2 3 4 5 6 
#
# 1 0.014330 -0.002518 -0.004682 0.000000 0.000000 0.000000
# 2 -0.002518 0.011691 -0.004933 0.000000 0.000000 0.000000
# 3 -0.004682 -0.004933 0.014780 0.000000 0.000000 0.000000
# 4 0.000000 0.000000 0.000000 0.033800 0.000000 0.000000
# 5 0.000000 0.000000 0.000000 0.000000 0.033920 0.000000
# 6 0.000000 0.000000 0.000000 0.000000 0.000000 0.031153
#
#
# Mechanical properties :
#
#
# Convention : Reuss Voigt Hill
#
# Bulk Modulus (GPa) = 60.47643 61.49922 60.98782
# Shear Modulus (GPa) = 29.50697 29.85528 29.68113
#
# Velocity S-wave (km/s) = 3.85033 3.87299 3.86167
# Velocity P-wave (km/s) = 7.08177 7.13433 7.10810
#
# Compressibility (1/GPa) = 0.01653537
#
# Stress axis : x y z
#
# Youngs Moduli (GPa) = 69.78406 85.53805 67.65709
#
# Poissons Ratio (x) = 0.21536 0.31676
# Poissons Ratio (y) = 0.17570 0.33377
# Poissons Ratio (z) = 0.32672 0.42198
#
# Static dielectric constant tensor:
#      x y z
#    x 3.677250 0.000000 0.000000 
#    y 0.000000 4.089590 0.000000 
#    z 0.000000 0.000000 3.383750 
# 
# 
# High freq. dielectric constant tensor:
#      x y z
#    x 1.786130 0.000000 0.000000 
#    y 0.000000 1.792890 0.000000 
#    z 0.000000 0.000000 1.755200 
# 
# From -- ./inp_files/34863.got.cif
#   From: 2010.03.12/outbox.cif.g09.slc.cpg/sg51_18_cif.got.tgz:34863.got - 2010.04.16 13:43:02.
