data_PCOD8212879
_publ_section_title
;
Structure prediction by ZEFSAII (Michael W. Deem and Ramdas Pophale) SiO2 
 PCOD8212879
Probable space group: P M M A
;
_chemical_formula_sum "Si O2"
_cell_formula_units_Z 56
_cell_length_a 21.794130
_cell_length_b 9.004991
_cell_length_c 14.676917
_cell_angle_alpha 90.000000
_cell_angle_beta 90.000000
_cell_angle_gamma 90.000000
_cell_volume 2880.432208
_symmetry_space_group_name_H-M "P M M A"
_symmetry_group_IT_number 51
_symmetry_cell_setting 'orthorhombic'
loop_
_space_group_symop_operation_xyz
x,y,z
1/2-x,-y,z
1/2+x,-y,-z
-x,y,-z
-x,-y,-z
1/2+x,y,-z
1/2-x,y,z
x,-y,z
loop_
_atom_site_type_symbol
_atom_site_label
_atom_site_fract_x
_atom_site_fract_y
_atom_site_fract_z
Si Si1 0.012157 0.167602 0.402823
Si Si2 0.979597 0.328076 0.230789
Si Si3 0.386509 0.324296 0.172326
Si Si4 0.653348 0.674081 0.169725
Si Si5 0.250000 0.677745 0.474030
Si Si6 0.651969 0.830293 0.650950
Si Si7 0.250000 0.326035 0.681457
Si Si8 0.680803 0.830160 0.986149
O O1 0.083349 0.176797 0.383114
O O2 0.000000 0.244558 0.500000
O O3 0.972507 0.250760 0.327814
O O4 0.987675 0.000000 0.404366
O O5 0.983155 0.500000 0.252072
O O6 0.919031 0.288292 0.173854
O O7 0.041678 0.277058 0.179226
O O8 0.378013 0.500000 0.180680
O O9 0.345087 0.246373 0.249829
O O10 0.364005 0.269576 0.074571
O O11 0.664505 0.500000 0.150610
O O12 0.688975 0.722123 0.262284
O O13 0.680710 0.769305 0.088305
O O14 0.250000 0.500000 0.470077
O O15 0.309182 0.739646 0.422192
O O16 0.250000 0.740152 0.578509
O O17 0.675611 0.000000 0.659412
O O18 0.250000 0.500000 0.668444
O O19 0.750000 0.819047 0.948293
O O20 0.657798 0.000000 0.984867
#
# Coordination Sequence:
#
# PCOD8212879 Si02
#       8
#     8   8   8   8   4   8   4   8
#     4   9  19  35  55  80 112 151 193 232 280 341
#     4   9  20  36  58  87 115 146 188 239 288 335
#     4  10  21  39  61  87 117 150 190 237 289 345
#     4  10  20  39  63  86 115 151 192 237 287 341
#     4  11  23  37  56  85 116 151 195 238 284 341
#     4  10  21  38  57  82 117 153 190 236 284 337
#     4   9  20  37  58  83 114 151 193 236 280 335
#     4  11  24  40  59  86 116 150 192 238 288 344
#
# _framework density 19.441527000000001
#
# number of rings (size 3 to 8) (size 9 to 14) (size 15 to 20)
#    0.000    2.143    0.714    1.500    3.000    3.429 
#    0.000    4.286    0.000    0.000    0.000    0.000 
#    0.000    0.000    0.000    0.000    0.000    0.000 
#
# Total GULP energy -694386.760760 kJ/mol
# GULP energy per Si atom -12399.763585 kJ/mol
# Density = 1.939728 g / cm^3
# Si number density = 19.441527 Si / 1000 Ang^3
#
#
#
# Elastic Constant Matrix: (Units=GPa)
#
#
# Indices 1 2 3 4 5 6 
#
# 1 76.9076 36.0124 41.4560 0.0000 0.0000 0.0000
# 2 36.0124 72.7823 40.3122 0.0000 0.0000 0.0000
# 3 41.4560 40.3122 109.9060 0.0000 0.0000 0.0000
# 4 0.0000 0.0000 0.0000 26.9962 0.0000 0.0000
# 5 0.0000 0.0000 0.0000 0.0000 22.6403 0.0000
# 6 0.0000 0.0000 0.0000 0.0000 0.0000 21.7505
#
#
#
# Elastic Compliance Matrix: (Units=1/GPa)
#
#
# Indices 1 2 3 4 5 6 
#
# 1 0.018585 -0.006668 -0.004565 0.000000 0.000000 0.000000
# 2 -0.006668 0.019635 -0.004687 0.000000 0.000000 0.000000
# 3 -0.004565 -0.004687 0.012539 0.000000 0.000000 0.000000
# 4 0.000000 0.000000 0.000000 0.037042 0.000000 0.000000
# 5 0.000000 0.000000 0.000000 0.000000 0.044169 0.000000
# 6 0.000000 0.000000 0.000000 0.000000 0.000000 0.045976
#
#
# Mechanical properties :
#
#
# Convention : Reuss Voigt Hill
#
# Bulk Modulus (GPa) = 52.85060 55.01745 53.93403
# Shear Modulus (GPa) = 23.13831 23.73175 23.43503
#
# Velocity S-wave (km/s) = 3.45360 3.49760 3.47567
# Velocity P-wave (km/s) = 6.56860 6.68366 6.62638
#
# Compressibility (1/GPa) = 0.01892126
#
# Stress axis : x y z
#
# Youngs Moduli (GPa) = 53.80594 50.93051 79.74822
#
# Poissons Ratio (x) = 0.33959 0.36402
# Poissons Ratio (y) = 0.35876 0.37376
# Poissons Ratio (z) = 0.24561 0.23870
#
# Static dielectric constant tensor:
#      x y z
#    x 3.682750 0.000000 0.000000 
#    y 0.000000 3.560220 0.000000 
#    z 0.000000 0.000000 3.592730 
# 
# 
# High freq. dielectric constant tensor:
#      x y z
#    x 1.761170 0.000000 0.000000 
#    y 0.000000 1.751530 0.000000 
#    z 0.000000 0.000000 1.760180 
# 
# From -- ./inp_files/25880.got.cif
#   From: 2010.03.12/outbox.cif.g09.slc.cpg/sg51_13_cif.got.tgz:25880.got - 2010.04.16 13:43:02.
