data_PCOD8212090
_publ_section_title
;
Structure prediction by ZEFSAII (Michael W. Deem and Ramdas Pophale) SiO2 
 PCOD8212090
Probable space group: P M M A
;
_chemical_formula_sum "Si O2"
_cell_formula_units_Z 48
_cell_length_a 8.548093
_cell_length_b 30.591553
_cell_length_c 9.465434
_cell_angle_alpha 90.000000
_cell_angle_beta 90.000000
_cell_angle_gamma 90.000000
_cell_volume 2475.205691
_symmetry_space_group_name_H-M "P M M A"
_symmetry_group_IT_number 51
_symmetry_cell_setting 'orthorhombic'
loop_
_space_group_symop_operation_xyz
x,y,z
1/2-x,-y,z
1/2+x,-y,-z
-x,y,-z
-x,-y,-z
1/2+x,y,-z
1/2-x,y,z
x,-y,z
loop_
_atom_site_type_symbol
_atom_site_label
_atom_site_fract_x
_atom_site_fract_y
_atom_site_fract_z
Si Si1 0.565958 0.451181 0.148175
Si Si2 0.435222 0.218560 0.655542
Si Si3 0.934819 0.048420 0.848744
Si Si4 0.935363 0.372960 0.342877
Si Si5 0.435989 0.125810 0.347646
Si Si6 0.935153 0.705006 0.842887
O O1 0.750000 0.452051 0.132897
O O2 0.500531 0.500000 0.180150
O O3 0.515511 0.419496 0.275526
O O4 0.500000 0.433217 0.000000
O O5 0.500000 0.230078 0.500000
O O6 0.250000 0.220669 0.647465
O O7 0.490447 0.170957 0.707573
O O8 0.496882 0.251697 0.772091
O O9 0.750000 0.049321 0.854650
O O10 0.998127 0.085537 0.744893
O O11 0.993294 0.000000 0.801141
O O12 0.000000 0.060751 0.000000
O O13 0.750000 0.365796 0.343565
O O14 0.000000 0.370907 0.500000
O O15 0.014600 0.335964 0.249965
O O16 0.500000 0.114741 0.500000
O O17 0.250000 0.130467 0.348432
O O18 0.750000 0.708222 0.848800
O O19 0.000000 0.699665 0.000000
#
# Coordination Sequence:
#
# PCOD8212090 Si02
#       6
#     8   8   8   8   8   8
#     4   9  19  36  58  84 115 151 191 235 283 335
#     4  11  22  39  61  85 114 148 186 228 279 334
#     4   9  19  35  54  77 107 143 183 227 274 326
#     4  11  23  39  59  85 117 153 193 236 284 335
#     4  10  20  35  55  81 112 145 184 228 275 328
#     4  12  25  42  62  86 115 147 187 232 281 335
#
# _framework density 19.392329
#
# number of rings (size 3 to 8) (size 9 to 14) (size 15 to 20)
#    0.000    1.667    0.000    6.000    0.000    5.333 
#    0.000    1.667    0.000    0.000    0.000    0.000 
#    0.000    0.000    0.000    0.000    0.000    0.000 
#
# Total GULP energy -595250.449856 kJ/mol
# GULP energy per Si atom -12401.051039 kJ/mol
# Density = 1.934819 g / cm^3
# Si number density = 19.392329 Si / 1000 Ang^3
#
#
#
# Elastic Constant Matrix: (Units=GPa)
#
#
# Indices 1 2 3 4 5 6 
#
# 1 106.4129 51.0742 46.0268 0.0000 0.0000 0.0000
# 2 51.0742 149.6518 97.0777 0.0000 0.0000 0.0000
# 3 46.0268 97.0777 133.7798 0.0000 0.0000 0.0000
# 4 0.0000 0.0000 0.0000 55.4875 0.0000 0.0000
# 5 0.0000 0.0000 0.0000 0.0000 35.8623 0.0000
# 6 0.0000 0.0000 0.0000 0.0000 0.0000 29.3632
#
#
#
# Elastic Compliance Matrix: (Units=1/GPa)
#
#
# Indices 1 2 3 4 5 6 
#
# 1 0.011543 -0.002576 -0.002102 0.000000 0.000000 0.000000
# 2 -0.002576 0.013200 -0.008692 0.000000 0.000000 0.000000
# 3 -0.002102 -0.008692 0.014506 0.000000 0.000000 0.000000
# 4 0.000000 0.000000 0.000000 0.018022 0.000000 0.000000
# 5 0.000000 0.000000 0.000000 0.000000 0.027884 0.000000
# 6 0.000000 0.000000 0.000000 0.000000 0.000000 0.034056
#
#
# Mechanical properties :
#
#
# Convention : Reuss Voigt Hill
#
# Bulk Modulus (GPa) = 79.94878 86.46686 83.20782
# Shear Modulus (GPa) = 33.30638 37.18699 35.24668
#
# Velocity S-wave (km/s) = 4.14877 4.38381 4.26791
# Velocity P-wave (km/s) = 8.01662 8.38503 8.20289
#
# Compressibility (1/GPa) = 0.01250801
#
# Stress axis : x y z
#
# Youngs Moduli (GPa) = 86.63336 75.75814 68.93762
#
# Poissons Ratio (x) = 0.19513 0.14492
# Poissons Ratio (y) = 0.22315 0.59923
# Poissons Ratio (z) = 0.18212 0.65852
#
# Static dielectric constant tensor:
#      x y z
#    x 3.630280 0.000000 0.000000 
#    y 0.000000 4.094260 0.000000 
#    z 0.000000 0.000000 3.582760 
# 
# 
# High freq. dielectric constant tensor:
#      x y z
#    x 1.764210 0.000000 0.000000 
#    y 0.000000 1.772790 0.000000 
#    z 0.000000 0.000000 1.755320 
# 
# From -- ./inp_files/6058.got.cif
#   From: 2010.03.12/outbox.cif.g09.slc.cpg/sg51_4_cif.got.tgz:6058.got - 2010.04.16 13:43:02.
