data_PCOD8212788
_publ_section_title
;
Structure prediction by ZEFSAII (Michael W. Deem and Ramdas Pophale) SiO2 
 PCOD8212788
Probable space group: P M M A
;
_chemical_formula_sum "Si O2"
_cell_formula_units_Z 32
_cell_length_a 13.135823
_cell_length_b 8.726972
_cell_length_c 13.508128
_cell_angle_alpha 90.000000
_cell_angle_beta 90.000000
_cell_angle_gamma 90.000000
_cell_volume 1548.517215
_symmetry_space_group_name_H-M "P M M A"
_symmetry_group_IT_number 51
_symmetry_cell_setting 'orthorhombic'
loop_
_space_group_symop_operation_xyz
x,y,z
1/2-x,-y,z
1/2+x,-y,-z
-x,y,-z
-x,-y,-z
1/2+x,y,-z
1/2-x,y,z
x,-y,z
loop_
_atom_site_type_symbol
_atom_site_label
_atom_site_fract_x
_atom_site_fract_y
_atom_site_fract_z
Si Si1 0.112252 0.167283 0.467955
Si Si2 0.037705 0.680115 0.892082
Si Si3 0.250000 0.819943 0.824800
Si Si4 0.634746 0.820580 0.755684
Si Si5 0.250000 0.675340 0.614213
O O1 0.125317 0.233990 0.357860
O O2 0.153653 0.289059 0.546205
O O3 0.000000 0.140107 0.500000
O O4 0.167276 0.000000 0.472931
O O5 0.052724 0.500000 0.882211
O O6 0.147499 0.755120 0.873947
O O7 0.950364 0.730459 0.816124
O O8 0.000000 0.730093 0.000000
O O9 0.250000 0.783168 0.709133
O O10 0.250000 0.000000 0.840757
O O11 0.750000 0.784012 0.793665
O O12 0.610513 0.000000 0.765220
O O13 0.250000 0.500000 0.649416
#
# Coordination Sequence:
#
# PCOD8212788 Si02
#       5
#     8   8   4   8   4
#     4  10  20  37  62  91 127 172 216 258 308 371
#     4  11  26  46  69  98 133 170 213 273 341 395
#     4  12  26  46  71  96 129 172 223 274 322 388
#     4  10  21  39  64  98 136 175 223 270 317 385
#     4  12  24  38  61  94 131 168 209 258 318 382
#
# _framework density 20.664930999999999
#
# number of rings (size 3 to 8) (size 9 to 14) (size 15 to 20)
#    0.000    1.250    1.250    4.500    1.750    6.000 
#    0.000    0.000    0.000    0.000    0.000    0.000 
#    0.000    0.000    0.000    0.000    0.000    0.000 
#
# Total GULP energy -396686.675523 kJ/mol
# GULP energy per Si atom -12396.458610 kJ/mol
# Density = 2.061790 g / cm^3
# Si number density = 20.664931 Si / 1000 Ang^3
#
#
#
# Elastic Constant Matrix: (Units=GPa)
#
#
# Indices 1 2 3 4 5 6 
#
# 1 177.9974 53.9690 76.5467 0.0000 0.0000 0.0000
# 2 53.9690 87.0962 48.9263 0.0000 0.0000 0.0000
# 3 76.5467 48.9263 138.3891 0.0000 0.0000 0.0000
# 4 0.0000 0.0000 0.0000 35.0195 0.0000 0.0000
# 5 0.0000 0.0000 0.0000 0.0000 30.8871 0.0000
# 6 0.0000 0.0000 0.0000 0.0000 0.0000 37.4148
#
#
#
# Elastic Compliance Matrix: (Units=1/GPa)
#
#
# Indices 1 2 3 4 5 6 
#
# 1 0.007982 -0.003077 -0.003327 0.000000 0.000000 0.000000
# 2 -0.003077 0.015513 -0.003783 0.000000 0.000000 0.000000
# 3 -0.003327 -0.003783 0.010404 0.000000 0.000000 0.000000
# 4 0.000000 0.000000 0.000000 0.028556 0.000000 0.000000
# 5 0.000000 0.000000 0.000000 0.000000 0.032376 0.000000
# 6 0.000000 0.000000 0.000000 0.000000 0.000000 0.026727
#
#
# Mechanical properties :
#
#
# Convention : Reuss Voigt Hill
#
# Bulk Modulus (GPa) = 73.93596 84.70740 79.32168
# Shear Modulus (GPa) = 34.14394 35.60034 34.87214
#
# Velocity S-wave (km/s) = 4.06922 4.15510 4.11238
# Velocity P-wave (km/s) = 7.61145 8.00623 7.81133
#
# Compressibility (1/GPa) = 0.01352522
#
# Stress axis : x y z
#
# Youngs Moduli (GPa) = 125.28524 64.46208 96.12039
#
# Poissons Ratio (x) = 0.19834 0.31980
# Poissons Ratio (y) = 0.38549 0.36358
# Poissons Ratio (z) = 0.41684 0.24383
#
# Static dielectric constant tensor:
#      x y z
#    x 3.919980 0.000000 0.000000 
#    y 0.000000 3.645750 0.000000 
#    z 0.000000 0.000000 3.837770 
# 
# 
# High freq. dielectric constant tensor:
#      x y z
#    x 1.833920 0.000000 0.000000 
#    y 0.000000 1.801150 0.000000 
#    z 0.000000 0.000000 1.814080 
# 
# From -- ./inp_files/15963.got.cif
#   From: 2010.03.12/outbox.cif.g09.slc.cpg/sg51_8_cif.got.tgz:15963.got - 2010.04.16 13:43:02.
