data_PCOD8212935
_publ_section_title
;
Structure prediction by ZEFSAII (Michael W. Deem and Ramdas Pophale) SiO2 
 PCOD8212935
Probable space group: P M M A
;
_chemical_formula_sum "Si O2"
_cell_formula_units_Z 56
_cell_length_a 15.245488
_cell_length_b 19.422939
_cell_length_c 9.452830
_cell_angle_alpha 90.000000
_cell_angle_beta 90.000000
_cell_angle_gamma 90.000000
_cell_volume 2799.098131
_symmetry_space_group_name_H-M "P M M A"
_symmetry_group_IT_number 51
_symmetry_cell_setting 'orthorhombic'
loop_
_space_group_symop_operation_xyz
x,y,z
1/2-x,-y,z
1/2+x,-y,-z
-x,y,-z
-x,-y,-z
1/2+x,y,-z
1/2-x,y,z
x,-y,z
loop_
_atom_site_type_symbol
_atom_site_label
_atom_site_fract_x
_atom_site_fract_y
_atom_site_fract_z
Si Si1 0.350227 0.653416 0.177399
Si Si2 0.086849 0.922940 0.406352
Si Si3 0.652955 0.925997 0.309002
Si Si4 0.003456 0.418667 0.662203
Si Si5 0.147646 0.344314 0.845651
Si Si6 0.148006 0.187579 0.192465
Si Si7 0.854744 0.192423 0.122811
O O1 0.250000 0.633866 0.213811
O O2 0.413964 0.604380 0.263685
O O3 0.367921 0.732098 0.225952
O O4 0.367251 0.640156 0.011307
O O5 0.162459 0.911393 0.523501
O O6 0.091853 0.863458 0.289985
O O7 0.000000 0.914514 0.500000
O O8 0.093672 0.000000 0.338580
O O9 0.750000 0.930450 0.244740
O O10 0.603348 0.865176 0.225994
O O11 0.604291 0.000000 0.284404
O O12 0.009240 0.500000 0.668335
O O13 0.089127 0.391300 0.744237
O O14 0.000000 0.392486 0.500000
O O15 0.250000 0.354705 0.805341
O O16 0.113560 0.266370 0.820901
O O17 0.250000 0.168339 0.208137
O O18 0.112710 0.175066 0.034253
O O19 0.750000 0.195653 0.122413
#
# Coordination Sequence:
#
# PCOD8212935 Si02
#       7
#     8   8   8   8   8   8   8
#     4   9  20  39  61  86 115 147 188 239 290 342
#     4  10  21  34  46  68 106 146 182 222 268 321
#     4   9  17  30  48  70  98 134 175 216 258 308
#     4  11  25  41  58  86 120 151 186 228 278 341
#     4   9  19  38  62  86 115 151 191 236 284 339
#     4   9  18  34  56  80 103 131 175 227 274 322
#     4   8  16  32  54  80 106 132 171 225 277 322
#
# _framework density 20.006444999999999
#
# number of rings (size 3 to 8) (size 9 to 14) (size 15 to 20)
#    0.000    2.714    0.000    2.571    0.000    6.571 
#    0.000    9.286    0.000    2.571    0.000    0.000 
#    0.000    0.000    0.000    0.000    0.000    0.000 
#
# Total GULP energy -693896.743393 kJ/mol
# GULP energy per Si atom -12391.013275 kJ/mol
# Density = 1.996091 g / cm^3
# Si number density = 20.006445 Si / 1000 Ang^3
#
#
#
# Elastic Constant Matrix: (Units=GPa)
#
#
# Indices 1 2 3 4 5 6 
#
# 1 84.2435 43.3989 50.9701 0.0000 0.0000 0.0000
# 2 43.3989 111.4193 76.7102 0.0000 0.0000 0.0000
# 3 50.9701 76.7102 109.7523 0.0000 0.0000 0.0000
# 4 0.0000 0.0000 0.0000 41.3473 0.0000 0.0000
# 5 0.0000 0.0000 0.0000 0.0000 26.0042 0.0000
# 6 0.0000 0.0000 0.0000 0.0000 0.0000 23.3444
#
#
#
# Elastic Compliance Matrix: (Units=1/GPa)
#
#
# Indices 1 2 3 4 5 6 
#
# 1 0.016799 -0.002259 -0.006223 0.000000 0.000000 0.000000
# 2 -0.002259 0.017604 -0.011255 0.000000 0.000000 0.000000
# 3 -0.006223 -0.011255 0.019868 0.000000 0.000000 0.000000
# 4 0.000000 0.000000 0.000000 0.024185 0.000000 0.000000
# 5 0.000000 0.000000 0.000000 0.000000 0.038455 0.000000
# 6 0.000000 0.000000 0.000000 0.000000 0.000000 0.042837
#
#
# Mechanical properties :
#
#
# Convention : Reuss Voigt Hill
#
# Bulk Modulus (GPa) = 67.57975 71.95260 69.76618
# Shear Modulus (GPa) = 24.49133 27.09489 25.79311
#
# Velocity S-wave (km/s) = 3.50261 3.68409 3.59449
# Velocity P-wave (km/s) = 7.08590 7.35795 7.22321
#
# Compressibility (1/GPa) = 0.01479733
#
# Stress axis : x y z
#
# Youngs Moduli (GPa) = 59.52700 56.80588 50.33314
#
# Poissons Ratio (x) = 0.12834 0.31320
# Poissons Ratio (y) = 0.13449 0.56649
# Poissons Ratio (z) = 0.37041 0.63934
#
# Static dielectric constant tensor:
#      x y z
#    x 3.631870 0.000000 0.000000 
#    y 0.000000 3.751650 0.000000 
#    z 0.000000 0.000000 3.819020 
# 
# 
# High freq. dielectric constant tensor:
#      x y z
#    x 1.779810 0.000000 0.000000 
#    y 0.000000 1.780260 0.000000 
#    z 0.000000 0.000000 1.770810 
# 
# From -- ./inp_files/8504.got.cif
#   From: 2010.03.12/outbox.cif.g09.slc.cpg/sg51_5_cif.got.tgz:8504.got - 2010.04.16 13:43:02.
