data_PCOD8212675
_publ_section_title
;
Structure prediction by ZEFSAII (Michael W. Deem and Ramdas Pophale) SiO2 
 PCOD8212675
Probable space group: P M M A
;
_chemical_formula_sum "Si O2"
_cell_formula_units_Z 48
_cell_length_a 8.652830
_cell_length_b 16.963620
_cell_length_c 16.138296
_cell_angle_alpha 90.000000
_cell_angle_beta 90.000000
_cell_angle_gamma 90.000000
_cell_volume 2368.832667
_symmetry_space_group_name_H-M "P M M A"
_symmetry_group_IT_number 51
_symmetry_cell_setting 'orthorhombic'
loop_
_space_group_symop_operation_xyz
x,y,z
1/2-x,-y,z
1/2+x,-y,-z
-x,y,-z
-x,-y,-z
1/2+x,y,-z
1/2-x,y,z
x,-y,z
loop_
_atom_site_type_symbol
_atom_site_label
_atom_site_fract_x
_atom_site_fract_y
_atom_site_fract_z
Si Si1 0.431266 0.091682 0.752523
Si Si2 0.432969 0.178303 0.088742
Si Si3 0.573364 0.180063 0.408950
Si Si4 0.068528 0.643291 0.085448
Si Si5 0.424493 0.500000 0.827893
Si Si6 0.927400 0.500000 0.664605
Si Si7 0.572644 0.646386 0.414721
O O1 0.250000 0.109364 0.759291
O O2 0.510222 0.127145 0.834395
O O3 0.498073 0.126839 0.665660
O O4 0.469985 0.000000 0.752205
O O5 0.250000 0.172782 0.082462
O O6 0.488921 0.268395 0.105372
O O7 0.500000 0.148721 0.000000
O O8 0.500000 0.165600 0.500000
O O9 0.750000 0.156311 0.422785
O O10 0.561913 0.268839 0.369508
O O11 0.250000 0.639792 0.081074
O O12 0.010068 0.580927 0.151567
O O13 0.000000 0.612267 0.000000
O O14 0.250000 0.500000 0.860993
O O15 0.433941 0.500000 0.729933
O O16 0.750000 0.500000 0.697606
O O17 0.954678 0.420398 0.614412
O O18 0.500000 0.672489 0.500000
O O19 0.750000 0.615529 0.418508
#
# Coordination Sequence:
#
# PCOD8212675 Si02
#       7
#     8   8   8   8   4   4   8
#     4  10  22  40  62  90 124 160 198 246 304 363
#     4  10  22  40  64  92 121 158 202 248 301 359
#     4   9  20  38  61  89 120 158 200 246 298 356
#     4  10  21  39  60  85 115 152 195 242 292 346
#     4  12  25  38  55  82 116 156 196 240 289 346
#     4  12  25  38  53  80 116 152 194 246 293 344
#     4  10  20  37  58  82 111 151 197 241 294 350
#
# _framework density 20.263145000000002
#
# number of rings (size 3 to 8) (size 9 to 14) (size 15 to 20)
#    0.000    1.833    0.000    3.500    2.333    4.333 
#    0.000    0.000    0.000    0.000    0.000    0.000 
#    0.000    0.000    0.000    0.000    0.000    0.000 
#
# Total GULP energy -594751.845692 kJ/mol
# GULP energy per Si atom -12390.663452 kJ/mol
# Density = 2.021703 g / cm^3
# Si number density = 20.263145 Si / 1000 Ang^3
#
#
#
# Elastic Constant Matrix: (Units=GPa)
#
#
# Indices 1 2 3 4 5 6 
#
# 1 77.8663 38.7618 35.1257 0.0000 0.0000 0.0000
# 2 38.7618 119.5594 67.7550 0.0000 0.0000 0.0000
# 3 35.1257 67.7550 128.4659 0.0000 0.0000 0.0000
# 4 0.0000 0.0000 0.0000 249.8497 0.0000 0.0000
# 5 0.0000 0.0000 0.0000 0.0000 35.6384 0.0000
# 6 0.0000 0.0000 0.0000 0.0000 0.0000 36.7362
#
#
#
# Elastic Compliance Matrix: (Units=1/GPa)
#
#
# Indices 1 2 3 4 5 6 
#
# 1 0.015779 -0.003809 -0.002305 0.000000 0.000000 0.000000
# 2 -0.003809 0.012849 -0.005735 0.000000 0.000000 0.000000
# 3 -0.002305 -0.005735 0.011439 0.000000 0.000000 0.000000
# 4 0.000000 0.000000 0.000000 0.004002 0.000000 0.000000
# 5 0.000000 0.000000 0.000000 0.000000 0.028060 0.000000
# 6 0.000000 0.000000 0.000000 0.000000 0.000000 0.027221
#
#
# Mechanical properties :
#
#
# Convention : Reuss Voigt Hill
#
# Bulk Modulus (GPa) = 61.09577 67.68627 64.39102
# Shear Modulus (GPa) = 38.90871 76.72814 57.81843
#
# Velocity S-wave (km/s) = 4.38673 6.16020 5.34750
# Velocity P-wave (km/s) = 7.47492 9.16916 8.36505
#
# Compressibility (1/GPa) = 0.01636775
#
# Stress axis : x y z
#
# Youngs Moduli (GPa) = 63.37693 77.82541 87.41688
#
# Poissons Ratio (x) = 0.29644 0.20152
# Poissons Ratio (y) = 0.24141 0.50137
# Poissons Ratio (z) = 0.14610 0.44636
#
# Static dielectric constant tensor:
#      x y z
#    x 3.621480 0.000000 0.000000 
#    y 0.000000 3.966490 0.000000 
#    z 0.000000 0.000000 3.746660 
# 
# 
# High freq. dielectric constant tensor:
#      x y z
#    x 1.791130 0.000000 0.000000 
#    y 0.000000 1.798460 0.000000 
#    z 0.000000 0.000000 1.791500 
# 
# From -- ./inp_files/21170.got.cif
#   From: 2010.03.12/outbox.cif.g09.slc.cpg/sg51_11_cif.got.tgz:21170.got - 2010.04.16 13:43:02.
