data_PCOD8212252
_publ_section_title
;
Structure prediction by ZEFSAII (Michael W. Deem and Ramdas Pophale) SiO2 
 PCOD8212252
Probable space group: P M M A
;
_chemical_formula_sum "Si O2"
_cell_formula_units_Z 64
_cell_length_a 25.080328
_cell_length_b 14.716772
_cell_length_c 8.821803
_cell_angle_alpha 90.000000
_cell_angle_beta 90.000000
_cell_angle_gamma 90.000000
_cell_volume 3256.140445
_symmetry_space_group_name_H-M "P M M A"
_symmetry_group_IT_number 51
_symmetry_cell_setting 'orthorhombic'
loop_
_space_group_symop_operation_xyz
x,y,z
1/2-x,-y,z
1/2+x,-y,-z
-x,y,-z
-x,-y,-z
1/2+x,y,-z
1/2-x,y,z
x,-y,z
loop_
_atom_site_type_symbol
_atom_site_label
_atom_site_fract_x
_atom_site_fract_y
_atom_site_fract_z
Si Si1 0.470670 0.902306 0.157259
Si Si2 0.311410 0.904385 0.811166
Si Si3 0.499912 0.289417 0.180564
Si Si4 0.812660 0.291976 0.178448
Si Si5 0.189214 0.287265 0.178048
Si Si6 0.596117 0.604723 0.322071
Si Si7 0.902773 0.394822 0.676300
Si Si8 0.153363 0.098284 0.148583
O O1 0.494187 0.814305 0.245494
O O2 0.408913 0.884008 0.122007
O O3 0.478052 0.000000 0.245164
O O4 0.500000 0.912118 0.000000
O O5 0.250000 0.906811 0.766432
O O6 0.333585 0.806543 0.755019
O O7 0.338151 0.000000 0.747984
O O8 0.315741 0.905326 0.991279
O O9 0.554719 0.331647 0.236172
O O10 0.450513 0.348101 0.235325
O O11 0.500000 0.286561 0.000000
O O12 0.750000 0.306186 0.209595
O O13 0.844589 0.370113 0.265835
O O14 0.824723 0.296455 0.999531
O O15 0.250000 0.312835 0.211580
O O16 0.154061 0.357209 0.272234
O O17 0.177450 0.184432 0.238870
O O18 0.584922 0.500000 0.281715
O O19 0.589932 0.622435 0.499077
O O20 0.904648 0.500000 0.717361
O O21 0.162325 0.000000 0.232174
#
# Coordination Sequence:
#
# PCOD8212252 Si02
#       8
#     8   8   8   8   8   8   8   8
#     4   9  18  30  50  85 120 147 177 220 275 334
#     4   8  14  25  46  78 112 144 178 220 271 325
#     4  11  22  38  64  90 113 143 184 235 284 329
#     4   9  19  35  57  86 117 146 185 237 282 324
#     4  10  20  35  57  87 116 146 190 239 285 330
#     4  11  25  41  59  81 109 151 194 232 283 347
#     4  11  24  42  59  79 111 150 191 235 287 345
#     4   9  15  27  49  79 116 149 181 225 277 331
#
# _framework density 19.655173000000001
#
# number of rings (size 3 to 8) (size 9 to 14) (size 15 to 20)
#    0.000    2.250    1.250    2.625    5.250    5.250 
#    0.000    2.500    0.000    3.750    0.000    1.750 
#    0.000    0.000    0.000    0.000    0.000    0.000 
#
# Total GULP energy -792878.716781 kJ/mol
# GULP energy per Si atom -12388.729950 kJ/mol
# Density = 1.961044 g / cm^3
# Si number density = 19.655173 Si / 1000 Ang^3
#
#
#
# Elastic Constant Matrix: (Units=GPa)
#
#
# Indices 1 2 3 4 5 6 
#
# 1 78.4988 53.8642 23.1886 0.0000 0.0000 0.0000
# 2 53.8642 158.8133 50.1837 0.0000 0.0000 0.0000
# 3 23.1886 50.1837 40.5344 0.0000 0.0000 0.0000
# 4 0.0000 0.0000 0.0000 -5.8526 0.0000 0.0000
# 5 0.0000 0.0000 0.0000 0.0000 12.4156 0.0000
# 6 0.0000 0.0000 0.0000 0.0000 0.0000 27.4856
#
#
#
# Elastic Compliance Matrix: (Units=1/GPa)
#
#
# Indices 1 2 3 4 5 6 
#
# 1 0.017039 -0.004433 -0.004259 0.000000 0.000000 0.000000
# 2 -0.004433 0.011497 -0.011697 0.000000 0.000000 0.000000
# 3 -0.004259 -0.011697 0.041588 0.000000 0.000000 0.000000
# 4 0.000000 0.000000 0.000000 -0.170865 0.000000 0.000000
# 5 0.000000 0.000000 0.000000 0.000000 0.080544 0.000000
# 6 0.000000 0.000000 0.000000 0.000000 0.000000 0.036383
#
#
# Mechanical properties :
#
#
# Convention : Reuss Voigt Hill
#
# Bulk Modulus (GPa) = 34.07692 59.14660 46.61176
# Shear Modulus (GPa) = 74.91068 16.85040 45.88054
#
# Velocity S-wave (km/s) = 6.18023 2.93115 4.83667
# Velocity P-wave (km/s) = 8.26450 6.45081 7.41333
#
# Compressibility (1/GPa) = 0.02934538
#
# Stress axis : x y z
#
# Youngs Moduli (GPa) = 58.68821 86.98281 24.04517
#
# Poissons Ratio (x) = 0.38562 0.10241
# Poissons Ratio (y) = 0.26018 0.28126
# Poissons Ratio (z) = 0.24995 1.01745
#
# Static dielectric constant tensor:
#      x y z
#    x 3.680200 0.000000 0.000000 
#    y 0.000000 4.372290 0.000000 
#    z 0.000000 0.000000 3.157620 
# 
# 
# High freq. dielectric constant tensor:
#      x y z
#    x 1.771930 0.000000 0.000000 
#    y 0.000000 1.796330 0.000000 
#    z 0.000000 0.000000 1.705400 
# 
# From -- ./inp_files/11901.got.cif
#   From: 2010.03.12/outbox.cif.g09.slc.cpg/sg51_6_cif.got.tgz:11901.got - 2010.04.16 13:43:02.
