data_PCOD8212012
_publ_section_title
;
Structure prediction by ZEFSAII (Michael W. Deem and Ramdas Pophale) SiO2 
 PCOD8212012
Probable space group: P M M A
;
_chemical_formula_sum "Si O2"
_cell_formula_units_Z 48
_cell_length_a 8.819300
_cell_length_b 30.343112
_cell_length_c 9.460726
_cell_angle_alpha 90.000000
_cell_angle_beta 90.000000
_cell_angle_gamma 90.000000
_cell_volume 2531.737654
_symmetry_space_group_name_H-M "P M M A"
_symmetry_group_IT_number 51
_symmetry_cell_setting 'orthorhombic'
loop_
_space_group_symop_operation_xyz
x,y,z
1/2-x,-y,z
1/2+x,-y,-z
-x,y,-z
-x,-y,-z
1/2+x,y,-z
1/2-x,y,z
x,-y,z
loop_
_atom_site_type_symbol
_atom_site_label
_atom_site_fract_x
_atom_site_fract_y
_atom_site_fract_z
Si Si1 0.068191 0.000000 0.342894
Si Si2 0.074219 0.422056 0.150743
Si Si3 0.071174 0.745891 0.645664
Si Si4 0.570369 0.923532 0.155452
Si Si5 0.426706 0.676449 0.151014
Si Si6 0.926375 0.845159 0.355186
Si Si7 0.570245 0.500000 0.653046
O O1 0.000000 0.000000 0.500000
O O2 0.009949 0.042209 0.258469
O O3 0.250000 0.000000 0.351341
O O4 0.250000 0.430284 0.125425
O O5 0.044328 0.372808 0.211127
O O6 0.010577 0.456728 0.264461
O O7 0.000000 0.430292 0.000000
O O8 0.250000 0.742682 0.635707
O O9 0.017218 0.795765 0.681110
O O10 0.000000 0.729889 0.500000
O O11 0.011741 0.713061 0.761591
O O12 0.750000 0.933037 0.147541
O O13 0.533821 0.875645 0.221211
O O14 0.500000 0.926541 0.000000
O O15 0.250000 0.687797 0.144050
O O16 0.500000 0.679026 0.000000
O O17 0.750000 0.845618 0.386365
O O18 0.000000 0.863100 0.500000
O O19 0.750000 0.500000 0.638556
O O20 0.500000 0.500000 0.500000
#
# Coordination Sequence:
#
# PCOD8212012 Si02
#       7
#     4   8   8   8   8   8   4
#     4  12  25  42  63  88 116 150 188 228 273 328
#     4   9  19  35  55  77 103 135 176 218 263 318
#     4  10  20  36  56  81 111 146 184 226 273 324
#     4  11  23  40  60  86 117 150 186 229 277 325
#     4  10  20  35  54  79 108 141 179 223 270 323
#     4   9  20  37  58  82 110 144 186 228 272 325
#     4  10  21  36  52  76 106 136 171 216 264 316
#
# _framework density 18.959309999999999
#
# number of rings (size 3 to 8) (size 9 to 14) (size 15 to 20)
#    0.000    2.000    0.000    3.250    0.000    6.000 
#    0.000    3.333    0.000    0.000    0.000    0.000 
#    0.000    0.000    0.000    0.000    0.000    0.000 
#
# Total GULP energy -595181.773444 kJ/mol
# GULP energy per Si atom -12399.620280 kJ/mol
# Density = 1.891616 g / cm^3
# Si number density = 18.959310 Si / 1000 Ang^3
#
#
#
# Elastic Constant Matrix: (Units=GPa)
#
#
# Indices 1 2 3 4 5 6 
#
# 1 84.1791 47.4749 48.4824 0.0000 0.0000 0.0000
# 2 47.4749 112.7224 64.4447 0.0000 0.0000 0.0000
# 3 48.4824 64.4447 112.9582 0.0000 0.0000 0.0000
# 4 0.0000 0.0000 0.0000 29.4444 0.0000 0.0000
# 5 0.0000 0.0000 0.0000 0.0000 39.7927 0.0000
# 6 0.0000 0.0000 0.0000 0.0000 0.0000 27.2787
#
#
#
# Elastic Compliance Matrix: (Units=1/GPa)
#
#
# Indices 1 2 3 4 5 6 
#
# 1 0.017182 -0.004482 -0.004817 0.000000 0.000000 0.000000
# 2 -0.004482 0.014335 -0.006255 0.000000 0.000000 0.000000
# 3 -0.004817 -0.006255 0.014489 0.000000 0.000000 0.000000
# 4 0.000000 0.000000 0.000000 0.033962 0.000000 0.000000
# 5 0.000000 0.000000 0.000000 0.000000 0.025130 0.000000
# 6 0.000000 0.000000 0.000000 0.000000 0.000000 0.036659
#
#
# Mechanical properties :
#
#
# Convention : Reuss Voigt Hill
#
# Bulk Modulus (GPa) = 67.12632 70.07373 68.60003
# Shear Modulus (GPa) = 28.11663 29.26702 28.69183
#
# Velocity S-wave (km/s) = 3.85515 3.93323 3.89438
# Velocity P-wave (km/s) = 7.43630 7.59390 7.51551
#
# Compressibility (1/GPa) = 0.01489729
#
# Stress axis : x y z
#
# Youngs Moduli (GPa) = 58.20095 69.75974 69.01894
#
# Poissons Ratio (x) = 0.31268 0.33249
# Poissons Ratio (y) = 0.26087 0.43168
# Poissons Ratio (z) = 0.28037 0.43631
#
# Static dielectric constant tensor:
#      x y z
#    x 3.572570 0.000000 0.000000 
#    y 0.000000 3.977770 0.000000 
#    z 0.000000 0.000000 3.489930 
# 
# 
# High freq. dielectric constant tensor:
#      x y z
#    x 1.743830 0.000000 0.000000 
#    y 0.000000 1.752360 0.000000 
#    z 0.000000 0.000000 1.735730 
# 
# From -- ./inp_files/6109.got.cif
#   From: 2010.03.12/outbox.cif.g09.slc.cpg/sg51_4_cif.got.tgz:6109.got - 2010.04.16 13:43:02.
