data_PCOD8212609
_publ_section_title
;
Structure prediction by ZEFSAII (Michael W. Deem and Ramdas Pophale) SiO2 
 PCOD8212609
Probable space group: P M M A
;
_chemical_formula_sum "Si O2"
_cell_formula_units_Z 40
_cell_length_a 28.292515
_cell_length_b 10.317368
_cell_length_c 6.193204
_cell_angle_alpha 90.000000
_cell_angle_beta 90.000000
_cell_angle_gamma 90.000000
_cell_volume 1807.822810
_symmetry_space_group_name_H-M "P M M A"
_symmetry_group_IT_number 51
_symmetry_cell_setting 'orthorhombic'
loop_
_space_group_symop_operation_xyz
x,y,z
1/2-x,-y,z
1/2+x,-y,-z
-x,y,-z
-x,-y,-z
1/2+x,y,-z
1/2-x,y,z
x,-y,z
loop_
_atom_site_type_symbol
_atom_site_label
_atom_site_fract_x
_atom_site_fract_y
_atom_site_fract_z
Si Si1 0.457114 0.354151 0.158352
Si Si2 0.801674 0.356802 0.464690
Si Si3 0.621419 0.261802 0.143391
Si Si4 0.331952 0.139990 0.233159
Si Si5 0.570509 0.142474 0.521833
O O1 0.461177 0.500000 0.254073
O O2 0.461083 0.250316 0.354350
O O3 0.500000 0.323264 0.000000
O O4 0.407107 0.347610 0.031098
O O5 0.750000 0.342831 0.350019
O O6 0.806495 0.500000 0.568009
O O7 0.845118 0.345297 0.299070
O O8 0.801525 0.253591 0.659587
O O9 0.581380 0.184480 0.276592
O O10 0.657048 0.165996 0.018381
O O11 0.380556 0.130740 0.357972
O O12 0.305776 0.000000 0.249068
O O13 0.545574 0.000000 0.522601
#
# Coordination Sequence:
#
# PCOD8212609 Si02
#       5
#     8   8   8   8   8
#     4  10  22  38  56  83 118 154 194 239 287 341
#     4  10  22  38  56  82 113 144 184 232 281 340
#     4  10  20  36  61  84 110 149 190 235 287 340
#     4   9  19  36  57  81 110 143 180 226 279 334
#     4   9  19  36  58  83 111 144 185 231 277 330
#
# _framework density 22.126064
#
# number of rings (size 3 to 8) (size 9 to 14) (size 15 to 20)
#    0.000    2.400    0.000    1.200    0.000   12.800 
#    0.000    5.000    0.000    0.000    0.000    0.000 
#    0.000    0.000    0.000    0.000    0.000    0.000 
#
# Total GULP energy -495684.127553 kJ/mol
# GULP energy per Si atom -12392.103189 kJ/mol
# Density = 2.207570 g / cm^3
# Si number density = 22.126064 Si / 1000 Ang^3
#
#
#
# Elastic Constant Matrix: (Units=GPa)
#
#
# Indices 1 2 3 4 5 6 
#
# 1 71.8740 23.4371 6.4171 0.0000 0.0000 0.0000
# 2 23.4371 174.6043 39.6126 0.0000 0.0000 0.0000
# 3 6.4171 39.6126 80.5748 0.0000 0.0000 0.0000
# 4 0.0000 0.0000 0.0000 -83.3565 0.0000 0.0000
# 5 0.0000 0.0000 0.0000 0.0000 29.0350 0.0000
# 6 0.0000 0.0000 0.0000 0.0000 0.0000 4.2782
#
#
#
# Elastic Compliance Matrix: (Units=1/GPa)
#
#
# Indices 1 2 3 4 5 6 
#
# 1 0.014554 -0.001903 -0.000224 0.000000 0.000000 0.000000
# 2 -0.001903 0.006695 -0.003140 0.000000 0.000000 0.000000
# 3 -0.000224 -0.003140 0.013972 0.000000 0.000000 0.000000
# 4 0.000000 0.000000 0.000000 -0.011997 0.000000 0.000000
# 5 0.000000 0.000000 0.000000 0.000000 0.034441 0.000000
# 6 0.000000 0.000000 0.000000 0.000000 0.000000 0.233742
#
#
# Mechanical properties :
#
#
# Convention : Reuss Voigt Hill
#
# Bulk Modulus (GPa) = 40.50493 51.77630 46.14061
# Shear Modulus (GPa) = 16.12024 7.16378 11.64201
#
# Velocity S-wave (km/s) = 2.70212 1.80132 2.29632
# Velocity P-wave (km/s) = 5.29919 5.27046 5.28484
#
# Compressibility (1/GPa) = 0.02468835
#
# Stress axis : x y z
#
# Youngs Moduli (GPa) = 68.71112 149.36533 71.57030
#
# Poissons Ratio (x) = 0.28421 0.01600
# Poissons Ratio (y) = 0.13074 0.22472
# Poissons Ratio (z) = 0.01536 0.46899
#
# Static dielectric constant tensor:
#      x y z
#    x 3.787440 0.000000 0.000000 
#    y 0.000000 4.444260 0.000000 
#    z 0.000000 0.000000 4.051760 
# 
# 
# High freq. dielectric constant tensor:
#      x y z
#    x 1.861630 0.000000 0.000000 
#    y 0.000000 1.879350 0.000000 
#    z 0.000000 0.000000 1.854410 
# 
# From -- ./inp_files/3884.got.cif
#   From: 2010.03.12/outbox.cif.g09.slc.cpg/sg51_2_cif.got.tgz:3884.got - 2010.04.16 13:43:02.
