data_PCOD8212807
_publ_section_title
;
Structure prediction by ZEFSAII (Michael W. Deem and Ramdas Pophale) SiO2 
 PCOD8212807
Probable space group: P M M A
;
_chemical_formula_sum "Si O2"
_cell_formula_units_Z 48
_cell_length_a 8.793904
_cell_length_b 20.382842
_cell_length_c 14.076762
_cell_angle_alpha 90.000000
_cell_angle_beta 90.000000
_cell_angle_gamma 90.000000
_cell_volume 2523.185767
_symmetry_space_group_name_H-M "P M M A"
_symmetry_group_IT_number 51
_symmetry_cell_setting 'orthorhombic'
loop_
_space_group_symop_operation_xyz
x,y,z
1/2-x,-y,z
1/2+x,-y,-z
-x,y,-z
-x,-y,-z
1/2+x,y,-z
1/2-x,y,z
x,-y,z
loop_
_atom_site_type_symbol
_atom_site_label
_atom_site_fract_x
_atom_site_fract_y
_atom_site_fract_z
Si Si1 0.569330 0.255985 0.102111
Si Si2 0.072254 0.623147 0.204847
Si Si3 0.570392 0.500000 0.103456
Si Si4 0.925253 0.331387 0.593063
Si Si5 0.072484 0.000000 0.103378
Si Si6 0.928849 0.183587 0.596357
Si Si7 0.070654 0.134335 0.201025
O O1 0.750000 0.264008 0.099113
O O2 0.494857 0.308066 0.172265
O O3 0.524210 0.183977 0.136372
O O4 0.500000 0.270315 0.000000
O O5 0.250000 0.618306 0.178385
O O6 0.045851 0.620789 0.318073
O O7 0.981892 0.563946 0.159003
O O8 0.750000 0.500000 0.093974
O O9 0.500000 0.500000 0.000000
O O10 0.750000 0.324060 0.571216
O O11 0.990461 0.257971 0.611645
O O12 0.000000 0.363757 0.500000
O O13 0.022943 0.062693 0.165049
O O14 0.250000 0.000000 0.085661
O O15 0.000000 0.000000 0.000000
O O16 0.750000 0.181701 0.584353
O O17 0.977538 0.141239 0.688492
O O18 0.000000 0.153154 0.500000
O O19 0.250000 0.148731 0.187987
#
# Coordination Sequence:
#
# PCOD8212807 Si02
#       7
#     8   8   4   8   4   8   8
#     4  12  24  37  57  85 114 148 190 243 294 344
#     4  11  22  41  63  87 118 155 195 240 290 342
#     4  12  26  44  63  88 119 158 199 240 290 348
#     4   9  18  33  57  86 117 151 187 234 288 342
#     4  10  22  38  59  80 110 154 195 240 293 352
#     4   9  17  32  54  82 115 149 186 233 287 343
#     4  10  20  38  58  82 114 151 194 239 291 347
#
# _framework density 19.023571
#
# number of rings (size 3 to 8) (size 9 to 14) (size 15 to 20)
#    0.000    1.667    1.667    3.750    0.000    4.000 
#    0.000    0.833    0.000    0.000    0.000    0.000 
#    0.000    0.000    0.000    0.000    0.000    0.000 
#
# Total GULP energy -595253.895023 kJ/mol
# GULP energy per Si atom -12401.122813 kJ/mol
# Density = 1.898027 g / cm^3
# Si number density = 19.023571 Si / 1000 Ang^3
#
#
#
# Elastic Constant Matrix: (Units=GPa)
#
#
# Indices 1 2 3 4 5 6 
#
# 1 89.2288 39.1542 56.0306 0.0000 0.0000 0.0000
# 2 39.1542 98.5770 42.6811 0.0000 0.0000 0.0000
# 3 56.0306 42.6811 132.7504 0.0000 0.0000 0.0000
# 4 0.0000 0.0000 0.0000 24.7325 0.0000 0.0000
# 5 0.0000 0.0000 0.0000 0.0000 36.7035 0.0000
# 6 0.0000 0.0000 0.0000 0.0000 0.0000 50.0213
#
#
#
# Elastic Compliance Matrix: (Units=1/GPa)
#
#
# Indices 1 2 3 4 5 6 
#
# 1 0.016580 -0.004131 -0.005670 0.000000 0.000000 0.000000
# 2 -0.004131 0.012814 -0.002376 0.000000 0.000000 0.000000
# 3 -0.005670 -0.002376 0.010690 0.000000 0.000000 0.000000
# 4 0.000000 0.000000 0.000000 0.040433 0.000000 0.000000
# 5 0.000000 0.000000 0.000000 0.000000 0.027245 0.000000
# 6 0.000000 0.000000 0.000000 0.000000 0.000000 0.019991
#
#
# Mechanical properties :
#
#
# Convention : Reuss Voigt Hill
#
# Bulk Modulus (GPa) = 63.57217 66.25420 64.91318
# Shear Modulus (GPa) = 31.77607 34.47082 33.12345
#
# Velocity S-wave (km/s) = 4.09143 4.26138 4.17727
# Velocity P-wave (km/s) = 7.47060 7.68866 7.58042
#
# Compressibility (1/GPa) = 0.01573015
#
# Stress axis : x y z
#
# Youngs Moduli (GPa) = 60.31320 78.04010 93.54393
#
# Poissons Ratio (x) = 0.32235 0.53040
# Poissons Ratio (y) = 0.24913 0.22230
# Poissons Ratio (z) = 0.34198 0.18546
#
# Static dielectric constant tensor:
#      x y z
#    x 3.471230 0.000000 0.000000 
#    y 0.000000 3.425240 0.000000 
#    z 0.000000 0.000000 3.742700 
# 
# 
# High freq. dielectric constant tensor:
#      x y z
#    x 1.738490 0.000000 0.000000 
#    y 0.000000 1.721590 0.000000 
#    z 0.000000 0.000000 1.757920 
# 
# From -- ./inp_files/21241.got.cif
#   From: 2010.03.12/outbox.cif.g09.slc.cpg/sg51_11_cif.got.tgz:21241.got - 2010.04.16 13:43:02.
