data_PCOD8212460
_publ_section_title
;
Structure prediction by ZEFSAII (Michael W. Deem and Ramdas Pophale) SiO2 
 PCOD8212460
Probable space group: P M M A
;
_chemical_formula_sum "Si O2"
_cell_formula_units_Z 64
_cell_length_a 15.289429
_cell_length_b 23.302365
_cell_length_c 8.781101
_cell_angle_alpha 90.000000
_cell_angle_beta 90.000000
_cell_angle_gamma 90.000000
_cell_volume 3128.529393
_symmetry_space_group_name_H-M "P M M A"
_symmetry_group_IT_number 51
_symmetry_cell_setting 'orthorhombic'
loop_
_space_group_symop_operation_xyz
x,y,z
1/2-x,-y,z
1/2+x,-y,-z
-x,y,-z
-x,-y,-z
1/2+x,y,-z
1/2-x,y,z
x,-y,z
loop_
_atom_site_type_symbol
_atom_site_label
_atom_site_fract_x
_atom_site_fract_y
_atom_site_fract_z
Si Si1 0.464885 0.121928 0.164658
Si Si2 0.149470 0.743816 0.796913
Si Si3 0.994011 0.566034 0.821429
Si Si4 0.646571 0.232760 0.867033
Si Si5 0.916460 0.840671 0.407453
Si Si6 0.149392 0.649556 0.306363
Si Si7 0.647592 0.627380 0.338416
Si Si8 0.652058 0.062875 0.623277
O O1 0.408418 0.179613 0.196082
O O2 0.553024 0.124320 0.261072
O O3 0.407167 0.069497 0.226399
O O4 0.500000 0.108493 0.000000
O O5 0.250000 0.735069 0.828090
O O6 0.138549 0.787157 0.655358
O O7 0.111757 0.682158 0.753635
O O8 0.109030 0.761350 0.959879
O O9 0.971474 0.500000 0.791781
O O10 0.911490 0.602086 0.766883
O O11 0.083383 0.577965 0.724837
O O12 0.000000 0.579166 0.000000
O O13 0.750000 0.218751 0.862292
O O14 0.624844 0.287581 0.760711
O O15 0.860407 0.885429 0.504556
O O16 0.000000 0.817291 0.500000
O O17 0.250000 0.636012 0.263643
O O18 0.134443 0.644681 0.486377
O O19 0.750000 0.611444 0.307530
O O20 0.750000 0.065348 0.682892
O O21 0.631534 0.000000 0.550101
#
# Coordination Sequence:
#
# PCOD8212460 Si02
#       8
#     8   8   8   8   8   8   8   8
#     4  11  22  37  59  92 124 156 198 256 319 371
#     4  10  20  36  57  84 121 161 201 247 304 369
#     4  11  25  43  65  91 122 167 215 264 313 372
#     4  10  21  37  59  87 126 165 198 244 307 378
#     4  10  22  35  58  89 119 158 202 251 306 360
#     4  10  23  41  63  93 126 165 208 261 321 376
#     4  10  23  40  62  93 127 166 209 261 318 374
#     4  10  23  44  65  84 116 165 212 255 307 372
#
# _framework density 20.456894999999999
#
# number of rings (size 3 to 8) (size 9 to 14) (size 15 to 20)
#    0.000    1.750    1.250    1.875    5.250    6.000 
#    0.000    2.500    0.000    1.500    0.000    0.000 
#    0.000    0.000    0.000    0.000    0.000    0.000 
#
# Total GULP energy -793160.264143 kJ/mol
# GULP energy per Si atom -12393.129127 kJ/mol
# Density = 2.041033 g / cm^3
# Si number density = 20.456895 Si / 1000 Ang^3
#
#
#
# Elastic Constant Matrix: (Units=GPa)
#
#
# Indices 1 2 3 4 5 6 
#
# 1 66.4200 29.7145 23.3188 0.0000 0.0000 0.0000
# 2 29.7145 78.1784 20.0567 0.0000 0.0000 0.0000
# 3 23.3188 20.0567 99.8151 0.0000 0.0000 0.0000
# 4 0.0000 0.0000 0.0000 28.8198 0.0000 0.0000
# 5 0.0000 0.0000 0.0000 0.0000 23.0085 0.0000
# 6 0.0000 0.0000 0.0000 0.0000 0.0000 28.5926
#
#
#
# Elastic Compliance Matrix: (Units=1/GPa)
#
#
# Indices 1 2 3 4 5 6 
#
# 1 0.019039 -0.006427 -0.003157 0.000000 0.000000 0.000000
# 2 -0.006427 0.015656 -0.001644 0.000000 0.000000 0.000000
# 3 -0.003157 -0.001644 0.011086 0.000000 0.000000 0.000000
# 4 0.000000 0.000000 0.000000 0.034698 0.000000 0.000000
# 5 0.000000 0.000000 0.000000 0.000000 0.043462 0.000000
# 6 0.000000 0.000000 0.000000 0.000000 0.000000 0.034974
#
#
# Mechanical properties :
#
#
# Convention : Reuss Voigt Hill
#
# Bulk Modulus (GPa) = 42.87075 43.39929 43.13502
# Shear Modulus (GPa) = 26.43452 27.50572 26.97012
#
# Velocity S-wave (km/s) = 3.59863 3.67082 3.63490
# Velocity P-wave (km/s) = 6.18619 6.26319 6.22481
#
# Compressibility (1/GPa) = 0.02332593
#
# Stress axis : x y z
#
# Youngs Moduli (GPa) = 52.52372 63.87403 90.20061
#
# Poissons Ratio (x) = 0.41050 0.28472
# Poissons Ratio (y) = 0.33755 0.14833
# Poissons Ratio (z) = 0.16579 0.10504
#
# Static dielectric constant tensor:
#      x y z
#    x 3.803440 0.000000 0.000000 
#    y 0.000000 3.658130 0.000000 
#    z 0.000000 0.000000 4.149740 
# 
# 
# High freq. dielectric constant tensor:
#      x y z
#    x 1.805670 0.000000 0.000000 
#    y 0.000000 1.790330 0.000000 
#    z 0.000000 0.000000 1.811670 
# 
# From -- ./inp_files/8701.got.cif
#   From: 2010.03.12/outbox.cif.g09.slc.cpg/sg51_5_cif.got.tgz:8701.got - 2010.04.16 13:43:02.
