data_PCOD8212653
_publ_section_title
;
Structure prediction by ZEFSAII (Michael W. Deem and Ramdas Pophale) SiO2 
 PCOD8212653
Probable space group: P M M A
;
_chemical_formula_sum "Si O2"
_cell_formula_units_Z 64
_cell_length_a 20.917449
_cell_length_b 9.120327
_cell_length_c 17.302994
_cell_angle_alpha 90.000000
_cell_angle_beta 90.000000
_cell_angle_gamma 90.000000
_cell_volume 3300.960943
_symmetry_space_group_name_H-M "P M M A"
_symmetry_group_IT_number 51
_symmetry_cell_setting 'orthorhombic'
loop_
_space_group_symop_operation_xyz
x,y,z
1/2-x,-y,z
1/2+x,-y,-z
-x,y,-z
-x,-y,-z
1/2+x,y,-z
1/2-x,y,z
x,-y,z
loop_
_atom_site_type_symbol
_atom_site_label
_atom_site_fract_x
_atom_site_fract_y
_atom_site_fract_z
Si Si1 0.679859 0.837174 0.997057
Si Si2 0.068574 0.173384 0.586945
Si Si3 0.854805 0.325682 0.143189
Si Si4 0.574457 0.173677 0.587921
Si Si5 0.987335 0.333192 0.084346
Si Si6 0.823870 0.673319 0.697067
Si Si7 0.378067 0.666454 0.140227
Si Si8 0.321940 0.829501 0.700776
O O1 0.750000 0.848293 0.960544
O O2 0.685825 0.735713 0.072205
O O3 0.653860 0.000000 0.017595
O O4 0.636043 0.765657 0.932800
O O5 0.081732 0.229024 0.500169
O O6 0.124901 0.235125 0.641717
O O7 0.997302 0.220513 0.615947
O O8 0.071232 0.000000 0.584999
O O9 0.848933 0.500000 0.148082
O O10 0.826948 0.259773 0.220911
O O11 0.926743 0.264650 0.128383
O O12 0.630117 0.250979 0.635736
O O13 0.583739 0.000000 0.595645
O O14 0.968559 0.500000 0.065380
O O15 0.045219 0.323981 0.145493
O O16 0.000000 0.257347 0.000000
O O17 0.750000 0.719010 0.682895
O O18 0.832872 0.500000 0.690029
O O19 0.845471 0.727070 0.782137
O O20 0.354997 0.500000 0.124626
O O21 0.250000 0.808149 0.666843
O O22 0.335219 0.000000 0.717717
#
# Coordination Sequence:
#
# PCOD8212653 Si02
#       8
#     8   8   8   8   8   8   8   8
#     4  11  23  37  53  75 106 143 183 229 278 324
#     4   8  17  36  60  86 115 146 184 229 278 333
#     4  11  22  36  56  80 108 142 182 227 275 330
#     4   9  18  36  62  87 112 146 188 231 274 330
#     4   9  17  33  55  79 102 130 176 231 276 319
#     4  10  22  37  54  82 118 152 186 228 280 336
#     4  10  20  37  58  77 105 145 186 225 274 334
#     4  10  21  37  56  80 113 149 185 228 277 329
#
# _framework density 19.388293000000001
#
# number of rings (size 3 to 8) (size 9 to 14) (size 15 to 20)
#    0.000    2.250    1.250    2.250    1.750    4.500 
#    0.000    5.000    0.000    0.000    0.000    0.000 
#    0.000    0.000    0.000    0.000    0.000    0.000 
#
# Total GULP energy -793251.723850 kJ/mol
# GULP energy per Si atom -12394.558185 kJ/mol
# Density = 1.934416 g / cm^3
# Si number density = 19.388293 Si / 1000 Ang^3
#
#
#
# Elastic Constant Matrix: (Units=GPa)
#
#
# Indices 1 2 3 4 5 6 
#
# 1 139.1085 33.6976 61.2087 0.0000 0.0000 0.0000
# 2 33.6976 52.8506 32.4943 0.0000 0.0000 0.0000
# 3 61.2087 32.4943 106.7217 0.0000 0.0000 0.0000
# 4 0.0000 0.0000 0.0000 -105.8429 0.0000 0.0000
# 5 0.0000 0.0000 0.0000 0.0000 31.7371 0.0000
# 6 0.0000 0.0000 0.0000 0.0000 0.0000 26.4375
#
#
#
# Elastic Compliance Matrix: (Units=1/GPa)
#
#
# Indices 1 2 3 4 5 6 
#
# 1 0.010129 -0.003551 -0.004728 0.000000 0.000000 0.000000
# 2 -0.003551 0.024524 -0.005430 0.000000 0.000000 0.000000
# 3 -0.004728 -0.005430 0.013735 0.000000 0.000000 0.000000
# 4 0.000000 0.000000 0.000000 -0.009448 0.000000 0.000000
# 5 0.000000 0.000000 0.000000 0.000000 0.031509 0.000000
# 6 0.000000 0.000000 0.000000 0.000000 0.000000 0.037825
#
#
# Mechanical properties :
#
#
# Convention : Reuss Voigt Hill
#
# Bulk Modulus (GPa) = 47.68876 61.49801 54.59339
# Shear Modulus (GPa) = 35.04232 1.88501 18.46367
#
# Velocity S-wave (km/s) = 4.25596 0.98709 3.08930
# Velocity P-wave (km/s) = 6.98577 5.75214 6.39876
#
# Compressibility (1/GPa) = 0.02096930
#
# Stress axis : x y z
#
# Youngs Moduli (GPa) = 98.72267 40.77584 72.80483
#
# Poissons Ratio (x) = 0.14481 0.34424
# Poissons Ratio (y) = 0.35061 0.39535
# Poissons Ratio (z) = 0.46678 0.22142
#
# Static dielectric constant tensor:
#      x y z
#    x 2.546780 0.000000 0.000000 
#    y 0.000000 3.288460 0.000000 
#    z 0.000000 0.000000 3.558920 
# 
# 
# High freq. dielectric constant tensor:
#      x y z
#    x 1.773650 0.000000 0.000000 
#    y 0.000000 1.724500 0.000000 
#    z 0.000000 0.000000 1.745520 
# 
# From -- ./inp_files/30531.got.cif
#   From: 2010.03.12/outbox.cif.g09.slc.cpg/sg51_16_cif.got.tgz:30531.got - 2010.04.16 13:43:02.
