data_PCOD8212835
_publ_section_title
;
Structure prediction by ZEFSAII (Michael W. Deem and Ramdas Pophale) SiO2 
 PCOD8212835
Probable space group: P M M A
;
_chemical_formula_sum "Si O2"
_cell_formula_units_Z 48
_cell_length_a 13.764632
_cell_length_b 17.144813
_cell_length_c 9.448179
_cell_angle_alpha 90.000000
_cell_angle_beta 90.000000
_cell_angle_gamma 90.000000
_cell_volume 2229.695052
_symmetry_space_group_name_H-M "P M M A"
_symmetry_group_IT_number 51
_symmetry_cell_setting 'orthorhombic'
loop_
_space_group_symop_operation_xyz
x,y,z
1/2-x,-y,z
1/2+x,-y,-z
-x,y,-z
-x,-y,-z
1/2+x,y,-z
1/2-x,y,z
x,-y,z
loop_
_atom_site_type_symbol
_atom_site_label
_atom_site_fract_x
_atom_site_fract_y
_atom_site_fract_z
Si Si1 0.136788 0.860821 0.016546
Si Si2 0.364926 0.148081 0.336230
Si Si3 0.477542 0.692393 0.345856
Si Si4 0.135881 0.298268 0.882478
Si Si5 0.366886 0.000000 0.831564
Si Si6 0.864640 0.000000 0.487075
Si Si7 0.864363 0.588588 0.871472
O O1 0.250000 0.864445 0.992900
O O2 0.099498 0.775351 0.974541
O O3 0.089611 0.924595 0.912277
O O4 0.110028 0.879041 0.177580
O O5 0.250000 0.164583 0.354109
O O6 0.423156 0.226034 0.372282
O O7 0.402110 0.078360 0.436793
O O8 0.500000 0.656269 0.500000
O O9 0.579793 0.702107 0.265328
O O10 0.410583 0.633026 0.260358
O O11 0.250000 0.295201 0.847054
O O12 0.107866 0.373161 0.977438
O O13 0.406190 0.000000 0.671686
O O14 0.250000 0.000000 0.833051
O O15 0.750000 0.000000 0.491160
O O16 0.750000 0.594329 0.848732
O O17 0.901586 0.500000 0.874499
#
# Coordination Sequence:
#
# PCOD8212835 Si02
#       7
#     8   8   8   8   4   4   8
#     4   9  17  32  57  84 115 156 214 268 310 363
#     4  10  20  38  61  87 126 172 219 267 322 384
#     4  12  26  39  61  98 136 174 208 258 319 387
#     4  10  22  41  64  93 125 167 218 268 318 372
#     4   9  17  29  52  88 120 160 212 266 321 372
#     4   9  19  33  55  87 126 172 214 261 324 388
#     4  10  22  45  75 101 127 163 209 260 314 379
#
# _framework density 21.527607
#
# number of rings (size 3 to 8) (size 9 to 14) (size 15 to 20)
#    0.000    2.000    1.667    1.500    2.333    5.000 
#    0.000    1.250    0.000    4.000    0.000    0.000 
#    0.000    0.000    0.000    0.000    0.000    0.000 
#
# Total GULP energy -595248.538112 kJ/mol
# GULP energy per Si atom -12401.011211 kJ/mol
# Density = 2.147861 g / cm^3
# Si number density = 21.527607 Si / 1000 Ang^3
#
#
#
# Elastic Constant Matrix: (Units=GPa)
#
#
# Indices 1 2 3 4 5 6 
#
# 1 57.9904 18.2637 26.7908 0.0000 0.0000 0.0000
# 2 18.2637 143.6285 56.0003 0.0000 0.0000 0.0000
# 3 26.7908 56.0003 157.0246 0.0000 0.0000 0.0000
# 4 0.0000 0.0000 0.0000 -20.2182 0.0000 0.0000
# 5 0.0000 0.0000 0.0000 0.0000 26.9402 0.0000
# 6 0.0000 0.0000 0.0000 0.0000 0.0000 0.3873
#
#
#
# Elastic Compliance Matrix: (Units=1/GPa)
#
#
# Indices 1 2 3 4 5 6 
#
# 1 0.018937 -0.001334 -0.002755 0.000000 0.000000 0.000000
# 2 -0.001334 0.008181 -0.002690 0.000000 0.000000 0.000000
# 3 -0.002755 -0.002690 0.007798 0.000000 0.000000 0.000000
# 4 0.000000 0.000000 0.000000 -0.049460 0.000000 0.000000
# 5 0.000000 0.000000 0.000000 0.000000 0.037119 0.000000
# 6 0.000000 0.000000 0.000000 0.000000 0.000000 2.582263
#
#
# Mechanical properties :
#
#
# Convention : Reuss Voigt Hill
#
# Bulk Modulus (GPa) = 46.82134 62.30588 54.56361
# Shear Modulus (GPa) = 1.90439 18.59443 10.24941
#
# Velocity S-wave (km/s) = 0.94157 2.94215 2.18435
# Velocity P-wave (km/s) = 4.79361 6.36764 5.63585
#
# Compressibility (1/GPa) = 0.02135778
#
# Stress axis : x y z
#
# Youngs Moduli (GPa) = 52.80604 122.23705 128.24004
#
# Poissons Ratio (x) = 0.16303 0.35334
# Poissons Ratio (y) = 0.07043 0.34497
# Poissons Ratio (z) = 0.14550 0.32882
#
# Static dielectric constant tensor:
#      x y z
#    x 3.824180 0.000000 0.000000 
#    y 0.000000 4.052920 0.000000 
#    z 0.000000 0.000000 3.902200 
# 
# 
# High freq. dielectric constant tensor:
#      x y z
#    x 1.854450 0.000000 0.000000 
#    y 0.000000 1.840710 0.000000 
#    z 0.000000 0.000000 1.843430 
# 
# From -- ./inp_files/8367.got.cif
#   From: 2010.03.12/outbox.cif.g09.slc.cpg/sg51_5_cif.got.tgz:8367.got - 2010.04.16 13:43:02.
