data_PCOD8212022
_publ_section_title
;
Structure prediction by ZEFSAII (Michael W. Deem and Ramdas Pophale) SiO2 
 PCOD8212022
Probable space group: P M M A
;
_chemical_formula_sum "Si O2"
_cell_formula_units_Z 56
_cell_length_a 22.723159
_cell_length_b 13.585305
_cell_length_c 9.509942
_cell_angle_alpha 90.000000
_cell_angle_beta 90.000000
_cell_angle_gamma 90.000000
_cell_volume 2935.729039
_symmetry_space_group_name_H-M "P M M A"
_symmetry_group_IT_number 51
_symmetry_cell_setting 'orthorhombic'
loop_
_space_group_symop_operation_xyz
x,y,z
1/2-x,-y,z
1/2+x,-y,-z
-x,y,-z
-x,-y,-z
1/2+x,y,-z
1/2-x,y,z
x,-y,z
loop_
_atom_site_type_symbol
_atom_site_label
_atom_site_fract_x
_atom_site_fract_y
_atom_site_fract_z
Si Si1 0.684126 0.261895 0.299197
Si Si2 0.682345 0.111894 0.061382
Si Si3 0.903011 0.887882 0.806163
Si Si4 0.922430 0.612640 0.349374
Si Si5 0.184098 0.792155 0.389657
Si Si6 0.018160 0.707160 0.160639
Si Si7 0.611183 0.610916 0.660317
O O1 0.750000 0.299763 0.268637
O O2 0.662232 0.185105 0.183188
O O3 0.643632 0.358617 0.303167
O O4 0.681554 0.200632 0.443065
O O5 0.750000 0.129247 0.016770
O O6 0.673015 0.000000 0.112668
O O7 0.640824 0.137569 0.932112
O O8 0.864687 0.868349 0.666374
O O9 0.960865 0.819886 0.817297
O O10 0.925194 0.000000 0.807199
O O11 0.935318 0.500000 0.305244
O O12 0.928216 0.625539 0.518415
O O13 0.964924 0.686917 0.267325
O O14 0.250000 0.817081 0.335126
O O15 0.167773 0.681493 0.339997
O O16 0.071265 0.634502 0.203895
O O17 0.000000 0.686535 0.000000
O O18 0.634857 0.500000 0.670210
#
# Coordination Sequence:
#
# PCOD8212022 Si02
#       7
#     8   8   8   8   8   8   8
#     4   9  18  33  53  79 108 134 166 209 251 296
#     4   9  17  31  52  75 100 134 172 208 253 308
#     4  10  21  36  53  74 101 134 172 212 256 306
#     4  10  20  35  55  76 102 138 172 205 252 307
#     4   9  18  32  53  81 109 136 167 206 251 297
#     4  11  22  35  53  75 100 131 172 219 259 299
#     4   9  19  35  54  76 104 138 173 207 247 299
#
# _framework density 19.075330000000001
#
# number of rings (size 3 to 8) (size 9 to 14) (size 15 to 20)
#    0.000    2.429    0.000    2.143    0.000    4.571 
#    0.000    5.000    0.000   11.143    0.000    4.000 
#    0.000    0.000    0.000    0.000    0.000    0.000 
#
# Total GULP energy -694319.405734 kJ/mol
# GULP energy per Si atom -12398.560817 kJ/mol
# Density = 1.903191 g / cm^3
# Si number density = 19.075330 Si / 1000 Ang^3
#
#
#
# Elastic Constant Matrix: (Units=GPa)
#
#
# Indices 1 2 3 4 5 6 
#
# 1 70.2188 38.9013 32.5808 0.0000 0.0000 0.0000
# 2 38.9013 105.1934 45.7361 0.0000 0.0000 0.0000
# 3 32.5808 45.7361 74.4668 0.0000 0.0000 0.0000
# 4 0.0000 0.0000 0.0000 23.5980 0.0000 0.0000
# 5 0.0000 0.0000 0.0000 0.0000 28.0105 0.0000
# 6 0.0000 0.0000 0.0000 0.0000 0.0000 27.6031
#
#
#
# Elastic Compliance Matrix: (Units=1/GPa)
#
#
# Indices 1 2 3 4 5 6 
#
# 1 0.019480 -0.004773 -0.005591 0.000000 0.000000 0.000000
# 2 -0.004773 0.014139 -0.006596 0.000000 0.000000 0.000000
# 3 -0.005591 -0.006596 0.019926 0.000000 0.000000 0.000000
# 4 0.000000 0.000000 0.000000 0.042376 0.000000 0.000000
# 5 0.000000 0.000000 0.000000 0.000000 0.035701 0.000000
# 6 0.000000 0.000000 0.000000 0.000000 0.000000 0.036228
#
#
# Mechanical properties :
#
#
# Convention : Reuss Voigt Hill
#
# Bulk Modulus (GPa) = 50.95535 53.81281 52.38408
# Shear Modulus (GPa) = 24.00253 24.68638 24.34445
#
# Velocity S-wave (km/s) = 3.55110 3.60134 3.57631
# Velocity P-wave (km/s) = 6.60185 6.75017 6.67642
#
# Compressibility (1/GPa) = 0.01962502
#
# Stress axis : x y z
#
# Youngs Moduli (GPa) = 51.33567 70.72657 50.18522
#
# Poissons Ratio (x) = 0.33755 0.28061
# Poissons Ratio (y) = 0.24501 0.33101
# Poissons Ratio (z) = 0.28704 0.46649
#
# Static dielectric constant tensor:
#      x y z
#    x 3.505500 0.000000 0.000000 
#    y 0.000000 3.397190 0.000000 
#    z 0.000000 0.000000 3.516940 
# 
# 
# High freq. dielectric constant tensor:
#      x y z
#    x 1.738880 0.000000 0.000000 
#    y 0.000000 1.732600 0.000000 
#    z 0.000000 0.000000 1.740680 
# 
# From -- ./inp_files/10995.got.cif
#   From: 2010.03.12/outbox.cif.g09.slc.cpg/sg51_6_cif.got.tgz:10995.got - 2010.04.16 13:43:02.
