data_PCOD8212560
_publ_section_title
;
Structure prediction by ZEFSAII (Michael W. Deem and Ramdas Pophale) SiO2 
 PCOD8212560
Probable space group: P M M A
;
_chemical_formula_sum "Si O2"
_cell_formula_units_Z 64
_cell_length_a 8.706352
_cell_length_b 23.499191
_cell_length_c 15.094872
_cell_angle_alpha 90.000000
_cell_angle_beta 90.000000
_cell_angle_gamma 90.000000
_cell_volume 3088.293502
_symmetry_space_group_name_H-M "P M M A"
_symmetry_group_IT_number 51
_symmetry_cell_setting 'orthorhombic'
loop_
_space_group_symop_operation_xyz
x,y,z
1/2-x,-y,z
1/2+x,-y,-z
-x,y,-z
-x,-y,-z
1/2+x,y,-z
1/2-x,y,z
x,-y,z
loop_
_atom_site_type_symbol
_atom_site_label
_atom_site_fract_x
_atom_site_fract_y
_atom_site_fract_z
Si Si1 0.568684 0.761897 0.091986
Si Si2 0.928624 0.115854 0.910760
Si Si3 0.932654 0.720710 0.405250
Si Si4 0.927264 0.935821 0.726135
Si Si5 0.928955 0.436843 0.233161
Si Si6 0.928840 0.149672 0.408272
Si Si7 0.581429 0.564719 0.583355
Si Si8 0.570132 0.323297 0.770745
O O1 0.750000 0.761435 0.085118
O O2 0.511401 0.825160 0.111429
O O3 0.517769 0.723643 0.173453
O O4 0.500000 0.738096 0.000000
O O5 0.750000 0.128371 0.926344
O O6 0.957255 0.072645 0.830505
O O7 0.000000 0.088592 0.000000
O O8 0.750000 0.712158 0.402517
O O9 0.980949 0.786115 0.385424
O O10 0.000000 0.702484 0.500000
O O11 0.013166 0.681060 0.331282
O O12 0.750000 0.924896 0.703304
O O13 0.026475 0.891642 0.671111
O O14 0.976196 0.000000 0.701695
O O15 0.750000 0.426709 0.215221
O O16 0.978406 0.500000 0.197747
O O17 0.962397 0.432466 0.336816
O O18 0.026599 0.385710 0.188823
O O19 0.750000 0.147417 0.422247
O O20 0.000000 0.127762 0.500000
O O21 0.500000 0.596288 0.500000
O O22 0.750000 0.592326 0.606171
O O23 0.613080 0.500000 0.556373
O O24 0.750000 0.312884 0.778285
#
# Coordination Sequence:
#
# PCOD8212560 Si02
#       8
#     8   8   8   8   8   8   8   8
#     4  11  22  39  63  91 120 148 185 233 287 344
#     4  10  20  36  59  86 117 152 189 231 284 342
#     4  10  21  38  59  86 118 151 192 240 292 348
#     4  10  22  38  55  79 114 155 198 242 285 334
#     4  10  21  37  55  76 105 143 186 229 275 330
#     4  10  21  37  59  83 109 146 190 240 294 345
#     4   9  16  27  44  66  93 128 172 220 266 313
#     4  12  24  38  59  87 118 152 189 232 285 341
#
# _framework density 20.723420000000001
#
# number of rings (size 3 to 8) (size 9 to 14) (size 15 to 20)
#    0.000    1.750    0.000    5.625    0.000    8.000 
#    0.000    2.500    0.000    0.375    0.000    0.000 
#    0.000    0.000    0.000    0.000    0.000    0.000 
#
# Total GULP energy -793565.852593 kJ/mol
# GULP energy per Si atom -12399.466447 kJ/mol
# Density = 2.067625 g / cm^3
# Si number density = 20.723420 Si / 1000 Ang^3
#
#
#
# Elastic Constant Matrix: (Units=GPa)
#
#
# Indices 1 2 3 4 5 6 
#
# 1 113.4755 33.2119 24.8420 0.0000 0.0000 0.0000
# 2 33.2119 85.8993 20.0365 0.0000 0.0000 0.0000
# 3 24.8420 20.0365 58.1273 0.0000 0.0000 0.0000
# 4 0.0000 0.0000 0.0000 4.8248 0.0000 0.0000
# 5 0.0000 0.0000 0.0000 0.0000 35.7247 0.0000
# 6 0.0000 0.0000 0.0000 0.0000 0.0000 23.5602
#
#
#
# Elastic Compliance Matrix: (Units=1/GPa)
#
#
# Indices 1 2 3 4 5 6 
#
# 1 0.010508 -0.003279 -0.003361 0.000000 0.000000 0.000000
# 2 -0.003279 0.013683 -0.003315 0.000000 0.000000 0.000000
# 3 -0.003361 -0.003315 0.019783 0.000000 0.000000 0.000000
# 4 0.000000 0.000000 0.000000 0.207261 0.000000 0.000000
# 5 0.000000 0.000000 0.000000 0.000000 0.027992 0.000000
# 6 0.000000 0.000000 0.000000 0.000000 0.000000 0.042445
#
#
# Mechanical properties :
#
#
# Convention : Reuss Voigt Hill
#
# Bulk Modulus (GPa) = 41.55592 45.96474 43.76033
# Shear Modulus (GPa) = 14.30205 24.78273 19.54239
#
# Velocity S-wave (km/s) = 2.62990 3.46190 3.07418
# Velocity P-wave (km/s) = 5.41461 6.18126 5.81059
#
# Compressibility (1/GPa) = 0.02406396
#
# Stress axis : x y z
#
# Youngs Moduli (GPa) = 95.16733 73.08596 50.54966
#
# Poissons Ratio (x) = 0.23964 0.16987
# Poissons Ratio (y) = 0.31204 0.16758
# Poissons Ratio (z) = 0.31981 0.24229
#
# Static dielectric constant tensor:
#      x y z
#    x 3.876480 0.000000 0.000000 
#    y 0.000000 3.923110 0.000000 
#    z 0.000000 0.000000 3.610740 
# 
# 
# High freq. dielectric constant tensor:
#      x y z
#    x 1.822840 0.000000 0.000000 
#    y 0.000000 1.816930 0.000000 
#    z 0.000000 0.000000 1.789260 
# 
# From -- ./inp_files/22286.got.cif
#   From: 2010.03.12/outbox.cif.g09.slc.cpg/sg51_12_cif.got.tgz:22286.got - 2010.04.16 13:43:02.
