data_PCOD8212701
_publ_section_title
;
Structure prediction by ZEFSAII (Michael W. Deem and Ramdas Pophale) SiO2 
 PCOD8212701
Probable space group: P M M A
;
_chemical_formula_sum "Si O2"
_cell_formula_units_Z 48
_cell_length_a 8.737281
_cell_length_b 29.987237
_cell_length_c 9.570247
_cell_angle_alpha 90.000000
_cell_angle_beta 90.000000
_cell_angle_gamma 90.000000
_cell_volume 2507.470903
_symmetry_space_group_name_H-M "P M M A"
_symmetry_group_IT_number 51
_symmetry_cell_setting 'orthorhombic'
loop_
_space_group_symop_operation_xyz
x,y,z
1/2-x,-y,z
1/2+x,-y,-z
-x,y,-z
-x,-y,-z
1/2+x,y,-z
1/2-x,y,z
x,-y,z
loop_
_atom_site_type_symbol
_atom_site_label
_atom_site_fract_x
_atom_site_fract_y
_atom_site_fract_z
Si Si1 0.569385 0.550175 0.146426
Si Si2 0.427564 0.947952 0.852695
Si Si3 0.431256 0.805236 0.851944
Si Si4 0.569004 0.627228 0.348162
Si Si5 0.070420 0.296378 0.854729
Si Si6 0.431747 0.122352 0.346648
O O1 0.750000 0.552908 0.131429
O O2 0.515280 0.500000 0.184323
O O3 0.510328 0.583300 0.266803
O O4 0.500000 0.565947 0.000000
O O5 0.250000 0.934243 0.854060
O O6 0.515057 0.922339 0.730914
O O7 0.450352 0.000000 0.823354
O O8 0.500000 0.933932 0.000000
O O9 0.250000 0.812463 0.854869
O O10 0.477728 0.754227 0.819751
O O11 0.505725 0.834102 0.730598
O O12 0.500000 0.820660 0.000000
O O13 0.500000 0.627049 0.500000
O O14 0.750000 0.627218 0.360402
O O15 0.510389 0.671443 0.267926
O O16 0.250000 0.300690 0.871846
O O17 0.000000 0.312631 0.000000
O O18 0.500000 0.121589 0.500000
O O19 0.250000 0.123978 0.353686
#
# Coordination Sequence:
#
# PCOD8212701 Si02
#       6
#     8   8   8   8   8   8
#     4   9  18  33  53  76 102 133 172 218 264 313
#     4  10  21  39  63  89 116 148 187 229 272 320
#     4  10  20  37  59  83 110 141 181 225 271 322
#     4  10  21  35  50  74 107 140 175 215 263 317
#     4   9  19  35  56  80 105 136 176 222 266 314
#     4  12  25  40  58  82 114 150 186 226 275 327
#
# _framework density 19.142793999999999
#
# number of rings (size 3 to 8) (size 9 to 14) (size 15 to 20)
#    0.000    2.000    0.000    3.500    0.000    4.333 
#    0.000    1.667    0.000    0.000    0.000    0.000 
#    0.000    0.000    0.000    0.000    0.000    0.000 
#
# Total GULP energy -595346.550226 kJ/mol
# GULP energy per Si atom -12403.053130 kJ/mol
# Density = 1.909922 g / cm^3
# Si number density = 19.142794 Si / 1000 Ang^3
#
#
#
# Elastic Constant Matrix: (Units=GPa)
#
#
# Indices 1 2 3 4 5 6 
#
# 1 86.7695 43.9637 60.4454 0.0000 0.0000 0.0000
# 2 43.9637 120.4491 94.5247 0.0000 0.0000 0.0000
# 3 60.4454 94.5247 188.5763 0.0000 0.0000 0.0000
# 4 0.0000 0.0000 0.0000 18.0137 0.0000 0.0000
# 5 0.0000 0.0000 0.0000 0.0000 39.4951 0.0000
# 6 0.0000 0.0000 0.0000 0.0000 0.0000 19.6508
#
#
#
# Elastic Compliance Matrix: (Units=1/GPa)
#
#
# Indices 1 2 3 4 5 6 
#
# 1 0.015423 -0.002884 -0.003498 0.000000 0.000000 0.000000
# 2 -0.002884 0.014225 -0.006206 0.000000 0.000000 0.000000
# 3 -0.003498 -0.006206 0.009535 0.000000 0.000000 0.000000
# 4 0.000000 0.000000 0.000000 0.055513 0.000000 0.000000
# 5 0.000000 0.000000 0.000000 0.000000 0.025320 0.000000
# 6 0.000000 0.000000 0.000000 0.000000 0.000000 0.050888
#
#
# Mechanical properties :
#
#
# Convention : Reuss Voigt Hill
#
# Bulk Modulus (GPa) = 71.39406 88.18474 79.78940
# Shear Modulus (GPa) = 24.90667 28.55599 26.73133
#
# Velocity S-wave (km/s) = 3.61099 3.86649 3.74092
# Velocity P-wave (km/s) = 7.40014 8.13018 7.77374
#
# Compressibility (1/GPa) = 0.01400677
#
# Stress axis : x y z
#
# Youngs Moduli (GPa) = 64.83892 70.29737 104.87884
#
# Poissons Ratio (x) = 0.20276 0.36684
# Poissons Ratio (y) = 0.18702 0.65087
# Poissons Ratio (z) = 0.22679 0.43626
#
# Static dielectric constant tensor:
#      x y z
#    x 3.500090 0.000000 0.000000 
#    y 0.000000 3.829880 0.000000 
#    z 0.000000 0.000000 2.542050 
# 
# 
# High freq. dielectric constant tensor:
#      x y z
#    x 1.746600 0.000000 0.000000 
#    y 0.000000 1.760790 0.000000 
#    z 0.000000 0.000000 1.742910 
# 
# From -- ./inp_files/6079.got.cif
#   From: 2010.03.12/outbox.cif.g09.slc.cpg/sg51_4_cif.got.tgz:6079.got - 2010.04.16 13:43:02.
