data_PCOD8212810
_publ_section_title
;
Structure prediction by ZEFSAII (Michael W. Deem and Ramdas Pophale) SiO2 
 PCOD8212810
Probable space group: P M M A
;
_chemical_formula_sum "Si O2"
_cell_formula_units_Z 52
_cell_length_a 9.177217
_cell_length_b 15.818653
_cell_length_c 18.502545
_cell_angle_alpha 90.000000
_cell_angle_beta 90.000000
_cell_angle_gamma 90.000000
_cell_volume 2686.036868
_symmetry_space_group_name_H-M "P M M A"
_symmetry_group_IT_number 51
_symmetry_cell_setting 'orthorhombic'
loop_
_space_group_symop_operation_xyz
x,y,z
1/2-x,-y,z
1/2+x,-y,-z
-x,y,-z
-x,-y,-z
1/2+x,y,-z
1/2-x,y,z
x,-y,z
loop_
_atom_site_type_symbol
_atom_site_label
_atom_site_fract_x
_atom_site_fract_y
_atom_site_fract_z
Si Si1 0.420377 0.903175 0.172457
Si Si2 0.419638 0.903119 0.684941
Si Si3 0.079974 0.401517 0.833785
Si Si4 0.420258 0.500000 0.424502
Si Si5 0.087710 0.625844 0.668158
Si Si6 0.577022 0.256849 0.923568
Si Si7 0.087884 0.218571 0.569873
O O1 0.250000 0.903121 0.187129
O O2 0.496455 0.869035 0.245014
O O3 0.462336 0.834097 0.111956
O O4 0.470970 0.000000 0.151368
O O5 0.250000 0.881969 0.696000
O O6 0.475631 0.865140 0.608327
O O7 0.454489 0.000000 0.677287
O O8 0.250000 0.385253 0.850262
O O9 0.040203 0.500000 0.849838
O O10 0.042046 0.379331 0.751211
O O11 0.982677 0.338386 0.880861
O O12 0.250000 0.500000 0.439597
O O13 0.500000 0.500000 0.500000
O O14 0.465832 0.419184 0.379072
O O15 0.250000 0.585627 0.658595
O O16 0.086888 0.719895 0.638613
O O17 0.750000 0.267568 0.931751
O O18 0.500000 0.256166 0.000000
O O19 0.250000 0.205223 0.540112
O O20 0.000000 0.249228 0.500000
#
# Coordination Sequence:
#
# PCOD8212810 Si02
#       7
#     8   8   8   4   8   8   8
#     4   9  19  37  60  87 118 151 188 233 285 341
#     4   9  18  34  56  81 108 143 189 235 278 330
#     4  10  21  40  66  89 113 150 194 240 292 349
#     4  12  24  36  54  80 111 144 181 228 280 332
#     4  10  20  38  59  80 108 143 185 230 280 339
#     4  11  24  40  60  88 122 156 192 236 284 341
#     4  10  21  34  51  76 109 147 187 232 280 334
#
# _framework density 19.359376000000001
#
# number of rings (size 3 to 8) (size 9 to 14) (size 15 to 20)
#    0.000    2.000    0.769    2.538    0.000    6.769 
#    0.000    0.000    0.000    0.000    0.000    0.000 
#    0.000    0.000    0.000    0.000    0.000    0.000 
#
# Total GULP energy -644484.411566 kJ/mol
# GULP energy per Si atom -12393.930992 kJ/mol
# Density = 1.931531 g / cm^3
# Si number density = 19.359376 Si / 1000 Ang^3
#
#
#
# Elastic Constant Matrix: (Units=GPa)
#
#
# Indices 1 2 3 4 5 6 
#
# 1 73.9217 41.9658 44.9101 0.0000 0.0000 0.0000
# 2 41.9658 94.9471 64.7179 0.0000 0.0000 0.0000
# 3 44.9101 64.7179 112.6992 0.0000 0.0000 0.0000
# 4 0.0000 0.0000 0.0000 40.8415 0.0000 0.0000
# 5 0.0000 0.0000 0.0000 0.0000 34.2354 0.0000
# 6 0.0000 0.0000 0.0000 0.0000 0.0000 28.0716
#
#
#
# Elastic Compliance Matrix: (Units=1/GPa)
#
#
# Indices 1 2 3 4 5 6 
#
# 1 0.019419 -0.005436 -0.004617 0.000000 0.000000 0.000000
# 2 -0.005436 0.018828 -0.008646 0.000000 0.000000 0.000000
# 3 -0.004617 -0.008646 0.015678 0.000000 0.000000 0.000000
# 4 0.000000 0.000000 0.000000 0.024485 0.000000 0.000000
# 5 0.000000 0.000000 0.000000 0.000000 0.029210 0.000000
# 6 0.000000 0.000000 0.000000 0.000000 0.000000 0.035623
#
#
# Mechanical properties :
#
#
# Convention : Reuss Voigt Hill
#
# Bulk Modulus (GPa) = 60.50524 64.97286 62.73905
# Shear Modulus (GPa) = 26.86032 29.29465 28.07748
#
# Velocity S-wave (km/s) = 3.72890 3.89421 3.81245
# Velocity P-wave (km/s) = 7.06124 7.33854 7.20123
#
# Compressibility (1/GPa) = 0.01652749
#
# Stress axis : x y z
#
# Youngs Moduli (GPa) = 51.49681 53.11216 63.78477
#
# Poissons Ratio (x) = 0.28873 0.29446
# Poissons Ratio (y) = 0.27995 0.55147
# Poissons Ratio (z) = 0.23774 0.45920
#
# Static dielectric constant tensor:
#      x y z
#    x 3.508880 0.000000 0.000000 
#    y 0.000000 3.803580 0.000000 
#    z 0.000000 0.000000 3.661620 
# 
# 
# High freq. dielectric constant tensor:
#      x y z
#    x 1.745380 0.000000 0.000000 
#    y 0.000000 1.767080 0.000000 
#    z 0.000000 0.000000 1.753470 
# 
# From -- ./inp_files/27897.got.cif
#   From: 2010.03.12/outbox.cif.g09.slc.cpg/sg51_14_cif.got.tgz:27897.got - 2010.04.16 13:43:02.
