data_PCOD8212364
_publ_section_title
;
Structure prediction by ZEFSAII (Michael W. Deem and Ramdas Pophale) SiO2 
 PCOD8212364
Probable space group: P M M A
;
_chemical_formula_sum "Si O2"
_cell_formula_units_Z 48
_cell_length_a 8.998337
_cell_length_b 16.845925
_cell_length_c 15.868037
_cell_angle_alpha 90.000000
_cell_angle_beta 90.000000
_cell_angle_gamma 90.000000
_cell_volume 2405.361311
_symmetry_space_group_name_H-M "P M M A"
_symmetry_group_IT_number 51
_symmetry_cell_setting 'orthorhombic'
loop_
_space_group_symop_operation_xyz
x,y,z
1/2-x,-y,z
1/2+x,-y,-z
-x,y,-z
-x,-y,-z
1/2+x,y,-z
1/2-x,y,z
x,-y,z
loop_
_atom_site_type_symbol
_atom_site_label
_atom_site_fract_x
_atom_site_fract_y
_atom_site_fract_z
Si Si1 0.423284 0.500000 0.411213
Si Si2 0.920650 0.177480 0.085449
Si Si3 0.421172 0.337170 0.828566
Si Si4 0.573032 0.185658 0.415421
Si Si5 0.424401 0.500000 0.911144
Si Si6 0.075204 0.668370 0.341755
Si Si7 0.573286 0.089834 0.251544
O O1 0.250000 0.500000 0.428459
O O2 0.500000 0.500000 0.500000
O O3 0.471714 0.422406 0.359274
O O4 0.750000 0.153832 0.074879
O O5 0.940398 0.272052 0.098057
O O6 0.988356 0.131850 0.166791
O O7 0.000000 0.150139 0.000000
O O8 0.250000 0.339802 0.797806
O O9 0.476400 0.422256 0.861066
O O10 0.524629 0.310326 0.752188
O O11 0.500000 0.148862 0.500000
O O12 0.750000 0.185821 0.423819
O O13 0.512665 0.275304 0.406176
O O14 0.516751 0.134573 0.335382
O O15 0.250000 0.500000 0.925944
O O16 0.500000 0.500000 0.000000
O O17 0.250000 0.682766 0.352237
O O18 0.750000 0.093305 0.250541
O O19 0.513673 0.000000 0.254076
#
# Coordination Sequence:
#
# PCOD8212364 Si02
#       7
#     4   8   8   8   4   8   8
#     4  10  23  38  52  78 112 148 191 237 281 335
#     4  10  20  36  58  85 116 152 195 236 286 344
#     4  10  20  36  55  80 112 153 195 238 290 348
#     4  11  22  39  62  89 120 154 195 240 289 349
#     4  10  21  34  52  78 114 152 197 243 294 349
#     4  11  22  37  58  84 114 151 196 242 290 341
#     4   9  19  38  62  85 116 157 193 233 291 355
#
# _framework density 19.955421999999999
#
# number of rings (size 3 to 8) (size 9 to 14) (size 15 to 20)
#    0.000    1.833    1.667    2.500    0.000    4.667 
#    0.000    0.000    0.000    3.500    0.000    0.000 
#    0.000    0.000    0.000    0.000    0.000    0.000 
#
# Total GULP energy -595309.804157 kJ/mol
# GULP energy per Si atom -12402.287587 kJ/mol
# Density = 1.991000 g / cm^3
# Si number density = 19.955422 Si / 1000 Ang^3
#
#
#
# Elastic Constant Matrix: (Units=GPa)
#
#
# Indices 1 2 3 4 5 6 
#
# 1 51.9006 27.5611 45.8069 0.0000 0.0000 0.0000
# 2 27.5611 124.0531 54.6248 0.0000 0.0000 0.0000
# 3 45.8069 54.6248 164.2478 0.0000 0.0000 0.0000
# 4 0.0000 0.0000 0.0000 22.3168 0.0000 0.0000
# 5 0.0000 0.0000 0.0000 0.0000 40.7016 0.0000
# 6 0.0000 0.0000 0.0000 0.0000 0.0000 16.0027
#
#
#
# Elastic Compliance Matrix: (Units=1/GPa)
#
#
# Indices 1 2 3 4 5 6 
#
# 1 0.026532 -0.003089 -0.006372 0.000000 0.000000 0.000000
# 2 -0.003089 0.009804 -0.002399 0.000000 0.000000 0.000000
# 3 -0.006372 -0.002399 0.008663 0.000000 0.000000 0.000000
# 4 0.000000 0.000000 0.000000 0.044809 0.000000 0.000000
# 5 0.000000 0.000000 0.000000 0.000000 0.024569 0.000000
# 6 0.000000 0.000000 0.000000 0.000000 0.000000 0.062489
#
#
# Mechanical properties :
#
#
# Convention : Reuss Voigt Hill
#
# Bulk Modulus (GPa) = 46.99487 66.24301 56.61894
# Shear Modulus (GPa) = 24.07556 29.95147 27.01351
#
# Velocity S-wave (km/s) = 3.47719 3.87837 3.68325
# Velocity P-wave (km/s) = 6.30255 7.30228 6.82076
#
# Compressibility (1/GPa) = 0.02127892
#
# Stress axis : x y z
#
# Youngs Moduli (GPa) = 37.69056 102.00251 115.42863
#
# Poissons Ratio (x) = 0.31506 0.73553
# Poissons Ratio (y) = 0.11642 0.27692
# Poissons Ratio (z) = 0.24017 0.24471
#
# Static dielectric constant tensor:
#      x y z
#    x 4.061690 0.000000 0.000000 
#    y 0.000000 3.918600 0.000000 
#    z 0.000000 0.000000 3.590290 
# 
# 
# High freq. dielectric constant tensor:
#      x y z
#    x 1.754190 0.000000 0.000000 
#    y 0.000000 1.782160 0.000000 
#    z 0.000000 0.000000 1.787470 
# 
# From -- ./inp_files/21135.got.cif
#   From: 2010.03.12/outbox.cif.g09.slc.cpg/sg51_11_cif.got.tgz:21135.got - 2010.04.16 13:43:02.
