data_PCOD8212493
_publ_section_title
;
Structure prediction by ZEFSAII (Michael W. Deem and Ramdas Pophale) SiO2 
 PCOD8212493
Probable space group: P M M A
;
_chemical_formula_sum "Si O2"
_cell_formula_units_Z 48
_cell_length_a 16.543089
_cell_length_b 9.395902
_cell_length_c 16.114871
_cell_angle_alpha 90.000000
_cell_angle_beta 90.000000
_cell_angle_gamma 90.000000
_cell_volume 2504.851120
_symmetry_space_group_name_H-M "P M M A"
_symmetry_group_IT_number 51
_symmetry_cell_setting 'orthorhombic'
loop_
_space_group_symop_operation_xyz
x,y,z
1/2-x,-y,z
1/2+x,-y,-z
-x,y,-z
-x,-y,-z
1/2+x,y,-z
1/2-x,y,z
x,-y,z
loop_
_atom_site_type_symbol
_atom_site_label
_atom_site_fract_x
_atom_site_fract_y
_atom_site_fract_z
Si Si1 0.250000 0.666076 0.524318
Si Si2 0.559111 0.167135 0.726990
Si Si3 0.909925 0.334224 0.022742
Si Si4 0.842630 0.656111 0.849804
Si Si5 0.077286 0.665004 0.441245
Si Si6 0.892627 0.834558 0.186063
Si Si7 0.250000 0.833660 0.693889
O O1 0.250000 0.500000 0.544394
O O2 0.166061 0.707179 0.477431
O O3 0.250000 0.749376 0.609336
O O4 0.629032 0.226941 0.784936
O O5 0.561792 0.239702 0.638261
O O6 0.477336 0.206818 0.773950
O O7 0.570375 0.000000 0.714264
O O8 0.904990 0.500000 0.044732
O O9 0.877124 0.249579 0.101542
O O10 0.855353 0.292281 0.944069
O O11 0.000000 0.285889 0.000000
O O12 0.750000 0.636419 0.831575
O O13 0.885354 0.500000 0.837559
O O14 0.078520 0.500000 0.415591
O O15 0.000000 0.696156 0.500000
O O16 0.827402 0.788081 0.253498
O O17 0.885954 0.000000 0.164244
O O18 0.250000 0.000000 0.672475
#
# Coordination Sequence:
#
# PCOD8212493 Si02
#       7
#     4   8   8   8   8   8   4
#     4  10  22  40  62  89 114 145 190 237 288 345
#     4  11  23  38  59  87 117 151 195 238 286 346
#     4  10  20  36  58  83 110 148 196 240 285 337
#     4  10  22  39  58  82 116 154 193 239 287 337
#     4  10  22  40  62  87 117 152 192 239 293 349
#     4  10  22  38  57  84 118 155 191 234 285 340
#     4  10  22  40  60  85 118 153 190 231 286 345
#
# _framework density 19.162814999999998
#
# number of rings (size 3 to 8) (size 9 to 14) (size 15 to 20)
#    0.000    1.833    1.667    1.500    2.333    3.667 
#    0.000    0.000    0.000    0.000    0.000    0.000 
#    0.000    0.000    0.000    0.000    0.000    0.000 
#
# Total GULP energy -595185.577703 kJ/mol
# GULP energy per Si atom -12399.699535 kJ/mol
# Density = 1.911920 g / cm^3
# Si number density = 19.162815 Si / 1000 Ang^3
#
#
#
# Elastic Constant Matrix: (Units=GPa)
#
#
# Indices 1 2 3 4 5 6 
#
# 1 85.2795 33.3367 35.6277 0.0000 0.0000 0.0000
# 2 33.3367 74.8864 78.3185 0.0000 0.0000 0.0000
# 3 35.6277 78.3185 145.1589 0.0000 0.0000 0.0000
# 4 0.0000 0.0000 0.0000 79.6001 0.0000 0.0000
# 5 0.0000 0.0000 0.0000 0.0000 60.7245 0.0000
# 6 0.0000 0.0000 0.0000 0.0000 0.0000 21.7025
#
#
#
# Elastic Compliance Matrix: (Units=1/GPa)
#
#
# Indices 1 2 3 4 5 6 
#
# 1 0.014198 -0.006141 -0.000171 0.000000 0.000000 0.000000
# 2 -0.006141 0.033302 -0.016460 0.000000 0.000000 0.000000
# 3 -0.000171 -0.016460 0.015812 0.000000 0.000000 0.000000
# 4 0.000000 0.000000 0.000000 0.012563 0.000000 0.000000
# 5 0.000000 0.000000 0.000000 0.000000 0.016468 0.000000
# 6 0.000000 0.000000 0.000000 0.000000 0.000000 0.046078
#
#
# Mechanical properties :
#
#
# Convention : Reuss Voigt Hill
#
# Bulk Modulus (GPa) = 56.28605 66.65453 61.47029
# Shear Modulus (GPa) = 26.33104 42.94155 34.63630
#
# Velocity S-wave (km/s) = 3.71087 4.73893 4.25605
# Velocity P-wave (km/s) = 6.91354 8.04997 7.50330
#
# Compressibility (1/GPa) = 0.01776639
#
# Stress axis : x y z
#
# Youngs Moduli (GPa) = 70.42999 30.02785 63.24278
#
# Poissons Ratio (x) = 0.18442 0.01083
# Poissons Ratio (y) = 0.43255 1.04101
# Poissons Ratio (z) = 0.01207 0.49427
#
# Static dielectric constant tensor:
#      x y z
#    x 3.889650 0.000000 0.000000 
#    y 0.000000 3.476120 0.000000 
#    z 0.000000 0.000000 3.481290 
# 
# 
# High freq. dielectric constant tensor:
#      x y z
#    x 1.756990 0.000000 0.000000 
#    y 0.000000 1.741230 0.000000 
#    z 0.000000 0.000000 1.753970 
# 
# From -- ./inp_files/24871.got.cif
#   From: 2010.03.12/outbox.cif.g09.slc.cpg/sg51_13_cif.got.tgz:24871.got - 2010.04.16 13:43:02.
