data_PCOD8212369
_publ_section_title
;
Structure prediction by ZEFSAII (Michael W. Deem and Ramdas Pophale) SiO2 
 PCOD8212369
Probable space group: P M M A
;
_chemical_formula_sum "Si O2"
_cell_formula_units_Z 32
_cell_length_a 20.973826
_cell_length_b 7.534434
_cell_length_c 11.205293
_cell_angle_alpha 90.000000
_cell_angle_beta 90.000000
_cell_angle_gamma 90.000000
_cell_volume 1770.726598
_symmetry_space_group_name_H-M "P M M A"
_symmetry_group_IT_number 51
_symmetry_cell_setting 'orthorhombic'
loop_
_space_group_symop_operation_xyz
x,y,z
1/2-x,-y,z
1/2+x,-y,-z
-x,y,-z
-x,-y,-z
1/2+x,y,-z
1/2-x,y,z
x,-y,z
loop_
_atom_site_type_symbol
_atom_site_label
_atom_site_fract_x
_atom_site_fract_y
_atom_site_fract_z
Si Si1 0.043323 0.291554 0.612302
Si Si2 0.823161 0.301991 0.068259
Si Si3 0.491017 0.000000 0.798733
Si Si4 0.598558 0.000000 0.973327
Si Si5 0.818878 0.291151 0.336556
O O1 0.037151 0.500000 0.643515
O O2 0.118273 0.240411 0.585685
O O3 0.000000 0.239767 0.500000
O O4 0.019092 0.178911 0.723645
O O5 0.750000 0.306267 0.030068
O O6 0.852603 0.500000 0.060808
O O7 0.859074 0.176976 0.975353
O O8 0.830513 0.222086 0.201987
O O9 0.446792 0.000000 0.913046
O O10 0.563108 0.000000 0.846664
O O11 0.750000 0.214600 0.385367
O O12 0.811391 0.500000 0.329575
#
# Coordination Sequence:
#
# PCOD8212369 Si02
#       5
#     8   8   4   4   8
#     4  10  20  36  56  75 103 141 177 220 268 312
#     4   9  17  31  52  76 103 134 171 220 268 309
#     4  11  23  34  48  75 108 140 177 209 249 316
#     4  11  21  32  50  75 108 144 165 205 263 316
#     4   8  14  27  49  76 101 124 163 220 269 308
#
# _framework density 18.071677000000001
#
# number of rings (size 3 to 8) (size 9 to 14) (size 15 to 20)
#    0.000    2.500    2.500    2.250    0.000    1.000 
#    0.000    3.125    0.000    3.000    0.000    3.500 
#    0.000    0.000    0.000    0.000    0.000    0.000 
#
# Total GULP energy -396482.171167 kJ/mol
# GULP energy per Si atom -12390.067849 kJ/mol
# Density = 1.803055 g / cm^3
# Si number density = 18.071677 Si / 1000 Ang^3
#
#
#
# Elastic Constant Matrix: (Units=GPa)
#
#
# Indices 1 2 3 4 5 6 
#
# 1 151.3775 38.1891 58.0136 0.0000 0.0000 0.0000
# 2 38.1891 77.8786 28.0867 0.0000 0.0000 0.0000
# 3 58.0136 28.0867 61.4568 0.0000 0.0000 0.0000
# 4 0.0000 0.0000 0.0000 1.4277 0.0000 0.0000
# 5 0.0000 0.0000 0.0000 0.0000 34.4285 0.0000
# 6 0.0000 0.0000 0.0000 0.0000 0.0000 25.1273
#
#
#
# Elastic Compliance Matrix: (Units=1/GPa)
#
#
# Indices 1 2 3 4 5 6 
#
# 1 0.010580 -0.001899 -0.009119 0.000000 0.000000 0.000000
# 2 -0.001899 0.015715 -0.005389 0.000000 0.000000 0.000000
# 3 -0.009119 -0.005389 0.027343 0.000000 0.000000 0.000000
# 4 0.000000 0.000000 0.000000 0.700441 0.000000 0.000000
# 5 0.000000 0.000000 0.000000 0.000000 0.029046 0.000000
# 6 0.000000 0.000000 0.000000 0.000000 0.000000 0.039797
#
#
# Mechanical properties :
#
#
# Convention : Reuss Voigt Hill
#
# Bulk Modulus (GPa) = 48.02457 59.92130 53.97294
# Shear Modulus (GPa) = 5.79590 23.29158 14.54374
#
# Velocity S-wave (km/s) = 1.79280 3.59394 2.83994
# Velocity P-wave (km/s) = 5.56037 7.10292 6.37845
#
# Compressibility (1/GPa) = 0.02082267
#
# Stress axis : x y z
#
# Youngs Moduli (GPa) = 94.51811 63.63146 36.57249
#
# Poissons Ratio (x) = 0.12085 0.33351
# Poissons Ratio (y) = 0.17951 0.19710
# Poissons Ratio (z) = 0.86193 0.34294
#
# Static dielectric constant tensor:
#      x y z
#    x 3.866680 0.000000 0.000000 
#    y 0.000000 3.320390 0.000000 
#    z 0.000000 0.000000 2.960190 
# 
# 
# High freq. dielectric constant tensor:
#      x y z
#    x 1.716510 0.000000 0.000000 
#    y 0.000000 1.704530 0.000000 
#    z 0.000000 0.000000 1.637890 
# 
# From -- ./inp_files/16989.got.cif
#   From: 2010.03.12/outbox.cif.g09.slc.cpg/sg51_9_cif.got.tgz:16989.got - 2010.04.16 13:43:02.
