data_PCOD8212500
_publ_section_title
;
Structure prediction by ZEFSAII (Michael W. Deem and Ramdas Pophale) SiO2 
 PCOD8212500
Probable space group: P M M A
;
_chemical_formula_sum "Si O2"
_cell_formula_units_Z 56
_cell_length_a 15.419941
_cell_length_b 19.708576
_cell_length_c 8.895889
_cell_angle_alpha 90.000000
_cell_angle_beta 90.000000
_cell_angle_gamma 90.000000
_cell_volume 2703.505850
_symmetry_space_group_name_H-M "P M M A"
_symmetry_group_IT_number 51
_symmetry_cell_setting 'orthorhombic'
loop_
_space_group_symop_operation_xyz
x,y,z
1/2-x,-y,z
1/2+x,-y,-z
-x,y,-z
-x,-y,-z
1/2+x,y,-z
1/2-x,y,z
x,-y,z
loop_
_atom_site_type_symbol
_atom_site_label
_atom_site_fract_x
_atom_site_fract_y
_atom_site_fract_z
Si Si1 0.150359 0.325830 0.137089
Si Si2 0.093444 0.925618 0.072026
Si Si3 0.652929 0.077329 0.243107
Si Si4 0.909273 0.200256 0.416531
Si Si5 0.502739 0.575596 0.821612
Si Si6 0.654215 0.187685 0.728453
Si Si7 0.149364 0.672620 0.783522
O O1 0.250000 0.342098 0.179655
O O2 0.091704 0.384323 0.212374
O O3 0.114111 0.257787 0.212769
O O4 0.139466 0.313633 0.960105
O O5 0.096813 0.873806 0.210162
O O6 0.114866 0.000000 0.138414
O O7 0.158196 0.907633 0.935485
O O8 0.000000 0.923883 0.000000
O O9 0.750000 0.086725 0.307394
O O10 0.587907 0.130537 0.321640
O O11 0.619218 0.000000 0.271090
O O12 0.840055 0.189427 0.548671
O O13 0.880048 0.261676 0.309496
O O14 0.000000 0.214750 0.500000
O O15 0.507961 0.500000 0.752255
O O16 0.417165 0.610894 0.748659
O O17 0.500000 0.571490 0.000000
O O18 0.750000 0.178678 0.795139
O O19 0.250000 0.653597 0.744920
#
# Coordination Sequence:
#
# PCOD8212500 Si02
#       7
#     8   8   8   8   8   8   8
#     4   9  19  35  57  85 116 153 193 233 283 344
#     4  10  21  37  57  82 111 145 187 236 291 351
#     4  10  21  38  58  79 108 148 191 235 290 359
#     4  12  24  37  56  81 111 149 192 241 293 341
#     4   9  18  33  56  88 119 145 182 234 285 331
#     4  11  22  35  54  81 111 143 185 236 285 334
#     4  10  20  36  58  83 115 155 195 233 281 348
#
# _framework density 20.713844999999999
#
# number of rings (size 3 to 8) (size 9 to 14) (size 15 to 20)
#    0.000    1.857    0.000    4.286    0.000    5.143 
#    0.000    2.857    0.000    3.857    0.000    4.000 
#    0.000    0.000    0.000    0.000    0.000    0.000 
#
# Total GULP energy -694093.235076 kJ/mol
# GULP energy per Si atom -12394.522055 kJ/mol
# Density = 2.066670 g / cm^3
# Si number density = 20.713845 Si / 1000 Ang^3
#
#
#
# Elastic Constant Matrix: (Units=GPa)
#
#
# Indices 1 2 3 4 5 6 
#
# 1 116.8184 68.2292 29.8439 0.0000 0.0000 0.0000
# 2 68.2292 183.7911 61.9511 0.0000 0.0000 0.0000
# 3 29.8439 61.9511 63.7771 0.0000 0.0000 0.0000
# 4 0.0000 0.0000 0.0000 8.0071 0.0000 0.0000
# 5 0.0000 0.0000 0.0000 0.0000 27.1062 0.0000
# 6 0.0000 0.0000 0.0000 0.0000 0.0000 26.2537
#
#
#
# Elastic Compliance Matrix: (Units=1/GPa)
#
#
# Indices 1 2 3 4 5 6 
#
# 1 0.011062 -0.003512 -0.001765 0.000000 0.000000 0.000000
# 2 -0.003512 0.009204 -0.007298 0.000000 0.000000 0.000000
# 3 -0.001765 -0.007298 0.023594 0.000000 0.000000 0.000000
# 4 0.000000 0.000000 0.000000 0.124888 0.000000 0.000000
# 5 0.000000 0.000000 0.000000 0.000000 0.036892 0.000000
# 6 0.000000 0.000000 0.000000 0.000000 0.000000 0.038090
#
#
# Mechanical properties :
#
#
# Convention : Reuss Voigt Hill
#
# Bulk Modulus (GPa) = 53.44233 76.04834 64.74534
# Shear Modulus (GPa) = 18.17401 25.89756 22.03578
#
# Velocity S-wave (km/s) = 2.96528 3.53973 3.26516
# Velocity P-wave (km/s) = 6.13027 7.31435 6.74833
#
# Compressibility (1/GPa) = 0.01871176
#
# Stress axis : x y z
#
# Youngs Moduli (GPa) = 90.39700 108.64326 42.38279
#
# Poissons Ratio (x) = 0.38151 0.07482
# Poissons Ratio (y) = 0.31744 0.30930
# Poissons Ratio (z) = 0.15959 0.79284
#
# Static dielectric constant tensor:
#      x y z
#    x 4.032660 0.000000 0.000000 
#    y 0.000000 3.902280 0.000000 
#    z 0.000000 0.000000 3.627960 
# 
# 
# High freq. dielectric constant tensor:
#      x y z
#    x 1.823570 0.000000 0.000000 
#    y 0.000000 1.806360 0.000000 
#    z 0.000000 0.000000 1.788100 
# 
# From -- ./inp_files/8574.got.cif
#   From: 2010.03.12/outbox.cif.g09.slc.cpg/sg51_5_cif.got.tgz:8574.got - 2010.04.16 13:43:02.
