data_PCOD8212409
_publ_section_title
;
Structure prediction by ZEFSAII (Michael W. Deem and Ramdas Pophale) SiO2 
 PCOD8212409
Probable space group: P M M A
;
_chemical_formula_sum "Si O2"
_cell_formula_units_Z 48
_cell_length_a 19.054923
_cell_length_b 9.104872
_cell_length_c 14.939998
_cell_angle_alpha 90.000000
_cell_angle_beta 90.000000
_cell_angle_gamma 90.000000
_cell_volume 2591.979618
_symmetry_space_group_name_H-M "P M M A"
_symmetry_group_IT_number 51
_symmetry_cell_setting 'orthorhombic'
loop_
_space_group_symop_operation_xyz
x,y,z
1/2-x,-y,z
1/2+x,-y,-z
-x,y,-z
-x,-y,-z
1/2+x,y,-z
1/2-x,y,z
x,-y,z
loop_
_atom_site_type_symbol
_atom_site_label
_atom_site_fract_x
_atom_site_fract_y
_atom_site_fract_z
Si Si1 0.408238 0.173087 0.272953
Si Si2 0.668767 0.667867 0.883811
Si Si3 0.330526 0.830111 0.615055
Si Si4 0.570275 0.330480 0.046332
Si Si5 0.434074 0.827649 0.770599
Si Si6 0.669107 0.672096 0.567497
O O1 0.364800 0.222957 0.187086
O O2 0.488660 0.220772 0.260208
O O3 0.380284 0.251371 0.360974
O O4 0.399702 0.000000 0.284981
O O5 0.750000 0.705521 0.892334
O O6 0.656367 0.500000 0.851981
O O7 0.635469 0.694536 0.980719
O O8 0.250000 0.804527 0.643174
O O9 0.378846 0.775105 0.696113
O O10 0.350787 0.734625 0.529210
O O11 0.345020 0.000000 0.591906
O O12 0.558381 0.500000 0.070432
O O13 0.587408 0.246560 0.136915
O O14 0.500000 0.266627 0.000000
O O15 0.429863 0.000000 0.785932
O O16 0.750000 0.707089 0.591235
O O17 0.654303 0.500000 0.568032
#
# Coordination Sequence:
#
# PCOD8212409 Si02
#       6
#     8   8   8   8   8   8
#     4  11  22  35  54  81 113 146 181 222 271 328
#     4  10  21  37  56  80 110 143 183 230 274 320
#     4   9  19  38  60  80 107 144 184 225 271 324
#     4  10  20  36  57  79 106 144 184 221 270 329
#     4  10  22  37  56  83 112 144 181 225 274 323
#     4  10  21  37  57  81 110 144 182 226 274 322
#
# _framework density 18.518664000000001
#
# number of rings (size 3 to 8) (size 9 to 14) (size 15 to 20)
#    0.000    2.000    1.667    1.500    0.000    7.000 
#    0.000    3.333    0.000    0.000    0.000    0.000 
#    0.000    0.000    0.000    0.000    0.000    0.000 
#
# Total GULP energy -595434.418145 kJ/mol
# GULP energy per Si atom -12404.883711 kJ/mol
# Density = 1.847652 g / cm^3
# Si number density = 18.518664 Si / 1000 Ang^3
#
#
#
# Elastic Constant Matrix: (Units=GPa)
#
#
# Indices 1 2 3 4 5 6 
#
# 1 120.0720 44.8996 78.4325 0.0000 0.0000 0.0000
# 2 44.8996 59.0952 58.8190 0.0000 0.0000 0.0000
# 3 78.4325 58.8190 146.5677 0.0000 0.0000 0.0000
# 4 0.0000 0.0000 0.0000 45.1703 0.0000 0.0000
# 5 0.0000 0.0000 0.0000 0.0000 38.4578 0.0000
# 6 0.0000 0.0000 0.0000 0.0000 0.0000 24.2636
#
#
#
# Elastic Compliance Matrix: (Units=1/GPa)
#
#
# Indices 1 2 3 4 5 6 
#
# 1 0.013694 -0.005180 -0.005250 0.000000 0.000000 0.000000
# 2 -0.005180 0.030136 -0.009322 0.000000 0.000000 0.000000
# 3 -0.005250 -0.009322 0.013373 0.000000 0.000000 0.000000
# 4 0.000000 0.000000 0.000000 0.022138 0.000000 0.000000
# 5 0.000000 0.000000 0.000000 0.000000 0.026003 0.000000
# 6 0.000000 0.000000 0.000000 0.000000 0.000000 0.041214
#
#
# Mechanical properties :
#
#
# Convention : Reuss Voigt Hill
#
# Bulk Modulus (GPa) = 56.49536 76.67078 66.58307
# Shear Modulus (GPa) = 26.04703 31.15059 28.59881
#
# Velocity S-wave (km/s) = 3.75444 4.10581 3.93405
# Velocity P-wave (km/s) = 7.02623 7.99804 7.52784
#
# Compressibility (1/GPa) = 0.01770057
#
# Stress axis : x y z
#
# Youngs Moduli (GPa) = 73.02317 33.18327 74.77791
#
# Poissons Ratio (x) = 0.17188 0.39255
# Poissons Ratio (y) = 0.37824 0.69707
# Poissons Ratio (z) = 0.38334 0.30933
#
# Static dielectric constant tensor:
#      x y z
#    x 3.535500 0.000000 0.000000 
#    y 0.000000 3.391770 0.000000 
#    z 0.000000 0.000000 3.404250 
# 
# 
# High freq. dielectric constant tensor:
#      x y z
#    x 1.724150 0.000000 0.000000 
#    y 0.000000 1.717040 0.000000 
#    z 0.000000 0.000000 1.725590 
# 
# From -- ./inp_files/24694.got.cif
#   From: 2010.03.12/outbox.cif.g09.slc.cpg/sg51_13_cif.got.tgz:24694.got - 2010.04.16 13:43:02.
