data_PCOD8212782
_publ_section_title
;
Structure prediction by ZEFSAII (Michael W. Deem and Ramdas Pophale) SiO2 
 PCOD8212782
Probable space group: P M M A
;
_chemical_formula_sum "Si O2"
_cell_formula_units_Z 48
_cell_length_a 31.997242
_cell_length_b 7.828538
_cell_length_c 9.722121
_cell_angle_alpha 90.000000
_cell_angle_beta 90.000000
_cell_angle_gamma 90.000000
_cell_volume 2435.309887
_symmetry_space_group_name_H-M "P M M A"
_symmetry_group_IT_number 51
_symmetry_cell_setting 'orthorhombic'
loop_
_space_group_symop_operation_xyz
x,y,z
1/2-x,-y,z
1/2+x,-y,-z
-x,y,-z
-x,-y,-z
1/2+x,y,-z
1/2-x,y,z
x,-y,z
loop_
_atom_site_type_symbol
_atom_site_label
_atom_site_fract_x
_atom_site_fract_y
_atom_site_fract_z
Si Si1 0.968240 0.000000 0.377638
Si Si2 0.673967 0.196707 0.783211
Si Si3 0.084349 0.691350 0.532837
Si Si4 0.250000 0.298464 0.713638
Si Si5 0.583495 0.307936 0.786662
Si Si6 0.174340 0.803443 0.524954
Si Si7 0.970656 0.000000 0.872178
Si Si8 0.750000 0.298660 0.971143
O O1 0.940153 0.170979 0.376369
O O2 0.000000 0.000000 0.500000
O O3 0.996243 0.000000 0.246578
O O4 0.632620 0.301369 0.823720
O O5 0.689735 0.248478 0.629283
O O6 0.709320 0.229827 0.894893
O O7 0.661169 0.000000 0.785146
O O8 0.068037 0.500000 0.566739
O O9 0.077121 0.737363 0.373404
O O10 0.133599 0.696026 0.566766
O O11 0.250000 0.500000 0.707357
O O12 0.290375 0.228129 0.636850
O O13 0.250000 0.232755 0.871252
O O14 0.567632 0.500000 0.819961
O O15 0.557842 0.169975 0.873893
O O16 0.161073 0.000000 0.526344
O O17 0.000000 0.000000 0.000000
O O18 0.750000 0.500000 0.965729
#
# Coordination Sequence:
#
# PCOD8212782 Si02
#       8
#     4   8   8   4   8   8   4   4
#     4  12  22  40  68  91 124 155 199 256 299 364
#     4  10  20  37  64  90 116 155 206 252 294 352
#     4  10  20  37  65  97 122 155 201 252 307 358
#     4  11  24  39  54  84 128 165 200 248 297 353
#     4  10  20  39  66  92 122 160 202 252 303 357
#     4  10  20  37  62  89 121 155 199 251 301 353
#     4  12  26  44  62  91 126 161 201 248 309 370
#     4  11  24  39  54  84 124 163 210 248 287 353
#
# _framework density 19.710018999999999
#
# number of rings (size 3 to 8) (size 9 to 14) (size 15 to 20)
#    0.000    1.500    3.333    2.000    0.000    6.667 
#    3.000    0.000    0.000    0.000    0.000    0.000 
#    0.000    0.000    0.000    0.000    0.000    0.000 
#
# Total GULP energy -595227.671221 kJ/mol
# GULP energy per Si atom -12400.576484 kJ/mol
# Density = 1.966516 g / cm^3
# Si number density = 19.710019 Si / 1000 Ang^3
#
#
#
# Elastic Constant Matrix: (Units=GPa)
#
#
# Indices 1 2 3 4 5 6 
#
# 1 106.3347 47.8885 59.5231 0.0000 0.0000 0.0000
# 2 47.8885 116.5466 31.5407 0.0000 0.0000 0.0000
# 3 59.5231 31.5407 107.7747 0.0000 0.0000 0.0000
# 4 0.0000 0.0000 0.0000 19.8031 0.0000 0.0000
# 5 0.0000 0.0000 0.0000 0.0000 31.6095 0.0000
# 6 0.0000 0.0000 0.0000 0.0000 0.0000 19.8668
#
#
#
# Elastic Compliance Matrix: (Units=1/GPa)
#
#
# Indices 1 2 3 4 5 6 
#
# 1 0.015430 -0.004381 -0.007240 0.000000 0.000000 0.000000
# 2 -0.004381 0.010562 -0.000672 0.000000 0.000000 0.000000
# 3 -0.007240 -0.000672 0.013474 0.000000 0.000000 0.000000
# 4 0.000000 0.000000 0.000000 0.050497 0.000000 0.000000
# 5 0.000000 0.000000 0.000000 0.000000 0.031636 0.000000
# 6 0.000000 0.000000 0.000000 0.000000 0.000000 0.050335
#
#
# Mechanical properties :
#
#
# Convention : Reuss Voigt Hill
#
# Bulk Modulus (GPa) = 67.19821 67.61784 67.40802
# Shear Modulus (GPa) = 24.81659 27.03613 25.92636
#
# Velocity S-wave (km/s) = 3.55221 3.70766 3.63077
# Velocity P-wave (km/s) = 7.14085 7.26015 7.20075
#
# Compressibility (1/GPa) = 0.01488135
#
# Stress axis : x y z
#
# Youngs Moduli (GPa) = 64.80997 94.67866 74.21946
#
# Poissons Ratio (x) = 0.41476 0.53732
# Poissons Ratio (y) = 0.28392 0.04984
# Poissons Ratio (z) = 0.46920 0.06358
#
# Static dielectric constant tensor:
#      x y z
#    x 3.587590 0.000000 0.000000 
#    y 0.000000 3.884450 0.000000 
#    z 0.000000 0.000000 3.423080 
# 
# 
# High freq. dielectric constant tensor:
#      x y z
#    x 1.772910 0.000000 0.000000 
#    y 0.000000 1.784880 0.000000 
#    z 0.000000 0.000000 1.740080 
# 
# From -- ./inp_files/13014.got.cif
#   From: 2010.03.12/outbox.cif.g09.slc.cpg/sg51_7_cif.got.tgz:13014.got - 2010.04.16 13:43:02.
