data_PCOD8212917
_publ_section_title
;
Structure prediction by ZEFSAII (Michael W. Deem and Ramdas Pophale) SiO2 
 PCOD8212917
Probable space group: P M M A
;
_chemical_formula_sum "Si O2"
_cell_formula_units_Z 64
_cell_length_a 14.790668
_cell_length_b 9.260045
_cell_length_c 24.252530
_cell_angle_alpha 90.000000
_cell_angle_beta 90.000000
_cell_angle_gamma 90.000000
_cell_volume 3321.681108
_symmetry_space_group_name_H-M "P M M A"
_symmetry_group_IT_number 51
_symmetry_cell_setting 'orthorhombic'
loop_
_space_group_symop_operation_xyz
x,y,z
1/2-x,-y,z
1/2+x,-y,-z
-x,y,-z
-x,-y,-z
1/2+x,y,-z
1/2-x,y,z
x,-y,z
loop_
_atom_site_type_symbol
_atom_site_label
_atom_site_fract_x
_atom_site_fract_y
_atom_site_fract_z
Si Si1 0.142476 0.166800 0.791723
Si Si2 0.852200 0.328199 0.509327
Si Si3 0.600451 0.346150 0.987203
Si Si4 0.352636 0.660846 0.895719
Si Si5 0.985526 0.672135 0.291385
Si Si6 0.644633 0.167533 0.762410
Si Si7 0.986480 0.670774 0.416627
Si Si8 0.148061 0.833692 0.113508
O O1 0.250000 0.181966 0.784194
O O2 0.105462 0.231737 0.849942
O O3 0.094136 0.253500 0.742931
O O4 0.112431 0.000000 0.789978
O O5 0.750000 0.262824 0.513797
O O6 0.845157 0.500000 0.509580
O O7 0.916346 0.273452 0.559719
O O8 0.901440 0.274025 0.453103
O O9 0.651275 0.500000 0.975918
O O10 0.594133 0.249064 0.933217
O O11 0.500000 0.385101 0.000000
O O12 0.642367 0.271576 0.042307
O O13 0.250000 0.642957 0.878065
O O14 0.398660 0.500000 0.894377
O O15 0.980974 0.500000 0.283642
O O16 0.084889 0.728219 0.275026
O O17 0.971347 0.721849 0.354319
O O18 0.750000 0.207126 0.754811
O O19 0.611892 0.196318 0.825134
O O20 0.628719 0.000000 0.747149
O O21 0.989374 0.500000 0.420304
O O22 0.250000 0.778385 0.109578
O O23 0.141150 0.000000 0.098882
#
# Coordination Sequence:
#
# PCOD8212917 Si02
#       8
#     8   8   8   8   8   8   8   8
#     4  10  22  39  57  77 103 141 188 230 271 324
#     4   8  13  25  46  69 102 146 180 211 256 309
#     4  10  21  33  48  76 108 131 158 202 262 330
#     4   9  18  34  53  72  99 134 169 212 268 324
#     4  11  22  34  54  83 116 147 178 225 276 322
#     4   9  20  39  58  77 106 145 187 228 271 322
#     4   8  16  28  42  72 110 141 177 215 259 315
#     4   9  19  36  55  73  95 127 170 217 261 310
#
# _framework density 19.267353
#
# number of rings (size 3 to 8) (size 9 to 14) (size 15 to 20)
#    0.000    2.750    0.000    2.625    1.750    4.000 
#    0.000    5.000    0.000    0.000    0.000    7.000 
#    0.000   12.000    0.000    0.000    0.000    0.000 
#
# Total GULP energy -792968.249940 kJ/mol
# GULP energy per Si atom -12390.128905 kJ/mol
# Density = 1.922350 g / cm^3
# Si number density = 19.267353 Si / 1000 Ang^3
#
#
#
# Elastic Constant Matrix: (Units=GPa)
#
#
# Indices 1 2 3 4 5 6 
#
# 1 69.9714 21.4597 21.5052 0.0000 0.0000 0.0000
# 2 21.4597 62.1464 41.6970 0.0000 0.0000 0.0000
# 3 21.5052 41.6970 116.2825 0.0000 0.0000 0.0000
# 4 0.0000 0.0000 0.0000 7.4389 0.0000 0.0000
# 5 0.0000 0.0000 0.0000 0.0000 25.0945 0.0000
# 6 0.0000 0.0000 0.0000 0.0000 0.0000 33.5988
#
#
#
# Elastic Compliance Matrix: (Units=1/GPa)
#
#
# Indices 1 2 3 4 5 6 
#
# 1 0.016132 -0.004699 -0.001298 0.000000 0.000000 0.000000
# 2 -0.004699 0.022558 -0.007220 0.000000 0.000000 0.000000
# 3 -0.001298 -0.007220 0.011429 0.000000 0.000000 0.000000
# 4 0.000000 0.000000 0.000000 0.134428 0.000000 0.000000
# 5 0.000000 0.000000 0.000000 0.000000 0.039849 0.000000
# 6 0.000000 0.000000 0.000000 0.000000 0.000000 0.029763
#
#
# Mechanical properties :
#
#
# Convention : Reuss Voigt Hill
#
# Bulk Modulus (GPa) = 42.22341 46.41379 44.31860
# Shear Modulus (GPa) = 17.33172 24.14234 20.73703
#
# Velocity S-wave (km/s) = 3.00248 3.54364 3.28423
# Velocity P-wave (km/s) = 5.82940 6.39412 6.11828
#
# Compressibility (1/GPa) = 0.02368354
#
# Stress axis : x y z
#
# Youngs Moduli (GPa) = 61.98922 44.33034 87.49862
#
# Poissons Ratio (x) = 0.20833 0.11360
# Poissons Ratio (y) = 0.29131 0.63172
# Poissons Ratio (z) = 0.08048 0.32006
#
# Static dielectric constant tensor:
#      x y z
#    x 3.539530 0.000000 0.000000 
#    y 0.000000 3.291420 0.000000 
#    z 0.000000 0.000000 3.806330 
# 
# 
# High freq. dielectric constant tensor:
#      x y z
#    x 1.752990 0.000000 0.000000 
#    y 0.000000 1.716440 0.000000 
#    z 0.000000 0.000000 1.749940 
# 
# From -- ./inp_files/35646.got.cif
#   From: 2010.03.12/outbox.cif.g09.slc.cpg/sg51_18_cif.got.tgz:35646.got - 2010.04.16 13:43:02.
