data_PCOD8212251
_publ_section_title
;
Structure prediction by ZEFSAII (Michael W. Deem and Ramdas Pophale) SiO2 
 PCOD8212251
Probable space group: P M M A
;
_chemical_formula_sum "Si O2"
_cell_formula_units_Z 40
_cell_length_a 8.917019
_cell_length_b 14.359075
_cell_length_c 15.572072
_cell_angle_alpha 90.000000
_cell_angle_beta 90.000000
_cell_angle_gamma 90.000000
_cell_volume 1993.850351
_symmetry_space_group_name_H-M "P M M A"
_symmetry_group_IT_number 51
_symmetry_cell_setting 'orthorhombic'
loop_
_space_group_symop_operation_xyz
x,y,z
1/2-x,-y,z
1/2+x,-y,-z
-x,y,-z
-x,-y,-z
1/2+x,y,-z
1/2-x,y,z
x,-y,z
loop_
_atom_site_type_symbol
_atom_site_label
_atom_site_fract_x
_atom_site_fract_y
_atom_site_fract_z
Si Si1 0.926663 0.716772 0.414216
Si Si2 0.075858 0.608758 0.260043
Si Si3 0.575800 0.894662 0.646493
Si Si4 0.573049 0.292266 0.913480
Si Si5 0.072080 0.899205 0.157454
O O1 0.750000 0.709227 0.421955
O O2 0.000000 0.672831 0.500000
O O3 0.980334 0.660008 0.331844
O O4 0.975822 0.824723 0.409036
O O5 0.250000 0.633013 0.274741
O O6 0.043470 0.500000 0.265888
O O7 0.023933 0.643926 0.166401
O O8 0.750000 0.867022 0.637045
O O9 0.521909 0.884262 0.744629
O O10 0.548192 0.000000 0.614114
O O11 0.750000 0.293814 0.924886
O O12 0.511230 0.186605 0.899019
O O13 0.500000 0.332695 0.000000
O O14 0.250000 0.900341 0.155288
O O15 0.010725 0.000000 0.123826
#
# Coordination Sequence:
#
# PCOD8212251 Si02
#       5
#     8   8   8   8   8
#     4  12  25  40  62  90 123 157 195 243 296 357
#     4  10  22  43  67  87 113 152 198 250 306 360
#     4   9  17  34  61  88 118 159 203 244 289 344
#     4  10  20  35  57  86 120 155 196 239 291 353
#     4   8  14  28  53  81 112 153 195 235 283 341
#
# _framework density 20.061685000000001
#
# number of rings (size 3 to 8) (size 9 to 14) (size 15 to 20)
#    0.000    2.200    2.000    3.000    0.000    3.200 
#    0.000    0.000    0.000    0.000    0.000    0.000 
#    0.000    0.000    0.000    0.000    0.000    0.000 
#
# Total GULP energy -495933.049951 kJ/mol
# GULP energy per Si atom -12398.326249 kJ/mol
# Density = 2.001602 g / cm^3
# Si number density = 20.061685 Si / 1000 Ang^3
#
#
#
# Elastic Constant Matrix: (Units=GPa)
#
#
# Indices 1 2 3 4 5 6 
#
# 1 87.8996 49.3616 62.4450 0.0000 0.0000 0.0000
# 2 49.3616 104.2999 52.5494 0.0000 0.0000 0.0000
# 3 62.4450 52.5494 136.7733 0.0000 0.0000 0.0000
# 4 0.0000 0.0000 0.0000 8.1674 0.0000 0.0000
# 5 0.0000 0.0000 0.0000 0.0000 31.8292 0.0000
# 6 0.0000 0.0000 0.0000 0.0000 0.0000 20.3334
#
#
#
# Elastic Compliance Matrix: (Units=1/GPa)
#
#
# Indices 1 2 3 4 5 6 
#
# 1 0.019328 -0.005830 -0.006585 0.000000 0.000000 0.000000
# 2 -0.005830 0.013648 -0.002582 0.000000 0.000000 0.000000
# 3 -0.006585 -0.002582 0.011310 0.000000 0.000000 0.000000
# 4 0.000000 0.000000 0.000000 0.122438 0.000000 0.000000
# 5 0.000000 0.000000 0.000000 0.000000 0.031418 0.000000
# 6 0.000000 0.000000 0.000000 0.000000 0.000000 0.049180
#
#
# Mechanical properties :
#
#
# Convention : Reuss Voigt Hill
#
# Bulk Modulus (GPa) = 69.96517 73.07611 71.52064
# Shear Modulus (GPa) = 17.72560 23.04047 20.38303
#
# Velocity S-wave (km/s) = 2.97569 3.39260 3.19096
# Velocity P-wave (km/s) = 6.83791 7.20077 7.02169
#
# Compressibility (1/GPa) = 0.01429283
#
# Stress axis : x y z
#
# Youngs Moduli (GPa) = 51.73762 73.27274 88.42057
#
# Poissons Ratio (x) = 0.42717 0.58221
# Poissons Ratio (y) = 0.30163 0.22829
# Poissons Ratio (z) = 0.34067 0.18918
#
# Static dielectric constant tensor:
#      x y z
#    x 3.257170 0.000000 0.000000 
#    y 0.000000 3.946620 0.000000 
#    z 0.000000 0.000000 3.657890 
# 
# 
# High freq. dielectric constant tensor:
#      x y z
#    x 1.747480 0.000000 0.000000 
#    y 0.000000 1.788190 0.000000 
#    z 0.000000 0.000000 1.785360 
# 
# From -- ./inp_files/20471.got.cif
#   From: 2010.03.12/outbox.cif.g09.slc.cpg/sg51_11_cif.got.tgz:20471.got - 2010.04.16 13:43:02.
