data_PCOD8212913
_publ_section_title
;
Structure prediction by ZEFSAII (Michael W. Deem and Ramdas Pophale) SiO2 
 PCOD8212913
Probable space group: P M M A
;
_chemical_formula_sum "Si O2"
_cell_formula_units_Z 56
_cell_length_a 14.556777
_cell_length_b 13.488048
_cell_length_c 16.600979
_cell_angle_alpha 90.000000
_cell_angle_beta 90.000000
_cell_angle_gamma 90.000000
_cell_volume 3259.477834
_symmetry_space_group_name_H-M "P M M A"
_symmetry_group_IT_number 51
_symmetry_cell_setting 'orthorhombic'
loop_
_space_group_symop_operation_xyz
x,y,z
1/2-x,-y,z
1/2+x,-y,-z
-x,y,-z
-x,-y,-z
1/2+x,y,-z
1/2-x,y,z
x,-y,z
loop_
_atom_site_type_symbol
_atom_site_label
_atom_site_fract_x
_atom_site_fract_y
_atom_site_fract_z
Si Si1 0.031903 0.798788 0.806441
Si Si2 0.518713 0.612396 0.294711
Si Si3 0.645975 0.385303 0.595223
Si Si4 0.143550 0.697401 0.572587
Si Si5 0.143827 0.886669 0.944311
Si Si6 0.645066 0.111046 0.333781
Si Si7 0.146687 0.883901 0.129961
O O1 0.041356 0.684448 0.779716
O O2 0.082884 0.812606 0.891325
O O3 0.078413 0.870359 0.741149
O O4 0.924564 0.825414 0.814138
O O5 0.523264 0.500000 0.262602
O O6 0.417752 0.639281 0.328641
O O7 0.591061 0.625078 0.366669
O O8 0.750000 0.357740 0.619532
O O9 0.637191 0.500000 0.570407
O O10 0.611431 0.320882 0.518976
O O11 0.250000 0.669518 0.580850
O O12 0.123784 0.812410 0.594073
O O13 0.250000 0.872993 0.921484
O O14 0.113098 0.000000 0.927574
O O15 0.126512 0.859163 0.036880
O O16 0.750000 0.124429 0.303636
O O17 0.628324 0.000000 0.366709
O O18 0.250000 0.850255 0.152819
O O19 0.135019 0.000000 0.145114
#
# Coordination Sequence:
#
# PCOD8212913 Si02
#       7
#     8   8   8   8   8   8   8
#     4  11  19  28  47  68  92 125 154 181 223 272
#     4  10  21  33  45  66  94 121 152 192 234 272
#     4   9  17  31  51  69  84 109 150 197 236 267
#     4   9  17  29  48  71  91 116 151 190 233 275
#     4   9  17  30  50  75  97 116 145 184 222 265
#     4   9  17  28  43  67  97 124 150 181 220 272
#     4   9  18  31  48  72  97 119 147 184 223 263
#
# _framework density 17.180667
#
# number of rings (size 3 to 8) (size 9 to 14) (size 15 to 20)
#    0.000    2.571    0.000    3.857    0.000    5.429 
#    0.000    0.000    0.000   10.286    0.000    4.000 
#    0.000    0.000    0.000    0.000    0.000    0.000 
#
# Total GULP energy -694414.293102 kJ/mol
# GULP energy per Si atom -12400.255234 kJ/mol
# Density = 1.714156 g / cm^3
# Si number density = 17.180667 Si / 1000 Ang^3
#
#
#
# Elastic Constant Matrix: (Units=GPa)
#
#
# Indices 1 2 3 4 5 6 
#
# 1 72.4866 35.9835 26.9779 0.0000 0.0000 0.0000
# 2 35.9835 85.9376 34.8380 0.0000 0.0000 0.0000
# 3 26.9779 34.8380 42.2166 0.0000 0.0000 0.0000
# 4 0.0000 0.0000 0.0000 24.0246 0.0000 0.0000
# 5 0.0000 0.0000 0.0000 0.0000 29.0604 0.0000
# 6 0.0000 0.0000 0.0000 0.0000 0.0000 22.1924
#
#
#
# Elastic Compliance Matrix: (Units=1/GPa)
#
#
# Indices 1 2 3 4 5 6 
#
# 1 0.019247 -0.004618 -0.008489 0.000000 0.000000 0.000000
# 2 -0.004618 0.018594 -0.012393 0.000000 0.000000 0.000000
# 3 -0.008489 -0.012393 0.039339 0.000000 0.000000 0.000000
# 4 0.000000 0.000000 0.000000 0.041624 0.000000 0.000000
# 5 0.000000 0.000000 0.000000 0.000000 0.034411 0.000000
# 6 0.000000 0.000000 0.000000 0.000000 0.000000 0.045060
#
#
# Mechanical properties :
#
#
# Convention : Reuss Voigt Hill
#
# Bulk Modulus (GPa) = 38.19631 44.02665 41.11148
# Shear Modulus (GPa) = 19.37960 21.91157 20.64559
#
# Velocity S-wave (km/s) = 3.36220 3.57510 3.47028
# Velocity P-wave (km/s) = 6.11170 6.53629 6.32756
#
# Compressibility (1/GPa) = 0.02618054
#
# Stress axis : x y z
#
# Youngs Moduli (GPa) = 51.95483 53.78097 25.41991
#
# Poissons Ratio (x) = 0.24835 0.21579
# Poissons Ratio (y) = 0.23992 0.31503
# Poissons Ratio (z) = 0.44105 0.66651
#
# Static dielectric constant tensor:
#      x y z
#    x 3.411580 0.000000 0.000000 
#    y 0.000000 3.052770 0.000000 
#    z 0.000000 0.000000 2.985440 
# 
# 
# High freq. dielectric constant tensor:
#      x y z
#    x 1.679430 0.000000 0.000000 
#    y 0.000000 1.641970 0.000000 
#    z 0.000000 0.000000 1.639980 
# 
# From -- ./inp_files/24316.got.cif
#   From: 2010.03.12/outbox.cif.g09.slc.cpg/sg51_13_cif.got.tgz:24316.got - 2010.04.16 13:43:02.
