data_PCOD8212714
_publ_section_title
;
Structure prediction by ZEFSAII (Michael W. Deem and Ramdas Pophale) SiO2 
 PCOD8212714
Probable space group: P M M A
;
_chemical_formula_sum "Si O2"
_cell_formula_units_Z 52
_cell_length_a 8.840318
_cell_length_b 13.361258
_cell_length_c 23.519366
_cell_angle_alpha 90.000000
_cell_angle_beta 90.000000
_cell_angle_gamma 90.000000
_cell_volume 2778.055054
_symmetry_space_group_name_H-M "P M M A"
_symmetry_group_IT_number 51
_symmetry_cell_setting 'orthorhombic'
loop_
_space_group_symop_operation_xyz
x,y,z
1/2-x,-y,z
1/2+x,-y,-z
-x,y,-z
-x,-y,-z
1/2+x,y,-z
1/2-x,y,z
x,-y,z
loop_
_atom_site_type_symbol
_atom_site_label
_atom_site_fract_x
_atom_site_fract_y
_atom_site_fract_z
Si Si1 0.569140 0.000000 0.062056
Si Si2 0.427319 0.111839 0.442678
Si Si3 0.416562 0.383625 0.554780
Si Si4 0.572487 0.726898 0.647913
Si Si5 0.421146 0.741237 0.769170
Si Si6 0.421750 0.612136 0.870127
Si Si7 0.071042 0.188337 0.125445
O O1 0.512239 0.899973 0.092653
O O2 0.750000 0.000000 0.059832
O O3 0.500000 0.000000 0.000000
O O4 0.500000 0.156120 0.500000
O O5 0.250000 0.115099 0.451171
O O6 0.476112 0.175681 0.388009
O O7 0.487331 0.000000 0.431427
O O8 0.500000 0.335641 0.500000
O O9 0.250000 0.334243 0.560202
O O10 0.398347 0.500000 0.544983
O O11 0.512915 0.367342 0.612057
O O12 0.750000 0.717697 0.657222
O O13 0.494752 0.729837 0.708406
O O14 0.250000 0.781620 0.762854
O O15 0.422069 0.633749 0.801902
O O16 0.518038 0.818603 0.808352
O O17 0.250000 0.618245 0.893468
O O18 0.488050 0.500000 0.881326
O O19 0.520415 0.701483 0.899662
O O20 0.250000 0.175463 0.119889
#
# Coordination Sequence:
#
# PCOD8212714 Si02
#       7
#     4   8   8   8   8   8   8
#     4  12  24  42  68  98 130 168 209 248 291 342
#     4   9  19  35  52  70  94 125 164 215 275 337
#     4  10  21  36  52  70  96 131 172 223 284 347
#     4  11  21  33  51  76 103 135 176 224 279 342
#     4   9  19  35  53  78 112 150 189 235 285 344
#     4   8  16  33  56  81 114 158 201 242 291 346
#     4  10  20  37  59  90 125 160 201 246 296 346
#
# _framework density 18.718132000000001
#
# number of rings (size 3 to 8) (size 9 to 14) (size 15 to 20)
#    0.923    1.385    0.000    3.462    0.000    4.308 
#    1.385    1.538    0.000    0.462    0.000    0.000 
#    0.000    0.000    0.000    0.000    0.000    0.000 
#
# Total GULP energy -644291.121301 kJ/mol
# GULP energy per Si atom -12390.213871 kJ/mol
# Density = 1.867553 g / cm^3
# Si number density = 18.718132 Si / 1000 Ang^3
#
#
#
# Elastic Constant Matrix: (Units=GPa)
#
#
# Indices 1 2 3 4 5 6 
#
# 1 122.1650 49.5434 40.1914 0.0000 0.0000 0.0000
# 2 49.5434 106.2019 36.3550 0.0000 0.0000 0.0000
# 3 40.1914 36.3550 86.3010 0.0000 0.0000 0.0000
# 4 0.0000 0.0000 0.0000 13.6905 0.0000 0.0000
# 5 0.0000 0.0000 0.0000 0.0000 32.8505 0.0000
# 6 0.0000 0.0000 0.0000 0.0000 0.0000 29.9809
#
#
#
# Elastic Compliance Matrix: (Units=1/GPa)
#
#
# Indices 1 2 3 4 5 6 
#
# 1 0.010900 -0.003911 -0.003429 0.000000 0.000000 0.000000
# 2 -0.003911 0.012406 -0.003405 0.000000 0.000000 0.000000
# 3 -0.003429 -0.003405 0.014618 0.000000 0.000000 0.000000
# 4 0.000000 0.000000 0.000000 0.073043 0.000000 0.000000
# 5 0.000000 0.000000 0.000000 0.000000 0.030441 0.000000
# 6 0.000000 0.000000 0.000000 0.000000 0.000000 0.033355
#
#
# Mechanical properties :
#
#
# Convention : Reuss Voigt Hill
#
# Bulk Modulus (GPa) = 60.84423 62.98305 61.91364
# Shear Modulus (GPa) = 24.78562 27.87628 26.33095
#
# Velocity S-wave (km/s) = 3.64284 3.86329 3.75468
# Velocity P-wave (km/s) = 7.09012 7.32265 7.20732
#
# Compressibility (1/GPa) = 0.01643541
#
# Stress axis : x y z
#
# Youngs Moduli (GPa) = 91.74524 80.60578 68.40728
#
# Poissons Ratio (x) = 0.31526 0.23454
# Poissons Ratio (y) = 0.35882 0.23291
# Poissons Ratio (z) = 0.31455 0.27444
#
# Static dielectric constant tensor:
#      x y z
#    x 3.584610 0.000000 0.000000 
#    y 0.000000 3.590020 0.000000 
#    z 0.000000 0.000000 3.240200 
# 
# 
# High freq. dielectric constant tensor:
#      x y z
#    x 1.737760 0.000000 0.000000 
#    y 0.000000 1.722420 0.000000 
#    z 0.000000 0.000000 1.702700 
# 
# From -- ./inp_files/31713.got.cif
#   From: 2010.03.12/outbox.cif.g09.slc.cpg/sg51_16_cif.got.tgz:31713.got - 2010.04.16 13:43:02.
