data_PCOD8212613
_publ_section_title
;
Structure prediction by ZEFSAII (Michael W. Deem and Ramdas Pophale) SiO2 
 PCOD8212613
Probable space group: P M M A
;
_chemical_formula_sum "Si O2"
_cell_formula_units_Z 48
_cell_length_a 23.546520
_cell_length_b 8.912327
_cell_length_c 11.181869
_cell_angle_alpha 90.000000
_cell_angle_beta 90.000000
_cell_angle_gamma 90.000000
_cell_volume 2346.563135
_symmetry_space_group_name_H-M "P M M A"
_symmetry_group_IT_number 51
_symmetry_cell_setting 'orthorhombic'
loop_
_space_group_symop_operation_xyz
x,y,z
1/2-x,-y,z
1/2+x,-y,-z
-x,y,-z
-x,-y,-z
1/2+x,y,-z
1/2-x,y,z
x,-y,z
loop_
_atom_site_type_symbol
_atom_site_label
_atom_site_fract_x
_atom_site_fract_y
_atom_site_fract_z
Si Si1 0.415388 0.327795 0.557861
Si Si2 0.314771 0.172609 0.661971
Si Si3 0.977685 0.822610 0.230236
Si Si4 0.184815 0.178756 0.149192
Si Si5 0.088415 0.326989 0.282529
Si Si6 0.631552 0.824101 0.094026
O O1 0.424393 0.500000 0.596316
O O2 0.350040 0.279915 0.574939
O O3 0.455221 0.223985 0.638920
O O4 0.430346 0.304902 0.419581
O O5 0.250000 0.197439 0.627963
O O6 0.325370 0.218909 0.799560
O O7 0.333691 0.000000 0.642955
O O8 0.932094 0.769366 0.129508
O O9 0.038131 0.745584 0.202597
O O10 0.986129 0.000000 0.227581
O O11 0.250000 0.234318 0.158157
O O12 0.148280 0.244568 0.258719
O O13 0.182810 0.000000 0.153417
O O14 0.155809 0.246248 0.028337
O O15 0.095224 0.500000 0.248741
O O16 0.630135 0.000000 0.075107
#
# Coordination Sequence:
#
# PCOD8212613 Si02
#       6
#     8   8   8   8   8   8
#     4  10  21  36  53  76 110 149 183 219 272 329
#     4   9  17  31  54  82 109 139 180 230 278 324
#     4  10  20  36  61  88 110 135 175 227 276 324
#     4  10  21  38  60  82 106 142 186 225 262 314
#     4  11  24  39  54  76 112 152 183 218 267 322
#     4   8  16  33  57  84 110 136 171 222 280 325
#
# _framework density 20.455448000000001
#
# number of rings (size 3 to 8) (size 9 to 14) (size 15 to 20)
#    0.000    2.333    0.000    3.500    0.000    8.667 
#    0.000   10.833    0.000    4.000    0.000    0.000 
#    0.000    0.000    0.000    0.000    0.000    0.000 
#
# Total GULP energy -595124.504347 kJ/mol
# GULP energy per Si atom -12398.427174 kJ/mol
# Density = 2.040889 g / cm^3
# Si number density = 20.455448 Si / 1000 Ang^3
#
#
#
# Elastic Constant Matrix: (Units=GPa)
#
#
# Indices 1 2 3 4 5 6 
#
# 1 135.3148 35.8237 21.3660 0.0000 0.0000 0.0000
# 2 35.8237 47.6984 20.0714 0.0000 0.0000 0.0000
# 3 21.3660 20.0714 36.1450 0.0000 0.0000 0.0000
# 4 0.0000 0.0000 0.0000 10.4362 0.0000 0.0000
# 5 0.0000 0.0000 0.0000 0.0000 23.7339 0.0000
# 6 0.0000 0.0000 0.0000 0.0000 0.0000 22.8151
#
#
#
# Elastic Compliance Matrix: (Units=1/GPa)
#
#
# Indices 1 2 3 4 5 6 
#
# 1 0.009348 -0.006127 -0.002123 0.000000 0.000000 0.000000
# 2 -0.006127 0.031374 -0.013800 0.000000 0.000000 0.000000
# 3 -0.002123 -0.013800 0.036585 0.000000 0.000000 0.000000
# 4 0.000000 0.000000 0.000000 0.095820 0.000000 0.000000
# 5 0.000000 0.000000 0.000000 0.000000 0.042134 0.000000
# 6 0.000000 0.000000 0.000000 0.000000 0.000000 0.043831
#
#
# Mechanical properties :
#
#
# Convention : Reuss Voigt Hill
#
# Bulk Modulus (GPa) = 30.11564 41.52005 35.81785
# Shear Modulus (GPa) = 15.91041 20.85684 18.38362
#
# Velocity S-wave (km/s) = 2.79195 3.19662 3.00111
# Velocity P-wave (km/s) = 5.01476 5.82807 5.43664
#
# Compressibility (1/GPa) = 0.03320534
#
# Stress axis : x y z
#
# Youngs Moduli (GPa) = 106.98043 31.87373 27.33385
#
# Poissons Ratio (x) = 0.19529 0.05803
# Poissons Ratio (y) = 0.65547 0.37721
# Poissons Ratio (z) = 0.22714 0.43986
#
# Static dielectric constant tensor:
#      x y z
#    x 3.943780 0.000000 0.000000 
#    y 0.000000 3.482290 0.000000 
#    z 0.000000 0.000000 3.669540 
# 
# 
# High freq. dielectric constant tensor:
#      x y z
#    x 1.813340 0.000000 0.000000 
#    y 0.000000 1.775800 0.000000 
#    z 0.000000 0.000000 1.786730 
# 
# From -- ./inp_files/18588.got.cif
#   From: 2010.03.12/outbox.cif.g09.slc.cpg/sg51_10_cif.got.tgz:18588.got - 2010.04.16 13:43:02.
