data_PCOD8212476
_publ_section_title
;
Structure prediction by ZEFSAII (Michael W. Deem and Ramdas Pophale) SiO2 
 PCOD8212476
Probable space group: P M M A
;
_chemical_formula_sum "Si O2"
_cell_formula_units_Z 40
_cell_length_a 14.884797
_cell_length_b 7.920281
_cell_length_c 17.388757
_cell_angle_alpha 90.000000
_cell_angle_beta 90.000000
_cell_angle_gamma 90.000000
_cell_volume 2049.991425
_symmetry_space_group_name_H-M "P M M A"
_symmetry_group_IT_number 51
_symmetry_cell_setting 'orthorhombic'
loop_
_space_group_symop_operation_xyz
x,y,z
1/2-x,-y,z
1/2+x,-y,-z
-x,y,-z
-x,-y,-z
1/2+x,y,-z
1/2-x,y,z
x,-y,z
loop_
_atom_site_type_symbol
_atom_site_label
_atom_site_fract_x
_atom_site_fract_y
_atom_site_fract_z
Si Si1 0.928318 0.185012 0.067554
Si Si2 0.848773 0.500000 0.999356
Si Si3 0.005865 0.299729 0.619287
Si Si4 0.355662 0.500000 0.168605
Si Si5 0.960669 0.188638 0.781206
Si Si6 0.148081 0.300198 0.494942
O O1 0.859564 0.334841 0.051482
O O2 0.968988 0.217563 0.150897
O O3 0.881204 0.000000 0.065341
O O4 0.000000 0.194102 0.000000
O O5 0.750000 0.500000 0.966985
O O6 0.902447 0.500000 0.917497
O O7 0.006948 0.500000 0.630278
O O8 0.012710 0.207099 0.700820
O O9 0.912284 0.243519 0.578086
O O10 0.093463 0.241077 0.570856
O O11 0.250000 0.500000 0.168612
O O12 0.384292 0.669001 0.213593
O O13 0.918574 0.000000 0.787969
O O14 0.250000 0.222772 0.492177
O O15 0.155390 0.500000 0.495516
#
# Coordination Sequence:
#
# PCOD8212476 Si02
#       6
#     8   4   8   4   8   8
#     4  10  20  36  58  81 109 150 191 228 275 333
#     4  11  22  36  58  84 110 144 191 241 282 335
#     4   9  17  31  54  83 111 145 189 235 282 339
#     4  11  23  37  55  82 116 149 183 233 288 339
#     4  11  22  37  58  83 113 149 189 234 279 333
#     4   8  15  30  53  80 111 147 186 231 287 343
#
# _framework density 19.512277999999998
#
# number of rings (size 3 to 8) (size 9 to 14) (size 15 to 20)
#    0.000    2.200    3.000    2.100    0.000    1.600 
#    0.000    5.000    0.000    3.000    0.000    0.000 
#    0.000    0.000    0.000    0.000    0.000    0.000 
#
# Total GULP energy -495650.672079 kJ/mol
# GULP energy per Si atom -12391.266802 kJ/mol
# Density = 1.946787 g / cm^3
# Si number density = 19.512278 Si / 1000 Ang^3
#
#
#
# Elastic Constant Matrix: (Units=GPa)
#
#
# Indices 1 2 3 4 5 6 
#
# 1 95.1757 26.8295 40.8931 0.0000 0.0000 0.0000
# 2 26.8295 108.2999 28.8801 0.0000 0.0000 0.0000
# 3 40.8931 28.8801 148.6708 0.0000 0.0000 0.0000
# 4 0.0000 0.0000 0.0000 136.0777 0.0000 0.0000
# 5 0.0000 0.0000 0.0000 0.0000 16.9337 0.0000
# 6 0.0000 0.0000 0.0000 0.0000 0.0000 -9.0153
#
#
#
# Elastic Compliance Matrix: (Units=1/GPa)
#
#
# Indices 1 2 3 4 5 6 
#
# 1 0.012429 -0.002286 -0.002975 0.000000 0.000000 0.000000
# 2 -0.002286 0.010158 -0.001345 0.000000 0.000000 0.000000
# 3 -0.002975 -0.001345 0.007806 0.000000 0.000000 0.000000
# 4 0.000000 0.000000 0.000000 0.007349 0.000000 0.000000
# 5 0.000000 0.000000 0.000000 0.000000 0.059054 0.000000
# 6 0.000000 0.000000 0.000000 0.000000 0.000000 -0.110922
#
#
# Mechanical properties :
#
#
# Convention : Reuss Voigt Hill
#
# Bulk Modulus (GPa) = 58.19678 60.59463 59.39571
# Shear Modulus (GPa) = 1039.03744 45.83546 542.43645
#
# Velocity S-wave (km/s) = 23.10109 4.85197 16.69135
# Velocity P-wave (km/s) = 27.22935 7.90638 20.04930
#
# Compressibility (1/GPa) = 0.01718308
#
# Stress axis : x y z
#
# Youngs Moduli (GPa) = 80.45444 98.44000 128.11163
#
# Poissons Ratio (x) = 0.22502 0.38110
# Poissons Ratio (y) = 0.18391 0.17226
# Poissons Ratio (z) = 0.23933 0.13236
#
# Static dielectric constant tensor:
#      x y z
#    x 3.441470 0.000000 0.000000 
#    y 0.000000 3.656840 0.000000 
#    z 0.000000 0.000000 3.751360 
# 
# 
# High freq. dielectric constant tensor:
#      x y z
#    x 1.725950 0.000000 0.000000 
#    y 0.000000 1.757840 0.000000 
#    z 0.000000 0.000000 1.769320 
# 
# From -- ./inp_files/23818.got.cif
#   From: 2010.03.12/outbox.cif.g09.slc.cpg/sg51_12_cif.got.tgz:23818.got - 2010.04.16 13:43:02.
