data_PCOD8212273
_publ_section_title
;
Structure prediction by ZEFSAII (Michael W. Deem and Ramdas Pophale) SiO2 
 PCOD8212273
Probable space group: P M M A
;
_chemical_formula_sum "Si O2"
_cell_formula_units_Z 64
_cell_length_a 8.998604
_cell_length_b 14.622897
_cell_length_c 24.944234
_cell_angle_alpha 90.000000
_cell_angle_beta 90.000000
_cell_angle_gamma 90.000000
_cell_volume 3282.303480
_symmetry_space_group_name_H-M "P M M A"
_symmetry_group_IT_number 51
_symmetry_cell_setting 'orthorhombic'
loop_
_space_group_symop_operation_xyz
x,y,z
1/2-x,-y,z
1/2+x,-y,-z
-x,y,-z
-x,-y,-z
1/2+x,y,-z
1/2-x,y,z
x,-y,z
loop_
_atom_site_type_symbol
_atom_site_label
_atom_site_fract_x
_atom_site_fract_y
_atom_site_fract_z
Si Si1 0.916935 0.398049 0.429147
Si Si2 0.073026 0.222266 0.745850
Si Si3 0.924866 0.214647 0.552545
Si Si4 0.081945 0.403289 0.697015
Si Si5 0.422804 0.101890 0.947897
Si Si6 0.923849 0.255204 0.133145
Si Si7 0.423769 0.393420 0.055638
Si Si8 0.424623 0.105845 0.341974
O O1 0.750000 0.374350 0.449369
O O2 0.964005 0.500000 0.449159
O O3 0.919049 0.395925 0.365931
O O4 0.032682 0.322265 0.449137
O O5 0.250000 0.214082 0.739390
O O6 0.001988 0.315214 0.721374
O O7 0.023486 0.228194 0.807427
O O8 0.002110 0.138269 0.713182
O O9 0.750000 0.203387 0.547665
O O10 0.982644 0.164209 0.606587
O O11 0.000000 0.168168 0.500000
O O12 0.250000 0.403856 0.718865
O O13 0.005672 0.500000 0.714701
O O14 0.250000 0.100955 0.959554
O O15 0.464642 0.163530 0.898016
O O16 0.483186 0.000000 0.936015
O O17 0.500000 0.144446 0.000000
O O18 0.750000 0.279859 0.131506
O O19 0.010804 0.340113 0.107002
O O20 0.250000 0.372449 0.050439
O O21 0.455739 0.500000 0.065938
O O22 0.500000 0.361325 0.000000
O O23 0.250000 0.119607 0.334901
O O24 0.465806 0.000000 0.351559
#
# Coordination Sequence:
#
# PCOD8212273 Si02
#       8
#     8   8   8   8   8   8   8   8
#     4   9  17  32  56  83 113 148 182 218 263 318
#     4  10  20  35  58  86 113 144 186 229 274 332
#     4  11  23  38  59  85 114 146 183 231 282 335
#     4   8  14  27  50  78 107 139 174 214 259 309
#     4   9  18  33  51  72 102 137 174 219 270 323
#     4  10  21  34  53  84 116 146 182 229 282 336
#     4  10  21  37  57  81 113 155 200 244 289 337
#     4  10  23  43  62  81 110 147 186 232 288 343
#
# _framework density 19.498501000000001
#
# number of rings (size 3 to 8) (size 9 to 14) (size 15 to 20)
#    0.000    2.375    1.250    1.875    0.000    5.250 
#    0.000    2.500    0.000    1.875    0.000    0.000 
#    0.000    0.000    0.000    0.000    0.000    0.000 
#
# Total GULP energy -793236.336874 kJ/mol
# GULP energy per Si atom -12394.317764 kJ/mol
# Density = 1.945412 g / cm^3
# Si number density = 19.498501 Si / 1000 Ang^3
#
#
#
# Elastic Constant Matrix: (Units=GPa)
#
#
# Indices 1 2 3 4 5 6 
#
# 1 53.8843 39.7451 46.2981 0.0000 0.0000 0.0000
# 2 39.7451 106.0425 60.5127 0.0000 0.0000 0.0000
# 3 46.2981 60.5127 137.5298 0.0000 0.0000 0.0000
# 4 0.0000 0.0000 0.0000 14.2127 0.0000 0.0000
# 5 0.0000 0.0000 0.0000 0.0000 29.1202 0.0000
# 6 0.0000 0.0000 0.0000 0.0000 0.0000 27.8281
#
#
#
# Elastic Compliance Matrix: (Units=1/GPa)
#
#
# Indices 1 2 3 4 5 6 
#
# 1 0.029787 -0.007267 -0.006830 0.000000 0.000000 0.000000
# 2 -0.007267 0.014364 -0.003874 0.000000 0.000000 0.000000
# 3 -0.006830 -0.003874 0.011275 0.000000 0.000000 0.000000
# 4 0.000000 0.000000 0.000000 0.070359 0.000000 0.000000
# 5 0.000000 0.000000 0.000000 0.000000 0.034340 0.000000
# 6 0.000000 0.000000 0.000000 0.000000 0.000000 0.035935
#
#
# Mechanical properties :
#
#
# Convention : Reuss Voigt Hill
#
# Bulk Modulus (GPa) = 51.32267 65.61872 58.47070
# Shear Modulus (GPa) = 20.96460 24.29224 22.62842
#
# Velocity S-wave (km/s) = 3.28257 3.53349 3.41034
# Velocity P-wave (km/s) = 6.38322 7.09744 6.74978
#
# Compressibility (1/GPa) = 0.01948457
#
# Stress axis : x y z
#
# Youngs Moduli (GPa) = 33.57213 69.61632 88.69141
#
# Poissons Ratio (x) = 0.50587 0.60577
# Poissons Ratio (y) = 0.24395 0.34360
# Poissons Ratio (z) = 0.22930 0.26970
#
# Static dielectric constant tensor:
#      x y z
#    x 3.426910 0.000000 0.000000 
#    y 0.000000 3.982700 0.000000 
#    z 0.000000 0.000000 3.489890 
# 
# 
# High freq. dielectric constant tensor:
#      x y z
#    x 1.734400 0.000000 0.000000 
#    y 0.000000 1.766220 0.000000 
#    z 0.000000 0.000000 1.762650 
# 
# From -- ./inp_files/34997.got.cif
#   From: 2010.03.12/outbox.cif.g09.slc.cpg/sg51_18_cif.got.tgz:34997.got - 2010.04.16 13:43:02.
