data_PCOD8212533
_publ_section_title
;
Structure prediction by ZEFSAII (Michael W. Deem and Ramdas Pophale) SiO2 
 PCOD8212533
Probable space group: P M M A
;
_chemical_formula_sum "Si O2"
_cell_formula_units_Z 64
_cell_length_a 14.614347
_cell_length_b 8.837403
_cell_length_c 26.025571
_cell_angle_alpha 90.000000
_cell_angle_beta 90.000000
_cell_angle_gamma 90.000000
_cell_volume 3361.277293
_symmetry_space_group_name_H-M "P M M A"
_symmetry_group_IT_number 51
_symmetry_cell_setting 'orthorhombic'
loop_
_space_group_symop_operation_xyz
x,y,z
1/2-x,-y,z
1/2+x,-y,-z
-x,y,-z
-x,-y,-z
1/2+x,y,-z
1/2-x,y,z
x,-y,z
loop_
_atom_site_type_symbol
_atom_site_label
_atom_site_fract_x
_atom_site_fract_y
_atom_site_fract_z
Si Si1 0.992270 0.821506 0.558118
Si Si2 0.354757 0.821199 0.637752
Si Si3 0.898012 0.678924 0.001098
Si Si4 0.645729 0.678612 0.631957
Si Si5 0.351700 0.327586 0.109990
Si Si6 0.147942 0.327825 0.887742
Si Si7 0.998739 0.176302 0.821574
Si Si8 0.493300 0.678132 0.711826
O O1 0.900721 0.748732 0.581489
O O2 0.000000 0.762591 0.500000
O O3 0.084547 0.771704 0.588401
O O4 0.979525 0.000000 0.560445
O O5 0.250000 0.762018 0.631555
O O6 0.401456 0.751176 0.688319
O O7 0.354917 0.000000 0.644371
O O8 0.895865 0.500000 0.002075
O O9 0.848573 0.732864 0.948942
O O10 0.851014 0.735771 0.053645
O O11 0.000000 0.744184 0.000000
O O12 0.750000 0.739253 0.638412
O O13 0.646236 0.500000 0.625482
O O14 0.584606 0.728090 0.680905
O O15 0.250000 0.322087 0.132734
O O16 0.390431 0.500000 0.112180
O O17 0.412063 0.216930 0.143830
O O18 0.250000 0.323897 0.865840
O O19 0.108806 0.500000 0.885946
O O20 0.089928 0.218558 0.852031
O O21 0.993190 0.269395 0.769515
O O22 0.998670 0.000000 0.808736
O O23 0.479948 0.500000 0.710186
#
# Coordination Sequence:
#
# PCOD8212533 Si02
#       8
#     8   8   8   8   8   8   8   8
#     4   9  18  32  52  82 118 153 188 222 257 306
#     4   9  18  34  55  79 110 147 184 224 273 322
#     4   9  15  29  57  85 109 135 172 221 266 312
#     4   9  19  36  57  81 108 140 180 226 275 322
#     4  10  20  36  59  84 109 140 179 221 266 317
#     4  10  20  36  59  84 108 138 180 224 265 317
#     4  12  25  39  55  78 112 145 177 220 274 331
#     4  10  21  38  59  79 102 135 181 232 278 324
#
# _framework density 19.040379999999999
#
# number of rings (size 3 to 8) (size 9 to 14) (size 15 to 20)
#    0.000    2.250    1.250    1.875    0.000    4.750 
#    0.000    3.750    0.000    1.500    0.000    0.000 
#    0.000    0.000    0.000    0.000    0.000    0.000 
#
# Total GULP energy -793472.537597 kJ/mol
# GULP energy per Si atom -12398.008400 kJ/mol
# Density = 1.899704 g / cm^3
# Si number density = 19.040380 Si / 1000 Ang^3
#
#
#
# Elastic Constant Matrix: (Units=GPa)
#
#
# Indices 1 2 3 4 5 6 
#
# 1 141.9036 23.6089 48.2229 0.0000 0.0000 0.0000
# 2 23.6089 19.3928 12.0182 0.0000 0.0000 0.0000
# 3 48.2229 12.0182 116.5156 0.0000 0.0000 0.0000
# 4 0.0000 0.0000 0.0000 22.8274 0.0000 0.0000
# 5 0.0000 0.0000 0.0000 0.0000 40.0286 0.0000
# 6 0.0000 0.0000 0.0000 0.0000 0.0000 24.4022
#
#
#
# Elastic Compliance Matrix: (Units=1/GPa)
#
#
# Indices 1 2 3 4 5 6 
#
# 1 0.009726 -0.009984 -0.002996 0.000000 0.000000 0.000000
# 2 -0.009984 0.065336 -0.002607 0.000000 0.000000 0.000000
# 3 -0.002996 -0.002607 0.010091 0.000000 0.000000 0.000000
# 4 0.000000 0.000000 0.000000 0.043807 0.000000 0.000000
# 5 0.000000 0.000000 0.000000 0.000000 0.024982 0.000000
# 6 0.000000 0.000000 0.000000 0.000000 0.000000 0.040980
#
#
# Mechanical properties :
#
#
# Convention : Reuss Voigt Hill
#
# Bulk Modulus (GPa) = 18.52547 49.50133 34.01340
# Shear Modulus (GPa) = 20.48435 30.38245 25.43340
#
# Velocity S-wave (km/s) = 3.28355 3.99894 3.65877
# Velocity P-wave (km/s) = 4.91186 6.88306 5.97925
#
# Compressibility (1/GPa) = 0.05397973
#
# Stress axis : x y z
#
# Youngs Moduli (GPa) = 102.81603 15.30555 99.09594
#
# Poissons Ratio (x) = 0.15281 0.29685
# Poissons Ratio (y) = 1.02653 0.25834
# Poissons Ratio (z) = 0.30799 0.03990
#
# Static dielectric constant tensor:
#      x y z
#    x 3.647550 0.000000 0.000000 
#    y 0.000000 3.213560 0.000000 
#    z 0.000000 0.000000 3.598110 
# 
# 
# High freq. dielectric constant tensor:
#      x y z
#    x 1.748350 0.000000 0.000000 
#    y 0.000000 1.712680 0.000000 
#    z 0.000000 0.000000 1.740650 
# 
# From -- ./inp_files/35831.got.cif
#   From: 2010.03.12/outbox.cif.g09.slc.cpg/sg51_18_cif.got.tgz:35831.got - 2010.04.16 13:43:02.
