data_PCOD8212149
_publ_section_title
;
Structure prediction by ZEFSAII (Michael W. Deem and Ramdas Pophale) SiO2 
 PCOD8212149
Probable space group: P M M A
;
_chemical_formula_sum "Si O2"
_cell_formula_units_Z 48
_cell_length_a 17.737214
_cell_length_b 9.134598
_cell_length_c 15.340530
_cell_angle_alpha 90.000000
_cell_angle_beta 90.000000
_cell_angle_gamma 90.000000
_cell_volume 2485.508253
_symmetry_space_group_name_H-M "P M M A"
_symmetry_group_IT_number 51
_symmetry_cell_setting 'orthorhombic'
loop_
_space_group_symop_operation_xyz
x,y,z
1/2-x,-y,z
1/2+x,-y,-z
-x,y,-z
-x,-y,-z
1/2+x,y,-z
1/2-x,y,z
x,-y,z
loop_
_atom_site_type_symbol
_atom_site_label
_atom_site_fract_x
_atom_site_fract_y
_atom_site_fract_z
Si Si1 0.075973 0.326364 0.850409
Si Si2 0.336287 0.168230 0.998819
Si Si3 0.165095 0.674088 0.681911
Si Si4 0.079004 0.168197 0.173958
Si Si5 0.914492 0.326222 0.492817
Si Si6 0.337048 0.169443 0.349369
O O1 0.075296 0.500000 0.853145
O O2 0.123787 0.267086 0.768240
O O3 0.991294 0.271428 0.843371
O O4 0.112208 0.268708 0.938829
O O5 0.250000 0.217416 0.988481
O O6 0.359627 0.191673 0.098655
O O7 0.347543 0.000000 0.970838
O O8 0.250000 0.737210 0.680031
O O9 0.166722 0.500000 0.681802
O O10 0.119864 0.732229 0.597925
O O11 0.116995 0.216519 0.264053
O O12 0.051896 0.000000 0.176786
O O13 0.911421 0.500000 0.498058
O O14 0.864705 0.264804 0.570408
O O15 0.000000 0.268678 0.500000
O O16 0.250000 0.203754 0.331662
O O17 0.349979 0.000000 0.371587
#
# Coordination Sequence:
#
# PCOD8212149 Si02
#       6
#     8   8   8   8   8   8
#     4  11  22  36  56  82 111 142 180 228 276 319
#     4  10  21  38  59  81 107 143 184 221 263 323
#     4   9  18  33  52  74 104 143 180 214 262 324
#     4  10  21  38  58  79 108 146 183 220 269 329
#     4  10  20  35  56  81 109 143 183 224 269 327
#     4  10  21  37  57  82 111 143 182 229 277 321
#
# _framework density 19.311945000000001
#
# number of rings (size 3 to 8) (size 9 to 14) (size 15 to 20)
#    0.000    2.000    0.000    3.500    0.000    9.000 
#    0.000    1.667    0.000    7.000    0.000    0.000 
#    0.000    0.000    0.000    0.000    0.000    0.000 
#
# Total GULP energy -595411.346609 kJ/mol
# GULP energy per Si atom -12404.403054 kJ/mol
# Density = 1.926799 g / cm^3
# Si number density = 19.311945 Si / 1000 Ang^3
#
#
#
# Elastic Constant Matrix: (Units=GPa)
#
#
# Indices 1 2 3 4 5 6 
#
# 1 99.9226 24.5088 11.4511 0.0000 0.0000 0.0000
# 2 24.5088 40.5971 23.2785 0.0000 0.0000 0.0000
# 3 11.4511 23.2785 95.1517 0.0000 0.0000 0.0000
# 4 0.0000 0.0000 0.0000 30.3412 0.0000 0.0000
# 5 0.0000 0.0000 0.0000 0.0000 43.3092 0.0000
# 6 0.0000 0.0000 0.0000 0.0000 0.0000 18.8298
#
#
#
# Elastic Compliance Matrix: (Units=1/GPa)
#
#
# Indices 1 2 3 4 5 6 
#
# 1 0.011759 -0.007313 0.000374 0.000000 0.000000 0.000000
# 2 -0.007313 0.033200 -0.007242 0.000000 0.000000 0.000000
# 3 0.000374 -0.007242 0.012236 0.000000 0.000000 0.000000
# 4 0.000000 0.000000 0.000000 0.032959 0.000000 0.000000
# 5 0.000000 0.000000 0.000000 0.000000 0.023090 0.000000
# 6 0.000000 0.000000 0.000000 0.000000 0.000000 0.053107
#
#
# Mechanical properties :
#
#
# Convention : Reuss Voigt Hill
#
# Bulk Modulus (GPa) = 34.68337 39.34979 37.01658
# Shear Modulus (GPa) = 24.47093 30.25822 27.36458
#
# Velocity S-wave (km/s) = 3.56355 3.96259 3.76836
# Velocity P-wave (km/s) = 5.91019 6.43089 6.17603
#
# Compressibility (1/GPa) = 0.02883226
#
# Stress axis : x y z
#
# Youngs Moduli (GPa) = 85.04368 30.12049 81.72426
#
# Poissons Ratio (x) = 0.22028 -0.03057
# Poissons Ratio (y) = 0.62195 0.59186
# Poissons Ratio (z) = -0.03181 0.21814
#
# Static dielectric constant tensor:
#      x y z
#    x 3.709310 0.000000 0.000000 
#    y 0.000000 3.285840 0.000000 
#    z 0.000000 0.000000 3.685120 
# 
# 
# High freq. dielectric constant tensor:
#      x y z
#    x 1.768280 0.000000 0.000000 
#    y 0.000000 1.726720 0.000000 
#    z 0.000000 0.000000 1.767950 
# 
# From -- ./inp_files/24784.got.cif
#   From: 2010.03.12/outbox.cif.g09.slc.cpg/sg51_13_cif.got.tgz:24784.got - 2010.04.16 13:43:02.
