data_PCOD8212744
_publ_section_title
;
Structure prediction by ZEFSAII (Michael W. Deem and Ramdas Pophale) SiO2 
 PCOD8212744
Probable space group: P M M A
;
_chemical_formula_sum "Si O2"
_cell_formula_units_Z 40
_cell_length_a 9.945953
_cell_length_b 9.129291
_cell_length_c 24.049844
_cell_angle_alpha 90.000000
_cell_angle_beta 90.000000
_cell_angle_gamma 90.000000
_cell_volume 2183.713791
_symmetry_space_group_name_H-M "P M M A"
_symmetry_group_IT_number 51
_symmetry_cell_setting 'orthorhombic'
loop_
_space_group_symop_operation_xyz
x,y,z
1/2-x,-y,z
1/2+x,-y,-z
-x,y,-z
-x,-y,-z
1/2+x,y,-z
1/2-x,y,z
x,-y,z
loop_
_atom_site_type_symbol
_atom_site_label
_atom_site_fract_x
_atom_site_fract_y
_atom_site_fract_z
Si Si1 0.400044 0.174089 0.742304
Si Si2 0.750000 0.833705 0.458414
Si Si3 0.750000 0.673354 0.573028
Si Si4 0.903971 0.328775 0.950785
Si Si5 0.502753 0.170196 0.377668
Si Si6 0.096495 0.172394 0.161961
O O1 0.250000 0.234918 0.754036
O O2 0.448824 0.228004 0.682161
O O3 0.501512 0.234243 0.789175
O O4 0.398115 0.000000 0.742737
O O5 0.750000 0.724070 0.509503
O O6 0.880302 0.804189 0.421803
O O7 0.750000 0.000000 0.481264
O O8 0.750000 0.500000 0.574226
O O9 0.621341 0.731943 0.605056
O O10 0.750000 0.291183 0.966478
O O11 0.923823 0.500000 0.940288
O O12 0.949084 0.246754 0.895143
O O13 0.000000 0.272331 0.000000
O O14 0.460264 0.000000 0.375337
O O15 0.250000 0.213744 0.176968
O O16 0.079043 0.000000 0.154574
#
# Coordination Sequence:
#
# PCOD8212744 Si02
#       6
#     8   4   4   8   8   8
#     4   9  17  32  55  82 107 132 169 219 270 315
#     4  10  20  38  62  86 106 134 181 230 269 316
#     4  12  26  38  52  80 114 148 179 214 269 330
#     4   9  18  33  51  71  99 137 177 215 253 297
#     4  10  20  37  61  84 106 137 181 228 268 316
#     4   9  18  31  50  78 108 137 168 207 259 314
#
# _framework density 18.317419000000001
#
# number of rings (size 3 to 8) (size 9 to 14) (size 15 to 20)
#    0.000    2.400    1.000    1.500    1.400    4.400 
#    0.000    1.000    0.000    1.200    0.000    0.000 
#    0.000    0.000    0.000    0.000    0.000    0.000 
#
# Total GULP energy -496065.997831 kJ/mol
# GULP energy per Si atom -12401.649946 kJ/mol
# Density = 1.827573 g / cm^3
# Si number density = 18.317419 Si / 1000 Ang^3
#
#
#
# Elastic Constant Matrix: (Units=GPa)
#
#
# Indices 1 2 3 4 5 6 
#
# 1 143.9741 51.5337 94.0231 0.0000 0.0000 0.0000
# 2 51.5337 53.5442 44.7039 0.0000 0.0000 0.0000
# 3 94.0231 44.7039 161.2475 0.0000 0.0000 0.0000
# 4 0.0000 0.0000 0.0000 -2.3613 0.0000 0.0000
# 5 0.0000 0.0000 0.0000 0.0000 32.2997 0.0000
# 6 0.0000 0.0000 0.0000 0.0000 0.0000 14.3849
#
#
#
# Elastic Compliance Matrix: (Units=1/GPa)
#
#
# Indices 1 2 3 4 5 6 
#
# 1 0.013626 -0.008433 -0.005607 0.000000 0.000000 0.000000
# 2 -0.008433 0.029520 -0.003267 0.000000 0.000000 0.000000
# 3 -0.005607 -0.003267 0.010377 0.000000 0.000000 0.000000
# 4 0.000000 0.000000 0.000000 -0.423489 0.000000 0.000000
# 5 0.000000 0.000000 0.000000 0.000000 0.030960 0.000000
# 6 0.000000 0.000000 0.000000 0.000000 0.000000 0.069517
#
#
# Mechanical properties :
#
#
# Convention : Reuss Voigt Hill
#
# Bulk Modulus (GPa) = 52.88570 82.14301 67.51436
# Shear Modulus (GPa) = -21.87495 20.09832 -0.88831
#
# Velocity S-wave (km/s) = -3.45949 3.31603 -0.69714
# Velocity P-wave (km/s) = 3.60237 7.72030 6.02412
#
# Compressibility (1/GPa) = 0.01890870
#
# Stress axis : x y z
#
# Youngs Moduli (GPa) = 73.38863 33.87559 96.36661
#
# Poissons Ratio (x) = 0.28567 0.54037
# Poissons Ratio (y) = 0.61887 0.31482
# Poissons Ratio (z) = 0.41152 0.11067
#
# Static dielectric constant tensor:
#      x y z
#    x 3.426150 0.000000 0.000000 
#    y 0.000000 3.059050 0.000000 
#    z 0.000000 0.000000 3.524140 
# 
# 
# High freq. dielectric constant tensor:
#      x y z
#    x 1.722880 0.000000 0.000000 
#    y 0.000000 1.676410 0.000000 
#    z 0.000000 0.000000 1.719780 
# 
# From -- ./inp_files/36032.got.cif
#   From: 2010.03.12/outbox.cif.g09.slc.cpg/sg51_19_cif.got.tgz:36032.got - 2010.04.16 13:43:02.
