data_PCOD8212703
_publ_section_title
;
Structure prediction by ZEFSAII (Michael W. Deem and Ramdas Pophale) SiO2 
 PCOD8212703
Probable space group: P M M A
;
_chemical_formula_sum "Si O2"
_cell_formula_units_Z 40
_cell_length_a 8.870437
_cell_length_b 25.443650
_cell_length_c 9.230059
_cell_angle_alpha 90.000000
_cell_angle_beta 90.000000
_cell_angle_gamma 90.000000
_cell_volume 2083.190113
_symmetry_space_group_name_H-M "P M M A"
_symmetry_group_IT_number 51
_symmetry_cell_setting 'orthorhombic'
loop_
_space_group_symop_operation_xyz
x,y,z
1/2-x,-y,z
1/2+x,-y,-z
-x,y,-z
-x,-y,-z
1/2+x,y,-z
1/2-x,y,z
x,-y,z
loop_
_atom_site_type_symbol
_atom_site_label
_atom_site_fract_x
_atom_site_fract_y
_atom_site_fract_z
Si Si1 0.427899 0.599502 0.657000
Si Si2 0.925569 0.792215 0.349637
Si Si3 0.571842 0.087986 0.346911
Si Si4 0.428114 0.500000 0.842552
Si Si5 0.927733 0.301825 0.155147
Si Si6 0.929834 0.000000 0.843904
O O1 0.500000 0.596114 0.500000
O O2 0.250000 0.598342 0.636544
O O3 0.483610 0.550820 0.754055
O O4 0.481934 0.652384 0.737007
O O5 0.750000 0.784837 0.375065
O O6 0.965018 0.851834 0.305456
O O7 0.982510 0.753749 0.222451
O O8 0.000000 0.775726 0.500000
O O9 0.500000 0.073232 0.500000
O O10 0.750000 0.076580 0.350656
O O11 0.489559 0.052530 0.230404
O O12 0.250000 0.500000 0.862650
O O13 0.500000 0.500000 0.000000
O O14 0.750000 0.303376 0.134095
O O15 0.000000 0.310294 0.000000
O O16 0.750000 0.000000 0.848243
O O17 0.000000 0.000000 0.000000
#
# Coordination Sequence:
#
# PCOD8212703 Si02
#       6
#     8   8   8   4   8   4
#     4  10  21  36  55  79 108 140 181 225 267 317
#     4   9  19  35  56  81 108 138 177 220 264 315
#     4  10  20  37  59  83 110 142 180 222 266 319
#     4  10  21  36  54  80 110 142 179 222 268 320
#     4  10  21  36  53  78 109 142 179 221 267 319
#     4  12  25  40  57  80 110 144 180 222 271 322
#
# _framework density 19.201319000000002
#
# number of rings (size 3 to 8) (size 9 to 14) (size 15 to 20)
#    0.000    2.000    0.000    3.300    0.000    4.000 
#    0.000    2.000    0.000    0.000    0.000    0.000 
#    0.000    0.000    0.000    0.000    0.000    0.000 
#
# Total GULP energy -496103.107932 kJ/mol
# GULP energy per Si atom -12402.577698 kJ/mol
# Density = 1.915762 g / cm^3
# Si number density = 19.201319 Si / 1000 Ang^3
#
#
#
# Elastic Constant Matrix: (Units=GPa)
#
#
# Indices 1 2 3 4 5 6 
#
# 1 68.4258 48.8341 60.8703 0.0000 0.0000 0.0000
# 2 48.8341 143.4053 99.6173 0.0000 0.0000 0.0000
# 3 60.8703 99.6173 187.1196 0.0000 0.0000 0.0000
# 4 0.0000 0.0000 0.0000 28.6861 0.0000 0.0000
# 5 0.0000 0.0000 0.0000 0.0000 40.9305 0.0000
# 6 0.0000 0.0000 0.0000 0.0000 0.0000 15.2637
#
#
#
# Elastic Compliance Matrix: (Units=1/GPa)
#
#
# Indices 1 2 3 4 5 6 
#
# 1 0.021912 -0.003983 -0.005007 0.000000 0.000000 0.000000
# 2 -0.003983 0.011789 -0.004981 0.000000 0.000000 0.000000
# 3 -0.005007 -0.004981 0.009625 0.000000 0.000000 0.000000
# 4 0.000000 0.000000 0.000000 0.034860 0.000000 0.000000
# 5 0.000000 0.000000 0.000000 0.000000 0.024432 0.000000
# 6 0.000000 0.000000 0.000000 0.000000 0.000000 0.065515
#
#
# Mechanical properties :
#
#
# Convention : Reuss Voigt Hill
#
# Bulk Modulus (GPa) = 65.00559 90.84377 77.92468
# Shear Modulus (GPa) = 24.85058 29.61798 27.23428
#
# Velocity S-wave (km/s) = 3.60142 3.93172 3.77019
# Velocity P-wave (km/s) = 7.15695 8.24774 7.72163
#
# Compressibility (1/GPa) = 0.01538329
#
# Stress axis : x y z
#
# Youngs Moduli (GPa) = 45.63813 84.82127 103.90025
#
# Poissons Ratio (x) = 0.33786 0.52026
# Poissons Ratio (y) = 0.18179 0.51749
# Poissons Ratio (z) = 0.22852 0.42247
#
# Static dielectric constant tensor:
#      x y z
#    x 3.459030 0.000000 0.000000 
#    y 0.000000 3.918240 0.000000 
#    z 0.000000 0.000000 3.479870 
# 
# 
# High freq. dielectric constant tensor:
#      x y z
#    x 1.742280 0.000000 0.000000 
#    y 0.000000 1.766620 0.000000 
#    z 0.000000 0.000000 1.751720 
# 
# From -- ./inp_files/5547.got.cif
#   From: 2010.03.12/outbox.cif.g09.slc.cpg/sg51_3_cif.got.tgz:5547.got - 2010.04.16 13:43:02.
