data_PCOD8212490
_publ_section_title
;
Structure prediction by ZEFSAII (Michael W. Deem and Ramdas Pophale) SiO2 
 PCOD8212490
Probable space group: P M M A
;
_chemical_formula_sum "Si O2"
_cell_formula_units_Z 32
_cell_length_a 13.133646
_cell_length_b 9.305019
_cell_length_c 13.610444
_cell_angle_alpha 90.000000
_cell_angle_beta 90.000000
_cell_angle_gamma 90.000000
_cell_volume 1663.316377
_symmetry_space_group_name_H-M "P M M A"
_symmetry_group_IT_number 51
_symmetry_cell_setting 'orthorhombic'
loop_
_space_group_symop_operation_xyz
x,y,z
1/2-x,-y,z
1/2+x,-y,-z
-x,y,-z
-x,-y,-z
1/2+x,y,-z
1/2-x,y,z
x,-y,z
loop_
_atom_site_type_symbol
_atom_site_label
_atom_site_fract_x
_atom_site_fract_y
_atom_site_fract_z
Si Si1 0.250000 0.330392 0.596317
Si Si2 0.389102 0.843780 0.464040
Si Si3 0.969988 0.669072 0.110396
Si Si4 0.250000 0.329750 0.818941
Si Si5 0.865985 0.168187 0.758438
O O1 0.250000 0.500000 0.594307
O O2 0.152732 0.271624 0.540010
O O3 0.250000 0.272552 0.707541
O O4 0.500000 0.870591 0.500000
O O5 0.379352 0.782139 0.354222
O O6 0.333007 0.000000 0.467715
O O7 0.976562 0.500000 0.131691
O O8 0.854200 0.726168 0.129208
O O9 0.052080 0.744888 0.179301
O O10 0.000000 0.707748 0.000000
O O11 0.250000 0.500000 0.822891
O O12 0.750000 0.203017 0.792782
O O13 0.889992 0.000000 0.770166
#
# Coordination Sequence:
#
# PCOD8212490 Si02
#       5
#     4   8   8   4   8
#     4  11  21  33  54  81 116 154 183 229 286 337
#     4  10  20  36  58  82 114 155 194 232 276 336
#     4  10  22  39  63  87 112 151 195 241 290 347
#     4   9  20  39  56  83 122 148 183 243 296 337
#     4  10  21  38  58  85 122 154 187 240 292 335
#
# _framework density 19.238672000000001
#
# number of rings (size 3 to 8) (size 9 to 14) (size 15 to 20)
#    0.000    2.000    1.250    1.875    1.750    2.500 
#    0.000    1.875    0.000    0.000    0.000    0.000 
#    0.000    0.000    0.000    0.000    0.000    0.000 
#
# Total GULP energy -396594.248543 kJ/mol
# GULP energy per Si atom -12393.570267 kJ/mol
# Density = 1.919488 g / cm^3
# Si number density = 19.238672 Si / 1000 Ang^3
#
#
#
# Elastic Constant Matrix: (Units=GPa)
#
#
# Indices 1 2 3 4 5 6 
#
# 1 174.3557 41.4811 89.0996 0.0000 0.0000 0.0000
# 2 41.4811 51.8859 51.4196 0.0000 0.0000 0.0000
# 3 89.0996 51.4196 155.1245 0.0000 0.0000 0.0000
# 4 0.0000 0.0000 0.0000 26.7634 0.0000 0.0000
# 5 0.0000 0.0000 0.0000 0.0000 33.8199 0.0000
# 6 0.0000 0.0000 0.0000 0.0000 0.0000 38.0926
#
#
#
# Elastic Compliance Matrix: (Units=1/GPa)
#
#
# Indices 1 2 3 4 5 6 
#
# 1 0.008398 -0.002879 -0.003869 0.000000 0.000000 0.000000
# 2 -0.002879 0.029689 -0.008187 0.000000 0.000000 0.000000
# 3 -0.003869 -0.008187 0.011382 0.000000 0.000000 0.000000
# 4 0.000000 0.000000 0.000000 0.037365 0.000000 0.000000
# 5 0.000000 0.000000 0.000000 0.000000 0.029568 0.000000
# 6 0.000000 0.000000 0.000000 0.000000 0.000000 0.026252
#
#
# Mechanical properties :
#
#
# Convention : Reuss Voigt Hill
#
# Bulk Modulus (GPa) = 51.02637 82.81852 66.92244
# Shear Modulus (GPa) = 27.92414 33.02623 30.47518
#
# Velocity S-wave (km/s) = 3.81393 4.14775 3.98434
# Velocity P-wave (km/s) = 6.78050 8.12895 7.48515
#
# Compressibility (1/GPa) = 0.01959771
#
# Stress axis : x y z
#
# Youngs Moduli (GPa) = 119.08260 33.68301 87.85488
#
# Poissons Ratio (x) = 0.09699 0.33990
# Poissons Ratio (y) = 0.34289 0.71927
# Poissons Ratio (z) = 0.46071 0.27577
#
# Static dielectric constant tensor:
#      x y z
#    x 3.756610 0.000000 0.000000 
#    y 0.000000 3.298090 0.000000 
#    z 0.000000 0.000000 3.586440 
# 
# 
# High freq. dielectric constant tensor:
#      x y z
#    x 1.771050 0.000000 0.000000 
#    y 0.000000 1.727500 0.000000 
#    z 0.000000 0.000000 1.753060 
# 
# From -- ./inp_files/15970.got.cif
#   From: 2010.03.12/outbox.cif.g09.slc.cpg/sg51_8_cif.got.tgz:15970.got - 2010.04.16 13:43:02.
