data_PCOD8212517
_publ_section_title
;
Structure prediction by ZEFSAII (Michael W. Deem and Ramdas Pophale) SiO2 
 PCOD8212517
Probable space group: P M M A
;
_chemical_formula_sum "Si O2"
_cell_formula_units_Z 40
_cell_length_a 20.279528
_cell_length_b 7.693276
_cell_length_c 13.380826
_cell_angle_alpha 90.000000
_cell_angle_beta 90.000000
_cell_angle_gamma 90.000000
_cell_volume 2087.623030
_symmetry_space_group_name_H-M "P M M A"
_symmetry_group_IT_number 51
_symmetry_cell_setting 'orthorhombic'
loop_
_space_group_symop_operation_xyz
x,y,z
1/2-x,-y,z
1/2+x,-y,-z
-x,y,-z
-x,-y,-z
1/2+x,y,-z
1/2-x,y,z
x,-y,z
loop_
_atom_site_type_symbol
_atom_site_label
_atom_site_fract_x
_atom_site_fract_y
_atom_site_fract_z
Si Si1 0.029059 0.202110 0.215710
Si Si2 0.936935 0.500000 0.929338
Si Si3 0.675707 0.500000 0.087847
Si Si4 0.875974 0.193734 0.217798
Si Si5 0.324030 0.302263 0.577503
Si Si6 0.562718 0.203740 0.559894
O O1 0.064896 0.324707 0.136065
O O2 0.057249 0.250572 0.324019
O O3 0.952103 0.247588 0.213653
O O4 0.042132 0.000000 0.189147
O O5 0.870759 0.500000 0.992536
O O6 0.000000 0.500000 0.000000
O O7 0.750000 0.500000 0.047772
O O8 0.665906 0.672033 0.153716
O O9 0.852986 0.188480 0.332571
O O10 0.865894 0.000000 0.173830
O O11 0.250000 0.239711 0.550503
O O12 0.323317 0.500000 0.614454
O O13 0.369344 0.284615 0.479738
O O14 0.500000 0.282363 0.500000
O O15 0.564926 0.000000 0.541616
#
# Coordination Sequence:
#
# PCOD8212517 Si02
#       6
#     8   4   4   8   8   8
#     4  10  22  39  63  96 123 149 202 256 293 354
#     4  12  24  42  66  89 116 160 200 245 317 356
#     4  12  26  44  61  90 124 151 201 253 300 369
#     4  11  21  38  64  92 125 157 191 250 311 356
#     4  11  23  36  54  88 129 165 201 240 288 354
#     4  10  20  36  58  87 122 159 198 239 288 348
#
# _framework density 19.160547999999999
#
# number of rings (size 3 to 8) (size 9 to 14) (size 15 to 20)
#    0.000    1.200    5.000    1.200    1.400    4.400 
#    0.000    1.000    0.000    1.200    0.000    0.000 
#    0.000    0.000    0.000    0.000    0.000    0.000 
#
# Total GULP energy -496159.326759 kJ/mol
# GULP energy per Si atom -12403.983169 kJ/mol
# Density = 1.911694 g / cm^3
# Si number density = 19.160548 Si / 1000 Ang^3
#
#
#
# Elastic Constant Matrix: (Units=GPa)
#
#
# Indices 1 2 3 4 5 6 
#
# 1 131.1892 38.8157 62.3324 0.0000 0.0000 0.0000
# 2 38.8157 91.2444 51.9320 0.0000 0.0000 0.0000
# 3 62.3324 51.9320 116.0226 0.0000 0.0000 0.0000
# 4 0.0000 0.0000 0.0000 26.9468 0.0000 0.0000
# 5 0.0000 0.0000 0.0000 0.0000 22.8292 0.0000
# 6 0.0000 0.0000 0.0000 0.0000 0.0000 19.1544
#
#
#
# Elastic Compliance Matrix: (Units=1/GPa)
#
#
# Indices 1 2 3 4 5 6 
#
# 1 0.010422 -0.001673 -0.004850 0.000000 0.000000 0.000000
# 2 -0.001673 0.014975 -0.005804 0.000000 0.000000 0.000000
# 3 -0.004850 -0.005804 0.013823 0.000000 0.000000 0.000000
# 4 0.000000 0.000000 0.000000 0.037110 0.000000 0.000000
# 5 0.000000 0.000000 0.000000 0.000000 0.043804 0.000000
# 6 0.000000 0.000000 0.000000 0.000000 0.000000 0.052207
#
#
# Mechanical properties :
#
#
# Convention : Reuss Voigt Hill
#
# Bulk Modulus (GPa) = 68.65821 71.62404 70.14113
# Shear Modulus (GPa) = 24.77087 26.14448 25.45767
#
# Velocity S-wave (km/s) = 3.59946 3.69791 3.64902
# Velocity P-wave (km/s) = 7.29286 7.46290 7.37837
#
# Compressibility (1/GPa) = 0.01456490
#
# Stress axis : x y z
#
# Youngs Moduli (GPa) = 95.94930 66.77999 72.34491
#
# Poissons Ratio (x) = 0.11172 0.35090
# Poissons Ratio (y) = 0.16052 0.41988
# Poissons Ratio (z) = 0.46539 0.38758
#
# Static dielectric constant tensor:
#      x y z
#    x 9.483210 0.000000 0.000000 
#    y 0.000000 3.536150 0.000000 
#    z 0.000000 0.000000 3.411400 
# 
# 
# High freq. dielectric constant tensor:
#      x y z
#    x 1.737100 0.000000 0.000000 
#    y 0.000000 1.757720 0.000000 
#    z 0.000000 0.000000 1.732820 
# 
# From -- ./inp_files/17958.got.cif
#   From: 2010.03.12/outbox.cif.g09.slc.cpg/sg51_9_cif.got.tgz:17958.got - 2010.04.16 13:43:02.
