data_PCOD8212865
_publ_section_title
;
Structure prediction by ZEFSAII (Michael W. Deem and Ramdas Pophale) SiO2 
 PCOD8212865
Probable space group: P M M A
;
_chemical_formula_sum "Si O2"
_cell_formula_units_Z 32
_cell_length_a 15.260553
_cell_length_b 8.487226
_cell_length_c 11.692635
_cell_angle_alpha 90.000000
_cell_angle_beta 90.000000
_cell_angle_gamma 90.000000
_cell_volume 1514.427305
_symmetry_space_group_name_H-M "P M M A"
_symmetry_group_IT_number 51
_symmetry_cell_setting 'orthorhombic'
loop_
_space_group_symop_operation_xyz
x,y,z
1/2-x,-y,z
1/2+x,-y,-z
-x,y,-z
-x,-y,-z
1/2+x,y,-z
1/2-x,y,z
x,-y,z
loop_
_atom_site_type_symbol
_atom_site_label
_atom_site_fract_x
_atom_site_fract_y
_atom_site_fract_z
Si Si1 0.750000 0.680624 0.131160
Si Si2 0.409920 0.317958 0.251228
Si Si3 0.093548 0.818034 0.730877
Si Si4 0.351530 0.178816 0.481838
Si Si5 0.250000 0.183027 0.113145
O O1 0.750000 0.500000 0.090565
O O2 0.836058 0.711215 0.205586
O O3 0.750000 0.794449 0.022253
O O4 0.429594 0.500000 0.230402
O O5 0.497356 0.220730 0.222159
O O6 0.379420 0.295029 0.381482
O O7 0.335841 0.262172 0.164768
O O8 0.094126 0.779657 0.595547
O O9 0.117023 0.000000 0.752897
O O10 0.250000 0.201169 0.511843
O O11 0.371057 0.000000 0.441710
O O12 0.250000 0.000000 0.145397
#
# Coordination Sequence:
#
# PCOD8212865 Si02
#       5
#     4   8   8   8   4
#     4  12  26  45  68  97 130 163 209 273 327 372
#     4  12  25  41  64  99 134 167 210 268 326 375
#     4  11  23  43  68  96 130 174 218 257 310 386
#     4  10  20  38  65  95 130 172 214 257 311 382
#     4  12  26  47  70  91 122 171 221 263 315 386
#
# _framework density 21.130102000000001
#
# number of rings (size 3 to 8) (size 9 to 14) (size 15 to 20)
#    0.000    0.750    2.500    6.000    0.000    6.000 
#    0.000    5.000    0.000    0.000    0.000    0.000 
#    0.000    0.000    0.000    0.000    0.000    0.000 
#
# Total GULP energy -397078.417387 kJ/mol
# GULP energy per Si atom -12408.700543 kJ/mol
# Density = 2.108201 g / cm^3
# Si number density = 21.130102 Si / 1000 Ang^3
#
#
#
# Elastic Constant Matrix: (Units=GPa)
#
#
# Indices 1 2 3 4 5 6 
#
# 1 103.7109 9.8343 26.3590 0.0000 0.0000 0.0000
# 2 9.8343 80.4134 22.1369 0.0000 0.0000 0.0000
# 3 26.3590 22.1369 86.0488 0.0000 0.0000 0.0000
# 4 0.0000 0.0000 0.0000 25.2942 0.0000 0.0000
# 5 0.0000 0.0000 0.0000 0.0000 36.6234 0.0000
# 6 0.0000 0.0000 0.0000 0.0000 0.0000 32.8219
#
#
#
# Elastic Compliance Matrix: (Units=1/GPa)
#
#
# Indices 1 2 3 4 5 6 
#
# 1 0.010470 -0.000428 -0.003097 0.000000 0.000000 0.000000
# 2 -0.000428 0.013401 -0.003317 0.000000 0.000000 0.000000
# 3 -0.003097 -0.003317 0.013423 0.000000 0.000000 0.000000
# 4 0.000000 0.000000 0.000000 0.039535 0.000000 0.000000
# 5 0.000000 0.000000 0.000000 0.000000 0.027305 0.000000
# 6 0.000000 0.000000 0.000000 0.000000 0.000000 0.030467
#
#
# Mechanical properties :
#
#
# Convention : Reuss Voigt Hill
#
# Bulk Modulus (GPa) = 42.35263 42.98149 42.66706
# Shear Modulus (GPa) = 32.01952 33.07076 32.54514
#
# Velocity S-wave (km/s) = 3.89697 3.96043 3.92883
# Velocity P-wave (km/s) = 6.35105 6.42642 6.38884
#
# Compressibility (1/GPa) = 0.02361129
#
# Stress axis : x y z
#
# Youngs Moduli (GPa) = 95.51167 74.62100 74.49761
#
# Poissons Ratio (x) = 0.03192 0.23073
# Poissons Ratio (y) = 0.04086 0.24707
# Poissons Ratio (z) = 0.29581 0.24748
#
# Static dielectric constant tensor:
#      x y z
#    x 4.104120 0.000000 0.000000 
#    y 0.000000 3.763970 0.000000 
#    z 0.000000 0.000000 3.684030 
# 
# 
# High freq. dielectric constant tensor:
#      x y z
#    x 1.845520 0.000000 0.000000 
#    y 0.000000 1.829600 0.000000 
#    z 0.000000 0.000000 1.822360 
# 
# From -- ./inp_files/15908.got.cif
#   From: 2010.03.12/outbox.cif.g09.slc.cpg/sg51_8_cif.got.tgz:15908.got - 2010.04.16 13:43:02.
