data_PCOD8212776
_publ_section_title
;
Structure prediction by ZEFSAII (Michael W. Deem and Ramdas Pophale) SiO2 
 PCOD8212776
Probable space group: P M M A
;
_chemical_formula_sum "Si O2"
_cell_formula_units_Z 48
_cell_length_a 14.946265
_cell_length_b 8.896846
_cell_length_c 19.017946
_cell_angle_alpha 90.000000
_cell_angle_beta 90.000000
_cell_angle_gamma 90.000000
_cell_volume 2528.904104
_symmetry_space_group_name_H-M "P M M A"
_symmetry_group_IT_number 51
_symmetry_cell_setting 'orthorhombic'
loop_
_space_group_symop_operation_xyz
x,y,z
1/2-x,-y,z
1/2+x,-y,-z
-x,y,-z
-x,-y,-z
1/2+x,y,-z
1/2-x,y,z
x,-y,z
loop_
_atom_site_type_symbol
_atom_site_label
_atom_site_fract_x
_atom_site_fract_y
_atom_site_fract_z
Si Si1 0.854110 0.824348 0.178712
Si Si2 0.250000 0.177653 0.586059
Si Si3 0.250000 0.822796 0.425754
Si Si4 0.509612 0.322916 0.081150
Si Si5 0.599683 0.326596 0.323320
Si Si6 0.105068 0.673175 0.332276
Si Si7 0.650723 0.321588 0.822513
O O1 0.750000 0.788797 0.169375
O O2 0.892850 0.737178 0.245261
O O3 0.903925 0.763983 0.109692
O O4 0.871877 0.000000 0.189103
O O5 0.250000 0.233272 0.506010
O O6 0.338350 0.237912 0.623240
O O7 0.250000 0.000000 0.593097
O O8 0.160416 0.763704 0.389590
O O9 0.250000 0.000000 0.421591
O O10 0.523406 0.500000 0.093049
O O11 0.421045 0.262113 0.121061
O O12 0.500000 0.281700 0.000000
O O13 0.628529 0.500000 0.321558
O O14 0.498841 0.306954 0.350345
O O15 0.134719 0.500000 0.335858
O O16 0.125905 0.739126 0.254891
O O17 0.750000 0.264004 0.843490
O O18 0.647737 0.500000 0.821679
#
# Coordination Sequence:
#
# PCOD8212776 Si02
#       7
#     8   4   4   8   8   8   8
#     4  11  23  38  59  87 121 161 201 246 303 363
#     4  11  25  43  59  85 126 161 190 239 305 362
#     4  11  25  41  59  87 124 159 194 239 297 366
#     4  10  21  37  59  89 122 155 199 251 299 351
#     4  11  22  38  64  92 116 152 204 253 296 353
#     4  10  20  37  62  88 115 151 198 250 297 348
#     4   9  16  31  56  83 112 148 190 239 294 345
#
# _framework density 18.980554000000001
#
# number of rings (size 3 to 8) (size 9 to 14) (size 15 to 20)
#    0.000    1.667    3.333    1.500    0.000    5.333 
#    0.000    5.000    0.000    0.000    0.000    0.000 
#    0.000    0.000    0.000    0.000    0.000    0.000 
#
# Total GULP energy -595371.443201 kJ/mol
# GULP energy per Si atom -12403.571733 kJ/mol
# Density = 1.893735 g / cm^3
# Si number density = 18.980554 Si / 1000 Ang^3
#
#
#
# Elastic Constant Matrix: (Units=GPa)
#
#
# Indices 1 2 3 4 5 6 
#
# 1 105.7681 30.8268 47.4422 0.0000 0.0000 0.0000
# 2 30.8268 55.7595 37.4085 0.0000 0.0000 0.0000
# 3 47.4422 37.4085 131.3877 0.0000 0.0000 0.0000
# 4 0.0000 0.0000 0.0000 21.2449 0.0000 0.0000
# 5 0.0000 0.0000 0.0000 0.0000 0.6772 0.0000
# 6 0.0000 0.0000 0.0000 0.0000 0.0000 21.1340
#
#
#
# Elastic Compliance Matrix: (Units=1/GPa)
#
#
# Indices 1 2 3 4 5 6 
#
# 1 0.012197 -0.004683 -0.003071 0.000000 0.000000 0.000000
# 2 -0.004683 0.023967 -0.005133 0.000000 0.000000 0.000000
# 3 -0.003071 -0.005133 0.010181 0.000000 0.000000 0.000000
# 4 0.000000 0.000000 0.000000 0.047070 0.000000 0.000000
# 5 0.000000 0.000000 0.000000 0.000000 1.476769 0.000000
# 6 0.000000 0.000000 0.000000 0.000000 0.000000 0.047317
#
#
# Mechanical properties :
#
#
# Convention : Reuss Voigt Hill
#
# Bulk Modulus (GPa) = 48.61026 58.25226 53.43126
# Shear Modulus (GPa) = 3.03006 20.42707 11.72856
#
# Velocity S-wave (km/s) = 1.26486 3.28412 2.48851
# Velocity P-wave (km/s) = 5.27251 6.71846 6.03892
#
# Compressibility (1/GPa) = 0.02057179
#
# Stress axis : x y z
#
# Youngs Moduli (GPa) = 81.98784 41.72454 98.21921
#
# Poissons Ratio (x) = 0.19539 0.30161
# Poissons Ratio (y) = 0.38394 0.50414
# Poissons Ratio (z) = 0.25177 0.21416
#
# Static dielectric constant tensor:
#      x y z
#    x 3.664140 0.000000 0.000000 
#    y 0.000000 3.343060 0.000000 
#    z 0.000000 0.000000 3.511470 
# 
# 
# High freq. dielectric constant tensor:
#      x y z
#    x 1.755440 0.000000 0.000000 
#    y 0.000000 1.722030 0.000000 
#    z 0.000000 0.000000 1.736890 
# 
# From -- ./inp_files/29608.got.cif
#   From: 2010.03.12/outbox.cif.g09.slc.cpg/sg51_15_cif.got.tgz:29608.got - 2010.04.16 13:43:02.
