data_PCOD8212546
_publ_section_title
;
Structure prediction by ZEFSAII (Michael W. Deem and Ramdas Pophale) SiO2 
 PCOD8212546
Probable space group: P M M A
;
_chemical_formula_sum "Si O2"
_cell_formula_units_Z 64
_cell_length_a 25.764548
_cell_length_b 14.512938
_cell_length_c 8.676375
_cell_angle_alpha 90.000000
_cell_angle_beta 90.000000
_cell_angle_gamma 90.000000
_cell_volume 3244.263960
_symmetry_space_group_name_H-M "P M M A"
_symmetry_group_IT_number 51
_symmetry_cell_setting 'orthorhombic'
loop_
_space_group_symop_operation_xyz
x,y,z
1/2-x,-y,z
1/2+x,-y,-z
-x,y,-z
-x,-y,-z
1/2+x,y,-z
1/2-x,y,z
x,-y,z
loop_
_atom_site_type_symbol
_atom_site_label
_atom_site_fract_x
_atom_site_fract_y
_atom_site_fract_z
Si Si1 0.410721 0.896119 0.336704
Si Si2 0.487300 0.891745 0.834391
Si Si3 0.641859 0.395663 0.269907
Si Si4 0.615376 0.895618 0.308790
Si Si5 0.139513 0.268031 0.164371
Si Si6 0.309648 0.606169 0.411732
Si Si7 0.439284 0.393004 0.983630
Si Si8 0.308536 0.229111 0.858795
O O1 0.469725 0.869680 0.293792
O O2 0.402618 0.892618 0.516922
O O3 0.374722 0.819408 0.265635
O O4 0.398077 0.000000 0.274723
O O5 0.432073 0.850331 0.786113
O O6 0.479669 0.000000 0.851253
O O7 0.500000 0.846665 0.000000
O O8 0.658989 0.500000 0.243110
O O9 0.647933 0.372015 0.452293
O O10 0.584528 0.377931 0.191432
O O11 0.684652 0.336482 0.180522
O O12 0.664202 0.832291 0.272535
O O13 0.628457 0.000000 0.258867
O O14 0.177226 0.332949 0.263167
O O15 0.091128 0.328695 0.104540
O O16 0.169536 0.215824 0.028708
O O17 0.250000 0.627481 0.464373
O O18 0.314654 0.500000 0.362410
O O19 0.431855 0.500000 0.030738
O O20 0.500000 0.366168 0.000000
O O21 0.250000 0.197205 0.855345
#
# Coordination Sequence:
#
# PCOD8212546 Si02
#       8
#     8   8   8   8   8   8   8   8
#     4  10  21  36  55  81 112 146 183 227 279 333
#     4   9  17  32  56  83 109 138 175 221 273 326
#     4   9  19  36  58  83 110 142 182 225 273 332
#     4  10  21  38  58  79 108 145 185 229 277 332
#     4  11  22  36  56  82 113 146 188 235 286 344
#     4  10  20  36  59  85 113 145 183 233 289 340
#     4   9  19  37  58  81 114 153 190 231 281 341
#     4  11  23  37  56  81 108 142 186 234 281 329
#
# _framework density 19.727124
#
# number of rings (size 3 to 8) (size 9 to 14) (size 15 to 20)
#    0.000    2.125    0.000    3.000    0.000    7.000 
#    0.000    2.500    0.000    5.625    0.000    0.000 
#    0.000    0.000    0.000    0.000    0.000    0.000 
#
# Total GULP energy -793161.270460 kJ/mol
# GULP energy per Si atom -12393.144851 kJ/mol
# Density = 1.968222 g / cm^3
# Si number density = 19.727124 Si / 1000 Ang^3
#
#
#
# Elastic Constant Matrix: (Units=GPa)
#
#
# Indices 1 2 3 4 5 6 
#
# 1 130.8685 42.0804 45.0129 0.0000 0.0000 0.0000
# 2 42.0804 72.8402 31.2396 0.0000 0.0000 0.0000
# 3 45.0129 31.2396 81.3947 0.0000 0.0000 0.0000
# 4 0.0000 0.0000 0.0000 31.2410 0.0000 0.0000
# 5 0.0000 0.0000 0.0000 0.0000 30.1006 0.0000
# 6 0.0000 0.0000 0.0000 0.0000 0.0000 25.6502
#
#
#
# Elastic Compliance Matrix: (Units=1/GPa)
#
#
# Indices 1 2 3 4 5 6 
#
# 1 0.010431 -0.004252 -0.004137 0.000000 0.000000 0.000000
# 2 -0.004252 0.018167 -0.004621 0.000000 0.000000 0.000000
# 3 -0.004137 -0.004621 0.016347 0.000000 0.000000 0.000000
# 4 0.000000 0.000000 0.000000 0.032009 0.000000 0.000000
# 5 0.000000 0.000000 0.000000 0.000000 0.033222 0.000000
# 6 0.000000 0.000000 0.000000 0.000000 0.000000 0.038986
#
#
# Mechanical properties :
#
#
# Convention : Reuss Voigt Hill
#
# Bulk Modulus (GPa) = 52.83849 57.97434 55.40642
# Shear Modulus (GPa) = 27.54953 28.51638 28.03296
#
# Velocity S-wave (km/s) = 3.74107 3.80615 3.77375
# Velocity P-wave (km/s) = 6.74564 6.98339 6.86554
#
# Compressibility (1/GPa) = 0.01892560
#
# Stress axis : x y z
#
# Youngs Moduli (GPa) = 95.86457 55.04475 61.17291
#
# Poissons Ratio (x) = 0.23406 0.25306
# Poissons Ratio (y) = 0.40763 0.28268
# Poissons Ratio (z) = 0.39657 0.25437
#
# Static dielectric constant tensor:
#      x y z
#    x 3.555180 0.000000 0.000000 
#    y 0.000000 3.649220 0.000000 
#    z 0.000000 0.000000 3.710740 
# 
# 
# High freq. dielectric constant tensor:
#      x y z
#    x 1.756330 0.000000 0.000000 
#    y 0.000000 1.774370 0.000000 
#    z 0.000000 0.000000 1.770680 
# 
# From -- ./inp_files/11910.got.cif
#   From: 2010.03.12/outbox.cif.g09.slc.cpg/sg51_6_cif.got.tgz:11910.got - 2010.04.16 13:43:02.
