data_PCOD8212002
_publ_section_title
;
Structure prediction by ZEFSAII (Michael W. Deem and Ramdas Pophale) SiO2 
 PCOD8212002
Probable space group: P M M A
;
_chemical_formula_sum "Si O2"
_cell_formula_units_Z 64
_cell_length_a 31.658573
_cell_length_b 8.730642
_cell_length_c 12.115579
_cell_angle_alpha 90.000000
_cell_angle_beta 90.000000
_cell_angle_gamma 90.000000
_cell_volume 3348.742002
_symmetry_space_group_name_H-M "P M M A"
_symmetry_group_IT_number 51
_symmetry_cell_setting 'orthorhombic'
loop_
_space_group_symop_operation_xyz
x,y,z
1/2-x,-y,z
1/2+x,-y,-z
-x,y,-z
-x,-y,-z
1/2+x,y,-z
1/2-x,y,z
x,-y,z
loop_
_atom_site_type_symbol
_atom_site_label
_atom_site_fract_x
_atom_site_fract_y
_atom_site_fract_z
Si Si1 0.389310 0.181848 0.859649
Si Si2 0.129143 0.681949 0.088416
Si Si3 0.451986 0.680953 0.478080
Si Si4 0.017988 0.177717 0.888342
Si Si5 0.203010 0.317946 0.485820
Si Si6 0.125354 0.681332 0.630600
Si Si7 0.203607 0.318366 0.239341
Si Si8 0.438590 0.822204 0.246945
O O1 0.436903 0.249602 0.859174
O O2 0.367787 0.244239 0.749576
O O3 0.387068 0.000000 0.860200
O O4 0.366289 0.246256 0.967519
O O5 0.128608 0.500000 0.079009
O O6 0.169219 0.747228 0.155378
O O7 0.087804 0.736452 0.153163
O O8 0.500000 0.741236 0.500000
O O9 0.452505 0.500000 0.461574
O O10 0.419740 0.729470 0.575850
O O11 0.432226 0.753225 0.367771
O O12 0.987440 0.203697 0.784785
O O13 0.025254 0.000000 0.913862
O O14 0.000000 0.255879 0.000000
O O15 0.250000 0.265357 0.526871
O O16 0.201284 0.500000 0.484538
O O17 0.165131 0.253742 0.561024
O O18 0.195013 0.254541 0.362300
O O19 0.127522 0.500000 0.641404
O O20 0.250000 0.266244 0.198853
O O21 0.200507 0.500000 0.242791
O O22 0.426091 0.000000 0.246446
#
# Coordination Sequence:
#
# PCOD8212002 Si02
#       8
#     8   8   8   8   8   8   8   8
#     4  11  22  37  55  74 103 142 183 222 261 312
#     4  11  21  34  54  81 109 135 171 219 270 316
#     4  10  21  36  53  77 111 143 174 221 277 326
#     4   9  17  33  52  70  97 136 180 219 252 295
#     4   8  14  28  53  81 104 130 169 215 260 308
#     4  10  20  35  54  77 107 140 175 219 270 317
#     4   8  15  30  54  82 108 134 167 211 263 318
#     4  11  21  34  55  79 105 139 180 221 262 315
#
# _framework density 19.111654999999999
#
# number of rings (size 3 to 8) (size 9 to 14) (size 15 to 20)
#    0.000    2.250    1.250    3.375    0.000    2.750 
#    0.000    3.125    0.000    5.625    0.000    3.500 
#    0.000    0.000    0.000    0.000    0.000    0.000 
#
# Total GULP energy -793406.422517 kJ/mol
# GULP energy per Si atom -12396.975352 kJ/mol
# Density = 1.906816 g / cm^3
# Si number density = 19.111655 Si / 1000 Ang^3
#
#
#
# Elastic Constant Matrix: (Units=GPa)
#
#
# Indices 1 2 3 4 5 6 
#
# 1 135.1349 23.5087 67.3319 0.0000 0.0000 0.0000
# 2 23.5087 33.9056 32.1832 0.0000 0.0000 0.0000
# 3 67.3319 32.1832 147.3212 0.0000 0.0000 0.0000
# 4 0.0000 0.0000 0.0000 20.0344 0.0000 0.0000
# 5 0.0000 0.0000 0.0000 0.0000 31.9753 0.0000
# 6 0.0000 0.0000 0.0000 0.0000 0.0000 12.1376
#
#
#
# Elastic Compliance Matrix: (Units=1/GPa)
#
#
# Indices 1 2 3 4 5 6 
#
# 1 0.009854 -0.003227 -0.003799 0.000000 0.000000 0.000000
# 2 -0.003227 0.038266 -0.006885 0.000000 0.000000 0.000000
# 3 -0.003799 -0.006885 0.010028 0.000000 0.000000 0.000000
# 4 0.000000 0.000000 0.000000 0.049914 0.000000 0.000000
# 5 0.000000 0.000000 0.000000 0.000000 0.031274 0.000000
# 6 0.000000 0.000000 0.000000 0.000000 0.000000 0.082389
#
#
# Mechanical properties :
#
#
# Convention : Reuss Voigt Hill
#
# Bulk Modulus (GPa) = 32.97311 62.48991 47.73151
# Shear Modulus (GPa) = 19.25636 25.71865 22.48751
#
# Velocity S-wave (km/s) = 3.17767 3.67237 3.43394
# Velocity P-wave (km/s) = 5.54561 7.12390 6.38372
#
# Compressibility (1/GPa) = 0.03032775
#
# Stress axis : x y z
#
# Youngs Moduli (GPa) = 101.48017 26.13304 99.71918
#
# Poissons Ratio (x) = 0.08432 0.37882
# Poissons Ratio (y) = 0.32743 0.68654
# Poissons Ratio (z) = 0.38551 0.17992
#
# Static dielectric constant tensor:
#      x y z
#    x 3.799960 0.000000 0.000000 
#    y 0.000000 3.088020 0.000000 
#    z 0.000000 0.000000 3.565760 
# 
# 
# High freq. dielectric constant tensor:
#      x y z
#    x 1.745210 0.000000 0.000000 
#    y 0.000000 1.706950 0.000000 
#    z 0.000000 0.000000 1.747580 
# 
# From -- ./inp_files/19582.got.cif
#   From: 2010.03.12/outbox.cif.g09.slc.cpg/sg51_10_cif.got.tgz:19582.got - 2010.04.16 13:43:02.
