data_PCOD8212274
_publ_section_title
;
Structure prediction by ZEFSAII (Michael W. Deem and Ramdas Pophale) SiO2 
 PCOD8212274
Probable space group: P M M A
;
_chemical_formula_sum "Si O2"
_cell_formula_units_Z 40
_cell_length_a 25.638230
_cell_length_b 8.664152
_cell_length_c 9.151933
_cell_angle_alpha 90.000000
_cell_angle_beta 90.000000
_cell_angle_gamma 90.000000
_cell_volume 2032.951108
_symmetry_space_group_name_H-M "P M M A"
_symmetry_group_IT_number 51
_symmetry_cell_setting 'orthorhombic'
loop_
_space_group_symop_operation_xyz
x,y,z
1/2-x,-y,z
1/2+x,-y,-z
-x,y,-z
-x,-y,-z
1/2+x,y,-z
1/2-x,y,z
x,-y,z
loop_
_atom_site_type_symbol
_atom_site_label
_atom_site_fract_x
_atom_site_fract_y
_atom_site_fract_z
Si Si1 0.947071 0.319064 0.339777
Si Si2 0.750000 0.182782 0.660067
Si Si3 0.750000 0.818223 0.333541
Si Si4 0.152216 0.819234 0.151207
Si Si5 0.055513 0.179843 0.350615
Si Si6 0.345990 0.680163 0.835873
O O1 0.958628 0.500000 0.332791
O O2 0.930612 0.274301 0.503788
O O3 0.901476 0.269080 0.230077
O O4 0.998925 0.228415 0.290089
O O5 0.750000 0.253858 0.496891
O O6 0.698591 0.239590 0.744480
O O7 0.750000 0.000000 0.649761
O O8 0.698822 0.768355 0.248807
O O9 0.750000 0.000000 0.343938
O O10 0.097570 0.780766 0.227599
O O11 0.157905 0.000000 0.115126
O O12 0.155404 0.722161 0.004717
O O13 0.055997 0.000000 0.390799
O O14 0.336258 0.500000 0.815318
#
# Coordination Sequence:
#
# PCOD8212274 Si02
#       6
#     8   4   4   8   8   8
#     4  10  21  37  57  81 113 153 192 231 281 338
#     4   9  19  37  60  84 108 139 182 227 276 334
#     4  11  22  39  64  86 110 145 184 231 282 332
#     4  10  21  37  58  84 113 147 187 232 283 334
#     4  10  20  35  58  86 113 144 191 243 283 330
#     4  11  24  39  56  83 117 150 187 229 276 336
#
# _framework density 19.675830000000001
#
# number of rings (size 3 to 8) (size 9 to 14) (size 15 to 20)
#    0.000    1.800    0.000    5.100    0.000    8.000 
#    0.000    6.000    0.000    0.000    0.000    0.000 
#    0.000    0.000    0.000    0.000    0.000    0.000 
#
# Total GULP energy -496169.569097 kJ/mol
# GULP energy per Si atom -12404.239227 kJ/mol
# Density = 1.963105 g / cm^3
# Si number density = 19.675830 Si / 1000 Ang^3
#
#
#
# Elastic Constant Matrix: (Units=GPa)
#
#
# Indices 1 2 3 4 5 6 
#
# 1 139.3929 35.5643 83.0591 0.0000 0.0000 0.0000
# 2 35.5643 38.5091 19.9471 0.0000 0.0000 0.0000
# 3 83.0591 19.9471 133.4327 0.0000 0.0000 0.0000
# 4 0.0000 0.0000 0.0000 29.0589 0.0000 0.0000
# 5 0.0000 0.0000 0.0000 0.0000 48.0871 0.0000
# 6 0.0000 0.0000 0.0000 0.0000 0.0000 26.1145
#
#
#
# Elastic Compliance Matrix: (Units=1/GPa)
#
#
# Indices 1 2 3 4 5 6 
#
# 1 0.013772 -0.008973 -0.007232 0.000000 0.000000 0.000000
# 2 -0.008973 0.033994 0.000504 0.000000 0.000000 0.000000
# 3 -0.007232 0.000504 0.011921 0.000000 0.000000 0.000000
# 4 0.000000 0.000000 0.000000 0.034413 0.000000 0.000000
# 5 0.000000 0.000000 0.000000 0.000000 0.020796 0.000000
# 6 0.000000 0.000000 0.000000 0.000000 0.000000 0.038293
#
#
# Mechanical properties :
#
#
# Convention : Reuss Voigt Hill
#
# Bulk Modulus (GPa) = 35.35452 65.38621 50.37037
# Shear Modulus (GPa) = 25.77067 32.16973 28.97020
#
# Velocity S-wave (km/s) = 3.62299 4.04788 3.84132
# Velocity P-wave (km/s) = 5.95894 7.42637 6.73275
#
# Compressibility (1/GPa) = 0.02828492
#
# Stress axis : x y z
#
# Youngs Moduli (GPa) = 72.60857 29.41691 83.88825
#
# Poissons Ratio (x) = 0.26397 0.60665
# Poissons Ratio (y) = 0.65155 -0.04227
# Poissons Ratio (z) = 0.52508 -0.01482
#
# Static dielectric constant tensor:
#      x y z
#    x 3.905570 0.000000 0.000000 
#    y 0.000000 3.509220 0.000000 
#    z 0.000000 0.000000 3.601090 
# 
# 
# High freq. dielectric constant tensor:
#      x y z
#    x 1.784430 0.000000 0.000000 
#    y 0.000000 1.762240 0.000000 
#    z 0.000000 0.000000 1.769820 
# 
# From -- ./inp_files/12175.got.cif
#   From: 2010.03.12/outbox.cif.g09.slc.cpg/sg51_7_cif.got.tgz:12175.got - 2010.04.16 13:43:02.
