data_PCOD8212661
_publ_section_title
;
Structure prediction by ZEFSAII (Michael W. Deem and Ramdas Pophale) SiO2 
 PCOD8212661
Probable space group: P M M A
;
_chemical_formula_sum "Si O2"
_cell_formula_units_Z 44
_cell_length_a 8.750466
_cell_length_b 27.332324
_cell_length_c 9.998921
_cell_angle_alpha 90.000000
_cell_angle_beta 90.000000
_cell_angle_gamma 90.000000
_cell_volume 2391.447654
_symmetry_space_group_name_H-M "P M M A"
_symmetry_group_IT_number 51
_symmetry_cell_setting 'orthorhombic'
loop_
_space_group_symop_operation_xyz
x,y,z
1/2-x,-y,z
1/2+x,-y,-z
-x,y,-z
-x,-y,-z
1/2+x,y,-z
1/2-x,y,z
x,-y,z
loop_
_atom_site_type_symbol
_atom_site_label
_atom_site_fract_x
_atom_site_fract_y
_atom_site_fract_z
Si Si1 0.069445 0.555201 0.860518
Si Si2 0.068654 0.074996 0.856951
Si Si3 0.069469 0.629433 0.639577
Si Si4 0.429141 0.812700 0.862355
Si Si5 0.069417 0.739813 0.639435
Si Si6 0.066782 0.000000 0.349019
O O1 0.250000 0.558727 0.871113
O O2 0.017150 0.500000 0.824534
O O3 0.004438 0.592279 0.749941
O O4 0.000000 0.572366 0.000000
O O5 0.250000 0.065291 0.858633
O O6 0.026313 0.131423 0.831405
O O7 0.991930 0.047013 0.733115
O O8 0.000000 0.057616 0.000000
O O9 0.250000 0.625865 0.628836
O O10 0.017401 0.684629 0.675940
O O11 0.000000 0.612403 0.500000
O O12 0.250000 0.806535 0.874086
O O13 0.496486 0.777341 0.748595
O O14 0.500000 0.794506 0.000000
O O15 0.250000 0.743433 0.629003
O O16 0.000000 0.756824 0.500000
O O17 0.000000 0.000000 0.500000
O O18 0.250000 0.000000 0.357106
#
# Coordination Sequence:
#
# PCOD8212661 Si02
#       6
#     8   8   8   8   8   4
#     4   9  18  32  48  68  95 126 160 200 246 294
#     4  10  20  37  58  80 106 138 173 209 251 300
#     4   9  18  32  49  69  96 128 163 203 245 292
#     4   9  19  34  53  77 104 132 166 206 246 292
#     4   9  18  33  50  71  99 131 165 202 246 294
#     4  12  25  40  57  80 108 138 172 212 255 300
#
# _framework density 18.398899
#
# number of rings (size 3 to 8) (size 9 to 14) (size 15 to 20)
#    0.000    2.545    0.000    1.636    0.000    4.000 
#    0.000    1.818    0.000    0.000    0.000    0.000 
#    0.000    0.000    0.000    0.000    0.000    0.000 
#
# Total GULP energy -545575.606248 kJ/mol
# GULP energy per Si atom -12399.445597 kJ/mol
# Density = 1.835702 g / cm^3
# Si number density = 18.398899 Si / 1000 Ang^3
#
#
#
# Elastic Constant Matrix: (Units=GPa)
#
#
# Indices 1 2 3 4 5 6 
#
# 1 41.9057 29.0477 45.9024 0.0000 0.0000 0.0000
# 2 29.0477 118.9711 110.0843 0.0000 0.0000 0.0000
# 3 45.9024 110.0843 189.2254 0.0000 0.0000 0.0000
# 4 0.0000 0.0000 0.0000 41.6157 0.0000 0.0000
# 5 0.0000 0.0000 0.0000 0.0000 35.6505 0.0000
# 6 0.0000 0.0000 0.0000 0.0000 0.0000 42.2975
#
#
#
# Elastic Compliance Matrix: (Units=1/GPa)
#
#
# Indices 1 2 3 4 5 6 
#
# 1 0.032604 -0.001391 -0.007100 0.000000 0.000000 0.000000
# 2 -0.001391 0.018265 -0.010288 0.000000 0.000000 0.000000
# 3 -0.007100 -0.010288 0.012992 0.000000 0.000000 0.000000
# 4 0.000000 0.000000 0.000000 0.024029 0.000000 0.000000
# 5 0.000000 0.000000 0.000000 0.000000 0.028050 0.000000
# 6 0.000000 0.000000 0.000000 0.000000 0.000000 0.023642
#
#
# Mechanical properties :
#
#
# Convention : Reuss Voigt Hill
#
# Bulk Modulus (GPa) = 38.01842 80.01900 59.01871
# Shear Modulus (GPa) = 26.89473 34.91724 30.90599
#
# Velocity S-wave (km/s) = 3.82744 4.36109 4.10295
# Velocity P-wave (km/s) = 6.34356 8.30328 7.38868
#
# Compressibility (1/GPa) = 0.02630304
#
# Stress axis : x y z
#
# Youngs Moduli (GPa) = 30.67063 54.74967 76.96769
#
# Poissons Ratio (x) = 0.07616 0.54647
# Poissons Ratio (y) = 0.04266 0.79188
# Poissons Ratio (z) = 0.21776 0.56329
#
# Static dielectric constant tensor:
#      x y z
#    x 3.283360 0.000000 0.000000 
#    y 0.000000 3.677510 0.000000 
#    z 0.000000 0.000000 3.509330 
# 
# 
# High freq. dielectric constant tensor:
#      x y z
#    x 1.707540 0.000000 0.000000 
#    y 0.000000 1.720580 0.000000 
#    z 0.000000 0.000000 1.716120 
# 
# From -- ./inp_files/5834.got.cif
#   From: 2010.03.12/outbox.cif.g09.slc.cpg/sg51_3_cif.got.tgz:5834.got - 2010.04.16 13:43:02.
