data_PCOD8212828
_publ_section_title
;
Structure prediction by ZEFSAII (Michael W. Deem and Ramdas Pophale) SiO2 
 PCOD8212828
Probable space group: P M M A
;
_chemical_formula_sum "Si O2"
_cell_formula_units_Z 40
_cell_length_a 14.980485
_cell_length_b 8.352104
_cell_length_c 15.410359
_cell_angle_alpha 90.000000
_cell_angle_beta 90.000000
_cell_angle_gamma 90.000000
_cell_volume 1928.122061
_symmetry_space_group_name_H-M "P M M A"
_symmetry_group_IT_number 51
_symmetry_cell_setting 'orthorhombic'
loop_
_space_group_symop_operation_xyz
x,y,z
1/2-x,-y,z
1/2+x,-y,-z
-x,y,-z
-x,-y,-z
1/2+x,y,-z
1/2-x,y,z
x,-y,z
loop_
_atom_site_type_symbol
_atom_site_label
_atom_site_fract_x
_atom_site_fract_y
_atom_site_fract_z
Si Si1 0.115067 0.687471 0.322618
Si Si2 0.750000 0.810200 0.345878
Si Si3 0.750000 0.685076 0.998643
Si Si4 0.065727 0.190740 0.735520
Si Si5 0.750000 0.809784 0.543487
Si Si6 0.250000 0.815516 0.188226
Si Si7 0.931510 0.188274 0.069501
O O1 0.129004 0.500000 0.309216
O O2 0.160592 0.741088 0.412321
O O3 0.161482 0.780463 0.243306
O O4 0.011007 0.733703 0.324962
O O5 0.661461 0.745029 0.297929
O O6 0.750000 0.750035 0.444771
O O7 0.750000 0.000000 0.342752
O O8 0.750000 0.500000 0.022979
O O9 0.667119 0.771543 0.041332
O O10 0.750000 0.704506 0.895609
O O11 0.050711 0.254129 0.833681
O O12 0.061269 0.000000 0.729185
O O13 0.750000 0.000000 0.552246
O O14 0.250000 0.000000 0.159000
O O15 0.945008 0.000000 0.070981
O O16 0.000000 0.266675 0.000000
#
# Coordination Sequence:
#
# PCOD8212828 Si02
#       7
#     8   4   4   8   4   4   8
#     4  11  22  37  58  87 119 147 181 232 296 354
#     4   9  20  37  60  85 111 150 201 247 280 327
#     4  12  24  36  55  84 120 155 188 237 294 343
#     4  10  20  38  61  85 114 152 196 240 285 335
#     4  10  20  38  61  85 111 146 194 240 283 338
#     4  11  21  37  60  84 112 151 197 240 283 336
#     4  10  21  37  59  85 114 153 200 242 281 335
#
# _framework density 20.745574000000001
#
# number of rings (size 3 to 8) (size 9 to 14) (size 15 to 20)
#    0.000    1.600    0.000    6.900    0.000    5.200 
#    0.000    6.500    0.000    0.000    0.000    0.000 
#    0.000    0.000    0.000    0.000    0.000    0.000 
#
# Total GULP energy -496140.373258 kJ/mol
# GULP energy per Si atom -12403.509331 kJ/mol
# Density = 2.069836 g / cm^3
# Si number density = 20.745574 Si / 1000 Ang^3
#
#
#
# Elastic Constant Matrix: (Units=GPa)
#
#
# Indices 1 2 3 4 5 6 
#
# 1 179.6784 18.2972 71.4081 0.0000 0.0000 0.0000
# 2 18.2972 34.9085 21.6488 0.0000 0.0000 0.0000
# 3 71.4081 21.6488 145.2050 0.0000 0.0000 0.0000
# 4 0.0000 0.0000 0.0000 14.0329 0.0000 0.0000
# 5 0.0000 0.0000 0.0000 0.0000 -10.1911 0.0000
# 6 0.0000 0.0000 0.0000 0.0000 0.0000 -17.1893
#
#
#
# Elastic Compliance Matrix: (Units=1/GPa)
#
#
# Indices 1 2 3 4 5 6 
#
# 1 0.007007 -0.001692 -0.003194 0.000000 0.000000 0.000000
# 2 -0.001692 0.031973 -0.003935 0.000000 0.000000 0.000000
# 3 -0.003194 -0.003935 0.009044 0.000000 0.000000 0.000000
# 4 0.000000 0.000000 0.000000 0.071261 0.000000 0.000000
# 5 0.000000 0.000000 0.000000 0.000000 -0.098125 0.000000
# 6 0.000000 0.000000 0.000000 0.000000 0.000000 -0.058176
#
#
# Mechanical properties :
#
#
# Convention : Reuss Voigt Hill
#
# Bulk Modulus (GPa) = 32.91277 64.72224 48.81751
# Shear Modulus (GPa) = -540.75347 13.89303 -263.43022
#
# Velocity S-wave (km/s) = -16.16247 2.59064 -11.28083
# Velocity P-wave (km/s) = 18.23188 6.34148 12.08691
#
# Compressibility (1/GPa) = 0.03038334
#
# Stress axis : x y z
#
# Youngs Moduli (GPa) = 142.71407 31.27593 110.57080
#
# Poissons Ratio (x) = 0.05292 0.35312
# Poissons Ratio (y) = 0.24150 0.43507
# Poissons Ratio (z) = 0.45577 0.12306
#
# Static dielectric constant tensor:
#      x y z
#    x 3.908270 0.000000 0.000000 
#    y 0.000000 3.482520 0.000000 
#    z 0.000000 0.000000 3.956720 
# 
# 
# High freq. dielectric constant tensor:
#      x y z
#    x 1.824260 0.000000 0.000000 
#    y 0.000000 1.793960 0.000000 
#    z 0.000000 0.000000 1.814210 
# 
# From -- ./inp_files/23869.got.cif
#   From: 2010.03.12/outbox.cif.g09.slc.cpg/sg51_12_cif.got.tgz:23869.got - 2010.04.16 13:43:02.
