data_PCOD8212646
_publ_section_title
;
Structure prediction by ZEFSAII (Michael W. Deem and Ramdas Pophale) SiO2 
 PCOD8212646
Probable space group: P M M A
;
_chemical_formula_sum "Si O2"
_cell_formula_units_Z 64
_cell_length_a 9.067971
_cell_length_b 25.630437
_cell_length_c 14.363008
_cell_angle_alpha 90.000000
_cell_angle_beta 90.000000
_cell_angle_gamma 90.000000
_cell_volume 3338.193721
_symmetry_space_group_name_H-M "P M M A"
_symmetry_group_IT_number 51
_symmetry_cell_setting 'orthorhombic'
loop_
_space_group_symop_operation_xyz
x,y,z
1/2-x,-y,z
1/2+x,-y,-z
-x,y,-z
-x,-y,-z
1/2+x,y,-z
1/2-x,y,z
x,-y,z
loop_
_atom_site_type_symbol
_atom_site_label
_atom_site_fract_x
_atom_site_fract_y
_atom_site_fract_z
Si Si1 0.078784 0.060705 0.095970
Si Si2 0.580445 0.179411 0.410995
Si Si3 0.418112 0.556566 0.769820
Si Si4 0.408414 0.559727 0.417911
Si Si5 0.423753 0.854068 0.791277
Si Si6 0.926736 0.760268 0.899904
Si Si7 0.579339 0.331093 0.204184
Si Si8 0.578247 0.702411 0.408390
O O1 0.250000 0.077316 0.090107
O O2 0.993171 0.091673 0.175680
O O3 0.061945 0.000000 0.119203
O O4 0.000000 0.075526 0.000000
O O5 0.500000 0.153905 0.500000
O O6 0.750000 0.180025 0.436863
O O7 0.549422 0.145793 0.319145
O O8 0.523831 0.238200 0.392703
O O9 0.250000 0.556263 0.735848
O O10 0.454583 0.500000 0.819368
O O11 0.515008 0.563766 0.680097
O O12 0.443976 0.608726 0.832018
O O13 0.500000 0.588058 0.500000
O O14 0.250000 0.587922 0.411129
O O15 0.385072 0.500000 0.446561
O O16 0.250000 0.849855 0.815608
O O17 0.511207 0.806261 0.836286
O O18 0.750000 0.763506 0.907260
O O19 0.972993 0.704822 0.856567
O O20 0.000000 0.766422 0.000000
O O21 0.750000 0.313137 0.190973
O O22 0.536307 0.328778 0.314017
O O23 0.500000 0.678517 0.500000
O O24 0.750000 0.699489 0.427192
#
# Coordination Sequence:
#
# PCOD8212646 Si02
#       8
#     8   8   8   8   8   8   8   8
#     4  10  21  37  57  85 121 160 202 246 291 340
#     4   9  18  32  52  78 111 149 188 231 278 328
#     4   9  18  32  51  73  97 131 172 214 267 328
#     4   9  16  26  41  61  89 125 165 210 256 306
#     4  11  21  37  60  87 120 155 194 237 284 335
#     4  12  25  40  60  85 113 144 180 223 278 338
#     4  10  20  37  56  77 110 143 176 224 276 330
#     4   9  17  31  49  72 104 142 181 222 270 321
#
# _framework density 19.172045000000001
#
# number of rings (size 3 to 8) (size 9 to 14) (size 15 to 20)
#    0.000    2.125    1.250    2.625    0.000    4.750 
#    0.000    1.250    0.000    0.750    0.000    0.000 
#    0.000    0.000    0.000    0.000    0.000    0.000 
#
# Total GULP energy -793223.313900 kJ/mol
# GULP energy per Si atom -12394.114280 kJ/mol
# Density = 1.912841 g / cm^3
# Si number density = 19.172045 Si / 1000 Ang^3
#
#
#
# Elastic Constant Matrix: (Units=GPa)
#
#
# Indices 1 2 3 4 5 6 
#
# 1 114.1846 48.2012 49.3969 0.0000 0.0000 0.0000
# 2 48.2012 90.3309 39.3355 0.0000 0.0000 0.0000
# 3 49.3969 39.3355 83.6671 0.0000 0.0000 0.0000
# 4 0.0000 0.0000 0.0000 9.5314 0.0000 0.0000
# 5 0.0000 0.0000 0.0000 0.0000 32.7480 0.0000
# 6 0.0000 0.0000 0.0000 0.0000 0.0000 20.4372
#
#
#
# Elastic Compliance Matrix: (Units=1/GPa)
#
#
# Indices 1 2 3 4 5 6 
#
# 1 0.013100 -0.004555 -0.005593 0.000000 0.000000 0.000000
# 2 -0.004555 0.015504 -0.004600 0.000000 0.000000 0.000000
# 3 -0.005593 -0.004600 0.017417 0.000000 0.000000 0.000000
# 4 0.000000 0.000000 0.000000 0.104917 0.000000 0.000000
# 5 0.000000 0.000000 0.000000 0.000000 0.030536 0.000000
# 6 0.000000 0.000000 0.000000 0.000000 0.000000 0.048930
#
#
# Mechanical properties :
#
#
# Convention : Reuss Voigt Hill
#
# Bulk Modulus (GPa) = 60.51212 62.44997 61.48105
# Shear Modulus (GPa) = 18.83895 22.62657 20.73276
#
# Velocity S-wave (km/s) = 3.13809 3.43911 3.29204
# Velocity P-wave (km/s) = 6.69039 6.95803 6.82552
#
# Compressibility (1/GPa) = 0.01652561
#
# Stress axis : x y z
#
# Youngs Moduli (GPa) = 76.33624 64.49958 57.41611
#
# Poissons Ratio (x) = 0.29378 0.32111
# Poissons Ratio (y) = 0.34770 0.26411
# Poissons Ratio (z) = 0.42693 0.29669
#
# Static dielectric constant tensor:
#      x y z
#    x 3.667710 0.000000 0.000000 
#    y 0.000000 3.604920 0.000000 
#    z 0.000000 0.000000 3.202990 
# 
# 
# High freq. dielectric constant tensor:
#      x y z
#    x 1.753040 0.000000 0.000000 
#    y 0.000000 1.741340 0.000000 
#    z 0.000000 0.000000 1.718740 
# 
# From -- ./inp_files/22369.got.cif
#   From: 2010.03.12/outbox.cif.g09.slc.cpg/sg51_12_cif.got.tgz:22369.got - 2010.04.16 13:43:02.
