data_PCOD8212430
_publ_section_title
;
Structure prediction by ZEFSAII (Michael W. Deem and Ramdas Pophale) SiO2 
 PCOD8212430
Probable space group: P M M A
;
_chemical_formula_sum "Si O2"
_cell_formula_units_Z 64
_cell_length_a 25.199508
_cell_length_b 9.196465
_cell_length_c 14.306670
_cell_angle_alpha 90.000000
_cell_angle_beta 90.000000
_cell_angle_gamma 90.000000
_cell_volume 3315.519173
_symmetry_space_group_name_H-M "P M M A"
_symmetry_group_IT_number 51
_symmetry_cell_setting 'orthorhombic'
loop_
_space_group_symop_operation_xyz
x,y,z
1/2-x,-y,z
1/2+x,-y,-z
-x,y,-z
-x,-y,-z
1/2+x,y,-z
1/2-x,y,z
x,-y,z
loop_
_atom_site_type_symbol
_atom_site_label
_atom_site_fract_x
_atom_site_fract_y
_atom_site_fract_z
Si Si1 0.188293 0.669515 0.780052
Si Si2 0.688437 0.830678 0.407895
Si Si3 0.357576 0.666522 0.420474
Si Si4 0.310677 0.330908 0.226013
Si Si5 0.480546 0.667077 0.400464
Si Si6 0.601161 0.170079 0.885146
Si Si7 0.496137 0.828599 0.781050
Si Si8 0.893965 0.169571 0.100838
O O1 0.250000 0.697933 0.800361
O O2 0.175529 0.500000 0.770033
O O3 0.169997 0.748437 0.685237
O O4 0.156230 0.737001 0.866114
O O5 0.750000 0.800629 0.428673
O O6 0.654574 0.770864 0.493550
O O7 0.676199 0.000000 0.394352
O O8 0.345491 0.500000 0.449545
O O9 0.322126 0.715943 0.332695
O O10 0.417964 0.687288 0.390007
O O11 0.250000 0.294396 0.202438
O O12 0.323730 0.500000 0.214241
O O13 0.346216 0.244844 0.153103
O O14 0.500000 0.728595 0.500000
O O15 0.497886 0.500000 0.390118
O O16 0.510045 0.756400 0.320077
O O17 0.549051 0.229661 0.832347
O O18 0.607461 0.000000 0.868148
O O19 0.594695 0.207223 0.993655
O O20 0.445774 0.782388 0.842132
O O21 0.498862 0.000000 0.767917
O O22 0.881038 0.000000 0.115014
#
# Coordination Sequence:
#
# PCOD8212430 Si02
#       8
#     8   8   8   8   8   8   8   8
#     4  10  22  40  60  84 116 153 192 236 286 341
#     4  10  21  36  56  83 114 148 187 233 282 336
#     4  10  20  36  57  81 115 156 193 233 286 344
#     4  10  21  37  58  84 116 155 198 242 289 344
#     4  10  22  38  57  85 119 153 187 232 287 341
#     4  10  21  39  61  85 116 151 190 239 293 346
#     4  10  21  39  62  87 115 150 191 237 286 344
#     4  10  22  39  61  88 115 149 191 237 291 348
#
# _framework density 19.303160999999999
#
# number of rings (size 3 to 8) (size 9 to 14) (size 15 to 20)
#    0.000    2.000    1.250    1.500    1.750    6.500 
#    0.000    2.500    0.000    2.250    0.000    0.000 
#    0.000    0.000    0.000    0.000    0.000    0.000 
#
# Total GULP energy -793961.979931 kJ/mol
# GULP energy per Si atom -12405.655936 kJ/mol
# Density = 1.925923 g / cm^3
# Si number density = 19.303161 Si / 1000 Ang^3
#
#
#
# Elastic Constant Matrix: (Units=GPa)
#
#
# Indices 1 2 3 4 5 6 
#
# 1 87.0968 40.0519 58.0581 0.0000 0.0000 0.0000
# 2 40.0519 64.8550 54.6686 0.0000 0.0000 0.0000
# 3 58.0581 54.6686 137.8463 0.0000 0.0000 0.0000
# 4 0.0000 0.0000 0.0000 33.6961 0.0000 0.0000
# 5 0.0000 0.0000 0.0000 0.0000 34.0335 0.0000
# 6 0.0000 0.0000 0.0000 0.0000 0.0000 28.3205
#
#
#
# Elastic Compliance Matrix: (Units=1/GPa)
#
#
# Indices 1 2 3 4 5 6 
#
# 1 0.017880 -0.007051 -0.004734 0.000000 0.000000 0.000000
# 2 -0.007051 0.025943 -0.007319 0.000000 0.000000 0.000000
# 3 -0.004734 -0.007319 0.012151 0.000000 0.000000 0.000000
# 4 0.000000 0.000000 0.000000 0.029677 0.000000 0.000000
# 5 0.000000 0.000000 0.000000 0.000000 0.029383 0.000000
# 6 0.000000 0.000000 0.000000 0.000000 0.000000 0.035310
#
#
# Mechanical properties :
#
#
# Convention : Reuss Voigt Hill
#
# Bulk Modulus (GPa) = 56.29006 66.15058 61.22032
# Shear Modulus (GPa) = 25.71036 28.34463 27.02750
#
# Velocity S-wave (km/s) = 3.65351 3.83612 3.74593
# Velocity P-wave (km/s) = 6.85725 7.34607 7.10587
#
# Compressibility (1/GPa) = 0.01776513
#
# Stress axis : x y z
#
# Youngs Moduli (GPa) = 55.92906 38.54607 82.29786
#
# Poissons Ratio (x) = 0.27180 0.38961
# Poissons Ratio (y) = 0.39437 0.60233
# Poissons Ratio (z) = 0.26478 0.28211
#
# Static dielectric constant tensor:
#      x y z
#    x 3.592150 0.000000 0.000000 
#    y 0.000000 3.433250 0.000000 
#    z 0.000000 0.000000 3.510440 
# 
# 
# High freq. dielectric constant tensor:
#      x y z
#    x 1.757010 0.000000 0.000000 
#    y 0.000000 1.743660 0.000000 
#    z 0.000000 0.000000 1.758520 
# 
# From -- ./inp_files/26280.got.cif
#   From: 2010.03.12/outbox.cif.g09.slc.cpg/sg51_14_cif.got.tgz:26280.got - 2010.04.16 13:43:02.
