data_PCOD8212867
_publ_section_title
;
Structure prediction by ZEFSAII (Michael W. Deem and Ramdas Pophale) SiO2 
 PCOD8212867
Probable space group: P M M A
;
_chemical_formula_sum "Si O2"
_cell_formula_units_Z 28
_cell_length_a 8.915567
_cell_length_b 7.858538
_cell_length_c 19.856454
_cell_angle_alpha 90.000000
_cell_angle_beta 90.000000
_cell_angle_gamma 90.000000
_cell_volume 1391.209132
_symmetry_space_group_name_H-M "P M M A"
_symmetry_group_IT_number 51
_symmetry_cell_setting 'orthorhombic'
loop_
_space_group_symop_operation_xyz
x,y,z
1/2-x,-y,z
1/2+x,-y,-z
-x,y,-z
-x,-y,-z
1/2+x,y,-z
1/2-x,y,z
x,-y,z
loop_
_atom_site_type_symbol
_atom_site_label
_atom_site_fract_x
_atom_site_fract_y
_atom_site_fract_z
Si Si1 0.573943 0.308208 0.151650
Si Si2 0.428495 0.000000 0.072913
Si Si3 0.083249 0.700668 0.564648
Si Si4 0.925958 0.807282 0.293794
O O1 0.750000 0.261268 0.146251
O O2 0.543694 0.500000 0.124774
O O3 0.519607 0.301837 0.229671
O O4 0.480376 0.172210 0.109530
O O5 0.250000 0.000000 0.067842
O O6 0.500000 0.000000 0.000000
O O7 0.250000 0.778425 0.563595
O O8 0.087763 0.500000 0.558290
O O9 0.000395 0.749492 0.635133
O O10 0.000000 0.780525 0.500000
O O11 0.750000 0.779575 0.302216
O O12 0.970194 0.000000 0.277939
#
# Coordination Sequence:
#
# PCOD8212867 Si02
#       4
#     8   4   8   8
#     4  10  20  38  66  95 122 156 200 248 297 352
#     4  12  26  44  66  92 127 162 195 238 289 350
#     4   9  17  29  45  68 100 141 188 237 289 343
#     4   9  16  29  53  81 109 143 190 242 290 346
#
# _framework density 20.126377999999999
#
# number of rings (size 3 to 8) (size 9 to 14) (size 15 to 20)
#    0.000    2.286    1.429    2.143    0.000    5.143 
#    0.000    1.429    0.000    3.429    0.000    0.000 
#    0.000    0.000    0.000    0.000    0.000    0.000 
#
# Total GULP energy -347015.764407 kJ/mol
# GULP energy per Si atom -12393.420157 kJ/mol
# Density = 2.008057 g / cm^3
# Si number density = 20.126378 Si / 1000 Ang^3
#
#
#
# Elastic Constant Matrix: (Units=GPa)
#
#
# Indices 1 2 3 4 5 6 
#
# 1 76.6352 38.0799 62.7963 0.0000 0.0000 0.0000
# 2 38.0799 90.3891 65.5350 0.0000 0.0000 0.0000
# 3 62.7963 65.5350 163.3913 0.0000 0.0000 0.0000
# 4 0.0000 0.0000 0.0000 25.3545 0.0000 0.0000
# 5 0.0000 0.0000 0.0000 0.0000 29.9443 0.0000
# 6 0.0000 0.0000 0.0000 0.0000 0.0000 20.5751
#
#
#
# Elastic Compliance Matrix: (Units=1/GPa)
#
#
# Indices 1 2 3 4 5 6 
#
# 1 0.020037 -0.004030 -0.006084 0.000000 0.000000 0.000000
# 2 -0.004030 0.016410 -0.005033 0.000000 0.000000 0.000000
# 3 -0.006084 -0.005033 0.010478 0.000000 0.000000 0.000000
# 4 0.000000 0.000000 0.000000 0.039441 0.000000 0.000000
# 5 0.000000 0.000000 0.000000 0.000000 0.033395 0.000000
# 6 0.000000 0.000000 0.000000 0.000000 0.000000 0.048603
#
#
# Mechanical properties :
#
#
# Convention : Reuss Voigt Hill
#
# Bulk Modulus (GPa) = 60.13375 73.69311 66.91343
# Shear Modulus (GPa) = 24.48557 26.10840 25.29699
#
# Velocity S-wave (km/s) = 3.49175 3.60561 3.54913
# Velocity P-wave (km/s) = 6.79701 7.35041 7.07912
#
# Compressibility (1/GPa) = 0.01662960
#
# Stress axis : x y z
#
# Youngs Moduli (GPa) = 49.90759 60.93739 95.44250
#
# Poissons Ratio (x) = 0.24557 0.58072
# Poissons Ratio (y) = 0.20112 0.48038
# Poissons Ratio (z) = 0.30366 0.30671
#
# Static dielectric constant tensor:
#      x y z
#    x 3.412680 0.000000 0.000000 
#    y 0.000000 3.588350 0.000000 
#    z 0.000000 0.000000 4.083500 
# 
# 
# High freq. dielectric constant tensor:
#      x y z
#    x 1.732080 0.000000 0.000000 
#    y 0.000000 1.787980 0.000000 
#    z 0.000000 0.000000 1.802890 
# 
# From -- ./inp_files/28724.got.cif
#   From: 2010.03.12/outbox.cif.g09.slc.cpg/sg51_15_cif.got.tgz:28724.got - 2010.04.16 13:43:02.
