data_PCOD8212326
_publ_section_title
;
Structure prediction by ZEFSAII (Michael W. Deem and Ramdas Pophale) SiO2 
 PCOD8212326
Probable space group: P M M A
;
_chemical_formula_sum "Si O2"
_cell_formula_units_Z 48
_cell_length_a 9.618984
_cell_length_b 13.943681
_cell_length_c 18.460089
_cell_angle_alpha 90.000000
_cell_angle_beta 90.000000
_cell_angle_gamma 90.000000
_cell_volume 2475.941797
_symmetry_space_group_name_H-M "P M M A"
_symmetry_group_IT_number 51
_symmetry_cell_setting 'orthorhombic'
loop_
_space_group_symop_operation_xyz
x,y,z
1/2-x,-y,z
1/2+x,-y,-z
-x,y,-z
-x,-y,-z
1/2+x,y,-z
1/2-x,y,z
x,-y,z
loop_
_atom_site_type_symbol
_atom_site_label
_atom_site_fract_x
_atom_site_fract_y
_atom_site_fract_z
Si Si1 0.095424 0.889527 0.690998
Si Si2 0.750000 0.112718 0.055032
Si Si3 0.531680 0.800768 0.158083
Si Si4 0.092847 0.606836 0.355125
Si Si5 0.912109 0.797324 0.569659
Si Si6 0.587416 0.392620 0.216068
Si Si7 0.750000 0.113059 0.886404
O O1 0.250000 0.876666 0.656360
O O2 0.098328 0.834030 0.766808
O O3 0.975304 0.851103 0.638756
O O4 0.063348 0.000000 0.707281
O O5 0.887163 0.157640 0.089488
O O6 0.750000 0.000000 0.069339
O O7 0.750000 0.137875 0.970839
O O8 0.539515 0.684441 0.155693
O O9 0.376930 0.838240 0.153981
O O10 0.250000 0.614388 0.324727
O O11 0.063044 0.500000 0.385816
O O12 0.071318 0.682849 0.419602
O O13 0.989222 0.632438 0.290629
O O14 0.750000 0.826301 0.560505
O O15 0.000000 0.829497 0.500000
O O16 0.750000 0.384253 0.231706
O O17 0.548053 0.500000 0.189086
O O18 0.750000 0.000000 0.872805
#
# Coordination Sequence:
#
# PCOD8212326 Si02
#       7
#     8   4   8   8   8   8   4
#     4  11  23  39  61  87 116 154 203 251 299 359
#     4  11  22  42  65  91 126 168 206 249 311 371
#     4  12  22  39  64  93 126 164 205 256 307 361
#     4   9  19  36  58  86 119 154 196 247 303 359
#     4  11  24  40  60  85 120 159 198 249 304 360
#     4  10  20  35  59  91 122 158 205 255 304 359
#     4  11  26  40  61  95 132 164 204 251 307 375
#
# _framework density 19.386562999999999
#
# number of rings (size 3 to 8) (size 9 to 14) (size 15 to 20)
#    0.000    1.333    3.333    2.500    2.333    3.000 
#    0.000    0.000    0.000    3.000    0.000    0.000 
#    0.000    0.000    0.000    0.000    0.000    0.000 
#
# Total GULP energy -595276.641277 kJ/mol
# GULP energy per Si atom -12401.596693 kJ/mol
# Density = 1.934244 g / cm^3
# Si number density = 19.386563 Si / 1000 Ang^3
#
#
#
# Elastic Constant Matrix: (Units=GPa)
#
#
# Indices 1 2 3 4 5 6 
#
# 1 124.6704 36.4505 30.1211 0.0000 0.0000 0.0000
# 2 36.4505 104.5553 33.9751 0.0000 0.0000 0.0000
# 3 30.1211 33.9751 63.9502 0.0000 0.0000 0.0000
# 4 0.0000 0.0000 0.0000 22.3055 0.0000 0.0000
# 5 0.0000 0.0000 0.0000 0.0000 43.8120 0.0000
# 6 0.0000 0.0000 0.0000 0.0000 0.0000 14.5018
#
#
#
# Elastic Compliance Matrix: (Units=1/GPa)
#
#
# Indices 1 2 3 4 5 6 
#
# 1 0.009465 -0.002237 -0.003270 0.000000 0.000000 0.000000
# 2 -0.002237 0.012089 -0.005369 0.000000 0.000000 0.000000
# 3 -0.003270 -0.005369 0.020029 0.000000 0.000000 0.000000
# 4 0.000000 0.000000 0.000000 0.044832 0.000000 0.000000
# 5 0.000000 0.000000 0.000000 0.000000 0.022825 0.000000
# 6 0.000000 0.000000 0.000000 0.000000 0.000000 0.068957
#
#
# Mechanical properties :
#
#
# Convention : Reuss Voigt Hill
#
# Bulk Modulus (GPa) = 50.42284 54.91882 52.67083
# Shear Modulus (GPa) = 24.20611 28.96580 26.58595
#
# Velocity S-wave (km/s) = 3.53739 3.86957 3.70720
# Velocity P-wave (km/s) = 6.53833 6.95375 6.74924
#
# Compressibility (1/GPa) = 0.01983228
#
# Stress axis : x y z
#
# Youngs Moduli (GPa) = 105.64965 82.72078 49.92664
#
# Poissons Ratio (x) = 0.18508 0.16324
# Poissons Ratio (y) = 0.23638 0.26804
# Poissons Ratio (z) = 0.34543 0.44410
#
# Static dielectric constant tensor:
#      x y z
#    x 3.570200 0.000000 0.000000 
#    y 0.000000 3.843780 0.000000 
#    z 0.000000 0.000000 3.245230 
# 
# 
# High freq. dielectric constant tensor:
#      x y z
#    x 1.770730 0.000000 0.000000 
#    y 0.000000 1.768120 0.000000 
#    z 0.000000 0.000000 1.725690 
# 
# From -- ./inp_files/27647.got.cif
#   From: 2010.03.12/outbox.cif.g09.slc.cpg/sg51_14_cif.got.tgz:27647.got - 2010.04.16 13:43:02.
