data_PCOD8212580
_publ_section_title
;
Structure prediction by ZEFSAII (Michael W. Deem and Ramdas Pophale) SiO2 
 PCOD8212580
Probable space group: P M M A
;
_chemical_formula_sum "Si O2"
_cell_formula_units_Z 48
_cell_length_a 8.715425
_cell_length_b 15.089542
_cell_length_c 19.056050
_cell_angle_alpha 90.000000
_cell_angle_beta 90.000000
_cell_angle_gamma 90.000000
_cell_volume 2506.094895
_symmetry_space_group_name_H-M "P M M A"
_symmetry_group_IT_number 51
_symmetry_cell_setting 'orthorhombic'
loop_
_space_group_symop_operation_xyz
x,y,z
1/2-x,-y,z
1/2+x,-y,-z
-x,y,-z
-x,-y,-z
1/2+x,y,-z
1/2-x,y,z
x,-y,z
loop_
_atom_site_type_symbol
_atom_site_label
_atom_site_fract_x
_atom_site_fract_y
_atom_site_fract_z
Si Si1 0.431168 0.500000 0.576711
Si Si2 0.569910 0.838266 0.328049
Si Si3 0.570095 0.247768 0.923922
Si Si4 0.067561 0.598823 0.175321
Si Si5 0.073488 0.898072 0.186237
Si Si6 0.068932 0.651109 0.329793
Si Si7 0.930848 0.000000 0.423498
O O1 0.250000 0.500000 0.571696
O O2 0.500000 0.500000 0.500000
O O3 0.485704 0.412288 0.615954
O O4 0.750000 0.819230 0.334618
O O5 0.534940 0.870676 0.249765
O O6 0.475158 0.751277 0.348185
O O7 0.512971 0.913362 0.381838
O O8 0.750000 0.258317 0.932215
O O9 0.502372 0.333352 0.882768
O O10 0.526862 0.159210 0.881444
O O11 0.500000 0.241163 0.000000
O O12 0.250000 0.601365 0.175635
O O13 0.006861 0.500000 0.158082
O O14 0.008841 0.628486 0.251760
O O15 0.250000 0.878802 0.207715
O O16 0.047418 0.000000 0.166040
O O17 0.250000 0.637058 0.336455
O O18 0.000000 0.000000 0.500000
O O19 0.750000 0.000000 0.429207
#
# Coordination Sequence:
#
# PCOD8212580 Si02
#       7
#     4   8   8   8   8   8   4
#     4  12  26  44  64  94 129 164 203 254 307 363
#     4  11  22  38  60  91 125 156 198 254 307 362
#     4  10  21  37  55  83 119 155 195 244 301 360
#     4   9  17  33  59  85 112 149 195 240 290 351
#     4  10  20  36  60  86 112 152 205 250 297 365
#     4  11  21  39  66  93 120 161 206 251 304 363
#     4  10  24  42  60  86 123 160 195 244 303 358
#
# _framework density 19.153303999999999
#
# number of rings (size 3 to 8) (size 9 to 14) (size 15 to 20)
#    0.000    1.667    3.333    1.750    0.000    3.333 
#    0.000    1.667    0.000    0.000    0.000    0.000 
#    0.000    0.000    0.000    0.000    0.000    0.000 
#
# Total GULP energy -595349.785319 kJ/mol
# GULP energy per Si atom -12403.120527 kJ/mol
# Density = 1.910971 g / cm^3
# Si number density = 19.153304 Si / 1000 Ang^3
#
#
#
# Elastic Constant Matrix: (Units=GPa)
#
#
# Indices 1 2 3 4 5 6 
#
# 1 56.3932 36.2124 42.4129 0.0000 0.0000 0.0000
# 2 36.2124 174.2249 82.2888 0.0000 0.0000 0.0000
# 3 42.4129 82.2888 166.9590 0.0000 0.0000 0.0000
# 4 0.0000 0.0000 0.0000 31.8004 0.0000 0.0000
# 5 0.0000 0.0000 0.0000 0.0000 33.8423 0.0000
# 6 0.0000 0.0000 0.0000 0.0000 0.0000 28.1489
#
#
#
# Elastic Compliance Matrix: (Units=1/GPa)
#
#
# Indices 1 2 3 4 5 6 
#
# 1 0.022797 -0.002611 -0.004504 0.000000 0.000000 0.000000
# 2 -0.002611 0.007780 -0.003171 0.000000 0.000000 0.000000
# 3 -0.004504 -0.003171 0.008697 0.000000 0.000000 0.000000
# 4 0.000000 0.000000 0.000000 0.031446 0.000000 0.000000
# 5 0.000000 0.000000 0.000000 0.000000 0.029549 0.000000
# 6 0.000000 0.000000 0.000000 0.000000 0.000000 0.035525
#
#
# Mechanical properties :
#
#
# Convention : Reuss Voigt Hill
#
# Bulk Modulus (GPa) = 53.47370 79.93393 66.70382
# Shear Modulus (GPa) = 30.75011 34.53584 32.64297
#
# Velocity S-wave (km/s) = 4.01118 4.25093 4.13280
# Velocity P-wave (km/s) = 7.03080 8.11901 7.59442
#
# Compressibility (1/GPa) = 0.01870078
#
# Stress axis : x y z
#
# Youngs Moduli (GPa) = 43.86572 128.53026 114.98447
#
# Poissons Ratio (x) = 0.33557 0.51793
# Poissons Ratio (y) = 0.11453 0.36466
# Poissons Ratio (z) = 0.19759 0.40762
#
# Static dielectric constant tensor:
#      x y z
#    x 3.790010 0.000000 0.000000 
#    y 0.000000 2.016590 0.000000 
#    z 0.000000 0.000000 3.470070 
# 
# 
# High freq. dielectric constant tensor:
#      x y z
#    x 1.727360 0.000000 0.000000 
#    y 0.000000 1.766410 0.000000 
#    z 0.000000 0.000000 1.743080 
# 
# From -- ./inp_files/27659.got.cif
#   From: 2010.03.12/outbox.cif.g09.slc.cpg/sg51_14_cif.got.tgz:27659.got - 2010.04.16 13:43:02.
