data_PCOD8212926
_publ_section_title
;
Structure prediction by ZEFSAII (Michael W. Deem and Ramdas Pophale) SiO2 
 PCOD8212926
Probable space group: P M M A
;
_chemical_formula_sum "Si O2"
_cell_formula_units_Z 64
_cell_length_a 29.398743
_cell_length_b 9.147087
_cell_length_c 14.818557
_cell_angle_alpha 90.000000
_cell_angle_beta 90.000000
_cell_angle_gamma 90.000000
_cell_volume 3984.900543
_symmetry_space_group_name_H-M "P M M A"
_symmetry_group_IT_number 51
_symmetry_cell_setting 'orthorhombic'
loop_
_space_group_symop_operation_xyz
x,y,z
1/2-x,-y,z
1/2+x,-y,-z
-x,y,-z
-x,-y,-z
1/2+x,y,-z
1/2-x,y,z
x,-y,z
loop_
_atom_site_type_symbol
_atom_site_label
_atom_site_fract_x
_atom_site_fract_y
_atom_site_fract_z
Si Si1 0.542306 0.328606 0.183561
Si Si2 0.700644 0.173119 0.985824
Si Si3 0.102994 0.174044 0.959874
Si Si4 0.433960 0.167385 0.442331
Si Si5 0.198365 0.834435 0.216702
Si Si6 0.439926 0.329469 0.130602
Si Si7 0.967750 0.831923 0.365989
Si Si8 0.620101 0.670822 0.698358
O O1 0.552445 0.500000 0.180487
O O2 0.580281 0.244323 0.127143
O O3 0.493026 0.293117 0.142064
O O4 0.546490 0.274935 0.285938
O O5 0.750000 0.230808 0.024223
O O6 0.694030 0.231603 0.884073
O O7 0.703296 0.000000 0.980359
O O8 0.656587 0.221197 0.043588
O O9 0.097424 0.000000 0.957709
O O10 0.079332 0.232701 0.049997
O O11 0.482135 0.208903 0.399029
O O12 0.433883 0.194514 0.549864
O O13 0.396180 0.268718 0.397610
O O14 0.422279 0.000000 0.421136
O O15 0.250000 0.828419 0.250604
O O16 0.169573 0.735293 0.283586
O O17 0.179674 0.000000 0.219334
O O18 0.432434 0.500000 0.107897
O O19 0.414667 0.283351 0.222337
O O20 0.965319 0.000000 0.333409
O O21 0.624338 0.500000 0.689762
#
# Coordination Sequence:
#
# PCOD8212926 Si02
#       8
#     8   8   8   8   8   8   8   8
#     4  11  22  35  48  65  98 136 165 199 242 288
#     4   8  15  29  48  69  92 118 153 199 245 285
#     4  11  21  32  50  72  92 124 168 206 240 284
#     4   9  18  32  51  72  96 123 156 201 245 280
#     4   9  17  31  50  70  94 126 163 202 245 290
#     4  10  21  34  44  63  98 137 167 194 232 281
#     4   9  18  33  51  72  94 121 161 205 240 277
#     4  11  20  30  47  72 101 131 165 196 236 294
#
# _framework density 16.060627
#
# number of rings (size 3 to 8) (size 9 to 14) (size 15 to 20)
#    0.000    2.250    2.500    3.000    0.000    3.750 
#    0.000    1.250    0.000    1.500    0.000    0.875 
#    0.000    3.000    0.000    0.000    0.000    0.000 
#
# Total GULP energy -793486.165376 kJ/mol
# GULP energy per Si atom -12398.221334 kJ/mol
# Density = 1.602407 g / cm^3
# Si number density = 16.060627 Si / 1000 Ang^3
#
#
#
# Elastic Constant Matrix: (Units=GPa)
#
#
# Indices 1 2 3 4 5 6 
#
# 1 104.2699 45.4196 49.8056 0.0000 0.0000 0.0000
# 2 45.4196 68.2115 48.2438 0.0000 0.0000 0.0000
# 3 49.8056 48.2438 81.6467 0.0000 0.0000 0.0000
# 4 0.0000 0.0000 0.0000 26.4272 0.0000 0.0000
# 5 0.0000 0.0000 0.0000 0.0000 21.3622 0.0000
# 6 0.0000 0.0000 0.0000 0.0000 0.0000 18.8866
#
#
#
# Elastic Compliance Matrix: (Units=1/GPa)
#
#
# Indices 1 2 3 4 5 6 
#
# 1 0.014826 -0.005971 -0.005516 0.000000 0.000000 0.000000
# 2 -0.005971 0.027590 -0.012660 0.000000 0.000000 0.000000
# 3 -0.005516 -0.012660 0.023094 0.000000 0.000000 0.000000
# 4 0.000000 0.000000 0.000000 0.037840 0.000000 0.000000
# 5 0.000000 0.000000 0.000000 0.000000 0.046812 0.000000
# 6 0.000000 0.000000 0.000000 0.000000 0.000000 0.052948
#
#
# Mechanical properties :
#
#
# Convention : Reuss Voigt Hill
#
# Bulk Modulus (GPa) = 58.08737 60.11845 59.10291
# Shear Modulus (GPa) = 19.44448 20.71249 20.07848
#
# Velocity S-wave (km/s) = 3.48328 3.59506 3.53961
# Velocity P-wave (km/s) = 7.24042 7.39906 7.32017
#
# Compressibility (1/GPa) = 0.01721545
#
# Stress axis : x y z
#
# Youngs Moduli (GPa) = 67.44817 36.24452 43.30204
#
# Poissons Ratio (x) = 0.21641 0.23886
# Poissons Ratio (y) = 0.40273 0.54822
# Poissons Ratio (z) = 0.37205 0.45887
#
# Static dielectric constant tensor:
#      x y z
#    x 3.196240 0.000000 0.000000 
#    y 0.000000 2.961210 0.000000 
#    z 0.000000 0.000000 2.962480 
# 
# 
# High freq. dielectric constant tensor:
#      x y z
#    x 1.608410 0.000000 0.000000 
#    y 0.000000 1.613620 0.000000 
#    z 0.000000 0.000000 1.597790 
# 
# From -- ./inp_files/26625.got.cif
#   From: 2010.03.12/outbox.cif.g09.slc.cpg/sg51_14_cif.got.tgz:26625.got - 2010.04.16 13:43:02.
