data_PCOD8212636
_publ_section_title
;
Structure prediction by ZEFSAII (Michael W. Deem and Ramdas Pophale) SiO2 
 PCOD8212636
Probable space group: P M M A
;
_chemical_formula_sum "Si O2"
_cell_formula_units_Z 56
_cell_length_a 14.499990
_cell_length_b 9.007656
_cell_length_c 22.195277
_cell_angle_alpha 90.000000
_cell_angle_beta 90.000000
_cell_angle_gamma 90.000000
_cell_volume 2898.945591
_symmetry_space_group_name_H-M "P M M A"
_symmetry_group_IT_number 51
_symmetry_cell_setting 'orthorhombic'
loop_
_space_group_symop_operation_xyz
x,y,z
1/2-x,-y,z
1/2+x,-y,-z
-x,y,-z
-x,-y,-z
1/2+x,y,-z
1/2-x,y,z
x,-y,z
loop_
_atom_site_type_symbol
_atom_site_label
_atom_site_fract_x
_atom_site_fract_y
_atom_site_fract_z
Si Si1 0.991168 0.676378 0.289137
Si Si2 0.941694 0.175871 0.164286
Si Si3 0.750000 0.330754 0.983787
Si Si4 0.250000 0.174685 0.890340
Si Si5 0.640522 0.664701 0.523003
Si Si6 0.147263 0.323724 0.608738
Si Si7 0.357925 0.171270 0.358951
Si Si8 0.051102 0.328491 0.061535
O O1 0.992564 0.500000 0.284711
O O2 0.963424 0.743212 0.225878
O O3 0.919171 0.736810 0.339077
O O4 0.092118 0.734856 0.307061
O O5 0.840467 0.231381 0.144383
O O6 0.015645 0.223866 0.114498
O O7 0.946801 0.000000 0.173061
O O8 0.750000 0.500000 0.006642
O O9 0.839904 0.297929 0.943782
O O10 0.750000 0.229881 0.041954
O O11 0.250000 0.000000 0.893860
O O12 0.750000 0.655892 0.519382
O O13 0.600742 0.500000 0.537435
O O14 0.606375 0.721949 0.457229
O O15 0.607724 0.775332 0.575251
O O16 0.250000 0.256744 0.618883
O O17 0.153034 0.500000 0.611256
O O18 0.250000 0.200905 0.350775
O O19 0.383574 0.000000 0.351855
O O20 0.030338 0.500000 0.077241
O O21 0.000000 0.283216 0.000000
#
# Coordination Sequence:
#
# PCOD8212636 Si02
#       8
#     8   8   4   4   8   8   8   8
#     4  11  23  38  59  84 111 149 195 239 283 335
#     4  11  24  41  59  84 120 158 193 232 279 338
#     4  10  20  36  62  94 122 148 185 238 289 332
#     4  10  22  38  60  88 120 156 191 224 275 340
#     4   8  14  29  55  82 108 140 182 232 284 339
#     4   8  16  32  54  83 115 145 182 231 284 338
#     4  10  21  38  58  79 109 147 188 237 291 346
#     4  10  20  37  62  91 121 151 190 238 285 332
#
# _framework density 19.317367000000001
#
# number of rings (size 3 to 8) (size 9 to 14) (size 15 to 20)
#    0.000    2.286    1.429    2.143    1.000    2.857 
#    1.286    4.286    0.000    1.714    0.000    0.000 
#    0.000    0.000    0.000    0.000    0.000    0.000 
#
# Total GULP energy -694429.999818 kJ/mol
# GULP energy per Si atom -12400.535711 kJ/mol
# Density = 1.927340 g / cm^3
# Si number density = 19.317367 Si / 1000 Ang^3
#
#
#
# Elastic Constant Matrix: (Units=GPa)
#
#
# Indices 1 2 3 4 5 6 
#
# 1 104.2253 35.0770 56.0753 0.0000 0.0000 0.0000
# 2 35.0770 56.6223 43.9740 0.0000 0.0000 0.0000
# 3 56.0753 43.9740 129.5173 0.0000 0.0000 0.0000
# 4 0.0000 0.0000 0.0000 -1.5127 0.0000 0.0000
# 5 0.0000 0.0000 0.0000 0.0000 7.3739 0.0000
# 6 0.0000 0.0000 0.0000 0.0000 0.0000 21.5884
#
#
#
# Elastic Compliance Matrix: (Units=1/GPa)
#
#
# Indices 1 2 3 4 5 6 
#
# 1 0.013554 -0.005214 -0.004098 0.000000 0.000000 0.000000
# 2 -0.005214 0.025991 -0.006567 0.000000 0.000000 0.000000
# 3 -0.004098 -0.006567 0.011725 0.000000 0.000000 0.000000
# 4 0.000000 0.000000 0.000000 -0.661055 0.000000 0.000000
# 5 0.000000 0.000000 0.000000 0.000000 0.135613 0.000000
# 6 0.000000 0.000000 0.000000 0.000000 0.000000 0.046321
#
#
# Mechanical properties :
#
#
# Convention : Reuss Voigt Hill
#
# Bulk Modulus (GPa) = 51.25113 62.29084 56.77098
# Shear Modulus (GPa) = -12.83406 15.83915 1.50255
#
# Velocity S-wave (km/s) = -2.58035 2.86657 0.88290
# Velocity P-wave (km/s) = 4.20845 6.57817 5.52193
#
# Compressibility (1/GPa) = 0.01951177
#
# Stress axis : x y z
#
# Youngs Moduli (GPa) = 73.77754 38.47475 85.28823
#
# Poissons Ratio (x) = 0.20061 0.34952
# Poissons Ratio (y) = 0.38468 0.56009
# Poissons Ratio (z) = 0.30235 0.25267
#
# Static dielectric constant tensor:
#      x y z
#    x 3.833120 0.000000 0.000000 
#    y 0.000000 3.365140 0.000000 
#    z 0.000000 0.000000 3.557690 
# 
# 
# High freq. dielectric constant tensor:
#      x y z
#    x 1.759770 0.000000 0.000000 
#    y 0.000000 1.734340 0.000000 
#    z 0.000000 0.000000 1.750010 
# 
# From -- ./inp_files/33591.got.cif
#   From: 2010.03.12/outbox.cif.g09.slc.cpg/sg51_17_cif.got.tgz:33591.got - 2010.04.16 13:43:02.
