data_PCOD8212890
_publ_section_title
;
Structure prediction by ZEFSAII (Michael W. Deem and Ramdas Pophale) SiO2 
 PCOD8212890
Probable space group: P M M A
;
_chemical_formula_sum "Si O2"
_cell_formula_units_Z 40
_cell_length_a 7.536993
_cell_length_b 8.905031
_cell_length_c 29.137164
_cell_angle_alpha 90.000000
_cell_angle_beta 90.000000
_cell_angle_gamma 90.000000
_cell_volume 1955.603591
_symmetry_space_group_name_H-M "P M M A"
_symmetry_group_IT_number 51
_symmetry_cell_setting 'orthorhombic'
loop_
_space_group_symop_operation_xyz
x,y,z
1/2-x,-y,z
1/2+x,-y,-z
-x,y,-z
-x,-y,-z
1/2+x,y,-z
1/2-x,y,z
x,-y,z
loop_
_atom_site_type_symbol
_atom_site_label
_atom_site_fract_x
_atom_site_fract_y
_atom_site_fract_z
Si Si1 0.048582 0.836946 0.360752
Si Si2 0.455753 0.173607 0.052079
Si Si3 0.250000 0.821754 0.789888
Si Si4 0.956382 0.668171 0.450162
Si Si5 0.750000 0.322977 0.111496
Si Si6 0.458969 0.674520 0.271321
O O1 0.250000 0.862878 0.347355
O O2 0.970322 0.728758 0.321423
O O3 0.043882 0.767092 0.411126
O O4 0.951298 0.000000 0.360603
O O5 0.250000 0.205303 0.062647
O O6 0.572758 0.279361 0.084151
O O7 0.504665 0.000000 0.061401
O O8 0.500000 0.215907 0.000000
O O9 0.250000 0.767284 0.841616
O O10 0.430040 0.762496 0.766657
O O11 0.250000 0.000000 0.787711
O O12 0.750000 0.665465 0.440768
O O13 0.037138 0.500000 0.448057
O O14 0.000000 0.738953 0.500000
O O15 0.750000 0.500000 0.120965
O O16 0.250000 0.704939 0.263387
O O17 0.503563 0.500000 0.267622
#
# Coordination Sequence:
#
# PCOD8212890 Si02
#       6
#     8   8   4   8   4   8
#     4  10  21  37  58  85 116 151 193 241 297 364
#     4  10  20  39  67  95 128 172 221 269 318 378
#     4  12  26  44  68  94 128 170 216 266 319 380
#     4  10  21  36  55  79 109 148 193 242 297 360
#     4  12  26  42  62  94 136 174 216 268 323 380
#     4  10  22  42  68  95 125 162 206 260 318 376
#
# _framework density 20.454042999999999
#
# number of rings (size 3 to 8) (size 9 to 14) (size 15 to 20)
#    0.000    1.600    1.000    3.600    1.400    5.600 
#    0.000    0.000    0.000    0.000    0.000    0.000 
#    0.000    0.000    0.000    0.000    0.000    0.000 
#
# Total GULP energy -496007.499022 kJ/mol
# GULP energy per Si atom -12400.187476 kJ/mol
# Density = 2.040749 g / cm^3
# Si number density = 20.454043 Si / 1000 Ang^3
#
#
#
# Elastic Constant Matrix: (Units=GPa)
#
#
# Indices 1 2 3 4 5 6 
#
# 1 86.2210 45.5618 42.2821 0.0000 0.0000 0.0000
# 2 45.5618 150.2523 70.4665 0.0000 0.0000 0.0000
# 3 42.2821 70.4665 139.3076 0.0000 0.0000 0.0000
# 4 0.0000 0.0000 0.0000 38.8871 0.0000 0.0000
# 5 0.0000 0.0000 0.0000 0.0000 28.4849 0.0000
# 6 0.0000 0.0000 0.0000 0.0000 0.0000 23.3276
#
#
#
# Elastic Compliance Matrix: (Units=1/GPa)
#
#
# Indices 1 2 3 4 5 6 
#
# 1 0.014644 -0.003089 -0.002882 0.000000 0.000000 0.000000
# 2 -0.003089 0.009377 -0.003806 0.000000 0.000000 0.000000
# 3 -0.002882 -0.003806 0.009978 0.000000 0.000000 0.000000
# 4 0.000000 0.000000 0.000000 0.025715 0.000000 0.000000
# 5 0.000000 0.000000 0.000000 0.000000 0.035106 0.000000
# 6 0.000000 0.000000 0.000000 0.000000 0.000000 0.042868
#
#
# Mechanical properties :
#
#
# Convention : Reuss Voigt Hill
#
# Bulk Modulus (GPa) = 69.22553 76.93351 73.07952
# Shear Modulus (GPa) = 30.85340 32.63796 31.74568
#
# Velocity S-wave (km/s) = 3.88806 3.99892 3.94388
# Velocity P-wave (km/s) = 7.35350 7.68221 7.51965
#
# Compressibility (1/GPa) = 0.01444554
#
# Stress axis : x y z
#
# Youngs Moduli (GPa) = 68.28873 106.64497 100.21859
#
# Poissons Ratio (x) = 0.32940 0.28885
# Poissons Ratio (y) = 0.21093 0.38140
# Poissons Ratio (z) = 0.19682 0.40586
#
# Static dielectric constant tensor:
#      x y z
#    x 3.448230 0.000000 0.000000 
#    y 0.000000 3.859630 0.000000 
#    z 0.000000 0.000000 3.731510 
# 
# 
# High freq. dielectric constant tensor:
#      x y z
#    x 1.805470 0.000000 0.000000 
#    y 0.000000 1.800820 0.000000 
#    z 0.000000 0.000000 1.801510 
# 
# From -- ./inp_files/36030.got.cif
#   From: 2010.03.12/outbox.cif.g09.slc.cpg/sg51_19_cif.got.tgz:36030.got - 2010.04.16 13:43:02.
