data_PCOD8212968
_publ_section_title
;
Structure prediction by ZEFSAII (Michael W. Deem and Ramdas Pophale) SiO2 
 PCOD8212968
Probable space group: P M M A
;
_chemical_formula_sum "Si O2"
_cell_formula_units_Z 40
_cell_length_a 8.894550
_cell_length_b 25.434831
_cell_length_c 9.209876
_cell_angle_alpha 90.000000
_cell_angle_beta 90.000000
_cell_angle_gamma 90.000000
_cell_volume 2083.562921
_symmetry_space_group_name_H-M "P M M A"
_symmetry_group_IT_number 51
_symmetry_cell_setting 'orthorhombic'
loop_
_space_group_symop_operation_xyz
x,y,z
1/2-x,-y,z
1/2+x,-y,-z
-x,y,-z
-x,-y,-z
1/2+x,y,-z
1/2-x,y,z
x,-y,z
loop_
_atom_site_type_symbol
_atom_site_label
_atom_site_fract_x
_atom_site_fract_y
_atom_site_fract_z
Si Si1 0.572769 0.094257 0.350307
Si Si2 0.571102 0.600657 0.657282
Si Si3 0.574831 0.787966 0.350710
Si Si4 0.074224 0.500000 0.156362
Si Si5 0.427542 0.000000 0.846238
Si Si6 0.427664 0.691678 0.842938
O O1 0.500000 0.076714 0.500000
O O2 0.750000 0.091137 0.368620
O O3 0.520555 0.153321 0.307025
O O4 0.514836 0.052843 0.232140
O O5 0.500000 0.592780 0.500000
O O6 0.750000 0.606611 0.643513
O O7 0.523603 0.550986 0.754233
O O8 0.501351 0.651647 0.731087
O O9 0.500000 0.768522 0.500000
O O10 0.750000 0.787059 0.382910
O O11 0.534098 0.749687 0.217651
O O12 0.250000 0.500000 0.129881
O O13 0.000000 0.500000 0.000000
O O14 0.250000 0.000000 0.859495
O O15 0.500000 0.000000 0.000000
O O16 0.250000 0.681421 0.853659
O O17 0.500000 0.684821 0.000000
#
# Coordination Sequence:
#
# PCOD8212968 Si02
#       6
#     8   8   8   4   4   8
#     4   9  18  34  54  77 103 135 175 220 265 316
#     4  11  23  40  61  86 114 147 186 228 272 322
#     4   9  19  35  55  78 106 138 176 220 268 319
#     4  10  23  40  60  86 116 148 183 224 273 324
#     4  10  21  34  50  74 106 138 173 216 264 316
#     4  11  23  38  56  81 112 147 184 226 273 324
#
# _framework density 19.197883000000001
#
# number of rings (size 3 to 8) (size 9 to 14) (size 15 to 20)
#    0.000    2.000    0.000    3.000    0.000    8.000 
#    0.000    0.000    0.000    0.000    0.000    0.000 
#    0.000    0.000    0.000    0.000    0.000    0.000 
#
# Total GULP energy -496063.475406 kJ/mol
# GULP energy per Si atom -12401.586885 kJ/mol
# Density = 1.915419 g / cm^3
# Si number density = 19.197883 Si / 1000 Ang^3
#
#
#
# Elastic Constant Matrix: (Units=GPa)
#
#
# Indices 1 2 3 4 5 6 
#
# 1 57.2941 46.4453 53.2623 0.0000 0.0000 0.0000
# 2 46.4453 128.6652 82.6518 0.0000 0.0000 0.0000
# 3 53.2623 82.6518 167.1717 0.0000 0.0000 0.0000
# 4 0.0000 0.0000 0.0000 33.5063 0.0000 0.0000
# 5 0.0000 0.0000 0.0000 0.0000 39.7142 0.0000
# 6 0.0000 0.0000 0.0000 0.0000 0.0000 25.3619
#
#
#
# Elastic Compliance Matrix: (Units=1/GPa)
#
#
# Indices 1 2 3 4 5 6 
#
# 1 0.027997 -0.006413 -0.005750 0.000000 0.000000 0.000000
# 2 -0.006413 0.012858 -0.004314 0.000000 0.000000 0.000000
# 3 -0.005750 -0.004314 0.009947 0.000000 0.000000 0.000000
# 4 0.000000 0.000000 0.000000 0.029845 0.000000 0.000000
# 5 0.000000 0.000000 0.000000 0.000000 0.025180 0.000000
# 6 0.000000 0.000000 0.000000 0.000000 0.000000 0.039429
#
#
# Mechanical properties :
#
#
# Convention : Reuss Voigt Hill
#
# Bulk Modulus (GPa) = 56.02519 79.76108 67.89313
# Shear Modulus (GPa) = 27.15033 31.10126 29.12579
#
# Velocity S-wave (km/s) = 3.76471 4.02933 3.89927
# Velocity P-wave (km/s) = 6.93857 7.95515 7.46419
#
# Compressibility (1/GPa) = 0.01784912
#
# Stress axis : x y z
#
# Youngs Moduli (GPa) = 35.71750 77.77033 100.53643
#
# Poissons Ratio (x) = 0.49875 0.57803
# Poissons Ratio (y) = 0.22906 0.43372
# Poissons Ratio (z) = 0.20536 0.33551
#
# Static dielectric constant tensor:
#      x y z
#    x 3.509830 0.000000 0.000000 
#    y 0.000000 4.003700 0.000000 
#    z 0.000000 0.000000 3.448790 
# 
# 
# High freq. dielectric constant tensor:
#      x y z
#    x 1.746340 0.000000 0.000000 
#    y 0.000000 1.765680 0.000000 
#    z 0.000000 0.000000 1.749740 
# 
# From -- ./inp_files/5575.got.cif
#   From: 2010.03.12/outbox.cif.g09.slc.cpg/sg51_3_cif.got.tgz:5575.got - 2010.04.16 13:43:02.
