data_PCOD8212933
_publ_section_title
;
Structure prediction by ZEFSAII (Michael W. Deem and Ramdas Pophale) SiO2 
 PCOD8212933
Probable space group: P M M A
;
_chemical_formula_sum "Si O2"
_cell_formula_units_Z 64
_cell_length_a 18.744618
_cell_length_b 13.666057
_cell_length_c 15.028636
_cell_angle_alpha 90.000000
_cell_angle_beta 90.000000
_cell_angle_gamma 90.000000
_cell_volume 3849.810812
_symmetry_space_group_name_H-M "P M M A"
_symmetry_group_IT_number 51
_symmetry_cell_setting 'orthorhombic'
loop_
_space_group_symop_operation_xyz
x,y,z
1/2-x,-y,z
1/2+x,-y,-z
-x,y,-z
-x,-y,-z
1/2+x,y,-z
1/2-x,y,z
x,-y,z
loop_
_atom_site_type_symbol
_atom_site_label
_atom_site_fract_x
_atom_site_fract_y
_atom_site_fract_z
Si Si1 0.167964 0.698031 0.607544
Si Si2 0.666270 0.612211 0.886055
Si Si3 0.439590 0.109798 0.373094
Si Si4 0.600618 0.109602 0.429556
Si Si5 0.169740 0.612566 0.420564
Si Si6 0.918645 0.702186 0.732370
Si Si7 0.428094 0.385731 0.756423
Si Si8 0.828825 0.615704 0.086716
O O1 0.250000 0.674737 0.627886
O O2 0.152531 0.813632 0.619310
O O3 0.146225 0.672513 0.506984
O O4 0.121541 0.630431 0.671426
O O5 0.750000 0.622507 0.867824
O O6 0.642350 0.500000 0.867439
O O7 0.623861 0.687093 0.823762
O O8 0.647310 0.643199 0.986832
O O9 0.521429 0.131203 0.395512
O O10 0.394604 0.121571 0.463745
O O11 0.411521 0.185219 0.298734
O O12 0.429876 0.000000 0.335105
O O13 0.624540 0.000000 0.402784
O O14 0.250000 0.641697 0.390192
O O15 0.166344 0.500000 0.447066
O O16 0.114575 0.632066 0.342049
O O17 0.000533 0.675864 0.746874
O O18 0.446490 0.500000 0.765789
O O19 0.386660 0.344370 0.843321
O O20 0.750000 0.660079 0.107088
O O21 0.823337 0.500000 0.095409
#
# Coordination Sequence:
#
# PCOD8212933 Si02
#       8
#     8   8   8   8   8   8   8   8
#     4  11  21  33  48  69  98 135 173 208 244 292
#     4   9  18  33  53  75 100 133 167 197 239 296
#     4   9  18  33  53  71  95 129 163 204 256 302
#     4   9  17  34  53  69  91 127 172 215 254 290
#     4  10  21  34  46  65 101 143 170 192 233 292
#     4  12  20  31  51  75 101 126 163 209 247 293
#     4  11  22  32  47  74 103 134 168 205 244 287
#     4   8  16  33  52  69  97 135 168 200 240 285
#
# _framework density 16.624193000000002
#
# number of rings (size 3 to 8) (size 9 to 14) (size 15 to 20)
#    0.000    2.125    2.500    3.750    0.000    3.500 
#    0.000    3.125    0.000    1.500    0.000    2.625 
#    0.000    2.000    0.000    0.000    0.000    0.000 
#
# Total GULP energy -793568.807849 kJ/mol
# GULP energy per Si atom -12399.512623 kJ/mol
# Density = 1.658636 g / cm^3
# Si number density = 16.624193 Si / 1000 Ang^3
#
#
#
# Elastic Constant Matrix: (Units=GPa)
#
#
# Indices 1 2 3 4 5 6 
#
# 1 66.3171 17.0372 41.9048 0.0000 0.0000 0.0000
# 2 17.0372 70.8703 24.6547 0.0000 0.0000 0.0000
# 3 41.9048 24.6547 79.6687 0.0000 0.0000 0.0000
# 4 0.0000 0.0000 0.0000 16.7243 0.0000 0.0000
# 5 0.0000 0.0000 0.0000 0.0000 -6.1607 0.0000
# 6 0.0000 0.0000 0.0000 0.0000 0.0000 20.9122
#
#
#
# Elastic Compliance Matrix: (Units=1/GPa)
#
#
# Indices 1 2 3 4 5 6 
#
# 1 0.022720 -0.001462 -0.011498 0.000000 0.000000 0.000000
# 2 -0.001462 0.015907 -0.004154 0.000000 0.000000 0.000000
# 3 -0.011498 -0.004154 0.019885 0.000000 0.000000 0.000000
# 4 0.000000 0.000000 0.000000 0.059793 0.000000 0.000000
# 5 0.000000 0.000000 0.000000 0.000000 -0.162318 0.000000
# 6 0.000000 0.000000 0.000000 0.000000 0.000000 0.047819
#
#
# Mechanical properties :
#
#
# Convention : Reuss Voigt Hill
#
# Bulk Modulus (GPa) = 41.17803 42.67218 41.92510
# Shear Modulus (GPa) = 108.39327 15.17910 61.78619
#
# Velocity S-wave (km/s) = 8.08354 3.02499 6.10304
# Velocity P-wave (km/s) = 10.58058 6.15834 8.65661
#
# Compressibility (1/GPa) = 0.02428480
#
# Stress axis : x y z
#
# Youngs Moduli (GPa) = 44.01392 62.86656 50.28854
#
# Poissons Ratio (x) = 0.09190 0.57822
# Poissons Ratio (y) = 0.06434 0.20888
# Poissons Ratio (z) = 0.50608 0.26112
#
# Static dielectric constant tensor:
#      x y z
#    x 3.353170 0.000000 0.000000 
#    y 0.000000 2.988580 0.000000 
#    z 0.000000 0.000000 3.139830 
# 
# 
# High freq. dielectric constant tensor:
#      x y z
#    x 1.640480 0.000000 0.000000 
#    y 0.000000 1.618010 0.000000 
#    z 0.000000 0.000000 1.629530 
# 
# From -- ./inp_files/25326.got.cif
#   From: 2010.03.12/outbox.cif.g09.slc.cpg/sg51_13_cif.got.tgz:25326.got - 2010.04.16 13:43:02.
