data_PCOD8212657
_publ_section_title
;
Structure prediction by ZEFSAII (Michael W. Deem and Ramdas Pophale) SiO2 
 PCOD8212657
Probable space group: P M M A
;
_chemical_formula_sum "Si O2"
_cell_formula_units_Z 44
_cell_length_a 8.685237
_cell_length_b 27.880238
_cell_length_c 9.688326
_cell_angle_alpha 90.000000
_cell_angle_beta 90.000000
_cell_angle_gamma 90.000000
_cell_volume 2345.993986
_symmetry_space_group_name_H-M "P M M A"
_symmetry_group_IT_number 51
_symmetry_cell_setting 'orthorhombic'
loop_
_space_group_symop_operation_xyz
x,y,z
1/2-x,-y,z
1/2+x,-y,-z
-x,y,-z
-x,-y,-z
1/2+x,y,-z
1/2-x,y,z
x,-y,z
loop_
_atom_site_type_symbol
_atom_site_label
_atom_site_fract_x
_atom_site_fract_y
_atom_site_fract_z
Si Si1 0.067727 0.708301 0.147457
Si Si2 0.567865 0.896764 0.650773
Si Si3 0.067395 0.369275 0.652657
Si Si4 0.069906 0.000000 0.350926
Si Si5 0.071108 0.443942 0.145646
Si Si6 0.568708 0.817363 0.855880
O O1 0.250000 0.700736 0.144162
O O2 0.020275 0.763049 0.180569
O O3 0.994465 0.677182 0.268239
O O4 0.000000 0.692111 0.000000
O O5 0.500000 0.890783 0.500000
O O6 0.750000 0.891939 0.639862
O O7 0.499658 0.853882 0.743147
O O8 0.521216 0.949041 0.719134
O O9 0.250000 0.367562 0.644868
O O10 0.000000 0.369829 0.500000
O O11 0.014572 0.417211 0.730826
O O12 0.000000 0.000000 0.500000
O O13 0.250000 0.000000 0.370449
O O14 0.250000 0.429861 0.145499
O O15 0.044999 0.500000 0.170503
O O16 0.000000 0.427575 0.000000
O O17 0.750000 0.821876 0.865963
O O18 0.500000 0.833811 0.000000
#
# Coordination Sequence:
#
# PCOD8212657 Si02
#       6
#     8   8   8   4   8   8
#     4  10  20  37  58  79 104 138 179 220 263 316
#     4   9  17  30  48  72  98 129 168 210 256 306
#     4  12  25  40  58  82 113 146 180 222 270 318
#     4   8  14  26  45  66  94 128 164 206 251 302
#     4  10  21  39  63  89 116 148 186 224 262 310
#     4   9  19  34  52  74 102 134 170 211 257 309
#
# _framework density 18.755375999999998
#
# number of rings (size 3 to 8) (size 9 to 14) (size 15 to 20)
#    0.000    2.182    0.000    3.273    0.000    3.636 
#    0.000    2.273    0.000    0.000    0.000    0.000 
#    0.000    0.000    0.000    0.000    0.000    0.000 
#
# Total GULP energy -545422.253483 kJ/mol
# GULP energy per Si atom -12395.960306 kJ/mol
# Density = 1.871269 g / cm^3
# Si number density = 18.755376 Si / 1000 Ang^3
#
#
#
# Elastic Constant Matrix: (Units=GPa)
#
#
# Indices 1 2 3 4 5 6 
#
# 1 83.3432 42.7963 53.9027 0.0000 0.0000 0.0000
# 2 42.7963 129.7520 86.3103 0.0000 0.0000 0.0000
# 3 53.9027 86.3103 147.6784 0.0000 0.0000 0.0000
# 4 0.0000 0.0000 0.0000 19.8787 0.0000 0.0000
# 5 0.0000 0.0000 0.0000 0.0000 33.3663 0.0000
# 6 0.0000 0.0000 0.0000 0.0000 0.0000 25.9207
#
#
#
# Elastic Compliance Matrix: (Units=1/GPa)
#
#
# Indices 1 2 3 4 5 6 
#
# 1 0.016113 -0.002294 -0.004540 0.000000 0.000000 0.000000
# 2 -0.002294 0.012936 -0.006723 0.000000 0.000000 0.000000
# 3 -0.004540 -0.006723 0.012358 0.000000 0.000000 0.000000
# 4 0.000000 0.000000 0.000000 0.050305 0.000000 0.000000
# 5 0.000000 0.000000 0.000000 0.000000 0.029970 0.000000
# 6 0.000000 0.000000 0.000000 0.000000 0.000000 0.038579
#
#
# Mechanical properties :
#
#
# Convention : Reuss Voigt Hill
#
# Bulk Modulus (GPa) = 69.97097 80.75470 75.36284
# Shear Modulus (GPa) = 26.02259 27.68408 26.85333
#
# Velocity S-wave (km/s) = 3.72892 3.84612 3.78798
# Velocity P-wave (km/s) = 7.47850 7.92930 7.70720
#
# Compressibility (1/GPa) = 0.01429164
#
# Stress axis : x y z
#
# Youngs Moduli (GPa) = 62.06060 77.30502 80.92026
#
# Poissons Ratio (x) = 0.17737 0.36741
# Poissons Ratio (y) = 0.14239 0.54401
# Poissons Ratio (z) = 0.28178 0.51971
#
# Static dielectric constant tensor:
#      x y z
#    x 3.469260 0.000000 0.000000 
#    y 0.000000 3.987980 0.000000 
#    z 0.000000 0.000000 3.274990 
# 
# 
# High freq. dielectric constant tensor:
#      x y z
#    x 1.733260 0.000000 0.000000 
#    y 0.000000 1.750190 0.000000 
#    z 0.000000 0.000000 1.711840 
# 
# From -- ./inp_files/5874.got.cif
#   From: 2010.03.12/outbox.cif.g09.slc.cpg/sg51_3_cif.got.tgz:5874.got - 2010.04.16 13:43:02.
