data_PCOD8212679
_publ_section_title
;
Structure prediction by ZEFSAII (Michael W. Deem and Ramdas Pophale) SiO2 
 PCOD8212679
Probable space group: P M M A
;
_chemical_formula_sum "Si O2"
_cell_formula_units_Z 52
_cell_length_a 9.160297
_cell_length_b 19.618075
_cell_length_c 15.110067
_cell_angle_alpha 90.000000
_cell_angle_beta 90.000000
_cell_angle_gamma 90.000000
_cell_volume 2715.390757
_symmetry_space_group_name_H-M "P M M A"
_symmetry_group_IT_number 51
_symmetry_cell_setting 'orthorhombic'
loop_
_space_group_symop_operation_xyz
x,y,z
1/2-x,-y,z
1/2+x,-y,-z
-x,y,-z
-x,-y,-z
1/2+x,y,-z
1/2-x,y,z
x,-y,z
loop_
_atom_site_type_symbol
_atom_site_label
_atom_site_fract_x
_atom_site_fract_y
_atom_site_fract_z
Si Si1 0.085595 0.421814 0.162792
Si Si2 0.582640 0.500000 0.588535
Si Si3 0.082821 0.763669 0.591369
Si Si4 0.419916 0.077019 0.912230
Si Si5 0.082381 0.382844 0.675726
Si Si6 0.921677 0.194342 0.220094
Si Si7 0.585116 0.284721 0.914820
O O1 0.250000 0.422751 0.205165
O O2 0.043187 0.500000 0.135649
O O3 0.086529 0.367868 0.082028
O O4 0.960431 0.385472 0.221743
O O5 0.750000 0.500000 0.566546
O O6 0.500000 0.500000 0.500000
O O7 0.538651 0.566280 0.640601
O O8 0.250000 0.776060 0.567523
O O9 0.054993 0.687423 0.625625
O O10 0.034939 0.811087 0.675185
O O11 0.000000 0.780107 0.500000
O O12 0.250000 0.080470 0.933158
O O13 0.459747 0.123037 0.827376
O O14 0.470332 0.000000 0.889964
O O15 0.500000 0.104523 0.000000
O O16 0.250000 0.406622 0.663215
O O17 0.750000 0.213212 0.213933
O O18 0.010460 0.255128 0.173876
O O19 0.750000 0.256620 0.918971
O O20 0.500000 0.256538 0.000000
#
# Coordination Sequence:
#
# PCOD8212679 Si02
#       7
#     8   4   8   8   8   8   8
#     4  10  21  37  55  75 101 137 179 227 279 332
#     4  12  24  36  50  72 101 132 173 224 282 342
#     4  10  22  37  55  79 107 140 180 227 274 326
#     4   9  18  33  56  86 119 152 184 220 267 323
#     4  11  21  35  54  76 100 132 175 223 282 337
#     4  10  20  37  58  82 114 147 184 229 275 324
#     4  11  23  37  56  81 109 143 185 229 278 332
#
# _framework density 19.150099000000001
#
# number of rings (size 3 to 8) (size 9 to 14) (size 15 to 20)
#    0.000    1.692    2.308    2.538    0.000    5.846 
#    0.000    0.000    0.000    0.462    0.000    0.000 
#    0.000    0.000    0.000    0.000    0.000    0.000 
#
# Total GULP energy -644269.319081 kJ/mol
# GULP energy per Si atom -12389.794598 kJ/mol
# Density = 1.910651 g / cm^3
# Si number density = 19.150099 Si / 1000 Ang^3
#
#
#
# Elastic Constant Matrix: (Units=GPa)
#
#
# Indices 1 2 3 4 5 6 
#
# 1 95.7215 35.8509 54.4524 0.0000 0.0000 0.0000
# 2 35.8509 90.1115 48.3882 0.0000 0.0000 0.0000
# 3 54.4524 48.3882 127.7933 0.0000 0.0000 0.0000
# 4 0.0000 0.0000 0.0000 32.9447 0.0000 0.0000
# 5 0.0000 0.0000 0.0000 0.0000 29.4803 0.0000
# 6 0.0000 0.0000 0.0000 0.0000 0.0000 22.2916
#
#
#
# Elastic Compliance Matrix: (Units=1/GPa)
#
#
# Indices 1 2 3 4 5 6 
#
# 1 0.014433 -0.003062 -0.004990 0.000000 0.000000 0.000000
# 2 -0.003062 0.014579 -0.004216 0.000000 0.000000 0.000000
# 3 -0.004990 -0.004216 0.011548 0.000000 0.000000 0.000000
# 4 0.000000 0.000000 0.000000 0.030354 0.000000 0.000000
# 5 0.000000 0.000000 0.000000 0.000000 0.033921 0.000000
# 6 0.000000 0.000000 0.000000 0.000000 0.000000 0.044860
#
#
# Mechanical properties :
#
#
# Convention : Reuss Voigt Hill
#
# Bulk Modulus (GPa) = 62.40835 65.66769 64.03802
# Shear Modulus (GPa) = 27.84401 28.60564 28.22483
#
# Velocity S-wave (km/s) = 3.81726 3.86911 3.84327
# Velocity P-wave (km/s) = 7.21723 7.37058 7.29431
#
# Compressibility (1/GPa) = 0.01602350
#
# Stress axis : x y z
#
# Youngs Moduli (GPa) = 69.28724 68.58989 86.59794
#
# Poissons Ratio (x) = 0.21005 0.43214
# Poissons Ratio (y) = 0.21219 0.36506
# Poissons Ratio (z) = 0.34575 0.28914
#
# Static dielectric constant tensor:
#      x y z
#    x 3.542500 0.000000 0.000000 
#    y 0.000000 3.492610 0.000000 
#    z 0.000000 0.000000 3.427600 
# 
# 
# High freq. dielectric constant tensor:
#      x y z
#    x 1.748120 0.000000 0.000000 
#    y 0.000000 1.729310 0.000000 
#    z 0.000000 0.000000 1.736770 
# 
# From -- ./inp_files/21630.got.cif
#   From: 2010.03.12/outbox.cif.g09.slc.cpg/sg51_11_cif.got.tgz:21630.got - 2010.04.16 13:43:02.
