data_PCOD8212616
_publ_section_title
;
Structure prediction by ZEFSAII (Michael W. Deem and Ramdas Pophale) SiO2 
 PCOD8212616
Probable space group: P M M A
;
_chemical_formula_sum "Si O2"
_cell_formula_units_Z 64
_cell_length_a 29.531862
_cell_length_b 16.887690
_cell_length_c 6.633626
_cell_angle_alpha 90.000000
_cell_angle_beta 90.000000
_cell_angle_gamma 90.000000
_cell_volume 3308.354666
_symmetry_space_group_name_H-M "P M M A"
_symmetry_group_IT_number 51
_symmetry_cell_setting 'orthorhombic'
loop_
_space_group_symop_operation_xyz
x,y,z
1/2-x,-y,z
1/2+x,-y,-z
-x,y,-z
-x,-y,-z
1/2+x,y,-z
1/2-x,y,z
x,-y,z
loop_
_atom_site_type_symbol
_atom_site_label
_atom_site_fract_x
_atom_site_fract_y
_atom_site_fract_z
Si Si1 0.399507 0.695946 0.805852
Si Si2 0.879810 0.910346 0.736165
Si Si3 0.699641 0.707035 0.735892
Si Si4 0.122157 0.591265 0.153985
Si Si5 0.453482 0.339726 0.413685
Si Si6 0.044306 0.204588 0.109085
Si Si7 0.199494 0.855614 0.004948
Si Si8 0.834586 0.186252 0.393691
O O1 0.419495 0.668194 0.596905
O O2 0.362659 0.761713 0.762422
O O3 0.378638 0.620120 0.922024
O O4 0.436731 0.733143 0.950489
O O5 0.921586 0.866206 0.841804
O O6 0.867544 0.869110 0.524912
O O7 0.894800 0.000000 0.692572
O O8 0.836574 0.911398 0.883824
O O9 0.750000 0.669020 0.744792
O O10 0.661247 0.639844 0.728521
O O11 0.696581 0.759663 0.534234
O O12 0.691156 0.764405 0.926157
O O13 0.135608 0.500000 0.159361
O O14 0.072735 0.603847 0.255958
O O15 0.500000 0.378058 0.500000
O O16 0.465471 0.254460 0.313382
O O17 0.000000 0.167976 0.000000
O O18 0.250000 0.882509 0.069780
O O19 0.195850 0.864740 0.761737
#
# Coordination Sequence:
#
# PCOD8212616 Si02
#       8
#     8   8   8   8   8   8   8   8
#     4  11  19  38  63  86 110 153 201 240 281 343
#     4  11  24  38  55  88 128 154 186 244 303 351
#     4  10  20  36  61  89 114 149 201 248 283 338
#     4  11  24  38  56  89 126 156 189 238 303 360
#     4  11  21  38  65  89 113 151 198 248 288 340
#     4  11  21  36  64  90 112 151 204 241 282 351
#     4  10  20  37  62  86 111 151 200 245 288 342
#     4  11  18  38  64  86 111 153 209 242 280 341
#
# _framework density 19.344964000000001
#
# number of rings (size 3 to 8) (size 9 to 14) (size 15 to 20)
#    0.000    1.250    6.250    1.875    0.000    2.500 
#    0.000    0.625    0.000    1.125    0.000    0.000 
#    0.000    0.000    0.000    0.000    0.000    0.000 
#
# Total GULP energy -793441.505668 kJ/mol
# GULP energy per Si atom -12397.523526 kJ/mol
# Density = 1.930093 g / cm^3
# Si number density = 19.344964 Si / 1000 Ang^3
#
#
#
# Elastic Constant Matrix: (Units=GPa)
#
#
# Indices 1 2 3 4 5 6 
#
# 1 98.1267 27.2918 24.7596 0.0000 0.0000 0.0000
# 2 27.2918 84.1344 20.3067 0.0000 0.0000 0.0000
# 3 24.7596 20.3067 108.1491 0.0000 0.0000 0.0000
# 4 0.0000 0.0000 0.0000 14.3729 0.0000 0.0000
# 5 0.0000 0.0000 0.0000 0.0000 29.4648 0.0000
# 6 0.0000 0.0000 0.0000 0.0000 0.0000 8.8328
#
#
#
# Elastic Compliance Matrix: (Units=1/GPa)
#
#
# Indices 1 2 3 4 5 6 
#
# 1 0.011618 -0.003275 -0.002045 0.000000 0.000000 0.000000
# 2 -0.003275 0.013373 -0.001761 0.000000 0.000000 0.000000
# 3 -0.002045 -0.001761 0.010045 0.000000 0.000000 0.000000
# 4 0.000000 0.000000 0.000000 0.069575 0.000000 0.000000
# 5 0.000000 0.000000 0.000000 0.000000 0.033939 0.000000
# 6 0.000000 0.000000 0.000000 0.000000 0.000000 0.113214
#
#
# Mechanical properties :
#
#
# Convention : Reuss Voigt Hill
#
# Bulk Modulus (GPa) = 47.90638 48.34738 48.12688
# Shear Modulus (GPa) = 18.32277 25.07092 21.69684
#
# Velocity S-wave (km/s) = 3.08093 3.60389 3.35263
# Velocity P-wave (km/s) = 6.12162 6.50876 6.31815
#
# Compressibility (1/GPa) = 0.02087405
#
# Stress axis : x y z
#
# Youngs Moduli (GPa) = 86.07517 74.77638 99.54877
#
# Poissons Ratio (x) = 0.24490 0.20356
# Poissons Ratio (y) = 0.28190 0.17533
# Poissons Ratio (z) = 0.17601 0.13170
#
# Static dielectric constant tensor:
#      x y z
#    x 3.737910 0.000000 0.000000 
#    y 0.000000 3.121540 0.000000 
#    z 0.000000 0.000000 3.748200 
# 
# 
# High freq. dielectric constant tensor:
#      x y z
#    x 1.758530 0.000000 0.000000 
#    y 0.000000 1.710800 0.000000 
#    z 0.000000 0.000000 1.769560 
# 
# From -- ./inp_files/4105.got.cif
#   From: 2010.03.12/outbox.cif.g09.slc.cpg/sg51_3_cif.got.tgz:4105.got - 2010.04.16 13:43:02.
