data_PCOD8212292
_publ_section_title
;
Structure prediction by ZEFSAII (Michael W. Deem and Ramdas Pophale) SiO2 
 PCOD8212292
Probable space group: P M M A
;
_chemical_formula_sum "Si O2"
_cell_formula_units_Z 64
_cell_length_a 25.132749
_cell_length_b 8.921910
_cell_length_c 14.286583
_cell_angle_alpha 90.000000
_cell_angle_beta 90.000000
_cell_angle_gamma 90.000000
_cell_volume 3203.510860
_symmetry_space_group_name_H-M "P M M A"
_symmetry_group_IT_number 51
_symmetry_cell_setting 'orthorhombic'
loop_
_space_group_symop_operation_xyz
x,y,z
1/2-x,-y,z
1/2+x,-y,-z
-x,y,-z
-x,-y,-z
1/2+x,y,-z
1/2-x,y,z
x,-y,z
loop_
_atom_site_type_symbol
_atom_site_label
_atom_site_fract_x
_atom_site_fract_y
_atom_site_fract_z
Si Si1 0.401581 0.675191 0.398872
Si Si2 0.188927 0.175831 0.282615
Si Si3 0.529613 0.328317 0.907424
Si Si4 0.139685 0.176665 0.091086
Si Si5 0.599176 0.823319 0.404678
Si Si6 0.187610 0.171579 0.900203
Si Si7 0.008815 0.329806 0.707449
Si Si8 0.188294 0.324732 0.709842
O O1 0.394861 0.500000 0.417768
O O2 0.346810 0.736561 0.356850
O O3 0.415435 0.756445 0.495181
O O4 0.449900 0.710181 0.328691
O O5 0.250000 0.213125 0.305266
O O6 0.176091 0.231998 0.177347
O O7 0.176812 0.000000 0.292604
O O8 0.548414 0.500000 0.918790
O O9 0.580051 0.225607 0.889356
O O10 0.490184 0.310678 0.819481
O O11 0.500000 0.270857 0.000000
O O12 0.143396 0.000000 0.083839
O O13 0.160313 0.242826 0.992422
O O14 0.552155 0.782385 0.333448
O O15 0.655383 0.757941 0.370514
O O16 0.604261 0.000000 0.412350
O O17 0.250000 0.183465 0.916558
O O18 0.169133 0.268109 0.811335
O O19 0.170226 0.000000 0.882345
O O20 0.023778 0.500000 0.678734
O O21 0.250000 0.285652 0.693276
O O22 0.176921 0.500000 0.703800
#
# Coordination Sequence:
#
# PCOD8212292 Si02
#       8
#     8   8   8   8   8   8   8   8
#     4  11  23  42  65  89 120 157 201 252 306 358
#     4  10  21  38  61  90 125 165 206 251 306 363
#     4  10  22  39  59  87 122 162 199 240 297 356
#     4  10  20  35  58  87 121 159 201 247 295 354
#     4  12  26  41  64  93 120 154 199 248 305 368
#     4   9  18  34  56  84 119 157 196 239 290 348
#     4  10  22  42  64  89 123 161 200 246 300 357
#     4  10  22  41  63  88 120 158 200 247 299 355
#
# _framework density 19.978082000000001
#
# number of rings (size 3 to 8) (size 9 to 14) (size 15 to 20)
#    0.000    1.750    1.250    2.625    1.750    6.750 
#    0.000    0.000    0.000    2.250    0.000    0.000 
#    0.000    0.000    0.000    0.000    0.000    0.000 
#
# Total GULP energy -793904.437240 kJ/mol
# GULP energy per Si atom -12404.756832 kJ/mol
# Density = 1.993261 g / cm^3
# Si number density = 19.978082 Si / 1000 Ang^3
#
#
#
# Elastic Constant Matrix: (Units=GPa)
#
#
# Indices 1 2 3 4 5 6 
#
# 1 87.1831 37.7128 38.1505 0.0000 0.0000 0.0000
# 2 37.7128 67.9650 44.2100 0.0000 0.0000 0.0000
# 3 38.1505 44.2100 116.9105 0.0000 0.0000 0.0000
# 4 0.0000 0.0000 0.0000 31.7478 0.0000 0.0000
# 5 0.0000 0.0000 0.0000 0.0000 32.4718 0.0000
# 6 0.0000 0.0000 0.0000 0.0000 0.0000 31.8407
#
#
#
# Elastic Compliance Matrix: (Units=1/GPa)
#
#
# Indices 1 2 3 4 5 6 
#
# 1 0.015588 -0.007083 -0.002408 0.000000 0.000000 0.000000
# 2 -0.007083 0.022732 -0.006285 0.000000 0.000000 0.000000
# 3 -0.002408 -0.006285 0.011716 0.000000 0.000000 0.000000
# 4 0.000000 0.000000 0.000000 0.031498 0.000000 0.000000
# 5 0.000000 0.000000 0.000000 0.000000 0.030796 0.000000
# 6 0.000000 0.000000 0.000000 0.000000 0.000000 0.031406
#
#
# Mechanical properties :
#
#
# Convention : Reuss Voigt Hill
#
# Bulk Modulus (GPa) = 54.10155 56.91170 55.50663
# Shear Modulus (GPa) = 27.55593 29.34443 28.45018
#
# Velocity S-wave (km/s) = 3.71793 3.83669 3.77778
# Velocity P-wave (km/s) = 6.75055 6.94088 6.84638
#
# Compressibility (1/GPa) = 0.01848376
#
# Stress axis : x y z
#
# Youngs Moduli (GPa) = 64.15280 43.99125 85.35331
#
# Poissons Ratio (x) = 0.31159 0.20555
# Poissons Ratio (y) = 0.45439 0.53643
# Poissons Ratio (z) = 0.15449 0.27647
#
# Static dielectric constant tensor:
#      x y z
#    x 3.538880 0.000000 0.000000 
#    y 0.000000 3.543490 0.000000 
#    z 0.000000 0.000000 3.830760 
# 
# 
# High freq. dielectric constant tensor:
#      x y z
#    x 1.779530 0.000000 0.000000 
#    y 0.000000 1.771950 0.000000 
#    z 0.000000 0.000000 1.793010 
# 
# From -- ./inp_files/26350.got.cif
#   From: 2010.03.12/outbox.cif.g09.slc.cpg/sg51_14_cif.got.tgz:26350.got - 2010.04.16 13:43:02.
