data_PCOD8212462
_publ_section_title
;
Structure prediction by ZEFSAII (Michael W. Deem and Ramdas Pophale) SiO2 
 PCOD8212462
Probable space group: P M M A
;
_chemical_formula_sum "Si O2"
_cell_formula_units_Z 32
_cell_length_a 8.908229
_cell_length_b 12.591060
_cell_length_c 14.280501
_cell_angle_alpha 90.000000
_cell_angle_beta 90.000000
_cell_angle_gamma 90.000000
_cell_volume 1601.758769
_symmetry_space_group_name_H-M "P M M A"
_symmetry_group_IT_number 51
_symmetry_cell_setting 'orthorhombic'
loop_
_space_group_symop_operation_xyz
x,y,z
1/2-x,-y,z
1/2+x,-y,-z
-x,y,-z
-x,-y,-z
1/2+x,y,-z
1/2-x,y,z
x,-y,z
loop_
_atom_site_type_symbol
_atom_site_label
_atom_site_fract_x
_atom_site_fract_y
_atom_site_fract_z
Si Si1 0.921381 0.000000 0.596767
Si Si2 0.072220 0.297535 0.779634
Si Si3 0.426620 0.768489 0.398191
Si Si4 0.076204 0.122623 0.098809
Si Si5 0.426695 0.500000 0.898908
O O1 0.959280 0.112626 0.646021
O O2 0.000000 0.000000 0.500000
O O3 0.750000 0.000000 0.569981
O O4 0.250000 0.290279 0.771643
O O5 0.020002 0.396980 0.841788
O O6 0.003099 0.311693 0.675484
O O7 0.007671 0.190680 0.823909
O O8 0.500000 0.753126 0.500000
O O9 0.250000 0.744990 0.405997
O O10 0.250000 0.155919 0.092726
O O11 0.059370 0.000000 0.128248
O O12 0.000000 0.145782 0.000000
O O13 0.250000 0.500000 0.913101
O O14 0.500000 0.500000 0.000000
#
# Coordination Sequence:
#
# PCOD8212462 Si02
#       5
#     4   8   8   8   4
#     4   8  16  30  50  76 111 150 189 230 278 332
#     4  11  23  39  60  87 117 154 199 245 296 353
#     4  10  20  36  57  85 120 159 199 244 293 347
#     4  10  21  37  57  84 119 154 190 237 294 356
#     4  10  24  44  65  88 117 150 195 250 300 352
#
# _framework density 19.978037
#
# number of rings (size 3 to 8) (size 9 to 14) (size 15 to 20)
#    0.000    2.000    0.000    3.000    1.750    6.500 
#    0.000    0.625    0.000    0.000    0.000    0.000 
#    0.000    0.000    0.000    0.000    0.000    0.000 
#
# Total GULP energy -396646.166329 kJ/mol
# GULP energy per Si atom -12395.192698 kJ/mol
# Density = 1.993257 g / cm^3
# Si number density = 19.978037 Si / 1000 Ang^3
#
#
#
# Elastic Constant Matrix: (Units=GPa)
#
#
# Indices 1 2 3 4 5 6 
#
# 1 103.8407 48.1515 68.3958 0.0000 0.0000 0.0000
# 2 48.1515 78.5579 75.9752 0.0000 0.0000 0.0000
# 3 68.3958 75.9752 149.6397 0.0000 0.0000 0.0000
# 4 0.0000 0.0000 0.0000 31.2752 0.0000 0.0000
# 5 0.0000 0.0000 0.0000 0.0000 40.0216 0.0000
# 6 0.0000 0.0000 0.0000 0.0000 0.0000 21.7374
#
#
#
# Elastic Compliance Matrix: (Units=1/GPa)
#
#
# Indices 1 2 3 4 5 6 
#
# 1 0.014691 -0.004933 -0.004210 0.000000 0.000000 0.000000
# 2 -0.004933 0.026666 -0.011285 0.000000 0.000000 0.000000
# 3 -0.004210 -0.011285 0.014336 0.000000 0.000000 0.000000
# 4 0.000000 0.000000 0.000000 0.031974 0.000000 0.000000
# 5 0.000000 0.000000 0.000000 0.000000 0.024987 0.000000
# 6 0.000000 0.000000 0.000000 0.000000 0.000000 0.046004
#
#
# Mechanical properties :
#
#
# Convention : Reuss Voigt Hill
#
# Bulk Modulus (GPa) = 67.39159 79.67592 73.53376
# Shear Modulus (GPa) = 24.45479 27.90788 26.18134
#
# Velocity S-wave (km/s) = 3.50249 3.74160 3.62402
# Velocity P-wave (km/s) = 7.08256 7.65732 7.37554
#
# Compressibility (1/GPa) = 0.01483865
#
# Stress axis : x y z
#
# Youngs Moduli (GPa) = 68.07110 37.50030 69.75228
#
# Poissons Ratio (x) = 0.18498 0.29367
# Poissons Ratio (y) = 0.33577 0.78712
# Poissons Ratio (z) = 0.28659 0.42317
#
# Static dielectric constant tensor:
#      x y z
#    x 3.655650 0.000000 0.000000 
#    y 0.000000 3.799120 0.000000 
#    z 0.000000 0.000000 3.529070 
# 
# 
# High freq. dielectric constant tensor:
#      x y z
#    x 1.789110 0.000000 0.000000 
#    y 0.000000 1.767640 0.000000 
#    z 0.000000 0.000000 1.785930 
# 
# From -- ./inp_files/20105.got.cif
#   From: 2010.03.12/outbox.cif.g09.slc.cpg/sg51_11_cif.got.tgz:20105.got - 2010.04.16 13:43:02.
