data_PCOD8212951
_publ_section_title
;
Structure prediction by ZEFSAII (Michael W. Deem and Ramdas Pophale) SiO2 
 PCOD8212951
Probable space group: P M M A
;
_chemical_formula_sum "Si O2"
_cell_formula_units_Z 40
_cell_length_a 9.626795
_cell_length_b 25.428913
_cell_length_c 9.019291
_cell_angle_alpha 90.000000
_cell_angle_beta 90.000000
_cell_angle_gamma 90.000000
_cell_volume 2207.912809
_symmetry_space_group_name_H-M "P M M A"
_symmetry_group_IT_number 51
_symmetry_cell_setting 'orthorhombic'
loop_
_space_group_symop_operation_xyz
x,y,z
1/2-x,-y,z
1/2+x,-y,-z
-x,y,-z
-x,-y,-z
1/2+x,y,-z
1/2-x,y,z
x,-y,z
loop_
_atom_site_type_symbol
_atom_site_label
_atom_site_fract_x
_atom_site_fract_y
_atom_site_fract_z
Si Si1 0.411467 0.598504 0.648390
Si Si2 0.910305 0.788425 0.358107
Si Si3 0.590364 0.092126 0.360599
Si Si4 0.411877 0.500000 0.851023
Si Si5 0.911073 0.304020 0.146378
Si Si6 0.089809 0.000000 0.856554
O O1 0.500000 0.594739 0.500000
O O2 0.250000 0.596268 0.603907
O O3 0.451979 0.550794 0.755589
O O4 0.448896 0.652000 0.733145
O O5 0.750000 0.780534 0.403003
O O6 0.942279 0.848292 0.309755
O O7 0.949075 0.752190 0.218388
O O8 0.000000 0.771748 0.500000
O O9 0.500000 0.075566 0.500000
O O10 0.750000 0.085479 0.407221
O O11 0.550028 0.052793 0.230369
O O12 0.250000 0.500000 0.894530
O O13 0.500000 0.500000 0.000000
O O14 0.750000 0.307376 0.101011
O O15 0.000000 0.312850 0.000000
O O16 0.250000 0.000000 0.901122
O O17 0.000000 0.000000 0.000000
#
# Coordination Sequence:
#
# PCOD8212951 Si02
#       6
#     8   8   8   4   8   4
#     4  10  21  36  54  77 103 132 169 209 247 292
#     4   9  18  33  52  74  99 127 162 203 245 291
#     4   9  18  33  52  73  97 126 162 203 244 289
#     4  10  21  36  54  78 106 134 167 206 248 296
#     4  10  21  35  51  74 103 133 166 204 246 293
#     4  10  21  34  48  70 100 130 161 200 244 290
#
# _framework density 18.116655999999999
#
# number of rings (size 3 to 8) (size 9 to 14) (size 15 to 20)
#    0.000    2.400    0.000    1.800    0.000    4.000 
#    0.000    0.000    0.000    0.000    0.000    0.000 
#    0.000    0.000    0.000    0.000    0.000    0.000 
#
# Total GULP energy -496114.845408 kJ/mol
# GULP energy per Si atom -12402.871135 kJ/mol
# Density = 1.807542 g / cm^3
# Si number density = 18.116656 Si / 1000 Ang^3
#
#
#
# Elastic Constant Matrix: (Units=GPa)
#
#
# Indices 1 2 3 4 5 6 
#
# 1 77.1332 55.2713 88.2625 0.0000 0.0000 0.0000
# 2 55.2713 118.8176 78.6790 0.0000 0.0000 0.0000
# 3 88.2625 78.6790 158.2136 0.0000 0.0000 0.0000
# 4 0.0000 0.0000 0.0000 20.5631 0.0000 0.0000
# 5 0.0000 0.0000 0.0000 0.0000 44.9051 0.0000
# 6 0.0000 0.0000 0.0000 0.0000 0.0000 14.5415
#
#
#
# Elastic Compliance Matrix: (Units=1/GPa)
#
#
# Indices 1 2 3 4 5 6 
#
# 1 0.038067 -0.005435 -0.018533 0.000000 0.000000 0.000000
# 2 -0.005435 0.013325 -0.003594 0.000000 0.000000 0.000000
# 3 -0.018533 -0.003594 0.018447 0.000000 0.000000 0.000000
# 4 0.000000 0.000000 0.000000 0.048631 0.000000 0.000000
# 5 0.000000 0.000000 0.000000 0.000000 0.022269 0.000000
# 6 0.000000 0.000000 0.000000 0.000000 0.000000 0.068769
#
#
# Mechanical properties :
#
#
# Convention : Reuss Voigt Hill
#
# Bulk Modulus (GPa) = 67.96722 88.73222 78.34972
# Shear Modulus (GPa) = 18.55036 24.79873 21.67454
#
# Velocity S-wave (km/s) = 3.20338 3.70379 3.46264
# Velocity P-wave (km/s) = 7.16101 8.20825 7.70245
#
# Compressibility (1/GPa) = 0.01471297
#
# Stress axis : x y z
#
# Youngs Moduli (GPa) = 26.26962 75.04921 54.20937
#
# Poissons Ratio (x) = 0.40792 1.00468
# Poissons Ratio (y) = 0.14279 0.19483
# Poissons Ratio (z) = 0.48686 0.26973
#
# Static dielectric constant tensor:
#      x y z
#    x 3.327490 0.000000 0.000000 
#    y 0.000000 3.722750 0.000000 
#    z 0.000000 0.000000 3.125470 
# 
# 
# High freq. dielectric constant tensor:
#      x y z
#    x 1.700030 0.000000 0.000000 
#    y 0.000000 1.723540 0.000000 
#    z 0.000000 0.000000 1.692810 
# 
# From -- ./inp_files/5591.got.cif
#   From: 2010.03.12/outbox.cif.g09.slc.cpg/sg51_3_cif.got.tgz:5591.got - 2010.04.16 13:43:02.
