data_PCOD8212131
_publ_section_title
;
Structure prediction by ZEFSAII (Michael W. Deem and Ramdas Pophale) SiO2 
 PCOD8212131
Probable space group: P M M A
;
_chemical_formula_sum "Si O2"
_cell_formula_units_Z 56
_cell_length_a 16.913815
_cell_length_b 17.884923
_cell_length_c 9.632229
_cell_angle_alpha 90.000000
_cell_angle_beta 90.000000
_cell_angle_gamma 90.000000
_cell_volume 2913.771223
_symmetry_space_group_name_H-M "P M M A"
_symmetry_group_IT_number 51
_symmetry_cell_setting 'orthorhombic'
loop_
_space_group_symop_operation_xyz
x,y,z
1/2-x,-y,z
1/2+x,-y,-z
-x,y,-z
-x,-y,-z
1/2+x,y,-z
1/2-x,y,z
x,-y,z
loop_
_atom_site_type_symbol
_atom_site_label
_atom_site_fract_x
_atom_site_fract_y
_atom_site_fract_z
Si Si1 0.092222 0.082649 0.475850
Si Si2 0.092145 0.198715 0.016717
Si Si3 0.407456 0.585868 0.022017
Si Si4 0.658538 0.302713 0.199664
Si Si5 0.156814 0.306065 0.240329
Si Si6 0.592916 0.247369 0.476097
Si Si7 0.836952 0.084341 0.819972
O O1 0.124443 0.160515 0.545687
O O2 0.108765 0.094705 0.314318
O O3 0.000000 0.077088 0.500000
O O4 0.128945 0.000000 0.523256
O O5 0.123727 0.235465 0.158148
O O6 0.114902 0.113210 0.044529
O O7 0.139573 0.227571 0.884650
O O8 0.000000 0.214118 0.000000
O O9 0.381534 0.500000 0.020933
O O10 0.382951 0.620401 0.170936
O O11 0.500000 0.596669 0.000000
O O12 0.364688 0.626013 0.892960
O O13 0.750000 0.306823 0.237414
O O14 0.609822 0.297842 0.341741
O O15 0.250000 0.314933 0.223492
O O16 0.134596 0.292905 0.400023
O O17 0.500000 0.244080 0.500000
O O18 0.750000 0.122825 0.798910
O O19 0.821595 0.000000 0.856069
#
# Coordination Sequence:
#
# PCOD8212131 Si02
#       7
#     8   8   8   8   8   8   8
#     4   9  19  34  56  82 112 151 197 244 295 347
#     4  11  21  35  56  79 110 149 192 236 283 345
#     4  10  21  40  65  90 118 152 190 231 283 350
#     4  11  23  37  57  87 120 151 186 234 293 345
#     4  11  21  36  60  86 114 151 197 241 280 336
#     4  11  21  36  59  85 119 154 194 246 292 346
#     4  10  20  35  56  80 107 146 195 244 294 348
#
# _framework density 19.219079000000001
#
# number of rings (size 3 to 8) (size 9 to 14) (size 15 to 20)
#    0.000    1.571    1.429    6.429    2.000    2.000 
#    0.000    1.429    0.000    5.143    0.000    0.000 
#    0.000    0.000    0.000    0.000    0.000    0.000 
#
# Total GULP energy -693872.748607 kJ/mol
# GULP energy per Si atom -12390.584797 kJ/mol
# Density = 1.917534 g / cm^3
# Si number density = 19.219079 Si / 1000 Ang^3
#
#
#
# Elastic Constant Matrix: (Units=GPa)
#
#
# Indices 1 2 3 4 5 6 
#
# 1 92.8616 41.3175 26.8643 0.0000 0.0000 0.0000
# 2 41.3175 101.6888 47.7063 0.0000 0.0000 0.0000
# 3 26.8643 47.7063 103.4745 0.0000 0.0000 0.0000
# 4 0.0000 0.0000 0.0000 30.0004 0.0000 0.0000
# 5 0.0000 0.0000 0.0000 0.0000 31.2748 0.0000
# 6 0.0000 0.0000 0.0000 0.0000 0.0000 -38.4819
#
#
#
# Elastic Compliance Matrix: (Units=1/GPa)
#
#
# Indices 1 2 3 4 5 6 
#
# 1 0.013265 -0.004816 -0.001224 0.000000 0.000000 0.000000
# 2 -0.004816 0.014296 -0.005341 0.000000 0.000000 0.000000
# 3 -0.001224 -0.005341 0.012444 0.000000 0.000000 0.000000
# 4 0.000000 0.000000 0.000000 0.033333 0.000000 0.000000
# 5 0.000000 0.000000 0.000000 0.000000 0.031975 0.000000
# 6 0.000000 0.000000 0.000000 0.000000 0.000000 -0.025986
#
#
# Mechanical properties :
#
#
# Convention : Reuss Voigt Hill
#
# Bulk Modulus (GPa) = 57.98729 58.86679 58.42704
# Shear Modulus (GPa) = 46.36636 16.70110 31.53373
#
# Velocity S-wave (km/s) = 4.91707 2.95105 4.05501
# Velocity P-wave (km/s) = 7.90405 6.50442 7.23814
#
# Compressibility (1/GPa) = 0.01724516
#
# Stress axis : x y z
#
# Youngs Moduli (GPa) = 75.38368 69.94802 80.35792
#
# Poissons Ratio (x) = 0.33686 0.09833
# Poissons Ratio (y) = 0.36304 0.42919
# Poissons Ratio (z) = 0.09225 0.37359
#
# Static dielectric constant tensor:
#      x y z
#    x 3.608320 0.000000 0.000000 
#    y 0.000000 3.825640 0.000000 
#    z 0.000000 0.000000 3.511340 
# 
# 
# High freq. dielectric constant tensor:
#      x y z
#    x 1.756440 0.000000 0.000000 
#    y 0.000000 1.746970 0.000000 
#    z 0.000000 0.000000 1.734220 
# 
# From -- ./inp_files/8544.got.cif
#   From: 2010.03.12/outbox.cif.g09.slc.cpg/sg51_5_cif.got.tgz:8544.got - 2010.04.16 13:43:02.
