data_PCOD8212779
_publ_section_title
;
Structure prediction by ZEFSAII (Michael W. Deem and Ramdas Pophale) SiO2 
 PCOD8212779
Probable space group: P M M A
;
_chemical_formula_sum "Si O2"
_cell_formula_units_Z 48
_cell_length_a 19.956552
_cell_length_b 13.622221
_cell_length_c 9.260111
_cell_angle_alpha 90.000000
_cell_angle_beta 90.000000
_cell_angle_gamma 90.000000
_cell_volume 2517.384897
_symmetry_space_group_name_H-M "P M M A"
_symmetry_group_IT_number 51
_symmetry_cell_setting 'orthorhombic'
loop_
_space_group_symop_operation_xyz
x,y,z
1/2-x,-y,z
1/2+x,-y,-z
-x,y,-z
-x,-y,-z
1/2+x,y,-z
1/2-x,y,z
x,-y,z
loop_
_atom_site_type_symbol
_atom_site_label
_atom_site_fract_x
_atom_site_fract_y
_atom_site_fract_z
Si Si1 0.326932 0.387956 0.885308
Si Si2 0.636047 0.213211 0.293093
Si Si3 0.250000 0.115616 0.200750
Si Si4 0.012667 0.762354 0.338999
Si Si5 0.867114 0.115269 0.592258
Si Si6 0.750000 0.885047 0.116327
Si Si7 0.061198 0.387587 0.107544
O O1 0.250000 0.371756 0.929512
O O2 0.342797 0.500000 0.843624
O O3 0.344437 0.325938 0.741355
O O4 0.371463 0.355567 0.022795
O O5 0.556377 0.201668 0.264340
O O6 0.652944 0.181967 0.455605
O O7 0.680710 0.146005 0.189954
O O8 0.183878 0.148586 0.284650
O O9 0.250000 0.000000 0.184220
O O10 0.250000 0.163735 0.042442
O O11 0.058515 0.859521 0.352325
O O12 0.050840 0.679663 0.247522
O O13 0.000000 0.718804 0.500000
O O14 0.862340 0.000000 0.552969
O O15 0.750000 0.000000 0.110138
O O16 0.066195 0.500000 0.160518
O O17 0.000000 0.372560 0.000000
#
# Coordination Sequence:
#
# PCOD8212779 Si02
#       7
#     8   8   4   8   8   4   8
#     4  10  21  37  60  91 122 151 192 242 297 351
#     4  11  21  36  60  88 112 154 199 243 290 351
#     4   9  21  39  57  81 112 150 193 240 297 349
#     4  10  23  37  57  89 117 157 202 244 293 351
#     4  10  22  40  59  82 119 162 198 241 299 355
#     4  11  23  37  58  89 116 148 200 252 292 345
#     4  10  20  37  62  88 120 157 193 239 297 357
#
# _framework density 19.067406999999999
#
# number of rings (size 3 to 8) (size 9 to 14) (size 15 to 20)
#    0.000    1.833    2.500    1.000    2.333    4.667 
#    0.000    2.500    0.000    3.500    0.000    0.000 
#    0.000    0.000    0.000    0.000    0.000    0.000 
#
# Total GULP energy -595083.356398 kJ/mol
# GULP energy per Si atom -12397.569925 kJ/mol
# Density = 1.902401 g / cm^3
# Si number density = 19.067407 Si / 1000 Ang^3
#
#
#
# Elastic Constant Matrix: (Units=GPa)
#
#
# Indices 1 2 3 4 5 6 
#
# 1 152.8643 49.1296 74.5997 0.0000 0.0000 0.0000
# 2 49.1296 83.6665 58.5291 0.0000 0.0000 0.0000
# 3 74.5997 58.5291 120.6375 0.0000 0.0000 0.0000
# 4 0.0000 0.0000 0.0000 34.0614 0.0000 0.0000
# 5 0.0000 0.0000 0.0000 0.0000 24.4737 0.0000
# 6 0.0000 0.0000 0.0000 0.0000 0.0000 31.5278
#
#
#
# Elastic Compliance Matrix: (Units=1/GPa)
#
#
# Indices 1 2 3 4 5 6 
#
# 1 0.009643 -0.002257 -0.004868 0.000000 0.000000 0.000000
# 2 -0.002257 0.018621 -0.007639 0.000000 0.000000 0.000000
# 3 -0.004868 -0.007639 0.015005 0.000000 0.000000 0.000000
# 4 0.000000 0.000000 0.000000 0.029359 0.000000 0.000000
# 5 0.000000 0.000000 0.000000 0.000000 0.040860 0.000000
# 6 0.000000 0.000000 0.000000 0.000000 0.000000 0.031718
#
#
# Mechanical properties :
#
#
# Convention : Reuss Voigt Hill
#
# Bulk Modulus (GPa) = 72.76758 80.18724 76.47741
# Shear Modulus (GPa) = 27.88403 29.67324 28.77864
#
# Velocity S-wave (km/s) = 3.82827 3.94919 3.88920
# Velocity P-wave (km/s) = 7.60178 7.93352 7.76942
#
# Compressibility (1/GPa) = 0.01374238
#
# Stress axis : x y z
#
# Youngs Moduli (GPa) = 103.70557 53.70230 66.64224
#
# Poissons Ratio (x) = 0.12120 0.32440
# Poissons Ratio (y) = 0.23406 0.50906
# Poissons Ratio (z) = 0.50482 0.41022
#
# Static dielectric constant tensor:
#      x y z
#    x 3.827170 0.000000 0.000000 
#    y 0.000000 3.479360 0.000000 
#    z 0.000000 0.000000 3.561180 
# 
# 
# High freq. dielectric constant tensor:
#      x y z
#    x 1.761180 0.000000 0.000000 
#    y 0.000000 1.734470 0.000000 
#    z 0.000000 0.000000 1.732480 
# 
# From -- ./inp_files/9689.got.cif
#   From: 2010.03.12/outbox.cif.g09.slc.cpg/sg51_5_cif.got.tgz:9689.got - 2010.04.16 13:43:02.
