data_PCOD8212261
_publ_section_title
;
Structure prediction by ZEFSAII (Michael W. Deem and Ramdas Pophale) SiO2 
 PCOD8212261
Probable space group: P M M A
;
_chemical_formula_sum "Si O2"
_cell_formula_units_Z 48
_cell_length_a 16.170171
_cell_length_b 8.750352
_cell_length_c 17.810420
_cell_angle_alpha 90.000000
_cell_angle_beta 90.000000
_cell_angle_gamma 90.000000
_cell_volume 2520.079824
_symmetry_space_group_name_H-M "P M M A"
_symmetry_group_IT_number 51
_symmetry_cell_setting 'orthorhombic'
loop_
_space_group_symop_operation_xyz
x,y,z
1/2-x,-y,z
1/2+x,-y,-z
-x,y,-z
-x,-y,-z
1/2+x,y,-z
1/2-x,y,z
x,-y,z
loop_
_atom_site_type_symbol
_atom_site_label
_atom_site_fract_x
_atom_site_fract_y
_atom_site_fract_z
Si Si1 0.156794 0.175897 0.333662
Si Si2 0.409575 0.680736 0.028966
Si Si3 0.750000 0.820029 0.226345
Si Si4 0.017201 0.320471 0.418217
Si Si5 0.750000 0.820012 0.051611
Si Si6 0.918152 0.681763 0.274370
Si Si7 0.559347 0.177394 0.816055
O O1 0.250000 0.233177 0.335493
O O2 0.109516 0.276183 0.394903
O O3 0.123678 0.204080 0.250448
O O4 0.147549 0.000000 0.356526
O O5 0.400959 0.500000 0.023576
O O6 0.400895 0.735586 0.114098
O O7 0.500000 0.735362 0.000000
O O8 0.334299 0.752541 0.982368
O O9 0.750000 0.777139 0.139028
O O10 0.826942 0.745730 0.268299
O O11 0.750000 0.000000 0.239063
O O12 0.008728 0.500000 0.423574
O O13 0.000000 0.246620 0.500000
O O14 0.953943 0.259576 0.354491
O O15 0.750000 0.000000 0.037338
O O16 0.919714 0.500000 0.267951
O O17 0.971242 0.750287 0.205780
O O18 0.546163 0.000000 0.835397
#
# Coordination Sequence:
#
# PCOD8212261 Si02
#       7
#     8   8   4   8   4   8   8
#     4   9  19  35  55  82 113 145 182 224 274 328
#     4  11  24  40  58  84 117 152 193 242 295 347
#     4  11  23  39  59  83 112 145 192 239 281 340
#     4   9  19  37  58  82 113 147 185 227 273 328
#     4  11  25  41  59  83 114 153 196 243 295 348
#     4  10  20  36  59  84 112 150 191 233 284 334
#     4  10  20  35  58  82 112 150 190 234 281 336
#
# _framework density 19.047014000000001
#
# number of rings (size 3 to 8) (size 9 to 14) (size 15 to 20)
#    0.000    2.000    0.000    3.000    1.167    7.333 
#    1.500    0.000    0.000    0.000    0.000    0.000 
#    0.000    0.000    0.000    0.000    0.000    0.000 
#
# Total GULP energy -595299.278288 kJ/mol
# GULP energy per Si atom -12402.068298 kJ/mol
# Density = 1.900366 g / cm^3
# Si number density = 19.047014 Si / 1000 Ang^3
#
#
#
# Elastic Constant Matrix: (Units=GPa)
#
#
# Indices 1 2 3 4 5 6 
#
# 1 159.8617 38.7067 59.5491 0.0000 0.0000 0.0000
# 2 38.7067 49.0452 35.3559 0.0000 0.0000 0.0000
# 3 59.5491 35.3559 108.8601 0.0000 0.0000 0.0000
# 4 0.0000 0.0000 0.0000 26.3769 0.0000 0.0000
# 5 0.0000 0.0000 0.0000 0.0000 19.0031 0.0000
# 6 0.0000 0.0000 0.0000 0.0000 0.0000 36.6016
#
#
#
# Elastic Compliance Matrix: (Units=1/GPa)
#
#
# Indices 1 2 3 4 5 6 
#
# 1 0.008525 -0.004395 -0.003236 0.000000 0.000000 0.000000
# 2 -0.004395 0.028889 -0.006978 0.000000 0.000000 0.000000
# 3 -0.003236 -0.006978 0.013223 0.000000 0.000000 0.000000
# 4 0.000000 0.000000 0.000000 0.037912 0.000000 0.000000
# 5 0.000000 0.000000 0.000000 0.000000 0.052623 0.000000
# 6 0.000000 0.000000 0.000000 0.000000 0.000000 0.027321
#
#
# Mechanical properties :
#
#
# Convention : Reuss Voigt Hill
#
# Bulk Modulus (GPa) = 46.69081 64.99895 55.84488
# Shear Modulus (GPa) = 24.40809 28.67335 26.54072
#
# Velocity S-wave (km/s) = 3.58364 3.88416 3.73692
# Velocity P-wave (km/s) = 6.45678 7.36988 6.92839
#
# Compressibility (1/GPa) = 0.02141749
#
# Stress axis : x y z
#
# Youngs Moduli (GPa) = 117.30214 34.61577 75.62811
#
# Poissons Ratio (x) = 0.15215 0.24472
# Poissons Ratio (y) = 0.51558 0.52775
# Poissons Ratio (z) = 0.37957 0.24156
#
# Static dielectric constant tensor:
#      x y z
#    x 3.583290 0.000000 0.000000 
#    y 0.000000 3.492210 0.000000 
#    z 0.000000 0.000000 3.679830 
# 
# 
# High freq. dielectric constant tensor:
#      x y z
#    x 1.747760 0.000000 0.000000 
#    y 0.000000 1.744320 0.000000 
#    z 0.000000 0.000000 1.743170 
# 
# From -- ./inp_files/29585.got.cif
#   From: 2010.03.12/outbox.cif.g09.slc.cpg/sg51_15_cif.got.tgz:29585.got - 2010.04.16 13:43:02.
