data_PCOD8212929
_publ_section_title
;
Structure prediction by ZEFSAII (Michael W. Deem and Ramdas Pophale) SiO2 
 PCOD8212929
Probable space group: P M M A
;
_chemical_formula_sum "Si O2"
_cell_formula_units_Z 64
_cell_length_a 8.872357
_cell_length_b 20.122619
_cell_length_c 20.046406
_cell_angle_alpha 90.000000
_cell_angle_beta 90.000000
_cell_angle_gamma 90.000000
_cell_volume 3578.986289
_symmetry_space_group_name_H-M "P M M A"
_symmetry_group_IT_number 51
_symmetry_cell_setting 'orthorhombic'
loop_
_space_group_symop_operation_xyz
x,y,z
1/2-x,-y,z
1/2+x,-y,-z
-x,y,-z
-x,-y,-z
1/2+x,y,-z
1/2-x,y,z
x,-y,z
loop_
_atom_site_type_symbol
_atom_site_label
_atom_site_fract_x
_atom_site_fract_y
_atom_site_fract_z
Si Si1 0.076353 0.429013 0.103657
Si Si2 0.074427 0.922581 0.569442
Si Si3 0.573055 0.751098 0.791163
Si Si4 0.071906 0.181984 0.339069
Si Si5 0.929528 0.289076 0.432019
Si Si6 0.572910 0.428402 0.381999
Si Si7 0.429475 0.285289 0.066829
Si Si8 0.077177 0.389854 0.251170
O O1 0.250000 0.428152 0.083541
O O2 0.004683 0.500000 0.078010
O O3 0.005705 0.361322 0.073231
O O4 0.059147 0.429871 0.183084
O O5 0.250000 0.904829 0.565797
O O6 0.000000 0.899260 0.500000
O O7 0.999506 0.885203 0.631857
O O8 0.045472 0.000000 0.581730
O O9 0.750000 0.739561 0.797260
O O10 0.536518 0.812759 0.741143
O O11 0.515077 0.757813 0.868122
O O12 0.507844 0.684071 0.758223
O O13 0.250000 0.182063 0.352312
O O14 0.996436 0.245755 0.372549
O O15 0.750000 0.281881 0.433485
O O16 0.988027 0.365154 0.423375
O O17 0.000000 0.261025 0.500000
O O18 0.750000 0.422324 0.379474
O O19 0.524224 0.500000 0.413997
O O20 0.515900 0.427902 0.306712
O O21 0.250000 0.284214 0.061447
O O22 0.500000 0.253240 0.000000
O O23 0.250000 0.386678 0.274802
#
# Coordination Sequence:
#
# PCOD8212929 Si02
#       8
#     8   8   8   8   8   8   8   8
#     4   8  14  24  40  61  84 113 150 193 240 296
#     4  10  21  37  56  81 115 150 179 205 238 285
#     4   8  16  30  49  71  96 124 158 203 248 291
#     4  11  20  34  57  80 103 132 170 211 248 290
#     4  11  23  37  51  68  93 125 162 206 255 306
#     4  10  21  34  46  63  89 117 148 200 265 312
#     4   9  17  30  45  63  91 124 158 198 246 299
#     4   9  15  28  48  67  84 110 154 198 242 299
#
# _framework density 17.882159000000001
#
# number of rings (size 3 to 8) (size 9 to 14) (size 15 to 20)
#    0.000    2.500    1.250    3.375    0.000    2.500 
#    0.000    3.750    0.000    0.750    0.000    0.000 
#    0.000    0.500    0.000    1.125    0.000    2.000 
#
# Total GULP energy -792875.791675 kJ/mol
# GULP energy per Si atom -12388.684245 kJ/mol
# Density = 1.784146 g / cm^3
# Si number density = 17.882159 Si / 1000 Ang^3
#
#
#
# Elastic Constant Matrix: (Units=GPa)
#
#
# Indices 1 2 3 4 5 6 
#
# 1 38.3635 29.9253 32.2161 0.0000 0.0000 0.0000
# 2 29.9253 72.3032 43.2269 0.0000 0.0000 0.0000
# 3 32.2161 43.2269 118.9060 0.0000 0.0000 0.0000
# 4 0.0000 0.0000 0.0000 15.1618 0.0000 0.0000
# 5 0.0000 0.0000 0.0000 0.0000 25.0852 0.0000
# 6 0.0000 0.0000 0.0000 0.0000 0.0000 15.8780
#
#
#
# Elastic Compliance Matrix: (Units=1/GPa)
#
#
# Indices 1 2 3 4 5 6 
#
# 1 0.042065 -0.013539 -0.006475 0.000000 0.000000 0.000000
# 2 -0.013539 0.022029 -0.004340 0.000000 0.000000 0.000000
# 3 -0.006475 -0.004340 0.011742 0.000000 0.000000 0.000000
# 4 0.000000 0.000000 0.000000 0.065955 0.000000 0.000000
# 5 0.000000 0.000000 0.000000 0.000000 0.039864 0.000000
# 6 0.000000 0.000000 0.000000 0.000000 0.000000 0.062980
#
#
# Mechanical properties :
#
#
# Convention : Reuss Voigt Hill
#
# Bulk Modulus (GPa) = 36.86261 48.92327 42.89294
# Shear Modulus (GPa) = 16.53513 19.50530 18.02021
#
# Velocity S-wave (km/s) = 3.04414 3.30626 3.17790
# Velocity P-wave (km/s) = 5.74584 6.48022 6.12405
#
# Compressibility (1/GPa) = 0.02712776
#
# Stress axis : x y z
#
# Youngs Moduli (GPa) = 23.77281 45.39468 85.16320
#
# Poissons Ratio (x) = 0.61459 0.55144
# Poissons Ratio (y) = 0.32186 0.36962
# Poissons Ratio (z) = 0.15393 0.19702
#
# Static dielectric constant tensor:
#      x y z
#    x 4.905380 0.000000 0.000000 
#    y 0.000000 3.250390 0.000000 
#    z 0.000000 0.000000 3.397350 
# 
# 
# High freq. dielectric constant tensor:
#      x y z
#    x 1.670280 0.000000 0.000000 
#    y 0.000000 1.661360 0.000000 
#    z 0.000000 0.000000 1.689920 
# 
# From -- ./inp_files/32610.got.cif
#   From: 2010.03.12/outbox.cif.g09.slc.cpg/sg51_17_cif.got.tgz:32610.got - 2010.04.16 13:43:02.
