data_PCOD8212821
_publ_section_title
;
Structure prediction by ZEFSAII (Michael W. Deem and Ramdas Pophale) SiO2 
 PCOD8212821
Probable space group: P M M A
;
_chemical_formula_sum "Si O2"
_cell_formula_units_Z 56
_cell_length_a 23.157745
_cell_length_b 8.792019
_cell_length_c 13.556141
_cell_angle_alpha 90.000000
_cell_angle_beta 90.000000
_cell_angle_gamma 90.000000
_cell_volume 2760.075504
_symmetry_space_group_name_H-M "P M M A"
_symmetry_group_IT_number 51
_symmetry_cell_setting 'orthorhombic'
loop_
_space_group_symop_operation_xyz
x,y,z
1/2-x,-y,z
1/2+x,-y,-z
-x,y,-z
-x,-y,-z
1/2+x,y,-z
1/2-x,y,z
x,-y,z
loop_
_atom_site_type_symbol
_atom_site_label
_atom_site_fract_x
_atom_site_fract_y
_atom_site_fract_z
Si Si1 0.152616 0.820577 0.650311
Si Si2 0.408244 0.678474 0.288625
Si Si3 0.814801 0.820860 0.568090
Si Si4 0.948411 0.828223 0.075767
Si Si5 0.250000 0.318738 0.783825
Si Si6 0.961957 0.677385 0.280429
Si Si7 0.371087 0.678118 0.075901
Si Si8 0.750000 0.675416 0.995363
O O1 0.174028 0.766756 0.543406
O O2 0.191782 0.740343 0.732137
O O3 0.085683 0.773252 0.660954
O O4 0.158862 0.000000 0.663477
O O5 0.397355 0.500000 0.288273
O O6 0.362763 0.749700 0.362486
O O7 0.473865 0.717993 0.321337
O O8 0.397369 0.741538 0.178037
O O9 0.750000 0.768766 0.598813
O O10 0.820988 0.000000 0.575922
O O11 0.960955 0.716226 0.165342
O O12 0.938323 0.000000 0.114550
O O13 0.892869 0.769654 0.018511
O O14 0.000000 0.818870 0.000000
O O15 0.250000 0.500000 0.778713
O O16 0.250000 0.249948 0.895193
O O17 0.948736 0.500000 0.294270
O O18 0.385077 0.500000 0.062607
O O19 0.303496 0.716624 0.074422
O O20 0.750000 0.500000 0.022041
#
# Coordination Sequence:
#
# PCOD8212821 Si02
#       8
#     8   8   8   8   4   8   8   4
#     4  11  23  42  66  91 122 160 204 256 313 374
#     4  10  23  39  61  91 123 161 206 257 307 361
#     4  10  23  44  66  88 119 160 203 251 311 374
#     4  11  22  36  58  88 122 162 206 247 293 358
#     4  11  21  37  62  95 124 158 203 253 310 367
#     4  11  23  40  61  92 127 162 205 253 312 369
#     4  10  20  38  60  85 121 163 201 247 302 355
#     4   9  20  35  56  85 118 152 195 243 290 353
#
# _framework density 20.289300000000001
#
# number of rings (size 3 to 8) (size 9 to 14) (size 15 to 20)
#    0.000    1.571    2.143    2.357    1.000    5.429 
#    0.000    3.929    0.000    0.000    0.000    0.000 
#    0.000    0.000    0.000    0.000    0.000    0.000 
#
# Total GULP energy -694420.203874 kJ/mol
# GULP energy per Si atom -12400.360783 kJ/mol
# Density = 2.024312 g / cm^3
# Si number density = 20.289300 Si / 1000 Ang^3
#
#
#
# Elastic Constant Matrix: (Units=GPa)
#
#
# Indices 1 2 3 4 5 6 
#
# 1 139.5100 33.3895 37.1220 0.0000 0.0000 0.0000
# 2 33.3895 43.0456 21.3287 0.0000 0.0000 0.0000
# 3 37.1220 21.3287 69.0495 0.0000 0.0000 0.0000
# 4 0.0000 0.0000 0.0000 51.6511 0.0000 0.0000
# 5 0.0000 0.0000 0.0000 0.0000 37.2666 0.0000
# 6 0.0000 0.0000 0.0000 0.0000 0.0000 32.5361
#
#
#
# Elastic Compliance Matrix: (Units=1/GPa)
#
#
# Indices 1 2 3 4 5 6 
#
# 1 0.009401 -0.005653 -0.003308 0.000000 0.000000 0.000000
# 2 -0.005653 0.030829 -0.006483 0.000000 0.000000 0.000000
# 3 -0.003308 -0.006483 0.018263 0.000000 0.000000 0.000000
# 4 0.000000 0.000000 0.000000 0.019361 0.000000 0.000000
# 5 0.000000 0.000000 0.000000 0.000000 0.026834 0.000000
# 6 0.000000 0.000000 0.000000 0.000000 0.000000 0.030735
#
#
# Mechanical properties :
#
#
# Convention : Reuss Voigt Hill
#
# Bulk Modulus (GPa) = 36.22649 48.36503 42.29576
# Shear Modulus (GPa) = 28.48786 34.94175 31.71480
#
# Velocity S-wave (km/s) = 3.75117 4.15441 3.95793
# Velocity P-wave (km/s) = 6.05438 6.84848 6.46363
#
# Compressibility (1/GPa) = 0.02760411
#
# Stress axis : x y z
#
# Youngs Moduli (GPa) = 106.36982 32.43729 54.75416
#
# Poissons Ratio (x) = 0.18337 0.18113
# Poissons Ratio (y) = 0.60133 0.35500
# Poissons Ratio (z) = 0.35187 0.21031
#
# Static dielectric constant tensor:
#      x y z
#    x 4.701400 0.000000 0.000000 
#    y 0.000000 3.591740 0.000000 
#    z 0.000000 0.000000 3.690740 
# 
# 
# High freq. dielectric constant tensor:
#      x y z
#    x 1.812430 0.000000 0.000000 
#    y 0.000000 1.781180 0.000000 
#    z 0.000000 0.000000 1.789640 
# 
# From -- ./inp_files/25823.got.cif
#   From: 2010.03.12/outbox.cif.g09.slc.cpg/sg51_13_cif.got.tgz:25823.got - 2010.04.16 13:43:02.
