data_PCOD8212057
_publ_section_title
;
Structure prediction by ZEFSAII (Michael W. Deem and Ramdas Pophale) SiO2 
 PCOD8212057
Probable space group: P M M A
;
_chemical_formula_sum "Si O2"
_cell_formula_units_Z 64
_cell_length_a 18.644423
_cell_length_b 19.453409
_cell_length_c 9.591642
_cell_angle_alpha 90.000000
_cell_angle_beta 90.000000
_cell_angle_gamma 90.000000
_cell_volume 3478.865401
_symmetry_space_group_name_H-M "P M M A"
_symmetry_group_IT_number 51
_symmetry_cell_setting 'orthorhombic'
loop_
_space_group_symop_operation_xyz
x,y,z
1/2-x,-y,z
1/2+x,-y,-z
-x,y,-z
-x,-y,-z
1/2+x,y,-z
1/2-x,y,z
x,-y,z
loop_
_atom_site_type_symbol
_atom_site_label
_atom_site_fract_x
_atom_site_fract_y
_atom_site_fract_z
Si Si1 0.835197 0.298851 0.600163
Si Si2 0.931327 0.218128 0.397992
Si Si3 0.568281 0.718238 0.100416
Si Si4 0.332825 0.076500 0.245089
Si Si5 0.561234 0.421212 0.605391
Si Si6 0.961966 0.572973 0.142853
Si Si7 0.417038 0.073431 0.526654
Si Si8 0.333489 0.782422 0.121668
O O1 0.750000 0.303891 0.586332
O O2 0.865509 0.259223 0.465608
O O3 0.867406 0.375560 0.597369
O O4 0.858960 0.259532 0.741532
O O5 0.951115 0.245123 0.245232
O O6 0.904927 0.139158 0.374598
O O7 0.000000 0.222689 0.500000
O O8 0.590696 0.638880 0.136010
O O9 0.500000 0.719507 0.000000
O O10 0.632513 0.755081 0.020888
O O11 0.250000 0.084624 0.288352
O O12 0.378701 0.089201 0.381663
O O13 0.353705 0.136590 0.136315
O O14 0.347521 0.000000 0.181558
O O15 0.500000 0.394126 0.500000
O O16 0.582611 0.500000 0.571619
O O17 0.528104 0.411370 0.756362
O O18 0.922714 0.500000 0.185665
O O19 0.000000 0.559990 0.000000
O O20 0.500000 0.064565 0.500000
O O21 0.388309 0.000000 0.589565
O O22 0.250000 0.771850 0.101515
#
# Coordination Sequence:
#
# PCOD8212057 Si02
#       8
#     8   8   8   8   8   8   8   8
#     4  11  21  34  55  80 109 143 183 227 275 331
#     4  11  21  35  56  79 109 145 188 233 273 333
#     4  11  22  34  55  81 109 145 182 225 284 332
#     4   9  17  33  58  81 106 147 192 228 272 335
#     4  10  20  35  55  79 108 140 177 224 275 325
#     4   9  17  31  52  75  99 132 179 224 258 310
#     4   9  18  31  52  80 109 141 182 237 280 316
#     4  10  21  37  54  80 114 144 180 228 280 330
#
# _framework density 18.396802000000001
#
# number of rings (size 3 to 8) (size 9 to 14) (size 15 to 20)
#    0.000    2.000    1.250    4.125    1.750    0.750 
#    0.000    0.625    0.000    1.875    0.000    0.000 
#    0.000    0.000    0.000    0.000    0.000    0.000 
#
# Total GULP energy -793041.505116 kJ/mol
# GULP energy per Si atom -12391.273517 kJ/mol
# Density = 1.835493 g / cm^3
# Si number density = 18.396802 Si / 1000 Ang^3
#
#
#
# Elastic Constant Matrix: (Units=GPa)
#
#
# Indices 1 2 3 4 5 6 
#
# 1 64.8053 48.4115 34.3674 0.0000 0.0000 0.0000
# 2 48.4115 182.8318 56.4886 0.0000 0.0000 0.0000
# 3 34.3674 56.4886 101.0407 0.0000 0.0000 0.0000
# 4 0.0000 0.0000 0.0000 30.8613 0.0000 0.0000
# 5 0.0000 0.0000 0.0000 0.0000 28.8680 0.0000
# 6 0.0000 0.0000 0.0000 0.0000 0.0000 26.0710
#
#
#
# Elastic Compliance Matrix: (Units=1/GPa)
#
#
# Indices 1 2 3 4 5 6 
#
# 1 0.021062 -0.004066 -0.004891 0.000000 0.000000 0.000000
# 2 -0.004066 0.007396 -0.002752 0.000000 0.000000 0.000000
# 3 -0.004891 -0.002752 0.013099 0.000000 0.000000 0.000000
# 4 0.000000 0.000000 0.000000 0.032403 0.000000 0.000000
# 5 0.000000 0.000000 0.000000 0.000000 0.034640 0.000000
# 6 0.000000 0.000000 0.000000 0.000000 0.000000 0.038357
#
#
# Mechanical properties :
#
#
# Convention : Reuss Voigt Hill
#
# Bulk Modulus (GPa) = 55.12723 69.69032 62.40877
# Shear Modulus (GPa) = 28.34118 31.12074 29.73096
#
# Velocity S-wave (km/s) = 3.92924 4.11742 4.02443
# Velocity P-wave (km/s) = 7.11449 7.78255 7.45601
#
# Compressibility (1/GPa) = 0.01813986
#
# Stress axis : x y z
#
# Youngs Moduli (GPa) = 47.47932 135.20067 76.34064
#
# Poissons Ratio (x) = 0.54970 0.37337
# Poissons Ratio (y) = 0.19304 0.21010
# Poissons Ratio (z) = 0.23221 0.37210
#
# Static dielectric constant tensor:
#      x y z
#    x 3.130050 0.000000 0.000000 
#    y 0.000000 4.179350 0.000000 
#    z 0.000000 0.000000 3.285500 
# 
# 
# High freq. dielectric constant tensor:
#      x y z
#    x 1.684970 0.000000 0.000000 
#    y 0.000000 1.744900 0.000000 
#    z 0.000000 0.000000 1.696190 
# 
# From -- ./inp_files/10059.got.cif
#   From: 2010.03.12/outbox.cif.g09.slc.cpg/sg51_6_cif.got.tgz:10059.got - 2010.04.16 13:43:02.
