data_PCOD8212834
_publ_section_title
;
Structure prediction by ZEFSAII (Michael W. Deem and Ramdas Pophale) SiO2 
 PCOD8212834
Probable space group: P M M A
;
_chemical_formula_sum "Si O2"
_cell_formula_units_Z 36
_cell_length_a 9.328270
_cell_length_b 13.207481
_cell_length_c 14.220143
_cell_angle_alpha 90.000000
_cell_angle_beta 90.000000
_cell_angle_gamma 90.000000
_cell_volume 1751.963550
_symmetry_space_group_name_H-M "P M M A"
_symmetry_group_IT_number 51
_symmetry_cell_setting 'orthorhombic'
loop_
_space_group_symop_operation_xyz
x,y,z
1/2-x,-y,z
1/2+x,-y,-z
-x,y,-z
-x,-y,-z
1/2+x,y,-z
1/2-x,y,z
x,-y,z
loop_
_atom_site_type_symbol
_atom_site_label
_atom_site_fract_x
_atom_site_fract_y
_atom_site_fract_z
Si Si1 0.094307 0.115612 0.418973
Si Si2 0.422624 0.500000 0.099377
Si Si3 0.087478 0.889696 0.765615
Si Si4 0.414334 0.673449 0.795948
Si Si5 0.585719 0.384838 0.411541
O O1 0.250000 0.169418 0.413384
O O2 0.000000 0.170206 0.500000
O O3 0.020358 0.121732 0.319091
O O4 0.117064 0.000000 0.449073
O O5 0.250000 0.500000 0.089853
O O6 0.473379 0.600890 0.152935
O O7 0.500000 0.500000 0.000000
O O8 0.250000 0.885946 0.726363
O O9 0.064855 0.790352 0.832328
O O10 0.061738 0.000000 0.816548
O O11 0.250000 0.635906 0.813813
O O12 0.447327 0.676430 0.684078
O O13 0.500000 0.339087 0.500000
O O14 0.750000 0.378053 0.439553
O O15 0.537898 0.500000 0.391570
#
# Coordination Sequence:
#
# PCOD8212834 Si02
#       5
#     8   4   8   8   8
#     4   9  16  26  41  62  95 142 195 248 292 331
#     4  12  26  44  69  96 119 144 183 234 292 354
#     4   9  18  32  52  79 111 150 192 233 283 341
#     4  10  20  38  61  86 121 158 194 241 293 344
#     4   9  17  30  49  74 109 153 196 238 286 337
#
# _framework density 20.548372000000001
#
# number of rings (size 3 to 8) (size 9 to 14) (size 15 to 20)
#    0.000    2.444    1.111    1.667    0.000    5.333 
#    0.000    2.222    0.000    0.667    0.000    0.000 
#    0.000    0.000    0.000    0.000    0.000    0.000 
#
# Total GULP energy -446008.095402 kJ/mol
# GULP energy per Si atom -12389.113761 kJ/mol
# Density = 2.050160 g / cm^3
# Si number density = 20.548372 Si / 1000 Ang^3
#
#
#
# Elastic Constant Matrix: (Units=GPa)
#
#
# Indices 1 2 3 4 5 6 
#
# 1 132.7852 54.2541 39.6599 0.0000 0.0000 0.0000
# 2 54.2541 149.6431 29.6319 0.0000 0.0000 0.0000
# 3 39.6599 29.6319 63.7725 0.0000 0.0000 0.0000
# 4 0.0000 0.0000 0.0000 0.9964 0.0000 0.0000
# 5 0.0000 0.0000 0.0000 0.0000 29.1981 0.0000
# 6 0.0000 0.0000 0.0000 0.0000 0.0000 14.9220
#
#
#
# Elastic Compliance Matrix: (Units=1/GPa)
#
#
# Indices 1 2 3 4 5 6 
#
# 1 0.010134 -0.002672 -0.005061 0.000000 0.000000 0.000000
# 2 -0.002672 0.008064 -0.002085 0.000000 0.000000 0.000000
# 3 -0.005061 -0.002085 0.019797 0.000000 0.000000 0.000000
# 4 0.000000 0.000000 0.000000 1.003641 0.000000 0.000000
# 5 0.000000 0.000000 0.000000 0.000000 0.034249 0.000000
# 6 0.000000 0.000000 0.000000 0.000000 0.000000 0.067015
#
#
# Mechanical properties :
#
#
# Convention : Reuss Voigt Hill
#
# Bulk Modulus (GPa) = 54.46916 65.92140 60.19528
# Shear Modulus (GPa) = 4.27842 23.86696 14.07269
#
# Velocity S-wave (km/s) = 1.44452 3.41178 2.61982
# Velocity P-wave (km/s) = 5.41733 6.90442 6.20558
#
# Compressibility (1/GPa) = 0.01835901
#
# Stress axis : x y z
#
# Youngs Moduli (GPa) = 98.67446 124.00353 50.51266
#
# Poissons Ratio (x) = 0.33135 0.25564
# Poissons Ratio (y) = 0.26367 0.10533
# Poissons Ratio (z) = 0.49938 0.25858
#
# Static dielectric constant tensor:
#      x y z
#    x 3.848990 0.000000 0.000000 
#    y 0.000000 4.233050 0.000000 
#    z 0.000000 0.000000 3.184420 
# 
# 
# High freq. dielectric constant tensor:
#      x y z
#    x 1.804660 0.000000 0.000000 
#    y 0.000000 1.829470 0.000000 
#    z 0.000000 0.000000 1.737370 
# 
# From -- ./inp_files/20308.got.cif
#   From: 2010.03.12/outbox.cif.g09.slc.cpg/sg51_11_cif.got.tgz:20308.got - 2010.04.16 13:43:02.
