data_PCOD8212030
_publ_section_title
;
Structure prediction by ZEFSAII (Michael W. Deem and Ramdas Pophale) SiO2 
 PCOD8212030
Probable space group: P M M A
;
_chemical_formula_sum "Si O2"
_cell_formula_units_Z 56
_cell_length_a 9.087583
_cell_length_b 23.609930
_cell_length_c 14.292547
_cell_angle_alpha 90.000000
_cell_angle_beta 90.000000
_cell_angle_gamma 90.000000
_cell_volume 3066.568844
_symmetry_space_group_name_H-M "P M M A"
_symmetry_group_IT_number 51
_symmetry_cell_setting 'orthorhombic'
loop_
_space_group_symop_operation_xyz
x,y,z
1/2-x,-y,z
1/2+x,-y,-z
-x,y,-z
-x,-y,-z
1/2+x,y,-z
1/2-x,y,z
x,-y,z
loop_
_atom_site_type_symbol
_atom_site_label
_atom_site_fract_x
_atom_site_fract_y
_atom_site_fract_z
Si Si1 0.923033 0.349027 0.900515
Si Si2 0.577621 0.140584 0.262931
Si Si3 0.421006 0.729766 0.761213
Si Si4 0.422543 0.356728 0.599230
Si Si5 0.419560 0.937760 0.402891
Si Si6 0.921913 0.063777 0.093148
Si Si7 0.579523 0.434819 0.738675
O O1 0.750000 0.341319 0.916709
O O2 0.959749 0.403037 0.835293
O O3 0.985453 0.293665 0.848278
O O4 0.000000 0.358182 0.000000
O O5 0.750000 0.133098 0.282181
O O6 0.532212 0.205652 0.253490
O O7 0.488986 0.113598 0.346915
O O8 0.526414 0.107348 0.171276
O O9 0.250000 0.723671 0.787626
O O10 0.456782 0.697269 0.664764
O O11 0.500000 0.347147 0.500000
O O12 0.250000 0.365129 0.582202
O O13 0.485140 0.412108 0.651370
O O14 0.500000 0.939731 0.500000
O O15 0.250000 0.923783 0.419467
O O16 0.439179 0.000000 0.354214
O O17 0.750000 0.066868 0.075481
O O18 0.970396 0.000000 0.120889
O O19 0.000000 0.084513 0.000000
O O20 0.750000 0.425933 0.713175
O O21 0.539029 0.500000 0.754282
#
# Coordination Sequence:
#
# PCOD8212030 Si02
#       7
#     8   8   8   8   8   8   8
#     4  10  20  35  56  79 106 142 178 215 261 309
#     4  10  20  35  55  78 104 134 171 217 267 314
#     4   9  20  37  54  76 105 136 175 221 263 308
#     4  10  20  35  55  77 104 139 175 212 258 309
#     4  10  21  36  54  77 105 137 173 214 261 315
#     4   9  18  32  50  72  99 131 165 204 252 305
#     4   9  19  36  56  80 109 138 173 216 258 305
#
# _framework density 18.261451999999998
#
# number of rings (size 3 to 8) (size 9 to 14) (size 15 to 20)
#    0.000    2.429    0.000    1.714    0.000    5.714 
#    0.000    4.286    0.000    0.000    0.000    0.000 
#    0.000    0.000    0.000    0.000    0.000    0.000 
#
# Total GULP energy -694450.428353 kJ/mol
# GULP energy per Si atom -12400.900506 kJ/mol
# Density = 1.821989 g / cm^3
# Si number density = 18.261452 Si / 1000 Ang^3
#
#
#
# Elastic Constant Matrix: (Units=GPa)
#
#
# Indices 1 2 3 4 5 6 
#
# 1 72.7568 49.5214 56.0858 0.0000 0.0000 0.0000
# 2 49.5214 138.3263 62.1007 0.0000 0.0000 0.0000
# 3 56.0858 62.1007 122.2204 0.0000 0.0000 0.0000
# 4 0.0000 0.0000 0.0000 22.8833 0.0000 0.0000
# 5 0.0000 0.0000 0.0000 0.0000 38.8832 0.0000
# 6 0.0000 0.0000 0.0000 0.0000 0.0000 28.8196
#
#
#
# Elastic Compliance Matrix: (Units=1/GPa)
#
#
# Indices 1 2 3 4 5 6 
#
# 1 0.023321 -0.004592 -0.008369 0.000000 0.000000 0.000000
# 2 -0.004592 0.010270 -0.003111 0.000000 0.000000 0.000000
# 3 -0.008369 -0.003111 0.013603 0.000000 0.000000 0.000000
# 4 0.000000 0.000000 0.000000 0.043700 0.000000 0.000000
# 5 0.000000 0.000000 0.000000 0.000000 0.025718 0.000000
# 6 0.000000 0.000000 0.000000 0.000000 0.000000 0.034699
#
#
# Mechanical properties :
#
#
# Convention : Reuss Voigt Hill
#
# Bulk Modulus (GPa) = 66.44198 74.30212 70.37205
# Shear Modulus (GPa) = 26.52939 29.15693 27.84316
#
# Velocity S-wave (km/s) = 3.81564 4.00013 3.90897
# Velocity P-wave (km/s) = 7.47495 7.88105 7.68068
#
# Compressibility (1/GPa) = 0.01505072
#
# Stress axis : x y z
#
# Youngs Moduli (GPa) = 42.87993 97.37218 73.51393
#
# Poissons Ratio (x) = 0.44713 0.61520
# Poissons Ratio (y) = 0.19690 0.22870
# Poissons Ratio (z) = 0.35884 0.30292
#
# Static dielectric constant tensor:
#      x y z
#    x 3.383820 0.000000 0.000000 
#    y 0.000000 3.460470 0.000000 
#    z 0.000000 0.000000 3.328040 
# 
# 
# High freq. dielectric constant tensor:
#      x y z
#    x 1.712110 0.000000 0.000000 
#    y 0.000000 1.709000 0.000000 
#    z 0.000000 0.000000 1.708640 
# 
# From -- ./inp_files/21729.got.cif
#   From: 2010.03.12/outbox.cif.g09.slc.cpg/sg51_11_cif.got.tgz:21729.got - 2010.04.16 13:43:02.
