data_PCOD8212427
_publ_section_title
;
Structure prediction by ZEFSAII (Michael W. Deem and Ramdas Pophale) SiO2 
 PCOD8212427
Probable space group: P M M A
;
_chemical_formula_sum "Si O2"
_cell_formula_units_Z 52
_cell_length_a 9.240766
_cell_length_b 14.941161
_cell_length_c 19.643271
_cell_angle_alpha 90.000000
_cell_angle_beta 90.000000
_cell_angle_gamma 90.000000
_cell_volume 2712.102673
_symmetry_space_group_name_H-M "P M M A"
_symmetry_group_IT_number 51
_symmetry_cell_setting 'orthorhombic'
loop_
_space_group_symop_operation_xyz
x,y,z
1/2-x,-y,z
1/2+x,-y,-z
-x,y,-z
-x,-y,-z
1/2+x,y,-z
1/2-x,y,z
x,-y,z
loop_
_atom_site_type_symbol
_atom_site_label
_atom_site_fract_x
_atom_site_fract_y
_atom_site_fract_z
Si Si1 0.580714 0.747353 0.697885
Si Si2 0.419768 0.694931 0.572233
Si Si3 0.580288 0.396060 0.213587
Si Si4 0.908342 0.394519 0.061349
Si Si5 0.413044 0.106481 0.935568
Si Si6 0.916419 0.102192 0.804363
Si Si7 0.588239 0.500000 0.433040
O O1 0.750000 0.731250 0.684575
O O2 0.497464 0.759830 0.626107
O O3 0.518137 0.663036 0.738044
O O4 0.551560 0.838881 0.738174
O O5 0.500000 0.704027 0.500000
O O6 0.250000 0.719089 0.564017
O O7 0.440278 0.594213 0.605335
O O8 0.750000 0.373043 0.223005
O O9 0.554083 0.500000 0.231418
O O10 0.528086 0.374764 0.136309
O O11 0.750000 0.351116 0.056151
O O12 0.897119 0.500000 0.050790
O O13 0.000000 0.350719 0.000000
O O14 0.250000 0.143515 0.937503
O O15 0.487943 0.140129 0.866333
O O16 0.415841 0.000000 0.937816
O O17 0.500000 0.145659 0.000000
O O18 0.750000 0.109333 0.827259
O O19 0.957655 0.000000 0.786324
O O20 0.750000 0.500000 0.460092
O O21 0.500000 0.500000 0.500000
#
# Coordination Sequence:
#
# PCOD8212427 Si02
#       7
#     8   8   8   8   8   8   4
#     4  11  23  36  54  82 109 137 177 221 269 321
#     4  10  20  36  57  81 111 145 179 215 259 313
#     4   9  19  35  52  72 104 144 180 214 260 316
#     4   8  14  26  45  67  91 126 172 217 257 299
#     4   9  16  27  48  78 108 138 175 220 273 331
#     4   9  19  37  57  76 105 144 184 228 276 325
#     4   8  16  30  50  76 104 138 173 202 241 296
#
# _framework density 19.173317000000001
#
# number of rings (size 3 to 8) (size 9 to 14) (size 15 to 20)
#    0.000    2.769    0.000    2.308    1.077    4.615 
#    0.000    2.308    0.000    2.308    0.000    0.000 
#    0.000    0.000    0.000    0.000    0.000    0.000 
#
# Total GULP energy -644455.812238 kJ/mol
# GULP energy per Si atom -12393.381005 kJ/mol
# Density = 1.912968 g / cm^3
# Si number density = 19.173317 Si / 1000 Ang^3
#
#
#
# Elastic Constant Matrix: (Units=GPa)
#
#
# Indices 1 2 3 4 5 6 
#
# 1 123.7779 38.0608 80.1061 0.0000 0.0000 0.0000
# 2 38.0608 56.0476 43.2170 0.0000 0.0000 0.0000
# 3 80.1061 43.2170 132.4612 0.0000 0.0000 0.0000
# 4 0.0000 0.0000 0.0000 5.9240 0.0000 0.0000
# 5 0.0000 0.0000 0.0000 0.0000 40.2760 0.0000
# 6 0.0000 0.0000 0.0000 0.0000 0.0000 15.1153
#
#
#
# Elastic Compliance Matrix: (Units=1/GPa)
#
#
# Indices 1 2 3 4 5 6 
#
# 1 0.013900 -0.003952 -0.007117 0.000000 0.000000 0.000000
# 2 -0.003952 0.024963 -0.005755 0.000000 0.000000 0.000000
# 3 -0.007117 -0.005755 0.013731 0.000000 0.000000 0.000000
# 4 0.000000 0.000000 0.000000 0.168806 0.000000 0.000000
# 5 0.000000 0.000000 0.000000 0.000000 0.024829 0.000000
# 6 0.000000 0.000000 0.000000 0.000000 0.000000 0.066158
#
#
# Mechanical properties :
#
#
# Convention : Reuss Voigt Hill
#
# Bulk Modulus (GPa) = 52.77764 70.56163 61.66964
# Shear Modulus (GPa) = 14.19052 22.32322 18.25687
#
# Velocity S-wave (km/s) = 2.72346 3.41586 3.08912
# Velocity P-wave (km/s) = 6.12177 7.24151 6.70505
#
# Compressibility (1/GPa) = 0.01894742
#
# Stress axis : x y z
#
# Youngs Moduli (GPa) = 71.94338 40.05974 72.82933
#
# Poissons Ratio (x) = 0.15830 0.51830
# Poissons Ratio (y) = 0.28429 0.41911
# Poissons Ratio (z) = 0.51200 0.23053
#
# Static dielectric constant tensor:
#      x y z
#    x 3.707680 0.000000 0.000000 
#    y 0.000000 3.206270 0.000000 
#    z 0.000000 0.000000 3.472080 
# 
# 
# High freq. dielectric constant tensor:
#      x y z
#    x 1.750080 0.000000 0.000000 
#    y 0.000000 1.717510 0.000000 
#    z 0.000000 0.000000 1.743750 
# 
# From -- ./inp_files/31778.got.cif
#   From: 2010.03.12/outbox.cif.g09.slc.cpg/sg51_16_cif.got.tgz:31778.got - 2010.04.16 13:43:02.
