data_PCOD8212778
_publ_section_title
;
Structure prediction by ZEFSAII (Michael W. Deem and Ramdas Pophale) SiO2 
 PCOD8212778
Probable space group: P M M A
;
_chemical_formula_sum "Si O2"
_cell_formula_units_Z 56
_cell_length_a 18.458889
_cell_length_b 9.055238
_cell_length_c 16.409226
_cell_angle_alpha 90.000000
_cell_angle_beta 90.000000
_cell_angle_gamma 90.000000
_cell_volume 2742.796106
_symmetry_space_group_name_H-M "P M M A"
_symmetry_group_IT_number 51
_symmetry_cell_setting 'orthorhombic'
loop_
_space_group_symop_operation_xyz
x,y,z
1/2-x,-y,z
1/2+x,-y,-z
-x,y,-z
-x,-y,-z
1/2+x,y,-z
1/2-x,y,z
x,-y,z
loop_
_atom_site_type_symbol
_atom_site_label
_atom_site_fract_x
_atom_site_fract_y
_atom_site_fract_z
Si Si1 0.164474 0.164663 0.180786
Si Si2 0.335394 0.669089 0.021247
Si Si3 0.905916 0.330226 0.673622
Si Si4 0.052189 0.826309 0.925319
Si Si5 0.165714 0.826956 0.653430
Si Si6 0.552963 0.329368 0.239466
Si Si7 0.415580 0.829238 0.489282
O O1 0.250000 0.155520 0.177282
O O2 0.135141 0.258641 0.104720
O O3 0.142681 0.240311 0.264101
O O4 0.130649 0.000000 0.174935
O O5 0.250000 0.683807 0.012711
O O6 0.360854 0.500000 0.020511
O O7 0.369443 0.756587 0.945310
O O8 0.882705 0.500000 0.678669
O O9 0.887047 0.269392 0.584691
O O10 0.990873 0.309041 0.692726
O O11 0.024890 0.754510 0.841242
O O12 0.059407 0.000000 0.913358
O O13 0.000000 0.783523 0.000000
O O14 0.250000 0.783187 0.651707
O O15 0.127200 0.740409 0.726930
O O16 0.129173 0.779548 0.568445
O O17 0.154565 0.000000 0.669024
O O18 0.566721 0.500000 0.218518
O O19 0.500000 0.797625 0.500000
O O20 0.401103 0.000000 0.468688
#
# Coordination Sequence:
#
# PCOD8212778 Si02
#       7
#     8   8   8   8   8   8   8
#     4  10  21  37  58  85 118 156 198 244 294 352
#     4  10  21  38  60  85 116 154 194 240 298 359
#     4  11  23  37  59  89 121 156 197 244 296 357
#     4  11  24  40  61  89 119 155 202 251 297 352
#     4  10  22  41  64  90 120 157 204 254 302 357
#     4  11  24  40  60  87 120 159 198 244 301 359
#     4  10  20  37  62  88 117 156 198 244 298 356
#
# _framework density 20.417121999999999
#
# number of rings (size 3 to 8) (size 9 to 14) (size 15 to 20)
#    0.000    1.571    1.429    3.000    0.000    9.143 
#    0.000    1.429    0.000    0.000    0.000    0.000 
#    0.000    0.000    0.000    0.000    0.000    0.000 
#
# Total GULP energy -694710.676173 kJ/mol
# GULP energy per Si atom -12405.547789 kJ/mol
# Density = 2.037065 g / cm^3
# Si number density = 20.417122 Si / 1000 Ang^3
#
#
#
# Elastic Constant Matrix: (Units=GPa)
#
#
# Indices 1 2 3 4 5 6 
#
# 1 47.4621 33.8504 29.4606 0.0000 0.0000 0.0000
# 2 33.8504 118.9196 54.8568 0.0000 0.0000 0.0000
# 3 29.4606 54.8568 104.7241 0.0000 0.0000 0.0000
# 4 0.0000 0.0000 0.0000 31.9519 0.0000 0.0000
# 5 0.0000 0.0000 0.0000 0.0000 37.3274 0.0000
# 6 0.0000 0.0000 0.0000 0.0000 0.0000 23.7292
#
#
#
# Elastic Compliance Matrix: (Units=1/GPa)
#
#
# Indices 1 2 3 4 5 6 
#
# 1 0.028238 -0.005767 -0.004923 0.000000 0.000000 0.000000
# 2 -0.005767 0.012266 -0.004803 0.000000 0.000000 0.000000
# 3 -0.004923 -0.004803 0.013450 0.000000 0.000000 0.000000
# 4 0.000000 0.000000 0.000000 0.031297 0.000000 0.000000
# 5 0.000000 0.000000 0.000000 0.000000 0.026790 0.000000
# 6 0.000000 0.000000 0.000000 0.000000 0.000000 0.042142
#
#
# Mechanical properties :
#
#
# Convention : Reuss Voigt Hill
#
# Bulk Modulus (GPa) = 43.53837 56.38239 49.96038
# Shear Modulus (GPa) = 25.93019 28.79758 27.36389
#
# Velocity S-wave (km/s) = 3.56760 3.75969 3.66490
# Velocity P-wave (km/s) = 6.19202 6.82072 6.51396
#
# Compressibility (1/GPa) = 0.02296825
#
# Stress axis : x y z
#
# Youngs Moduli (GPa) = 35.41283 81.52480 74.35109
#
# Poissons Ratio (x) = 0.47016 0.36603
# Poissons Ratio (y) = 0.20423 0.35710
# Poissons Ratio (z) = 0.17434 0.39156
#
# Static dielectric constant tensor:
#      x y z
#    x 3.606310 0.000000 0.000000 
#    y 0.000000 3.794360 0.000000 
#    z 0.000000 0.000000 3.725240 
# 
# 
# High freq. dielectric constant tensor:
#      x y z
#    x 1.794670 0.000000 0.000000 
#    y 0.000000 1.805550 0.000000 
#    z 0.000000 0.000000 1.801900 
# 
# From -- ./inp_files/25723.got.cif
#   From: 2010.03.12/outbox.cif.g09.slc.cpg/sg51_13_cif.got.tgz:25723.got - 2010.04.16 13:43:02.
