data_PCOD8212071
_publ_section_title
;
Structure prediction by ZEFSAII (Michael W. Deem and Ramdas Pophale) SiO2 
 PCOD8212071
Probable space group: P M M A
;
_chemical_formula_sum "Si O2"
_cell_formula_units_Z 64
_cell_length_a 20.023493
_cell_length_b 8.561216
_cell_length_c 20.122572
_cell_angle_alpha 90.000000
_cell_angle_beta 90.000000
_cell_angle_gamma 90.000000
_cell_volume 3449.520933
_symmetry_space_group_name_H-M "P M M A"
_symmetry_group_IT_number 51
_symmetry_cell_setting 'orthorhombic'
loop_
_space_group_symop_operation_xyz
x,y,z
1/2-x,-y,z
1/2+x,-y,-z
-x,y,-z
-x,-y,-z
1/2+x,y,-z
1/2-x,y,z
x,-y,z
loop_
_atom_site_type_symbol
_atom_site_label
_atom_site_fract_x
_atom_site_fract_y
_atom_site_fract_z
Si Si1 0.824359 0.313863 0.573169
Si Si2 0.102427 0.322581 0.298495
Si Si3 0.930999 0.687187 0.469267
Si Si4 0.431104 0.314821 0.819264
Si Si5 0.950169 0.323555 0.325947
Si Si6 0.673879 0.819515 0.080726
Si Si7 0.673288 0.681448 0.940348
Si Si8 0.427312 0.180345 0.162818
O O1 0.750000 0.252236 0.559835
O O2 0.828603 0.500000 0.573198
O O3 0.847605 0.254698 0.645745
O O4 0.870670 0.247660 0.514171
O O5 0.120754 0.500000 0.278146
O O6 0.107808 0.217833 0.232951
O O7 0.029824 0.316732 0.331309
O O8 0.932431 0.500000 0.466776
O O9 0.921754 0.754342 0.393771
O O10 0.000000 0.750064 0.500000
O O11 0.420762 0.500000 0.822219
O O12 0.426031 0.246656 0.743526
O O13 0.373913 0.228884 0.859610
O O14 0.504832 0.278538 0.847680
O O15 0.924668 0.500000 0.323311
O O16 0.750000 0.787527 0.103175
O O17 0.662867 0.000000 0.062754
O O18 0.655429 0.717291 0.016616
O O19 0.750000 0.729242 0.925732
O O20 0.661179 0.500000 0.926216
O O21 0.624957 0.782048 0.894686
O O22 0.446664 0.000000 0.159666
#
# Coordination Sequence:
#
# PCOD8212071 Si02
#       8
#     8   8   8   8   8   8   8   8
#     4   9  16  24  38  65  98 128 164 213 263 312
#     4   9  16  29  46  66  96 133 172 210 256 312
#     4   9  13  21  40  64  92 129 165 203 259 318
#     4  10  20  35  55  80 110 142 180 224 268 316
#     4   8  14  25  43  68  95 129 170 211 256 309
#     4  10  21  38  59  82 109 141 178 220 267 319
#     4  10  21  38  59  81 106 139 179 220 264 319
#     4  11  22  35  53  79 110 141 176 219 267 317
#
# _framework density 18.553301999999999
#
# number of rings (size 3 to 8) (size 9 to 14) (size 15 to 20)
#    0.000    2.500    1.250    3.000    0.000    2.500 
#    0.000    4.375    0.000    2.250    0.000    7.875 
#    0.000    0.000    0.000    0.000    0.000    0.000 
#
# Total GULP energy -793390.610577 kJ/mol
# GULP energy per Si atom -12396.728290 kJ/mol
# Density = 1.851107 g / cm^3
# Si number density = 18.553302 Si / 1000 Ang^3
#
#
#
# Elastic Constant Matrix: (Units=GPa)
#
#
# Indices 1 2 3 4 5 6 
#
# 1 105.0154 11.3122 72.3950 0.0000 0.0000 0.0000
# 2 11.3122 33.7537 13.1085 0.0000 0.0000 0.0000
# 3 72.3950 13.1085 124.3765 0.0000 0.0000 0.0000
# 4 0.0000 0.0000 0.0000 2.1038 0.0000 0.0000
# 5 0.0000 0.0000 0.0000 0.0000 34.8857 0.0000
# 6 0.0000 0.0000 0.0000 0.0000 0.0000 19.4294
#
#
#
# Elastic Compliance Matrix: (Units=1/GPa)
#
#
# Indices 1 2 3 4 5 6 
#
# 1 0.016011 -0.001821 -0.009127 0.000000 0.000000 0.000000
# 2 -0.001821 0.031098 -0.002217 0.000000 0.000000 0.000000
# 3 -0.009127 -0.002217 0.013587 0.000000 0.000000 0.000000
# 4 0.000000 0.000000 0.000000 0.475334 0.000000 0.000000
# 5 0.000000 0.000000 0.000000 0.000000 0.028665 0.000000
# 6 0.000000 0.000000 0.000000 0.000000 0.000000 0.051468
#
#
# Mechanical properties :
#
#
# Convention : Reuss Voigt Hill
#
# Bulk Modulus (GPa) = 29.10093 50.75302 39.92697
# Shear Modulus (GPa) = 7.64586 22.37243 15.00915
#
# Velocity S-wave (km/s) = 2.03223 3.47630 2.84733
# Velocity P-wave (km/s) = 4.60714 6.59754 5.69004
#
# Compressibility (1/GPa) = 0.03436317
#
# Stress axis : x y z
#
# Youngs Moduli (GPa) = 62.45801 32.15650 73.60241
#
# Poissons Ratio (x) = 0.05856 0.67179
# Poissons Ratio (y) = 0.11375 0.16321
# Poissons Ratio (z) = 0.57008 0.07131
#
# Static dielectric constant tensor:
#      x y z
#    x 3.339420 0.000000 0.000000 
#    y 0.000000 3.028810 0.000000 
#    z 0.000000 0.000000 3.628060 
# 
# 
# High freq. dielectric constant tensor:
#      x y z
#    x 1.706540 0.000000 0.000000 
#    y 0.000000 1.683160 0.000000 
#    z 0.000000 0.000000 1.732180 
# 
# From -- ./inp_files/30525.got.cif
#   From: 2010.03.12/outbox.cif.g09.slc.cpg/sg51_16_cif.got.tgz:30525.got - 2010.04.16 13:43:02.
