data_PCOD8212966
_publ_section_title
;
Structure prediction by ZEFSAII (Michael W. Deem and Ramdas Pophale) SiO2 
 PCOD8212966
Probable space group: P M M A
;
_chemical_formula_sum "Si O2"
_cell_formula_units_Z 56
_cell_length_a 18.114334
_cell_length_b 13.712634
_cell_length_c 12.437863
_cell_angle_alpha 90.000000
_cell_angle_beta 90.000000
_cell_angle_gamma 90.000000
_cell_volume 3089.505869
_symmetry_space_group_name_H-M "P M M A"
_symmetry_group_IT_number 51
_symmetry_cell_setting 'orthorhombic'
loop_
_space_group_symop_operation_xyz
x,y,z
1/2-x,-y,z
1/2+x,-y,-z
-x,y,-z
-x,-y,-z
1/2+x,y,-z
1/2-x,y,z
x,-y,z
loop_
_atom_site_type_symbol
_atom_site_label
_atom_site_fract_x
_atom_site_fract_y
_atom_site_fract_z
Si Si1 0.563997 0.109550 0.347043
Si Si2 0.833964 0.697468 0.637830
Si Si3 0.067606 0.386839 0.179499
Si Si4 0.665045 0.612524 0.025256
Si Si5 0.896830 0.890711 0.585636
Si Si6 0.087341 0.703464 0.781462
Si Si7 0.833322 0.387501 0.411597
O O1 0.610347 0.122630 0.456843
O O2 0.479367 0.129730 0.375166
O O3 0.591699 0.183703 0.255139
O O4 0.574805 0.000000 0.302031
O O5 0.750000 0.669020 0.663643
O O6 0.885289 0.635894 0.715589
O O7 0.844920 0.814136 0.647957
O O8 0.857120 0.670600 0.517228
O O9 0.045797 0.500000 0.178029
O O10 0.993913 0.323067 0.177365
O O11 0.115395 0.358286 0.075929
O O12 0.750000 0.629178 0.993573
O O13 0.651222 0.500000 0.059507
O O14 0.644887 0.684098 0.122979
O O15 0.871952 0.000000 0.617413
O O16 0.108530 0.636111 0.680966
O O17 0.750000 0.359122 0.375258
O O18 0.838105 0.500000 0.440852
#
# Coordination Sequence:
#
# PCOD8212966 Si02
#       7
#     8   8   8   8   8   8   8
#     4   9  18  33  56  82 111 143 177 222 280 331
#     4  11  21  34  52  77 112 153 186 221 275 330
#     4  11  23  37  55  81 111 145 188 231 264 316
#     4  10  22  40  59  79 108 147 186 223 270 327
#     4   9  17  34  54  77 110 147 186 226 269 326
#     4  12  20  34  60  84 108 137 182 234 278 319
#     4  10  21  34  49  77 117 152 178 213 271 338
#
# _framework density 18.125876000000002
#
# number of rings (size 3 to 8) (size 9 to 14) (size 15 to 20)
#    0.000    1.714    2.857    3.857    0.000    4.571 
#    0.000    1.429    0.000    4.286    0.000    0.000 
#    0.000    0.000    0.000    0.000    0.000    0.000 
#
# Total GULP energy -694503.988572 kJ/mol
# GULP energy per Si atom -12401.856939 kJ/mol
# Density = 1.808462 g / cm^3
# Si number density = 18.125876 Si / 1000 Ang^3
#
#
#
# Elastic Constant Matrix: (Units=GPa)
#
#
# Indices 1 2 3 4 5 6 
#
# 1 56.4993 15.1007 26.1719 0.0000 0.0000 0.0000
# 2 15.1007 88.3803 30.2310 0.0000 0.0000 0.0000
# 3 26.1719 30.2310 66.4711 0.0000 0.0000 0.0000
# 4 0.0000 0.0000 0.0000 26.4587 0.0000 0.0000
# 5 0.0000 0.0000 0.0000 0.0000 30.6156 0.0000
# 6 0.0000 0.0000 0.0000 0.0000 0.0000 21.4000
#
#
#
# Elastic Compliance Matrix: (Units=1/GPa)
#
#
# Indices 1 2 3 4 5 6 
#
# 1 0.021712 -0.000930 -0.008126 0.000000 0.000000 0.000000
# 2 -0.000930 0.013439 -0.005746 0.000000 0.000000 0.000000
# 3 -0.008126 -0.005746 0.020857 0.000000 0.000000 0.000000
# 4 0.000000 0.000000 0.000000 0.037795 0.000000 0.000000
# 5 0.000000 0.000000 0.000000 0.000000 0.032663 0.000000
# 6 0.000000 0.000000 0.000000 0.000000 0.000000 0.046729
#
#
# Mechanical properties :
#
#
# Convention : Reuss Voigt Hill
#
# Bulk Modulus (GPa) = 37.87270 39.37310 38.62290
# Shear Modulus (GPa) = 23.62958 25.01801 24.32379
#
# Velocity S-wave (km/s) = 3.61451 3.71918 3.66722
# Velocity P-wave (km/s) = 6.19348 6.34132 6.26784
#
# Compressibility (1/GPa) = 0.02640425
#
# Stress axis : x y z
#
# Youngs Moduli (GPa) = 46.05755 74.40991 47.94638
#
# Poissons Ratio (x) = 0.06922 0.38959
# Poissons Ratio (y) = 0.04285 0.27549
# Poissons Ratio (z) = 0.37425 0.42754
#
# Static dielectric constant tensor:
#      x y z
#    x 3.299600 0.000000 0.000000 
#    y 0.000000 3.388540 0.000000 
#    z 0.000000 0.000000 3.252770 
# 
# 
# High freq. dielectric constant tensor:
#      x y z
#    x 1.701070 0.000000 0.000000 
#    y 0.000000 1.698480 0.000000 
#    z 0.000000 0.000000 1.687460 
# 
# From -- ./inp_files/16645.got.cif
#   From: 2010.03.12/outbox.cif.g09.slc.cpg/sg51_9_cif.got.tgz:16645.got - 2010.04.16 13:43:02.
