data_PCOD8212470
_publ_section_title
;
Structure prediction by ZEFSAII (Michael W. Deem and Ramdas Pophale) SiO2 
 PCOD8212470
Probable space group: P M M A
;
_chemical_formula_sum "Si O2"
_cell_formula_units_Z 64
_cell_length_a 17.886577
_cell_length_b 9.183042
_cell_length_c 21.587062
_cell_angle_alpha 90.000000
_cell_angle_beta 90.000000
_cell_angle_gamma 90.000000
_cell_volume 3545.743749
_symmetry_space_group_name_H-M "P M M A"
_symmetry_group_IT_number 51
_symmetry_cell_setting 'orthorhombic'
loop_
_space_group_symop_operation_xyz
x,y,z
1/2-x,-y,z
1/2+x,-y,-z
-x,y,-z
-x,-y,-z
1/2+x,y,-z
1/2-x,y,z
x,-y,z
loop_
_atom_site_type_symbol
_atom_site_label
_atom_site_fract_x
_atom_site_fract_y
_atom_site_fract_z
Si Si1 0.332632 0.829535 0.366047
Si Si2 0.019279 0.827541 0.431980
Si Si3 0.163000 0.333399 0.999507
Si Si4 0.049817 0.334105 0.676067
Si Si5 0.663271 0.331223 0.221465
Si Si6 0.915929 0.826973 0.109858
Si Si7 0.897343 0.666150 0.743110
Si Si8 0.429692 0.667971 0.120569
O O1 0.250000 0.789454 0.392212
O O2 0.397209 0.772650 0.412880
O O3 0.341603 0.761512 0.298045
O O4 0.341500 0.000000 0.357377
O O5 0.000000 0.766859 0.500000
O O6 0.957897 0.766282 0.384361
O O7 0.013717 0.000000 0.430490
O O8 0.250000 0.297319 0.001465
O O9 0.148449 0.500000 0.978415
O O10 0.130775 0.305596 0.067554
O O11 0.124197 0.224497 0.952345
O O12 0.050259 0.500000 0.652882
O O13 0.125625 0.294393 0.712425
O O14 0.982777 0.304994 0.723823
O O15 0.750000 0.294805 0.228083
O O16 0.649117 0.500000 0.204028
O O17 0.628861 0.231742 0.168579
O O18 0.000028 0.769976 0.108597
O O19 0.916571 0.000000 0.112246
O O20 0.874058 0.500000 0.732223
O O21 0.889793 0.710477 0.814894
O O22 0.457028 0.500000 0.122951
#
# Coordination Sequence:
#
# PCOD8212470 Si02
#       8
#     8   8   8   8   8   8   8   8
#     4   9  18  32  50  74 106 141 176 214 259 311
#     4   9  18  33  53  76 104 143 185 217 253 306
#     4  10  22  39  57  76 101 138 181 224 271 321
#     4   9  17  32  53  78 105 132 168 213 262 310
#     4  10  20  36  58  80 105 139 177 219 270 324
#     4  12  24  36  54  79 108 140 177 221 268 319
#     4   9  17  31  53  78 103 130 166 214 262 307
#     4  10  20  37  59  80 103 135 177 220 264 321
#
# _framework density 18.049810000000001
#
# number of rings (size 3 to 8) (size 9 to 14) (size 15 to 20)
#    0.000    2.250    1.250    1.875    0.000    6.000 
#    0.000    1.875    0.000    0.750    0.000    0.000 
#    0.000    0.000    0.000    0.000    0.000    0.000 
#
# Total GULP energy -793665.090681 kJ/mol
# GULP energy per Si atom -12401.017042 kJ/mol
# Density = 1.800873 g / cm^3
# Si number density = 18.049810 Si / 1000 Ang^3
#
#
#
# Elastic Constant Matrix: (Units=GPa)
#
#
# Indices 1 2 3 4 5 6 
#
# 1 55.4892 23.3217 40.2392 0.0000 0.0000 0.0000
# 2 23.3217 55.3153 42.9156 0.0000 0.0000 0.0000
# 3 40.2392 42.9156 133.2274 0.0000 0.0000 0.0000
# 4 0.0000 0.0000 0.0000 -6.0976 0.0000 0.0000
# 5 0.0000 0.0000 0.0000 0.0000 16.9717 0.0000
# 6 0.0000 0.0000 0.0000 0.0000 0.0000 17.5598
#
#
#
# Elastic Compliance Matrix: (Units=1/GPa)
#
#
# Indices 1 2 3 4 5 6 
#
# 1 0.024541 -0.006127 -0.005438 0.000000 0.000000 0.000000
# 2 -0.006127 0.025631 -0.006406 0.000000 0.000000 0.000000
# 3 -0.005438 -0.006406 0.011212 0.000000 0.000000 0.000000
# 4 0.000000 0.000000 0.000000 -0.164000 0.000000 0.000000
# 5 0.000000 0.000000 0.000000 0.000000 0.058922 0.000000
# 6 0.000000 0.000000 0.000000 0.000000 0.000000 0.056948
#
#
# Mechanical properties :
#
#
# Convention : Reuss Voigt Hill
#
# Bulk Modulus (GPa) = 39.30671 50.77611 45.04141
# Shear Modulus (GPa) = 86.68935 14.85714 50.77324
#
# Velocity S-wave (km/s) = 6.93773 2.87212 5.30948
# Velocity P-wave (km/s) = 9.27363 6.26026 7.91174
#
# Compressibility (1/GPa) = 0.02544095
#
# Stress axis : x y z
#
# Youngs Moduli (GPa) = 40.74895 39.01464 89.19037
#
# Poissons Ratio (x) = 0.23906 0.48504
# Poissons Ratio (y) = 0.24968 0.57133
# Poissons Ratio (z) = 0.22161 0.24992
#
# Static dielectric constant tensor:
#      x y z
#    x 3.410860 0.000000 0.000000 
#    y 0.000000 3.264120 0.000000 
#    z 0.000000 0.000000 3.405490 
# 
# 
# High freq. dielectric constant tensor:
#      x y z
#    x 1.698270 0.000000 0.000000 
#    y 0.000000 1.687970 0.000000 
#    z 0.000000 0.000000 1.697580 
# 
# From -- ./inp_files/33760.got.cif
#   From: 2010.03.12/outbox.cif.g09.slc.cpg/sg51_17_cif.got.tgz:33760.got - 2010.04.16 13:43:02.
