data_PCOD8212371
_publ_section_title
;
Structure prediction by ZEFSAII (Michael W. Deem and Ramdas Pophale) SiO2 
 PCOD8212371
Probable space group: P M M A
;
_chemical_formula_sum "Si O2"
_cell_formula_units_Z 64
_cell_length_a 19.802697
_cell_length_b 8.782658
_cell_length_c 20.202060
_cell_angle_alpha 90.000000
_cell_angle_beta 90.000000
_cell_angle_gamma 90.000000
_cell_volume 3513.548643
_symmetry_space_group_name_H-M "P M M A"
_symmetry_group_IT_number 51
_symmetry_cell_setting 'orthorhombic'
loop_
_space_group_symop_operation_xyz
x,y,z
1/2-x,-y,z
1/2+x,-y,-z
-x,y,-z
-x,-y,-z
1/2+x,y,-z
1/2-x,y,z
x,-y,z
loop_
_atom_site_type_symbol
_atom_site_label
_atom_site_fract_x
_atom_site_fract_y
_atom_site_fract_z
Si Si1 0.426741 0.821077 0.821853
Si Si2 0.172473 0.178231 0.933212
Si Si3 0.824710 0.180717 0.430158
Si Si4 0.828601 0.324058 0.928162
Si Si5 0.921060 0.821334 0.819462
Si Si6 0.432199 0.181443 0.674339
Si Si7 0.329189 0.825939 0.420884
Si Si8 0.925803 0.321872 0.680347
O O1 0.373860 0.752440 0.874520
O O2 0.503078 0.776435 0.841996
O O3 0.411364 0.760588 0.747753
O O4 0.416631 0.000000 0.822279
O O5 0.250000 0.208391 0.913570
O O6 0.159038 0.000000 0.945701
O O7 0.151922 0.268024 0.998944
O O8 0.750000 0.246222 0.414049
O O9 0.878012 0.248011 0.377633
O O10 0.846652 0.226268 0.504300
O O11 0.822126 0.000000 0.424756
O O12 0.750000 0.295569 0.914220
O O13 0.848165 0.500000 0.921164
O O14 0.869601 0.226051 0.875879
O O15 0.901879 0.738083 0.751632
O O16 0.915738 0.000000 0.806165
O O17 0.505586 0.243457 0.655485
O O18 0.435768 0.000000 0.671871
O O19 0.250000 0.809725 0.407626
O O20 0.367500 0.714071 0.371809
O O21 0.352366 0.000000 0.409051
O O22 0.937733 0.500000 0.684911
#
# Coordination Sequence:
#
# PCOD8212371 Si02
#       8
#     8   8   8   8   8   8   8   8
#     4   8  16  30  49  75 102 128 162 205 246 285
#     4   9  17  31  51  74 101 133 167 201 240 289
#     4   8  15  29  52  80 104 129 168 216 257 295
#     4  10  21  36  52  73 102 132 164 204 247 293
#     4  10  20  36  56  75  98 129 166 207 252 300
#     4   9  17  32  53  76 104 136 170 209 254 300
#     4   9  18  34  54  75 100 131 169 211 255 304
#     4  11  22  35  51  73 103 135 169 208 250 300
#
# _framework density 18.215201
#
# number of rings (size 3 to 8) (size 9 to 14) (size 15 to 20)
#    0.000    2.750    0.000    3.375    0.000    3.000 
#    0.000   11.250    0.000    1.125    0.000    0.000 
#    0.000    0.000    0.000    0.000    0.000    0.000 
#
# Total GULP energy -793547.518288 kJ/mol
# GULP energy per Si atom -12399.179973 kJ/mol
# Density = 1.817374 g / cm^3
# Si number density = 18.215201 Si / 1000 Ang^3
#
#
#
# Elastic Constant Matrix: (Units=GPa)
#
#
# Indices 1 2 3 4 5 6 
#
# 1 89.0982 23.8944 76.0865 0.0000 0.0000 0.0000
# 2 23.8944 43.0430 24.5708 0.0000 0.0000 0.0000
# 3 76.0865 24.5708 114.8958 0.0000 0.0000 0.0000
# 4 0.0000 0.0000 0.0000 3.9476 0.0000 0.0000
# 5 0.0000 0.0000 0.0000 0.0000 40.4236 0.0000
# 6 0.0000 0.0000 0.0000 0.0000 0.0000 12.4366
#
#
#
# Elastic Compliance Matrix: (Units=1/GPa)
#
#
# Indices 1 2 3 4 5 6 
#
# 1 0.026900 -0.005427 -0.016654 0.000000 0.000000 0.000000
# 2 -0.005427 0.027558 -0.002300 0.000000 0.000000 0.000000
# 3 -0.016654 -0.002300 0.020224 0.000000 0.000000 0.000000
# 4 0.000000 0.000000 0.000000 0.253316 0.000000 0.000000
# 5 0.000000 0.000000 0.000000 0.000000 0.024738 0.000000
# 6 0.000000 0.000000 0.000000 0.000000 0.000000 0.080408
#
#
# Mechanical properties :
#
#
# Convention : Reuss Voigt Hill
#
# Bulk Modulus (GPa) = 38.57698 55.12671 46.85185
# Shear Modulus (GPa) = 10.19277 19.52726 14.86002
#
# Velocity S-wave (km/s) = 2.36810 3.27774 2.85933
# Velocity P-wave (km/s) = 5.35739 6.68241 6.05625
#
# Compressibility (1/GPa) = 0.02592219
#
# Stress axis : x y z
#
# Youngs Moduli (GPa) = 37.17423 36.28733 49.44705
#
# Poissons Ratio (x) = 0.19692 0.82347
# Poissons Ratio (y) = 0.20173 0.11371
# Poissons Ratio (z) = 0.61908 0.08345
#
# Static dielectric constant tensor:
#      x y z
#    x 3.473390 0.000000 0.000000 
#    y 0.000000 3.077030 0.000000 
#    z 0.000000 0.000000 3.551330 
# 
# 
# High freq. dielectric constant tensor:
#      x y z
#    x 1.707020 0.000000 0.000000 
#    y 0.000000 1.678750 0.000000 
#    z 0.000000 0.000000 1.712490 
# 
# From -- ./inp_files/30611.got.cif
#   From: 2010.03.12/outbox.cif.g09.slc.cpg/sg51_16_cif.got.tgz:30611.got - 2010.04.16 13:43:02.
