data_PCOD8212411
_publ_section_title
;
Structure prediction by ZEFSAII (Michael W. Deem and Ramdas Pophale) SiO2 
 PCOD8212411
Probable space group: P M M A
;
_chemical_formula_sum "Si O2"
_cell_formula_units_Z 48
_cell_length_a 15.832112
_cell_length_b 9.393331
_cell_length_c 16.730761
_cell_angle_alpha 90.000000
_cell_angle_beta 90.000000
_cell_angle_gamma 90.000000
_cell_volume 2488.136344
_symmetry_space_group_name_H-M "P M M A"
_symmetry_group_IT_number 51
_symmetry_cell_setting 'orthorhombic'
loop_
_space_group_symop_operation_xyz
x,y,z
1/2-x,-y,z
1/2+x,-y,-z
-x,y,-z
-x,-y,-z
1/2+x,y,-z
1/2-x,y,z
x,-y,z
loop_
_atom_site_type_symbol
_atom_site_label
_atom_site_fract_x
_atom_site_fract_y
_atom_site_fract_z
Si Si1 0.346406 0.336612 0.489894
Si Si2 0.410076 0.338719 0.662573
Si Si3 0.927452 0.166211 0.648521
Si Si4 0.344295 0.337841 0.832197
Si Si5 0.996449 0.832959 0.093005
Si Si6 0.342883 0.833096 0.189152
O O1 0.250000 0.306043 0.468339
O O2 0.370636 0.500000 0.473337
O O3 0.361438 0.296256 0.581906
O O4 0.403907 0.238620 0.434794
O O5 0.445527 0.500000 0.656371
O O6 0.485225 0.229848 0.679617
O O7 0.346156 0.324004 0.736201
O O8 0.858768 0.197789 0.717189
O O9 0.938455 0.000000 0.632867
O O10 0.250000 0.292847 0.859922
O O11 0.363404 0.500000 0.857900
O O12 0.412590 0.237729 0.872942
O O13 0.081509 0.768815 0.134616
O O14 0.989442 0.000000 0.110739
O O15 0.000000 0.798179 0.000000
O O16 0.250000 0.768109 0.167305
O O17 0.340545 0.000000 0.172901
#
# Coordination Sequence:
#
# PCOD8212411 Si02
#       6
#     8   8   8   8   8   8
#     4  10  21  36  53  76 108 146 191 238 280 330
#     4  10  20  36  57  79 108 149 194 234 280 334
#     4  11  21  34  54  79 110 148 190 233 285 338
#     4  10  21  38  61  87 117 154 193 234 285 341
#     4  10  21  38  61  88 116 148 189 236 286 344
#     4   9  18  34  55  79 111 149 186 227 280 338
#
# _framework density 19.291547000000001
#
# number of rings (size 3 to 8) (size 9 to 14) (size 15 to 20)
#    0.000    2.000    1.667    2.000    0.000    7.000 
#    0.000    1.667    0.000    4.500    0.000    0.000 
#    0.000    0.000    0.000    0.000    0.000    0.000 
#
# Total GULP energy -595172.447281 kJ/mol
# GULP energy per Si atom -12399.425985 kJ/mol
# Density = 1.924764 g / cm^3
# Si number density = 19.291547 Si / 1000 Ang^3
#
#
#
# Elastic Constant Matrix: (Units=GPa)
#
#
# Indices 1 2 3 4 5 6 
#
# 1 128.2816 43.6752 49.0832 0.0000 0.0000 0.0000
# 2 43.6752 56.5070 40.8418 0.0000 0.0000 0.0000
# 3 49.0832 40.8418 99.8034 0.0000 0.0000 0.0000
# 4 0.0000 0.0000 0.0000 23.7300 0.0000 0.0000
# 5 0.0000 0.0000 0.0000 0.0000 22.4292 0.0000
# 6 0.0000 0.0000 0.0000 0.0000 0.0000 29.2356
#
#
#
# Elastic Compliance Matrix: (Units=1/GPa)
#
#
# Indices 1 2 3 4 5 6 
#
# 1 0.011092 -0.006575 -0.002764 0.000000 0.000000 0.000000
# 2 -0.006575 0.029027 -0.008645 0.000000 0.000000 0.000000
# 3 -0.002764 -0.008645 0.014917 0.000000 0.000000 0.000000
# 4 0.000000 0.000000 0.000000 0.042141 0.000000 0.000000
# 5 0.000000 0.000000 0.000000 0.000000 0.044585 0.000000
# 6 0.000000 0.000000 0.000000 0.000000 0.000000 0.034205
#
#
# Mechanical properties :
#
#
# Convention : Reuss Voigt Hill
#
# Bulk Modulus (GPa) = 52.44586 61.31026 56.87806
# Shear Modulus (GPa) = 22.90530 25.14508 24.02519
#
# Velocity S-wave (km/s) = 3.44949 3.61421 3.53281
# Velocity P-wave (km/s) = 6.56584 7.01902 6.79621
#
# Compressibility (1/GPa) = 0.01906728
#
# Stress axis : x y z
#
# Youngs Moduli (GPa) = 90.15907 34.45040 67.03815
#
# Poissons Ratio (x) = 0.22651 0.18531
# Poissons Ratio (y) = 0.59279 0.57955
# Poissons Ratio (z) = 0.24922 0.29783
#
# Static dielectric constant tensor:
#      x y z
#    x 3.712880 0.000000 0.000000 
#    y 0.000000 3.338280 0.000000 
#    z 0.000000 0.000000 3.531300 
# 
# 
# High freq. dielectric constant tensor:
#      x y z
#    x 1.760650 0.000000 0.000000 
#    y 0.000000 1.726340 0.000000 
#    z 0.000000 0.000000 1.752780 
# 
# From -- ./inp_files/29413.got.cif
#   From: 2010.03.12/outbox.cif.g09.slc.cpg/sg51_15_cif.got.tgz:29413.got - 2010.04.16 13:43:02.
