data_PCOD8212568
_publ_section_title
;
Structure prediction by ZEFSAII (Michael W. Deem and Ramdas Pophale) SiO2 
 PCOD8212568
Probable space group: P M M A
;
_chemical_formula_sum "Si O2"
_cell_formula_units_Z 48
_cell_length_a 9.806999
_cell_length_b 18.756490
_cell_length_c 13.845408
_cell_angle_alpha 90.000000
_cell_angle_beta 90.000000
_cell_angle_gamma 90.000000
_cell_volume 2546.791895
_symmetry_space_group_name_H-M "P M M A"
_symmetry_group_IT_number 51
_symmetry_cell_setting 'orthorhombic'
loop_
_space_group_symop_operation_xyz
x,y,z
1/2-x,-y,z
1/2+x,-y,-z
-x,y,-z
-x,-y,-z
1/2+x,y,-z
1/2-x,y,z
x,-y,z
loop_
_atom_site_type_symbol
_atom_site_label
_atom_site_fract_x
_atom_site_fract_y
_atom_site_fract_z
Si Si1 0.750000 0.916812 0.077405
Si Si2 0.088788 0.421131 0.784375
Si Si3 0.025064 0.152091 0.794657
Si Si4 0.095839 0.185184 0.585254
Si Si5 0.408889 0.351180 0.588070
Si Si6 0.087697 0.711144 0.906208
Si Si7 0.250000 0.914317 0.142292
O O1 0.615988 0.892760 0.132130
O O2 0.750000 0.000000 0.070925
O O3 0.750000 0.887038 0.968363
O O4 0.250000 0.423860 0.778191
O O5 0.028124 0.500000 0.805372
O O6 0.035511 0.392551 0.681830
O O7 0.047068 0.368031 0.870735
O O8 0.875519 0.120688 0.802574
O O9 0.070873 0.142005 0.684010
O O10 0.040792 0.234955 0.822527
O O11 0.250000 0.173408 0.550517
O O12 0.064972 0.267831 0.605230
O O13 0.000000 0.155264 0.500000
O O14 0.500000 0.379752 0.500000
O O15 0.250000 0.366902 0.566952
O O16 0.250000 0.719347 0.926046
O O17 0.000000 0.729155 0.000000
O O18 0.250000 0.000000 0.151394
#
# Coordination Sequence:
#
# PCOD8212568 Si02
#       7
#     4   8   8   8   8   8   4
#     4  11  22  40  65  91 122 160 194 233 295 357
#     4   9  18  34  55  78 113 157 194 235 289 347
#     4  12  22  39  63  90 122 158 196 246 295 350
#     4  10  20  36  59  88 118 152 199 249 297 348
#     4   9  17  32  52  79 110 144 188 237 289 342
#     4  11  22  37  58  86 115 151 201 246 289 347
#     4  11  26  42  61  95 130 156 192 237 295 363
#
# _framework density 18.847239999999999
#
# number of rings (size 3 to 8) (size 9 to 14) (size 15 to 20)
#    0.000    1.667    3.333    2.000    2.333    2.000 
#    0.000    0.833    0.000    4.000    0.000    0.000 
#    0.000    0.000    0.000    0.000    0.000    0.000 
#
# Total GULP energy -595208.316981 kJ/mol
# GULP energy per Si atom -12400.173270 kJ/mol
# Density = 1.880434 g / cm^3
# Si number density = 18.847240 Si / 1000 Ang^3
#
#
#
# Elastic Constant Matrix: (Units=GPa)
#
#
# Indices 1 2 3 4 5 6 
#
# 1 96.9757 27.2565 33.7617 0.0000 0.0000 0.0000
# 2 27.2565 54.7335 23.4022 0.0000 0.0000 0.0000
# 3 33.7617 23.4022 101.2946 0.0000 0.0000 0.0000
# 4 0.0000 0.0000 0.0000 24.3558 0.0000 0.0000
# 5 0.0000 0.0000 0.0000 0.0000 35.1610 0.0000
# 6 0.0000 0.0000 0.0000 0.0000 0.0000 29.2223
#
#
#
# Elastic Compliance Matrix: (Units=1/GPa)
#
#
# Indices 1 2 3 4 5 6 
#
# 1 0.012813 -0.005054 -0.003103 0.000000 0.000000 0.000000
# 2 -0.005054 0.022266 -0.003460 0.000000 0.000000 0.000000
# 3 -0.003103 -0.003460 0.011706 0.000000 0.000000 0.000000
# 4 0.000000 0.000000 0.000000 0.041058 0.000000 0.000000
# 5 0.000000 0.000000 0.000000 0.000000 0.028441 0.000000
# 6 0.000000 0.000000 0.000000 0.000000 0.000000 0.034220
#
#
# Mechanical properties :
#
#
# Convention : Reuss Voigt Hill
#
# Bulk Modulus (GPa) = 42.45971 46.87162 44.66567
# Shear Modulus (GPa) = 27.53500 28.98672 28.26086
#
# Velocity S-wave (km/s) = 3.82639 3.92597 3.87650
# Velocity P-wave (km/s) = 6.48837 6.74345 6.61714
#
# Compressibility (1/GPa) = 0.02355174
#
# Stress axis : x y z
#
# Youngs Moduli (GPa) = 78.04841 44.91080 85.42847
#
# Poissons Ratio (x) = 0.22697 0.26507
# Poissons Ratio (y) = 0.39444 0.29556
# Poissons Ratio (z) = 0.24217 0.15538
#
# Static dielectric constant tensor:
#      x y z
#    x 22.255180 0.000000 0.000000 
#    y 0.000000 3.581480 0.000000 
#    z 0.000000 0.000000 3.488020 
# 
# 
# High freq. dielectric constant tensor:
#      x y z
#    x 1.720460 0.000000 0.000000 
#    y 0.000000 1.723840 0.000000 
#    z 0.000000 0.000000 1.736030 
# 
# From -- ./inp_files/21142.got.cif
#   From: 2010.03.12/outbox.cif.g09.slc.cpg/sg51_11_cif.got.tgz:21142.got - 2010.04.16 13:43:02.
