data_PCOD8212162
_publ_section_title
;
Structure prediction by ZEFSAII (Michael W. Deem and Ramdas Pophale) SiO2 
 PCOD8212162
Probable space group: P M M A
;
_chemical_formula_sum "Si O2"
_cell_formula_units_Z 64
_cell_length_a 28.402239
_cell_length_b 9.364677
_cell_length_c 12.595603
_cell_angle_alpha 90.000000
_cell_angle_beta 90.000000
_cell_angle_gamma 90.000000
_cell_volume 3350.150704
_symmetry_space_group_name_H-M "P M M A"
_symmetry_group_IT_number 51
_symmetry_cell_setting 'orthorhombic'
loop_
_space_group_symop_operation_xyz
x,y,z
1/2-x,-y,z
1/2+x,-y,-z
-x,y,-z
-x,-y,-z
1/2+x,y,-z
1/2-x,y,z
x,-y,z
loop_
_atom_site_type_symbol
_atom_site_label
_atom_site_fract_x
_atom_site_fract_y
_atom_site_fract_z
Si Si1 0.638752 0.164147 0.397675
Si Si2 0.305227 0.336021 0.433403
Si Si3 0.981378 0.832133 0.115728
Si Si4 0.054837 0.664724 0.253226
Si Si5 0.551084 0.162260 0.541084
Si Si6 0.123906 0.830382 0.838137
Si Si7 0.841331 0.664148 0.792546
Si Si8 0.803708 0.165647 0.986686
O O1 0.676599 0.248973 0.465991
O O2 0.586416 0.180935 0.443368
O O3 0.637385 0.227729 0.278389
O O4 0.654884 0.000000 0.397197
O O5 0.250000 0.313711 0.424193
O O6 0.319264 0.500000 0.451243
O O7 0.328648 0.278255 0.324861
O O8 0.927854 0.777577 0.126865
O O9 0.012627 0.751297 0.201361
O O10 0.985849 0.000000 0.138423
O O11 0.000000 0.791386 0.000000
O O12 0.040112 0.500000 0.263599
O O13 0.065939 0.727658 0.368578
O O14 0.102876 0.681033 0.185762
O O15 0.500000 0.204312 0.500000
O O16 0.552127 0.000000 0.585261
O O17 0.124331 0.000000 0.835799
O O18 0.162283 0.771824 0.921776
O O19 0.825271 0.500000 0.802512
O O20 0.812459 0.754258 0.877065
O O21 0.750000 0.189309 0.023346
O O22 0.814749 0.000000 0.966703
#
# Coordination Sequence:
#
# PCOD8212162 Si02
#       8
#     8   8   8   8   8   8   8   8
#     4  10  20  35  57  83 112 147 187 234 278 332
#     4  10  21  38  58  79 110 151 190 233 287 344
#     4  10  20  36  59  84 113 154 196 234 283 344
#     4  11  22  35  55  83 115 150 189 237 286 337
#     4  10  20  35  56  82 112 148 189 231 277 335
#     4   9  19  37  58  83 117 151 185 228 288 347
#     4  10  21  38  58  81 114 152 187 231 291 350
#     4  10  21  37  60  88 113 142 187 242 291 341
#
# _framework density 19.103618000000001
#
# number of rings (size 3 to 8) (size 9 to 14) (size 15 to 20)
#    0.000    2.000    1.250    2.250    0.000    6.500 
#    0.000    4.375    0.000    0.000    0.000    0.000 
#    0.000    0.000    0.000    0.000    0.000    0.000 
#
# Total GULP energy -793821.060845 kJ/mol
# GULP energy per Si atom -12403.454076 kJ/mol
# Density = 1.906014 g / cm^3
# Si number density = 19.103618 Si / 1000 Ang^3
#
#
#
# Elastic Constant Matrix: (Units=GPa)
#
#
# Indices 1 2 3 4 5 6 
#
# 1 110.7681 35.8679 57.1862 0.0000 0.0000 0.0000
# 2 35.8679 52.7711 45.7581 0.0000 0.0000 0.0000
# 3 57.1862 45.7581 139.0226 0.0000 0.0000 0.0000
# 4 0.0000 0.0000 0.0000 10.0448 0.0000 0.0000
# 5 0.0000 0.0000 0.0000 0.0000 35.5677 0.0000
# 6 0.0000 0.0000 0.0000 0.0000 0.0000 20.3299
#
#
#
# Elastic Compliance Matrix: (Units=1/GPa)
#
#
# Indices 1 2 3 4 5 6 
#
# 1 0.012572 -0.005683 -0.003301 0.000000 0.000000 0.000000
# 2 -0.005683 0.029087 -0.007236 0.000000 0.000000 0.000000
# 3 -0.003301 -0.007236 0.010933 0.000000 0.000000 0.000000
# 4 0.000000 0.000000 0.000000 0.099554 0.000000 0.000000
# 5 0.000000 0.000000 0.000000 0.000000 0.028115 0.000000
# 6 0.000000 0.000000 0.000000 0.000000 0.000000 0.049189
#
#
# Mechanical properties :
#
#
# Convention : Reuss Voigt Hill
#
# Bulk Modulus (GPa) = 49.62353 64.46512 57.04432
# Shear Modulus (GPa) = 18.61452 24.10510 21.35981
#
# Velocity S-wave (km/s) = 3.12492 3.55605 3.34743
# Velocity P-wave (km/s) = 6.24920 7.11891 6.69819
#
# Compressibility (1/GPa) = 0.02015173
#
# Stress axis : x y z
#
# Youngs Moduli (GPa) = 79.54004 34.37989 91.46923
#
# Poissons Ratio (x) = 0.19538 0.30195
# Poissons Ratio (y) = 0.45201 0.66188
# Poissons Ratio (z) = 0.26257 0.24877
#
# Static dielectric constant tensor:
#      x y z
#    x 3.585220 0.000000 0.000000 
#    y 0.000000 3.310860 0.000000 
#    z 0.000000 0.000000 3.559450 
# 
# 
# High freq. dielectric constant tensor:
#      x y z
#    x 1.755290 0.000000 0.000000 
#    y 0.000000 1.720650 0.000000 
#    z 0.000000 0.000000 1.746180 
# 
# From -- ./inp_files/19448.got.cif
#   From: 2010.03.12/outbox.cif.g09.slc.cpg/sg51_10_cif.got.tgz:19448.got - 2010.04.16 13:43:02.
