data_PCOD8212610
_publ_section_title
;
Structure prediction by ZEFSAII (Michael W. Deem and Ramdas Pophale) SiO2 
 PCOD8212610
Probable space group: P M M A
;
_chemical_formula_sum "Si O2"
_cell_formula_units_Z 40
_cell_length_a 16.002475
_cell_length_b 8.820337
_cell_length_c 13.853999
_cell_angle_alpha 90.000000
_cell_angle_beta 90.000000
_cell_angle_gamma 90.000000
_cell_volume 1955.453477
_symmetry_space_group_name_H-M "P M M A"
_symmetry_group_IT_number 51
_symmetry_cell_setting 'orthorhombic'
loop_
_space_group_symop_operation_xyz
x,y,z
1/2-x,-y,z
1/2+x,-y,-z
-x,y,-z
-x,-y,-z
1/2+x,y,-z
1/2-x,y,z
x,-y,z
loop_
_atom_site_type_symbol
_atom_site_label
_atom_site_fract_x
_atom_site_fract_y
_atom_site_fract_z
Si Si1 0.250000 0.676643 0.248533
Si Si2 0.347004 0.672476 0.551579
Si Si3 0.106424 0.826495 0.365266
Si Si4 0.580785 0.819390 0.057168
Si Si5 0.250000 0.820238 0.041417
Si Si6 0.074454 0.826019 0.724384
O O1 0.250000 0.500000 0.224081
O O2 0.168704 0.716355 0.309785
O O3 0.250000 0.772015 0.151494
O O4 0.250000 0.686739 0.525908
O O5 0.377837 0.500000 0.542708
O O6 0.398994 0.775796 0.476872
O O7 0.361646 0.730104 0.660076
O O8 0.017572 0.806619 0.316734
O O9 0.137417 0.000000 0.359221
O O10 0.576813 0.761389 0.167095
O O11 0.578661 0.000000 0.053493
O O12 0.500000 0.754690 0.000000
O O13 0.666428 0.756521 0.010062
O O14 0.250000 0.000000 0.036570
O O15 0.103723 0.000000 0.722555
#
# Coordination Sequence:
#
# PCOD8212610 Si02
#       6
#     4   8   8   8   4   8
#     4  12  24  38  59  88 121 158 199 248 304 360
#     4  11  24  40  58  86 125 166 201 242 298 361
#     4  11  22  39  63  90 118 155 201 252 302 356
#     4   9  18  35  59  89 120 150 197 257 304 352
#     4  10  20  36  61  86 113 158 201 244 308 360
#     4  10  22  38  62  92 120 154 202 254 303 355
#
# _framework density 20.455614000000001
#
# number of rings (size 3 to 8) (size 9 to 14) (size 15 to 20)
#    0.000    1.600    1.000    3.900    1.400    8.400 
#    0.000    1.000    0.000    2.400    0.000    0.000 
#    0.000    0.000    0.000    0.000    0.000    0.000 
#
# Total GULP energy -496187.865716 kJ/mol
# GULP energy per Si atom -12404.696643 kJ/mol
# Density = 2.040906 g / cm^3
# Si number density = 20.455614 Si / 1000 Ang^3
#
#
#
# Elastic Constant Matrix: (Units=GPa)
#
#
# Indices 1 2 3 4 5 6 
#
# 1 91.5590 25.8720 44.9128 0.0000 0.0000 0.0000
# 2 25.8720 42.6845 10.8673 0.0000 0.0000 0.0000
# 3 44.9128 10.8673 151.0284 0.0000 0.0000 0.0000
# 4 0.0000 0.0000 0.0000 9.7117 0.0000 0.0000
# 5 0.0000 0.0000 0.0000 0.0000 3.8934 0.0000
# 6 0.0000 0.0000 0.0000 0.0000 0.0000 14.2246
#
#
#
# Elastic Compliance Matrix: (Units=1/GPa)
#
#
# Indices 1 2 3 4 5 6 
#
# 1 0.015158 -0.008190 -0.003918 0.000000 0.000000 0.000000
# 2 -0.008190 0.028290 0.000400 0.000000 0.000000 0.000000
# 3 -0.003918 0.000400 0.007758 0.000000 0.000000 0.000000
# 4 0.000000 0.000000 0.000000 0.102968 0.000000 0.000000
# 5 0.000000 0.000000 0.000000 0.000000 0.256847 0.000000
# 6 0.000000 0.000000 0.000000 0.000000 0.000000 0.070301
#
#
# Mechanical properties :
#
#
# Convention : Reuss Voigt Hill
#
# Bulk Modulus (GPa) = 35.98559 49.84179 42.91369
# Shear Modulus (GPa) = 9.72757 19.14059 14.43408
#
# Velocity S-wave (km/s) = 2.18307 3.06226 2.65925
# Velocity P-wave (km/s) = 4.89741 6.07635 5.51845
#
# Compressibility (1/GPa) = 0.02778890
#
# Stress axis : x y z
#
# Youngs Moduli (GPa) = 65.97005 35.34797 128.90315
#
# Poissons Ratio (x) = 0.28951 0.50510
# Poissons Ratio (y) = 0.54031 -0.05156
# Poissons Ratio (z) = 0.25850 -0.01414
#
# Static dielectric constant tensor:
#      x y z
#    x 3.792770 0.000000 0.000000 
#    y 0.000000 3.457360 0.000000 
#    z 0.000000 0.000000 3.899690 
# 
# 
# High freq. dielectric constant tensor:
#      x y z
#    x 1.807440 0.000000 0.000000 
#    y 0.000000 1.771630 0.000000 
#    z 0.000000 0.000000 1.816100 
# 
# From -- ./inp_files/23758.got.cif
#   From: 2010.03.12/outbox.cif.g09.slc.cpg/sg51_12_cif.got.tgz:23758.got - 2010.04.16 13:43:02.
