data_PCOD8212160
_publ_section_title
;
Structure prediction by ZEFSAII (Michael W. Deem and Ramdas Pophale) SiO2 
 PCOD8212160
Probable space group: P M M A
;
_chemical_formula_sum "Si O2"
_cell_formula_units_Z 64
_cell_length_a 18.646138
_cell_length_b 9.162799
_cell_length_c 19.582596
_cell_angle_alpha 90.000000
_cell_angle_beta 90.000000
_cell_angle_gamma 90.000000
_cell_volume 3345.702479
_symmetry_space_group_name_H-M "P M M A"
_symmetry_group_IT_number 51
_symmetry_cell_setting 'orthorhombic'
loop_
_space_group_symop_operation_xyz
x,y,z
1/2-x,-y,z
1/2+x,-y,-z
-x,y,-z
-x,-y,-z
1/2+x,y,-z
1/2-x,y,z
x,-y,z
loop_
_atom_site_type_symbol
_atom_site_label
_atom_site_fract_x
_atom_site_fract_y
_atom_site_fract_z
Si Si1 0.585849 0.331170 0.150233
Si Si2 0.940159 0.328118 0.627578
Si Si3 0.832371 0.171891 0.882791
Si Si4 0.419394 0.172044 0.985702
Si Si5 0.936239 0.671016 0.785952
Si Si6 0.417860 0.828844 0.599817
Si Si7 0.666834 0.830827 0.536433
Si Si8 0.833162 0.667588 0.285329
O O1 0.581507 0.500000 0.130668
O O2 0.609584 0.243018 0.083597
O O3 0.508861 0.275724 0.177376
O O4 0.645958 0.301736 0.207182
O O5 0.945556 0.500000 0.615721
O O6 0.941706 0.286575 0.706944
O O7 0.866765 0.267556 0.595890
O O8 0.006438 0.250981 0.589684
O O9 0.750000 0.220018 0.885188
O O10 0.868646 0.246900 0.817850
O O11 0.841417 0.000000 0.874168
O O12 0.869564 0.226067 0.952460
O O13 0.415788 0.000000 0.976429
O O14 0.500000 0.226003 0.000000
O O15 0.924439 0.500000 0.795253
O O16 0.368682 0.790419 0.535523
O O17 0.378559 0.773268 0.667291
O O18 0.432006 0.000000 0.606838
O O19 0.750000 0.790883 0.531119
O O20 0.654822 0.000000 0.554554
O O21 0.750000 0.702191 0.295199
O O22 0.851866 0.500000 0.304236
#
# Coordination Sequence:
#
# PCOD8212160 Si02
#       8
#     8   8   8   8   8   8   8   8
#     4  10  20  36  57  83 114 149 189 232 283 339
#     4  11  23  40  62  89 119 152 197 248 296 349
#     4  10  22  39  58  83 116 151 191 240 292 344
#     4  10  20  35  56  82 110 145 188 233 283 340
#     4  10  21  38  59  83 115 150 189 238 287 340
#     4  11  22  38  62  89 119 156 197 241 290 347
#     4  10  23  42  60  84 121 158 194 241 296 351
#     4  10  21  38  59  85 120 156 189 232 288 345
#
# _framework density 19.129017000000001
#
# number of rings (size 3 to 8) (size 9 to 14) (size 15 to 20)
#    0.000    1.750    2.500    1.500    0.000    7.000 
#    0.000    2.500    0.000    0.000    0.000    0.000 
#    0.000    0.000    0.000    0.000    0.000    0.000 
#
# Total GULP energy -793982.202032 kJ/mol
# GULP energy per Si atom -12405.971907 kJ/mol
# Density = 1.908548 g / cm^3
# Si number density = 19.129017 Si / 1000 Ang^3
#
#
#
# Elastic Constant Matrix: (Units=GPa)
#
#
# Indices 1 2 3 4 5 6 
#
# 1 122.3341 44.3506 44.0265 0.0000 0.0000 0.0000
# 2 44.3506 59.0144 47.4566 0.0000 0.0000 0.0000
# 3 44.0265 47.4566 86.7568 0.0000 0.0000 0.0000
# 4 0.0000 0.0000 0.0000 38.0017 0.0000 0.0000
# 5 0.0000 0.0000 0.0000 0.0000 35.6547 0.0000
# 6 0.0000 0.0000 0.0000 0.0000 0.0000 29.2510
#
#
#
# Elastic Compliance Matrix: (Units=1/GPa)
#
#
# Indices 1 2 3 4 5 6 
#
# 1 0.011420 -0.007002 -0.001965 0.000000 0.000000 0.000000
# 2 -0.007002 0.034546 -0.015343 0.000000 0.000000 0.000000
# 3 -0.001965 -0.015343 0.020917 0.000000 0.000000 0.000000
# 4 0.000000 0.000000 0.000000 0.026315 0.000000 0.000000
# 5 0.000000 0.000000 0.000000 0.000000 0.028047 0.000000
# 6 0.000000 0.000000 0.000000 0.000000 0.000000 0.034187
#
#
# Mechanical properties :
#
#
# Convention : Reuss Voigt Hill
#
# Bulk Modulus (GPa) = 54.76109 59.97473 57.36791
# Shear Modulus (GPa) = 23.79375 29.39959 26.59667
#
# Velocity S-wave (km/s) = 3.53066 3.92460 3.73283
# Velocity P-wave (km/s) = 6.73128 7.20815 6.97379
#
# Compressibility (1/GPa) = 0.01826114
#
# Stress axis : x y z
#
# Youngs Moduli (GPa) = 87.56481 28.94710 47.80879
#
# Poissons Ratio (x) = 0.20269 0.09395
# Poissons Ratio (y) = 0.61315 0.73355
# Poissons Ratio (z) = 0.17207 0.44415
#
# Static dielectric constant tensor:
#      x y z
#    x 3.595370 0.000000 0.000000 
#    y 0.000000 3.391520 0.000000 
#    z 0.000000 0.000000 3.510020 
# 
# 
# High freq. dielectric constant tensor:
#      x y z
#    x 1.748970 0.000000 0.000000 
#    y 0.000000 1.738360 0.000000 
#    z 0.000000 0.000000 1.752020 
# 
# From -- ./inp_files/30640.got.cif
#   From: 2010.03.12/outbox.cif.g09.slc.cpg/sg51_16_cif.got.tgz:30640.got - 2010.04.16 13:43:02.
