data_PCOD8212087
_publ_section_title
;
Structure prediction by ZEFSAII (Michael W. Deem and Ramdas Pophale) SiO2 
 PCOD8212087
Probable space group: P M M A
;
_chemical_formula_sum "Si O2"
_cell_formula_units_Z 48
_cell_length_a 28.361808
_cell_length_b 9.141135
_cell_length_c 9.942314
_cell_angle_alpha 90.000000
_cell_angle_beta 90.000000
_cell_angle_gamma 90.000000
_cell_volume 2577.635536
_symmetry_space_group_name_H-M "P M M A"
_symmetry_group_IT_number 51
_symmetry_cell_setting 'orthorhombic'
loop_
_space_group_symop_operation_xyz
x,y,z
1/2-x,-y,z
1/2+x,-y,-z
-x,y,-z
-x,-y,-z
1/2+x,y,-z
1/2-x,y,z
x,-y,z
loop_
_atom_site_type_symbol
_atom_site_label
_atom_site_fract_x
_atom_site_fract_y
_atom_site_fract_z
Si Si1 0.532327 0.169261 0.120419
Si Si2 0.194467 0.663789 0.792514
Si Si3 0.378652 0.674078 0.278141
Si Si4 0.197425 0.326099 0.492814
Si Si5 0.016613 0.672660 0.354463
Si Si6 0.866440 0.830109 0.002219
O O1 0.520641 0.259331 0.252583
O O2 0.521495 0.000000 0.148161
O O3 0.500000 0.228699 0.000000
O O4 0.585912 0.199450 0.083071
O O5 0.250000 0.658105 0.809473
O O6 0.173594 0.500000 0.814105
O O7 0.181808 0.722944 0.642872
O O8 0.175279 0.774276 0.903565
O O9 0.376472 0.500000 0.265568
O O10 0.340526 0.733515 0.385949
O O11 0.430307 0.727463 0.325024
O O12 0.365808 0.742623 0.136050
O O13 0.250000 0.265583 0.457935
O O14 0.198994 0.500000 0.490083
O O15 0.013555 0.500000 0.341166
O O16 0.000000 0.726619 0.500000
O O17 0.859352 0.000000 0.969328
#
# Coordination Sequence:
#
# PCOD8212087 Si02
#       6
#     8   8   8   8   8   8
#     4  10  21  39  57  75 108 152 190 222 264 323
#     4   9  19  37  61  86 110 141 181 224 275 332
#     4  10  20  35  55  81 111 143 182 227 276 329
#     4   8  16  33  57  82 107 137 175 221 271 325
#     4  10  22  36  54  84 113 140 180 232 282 325
#     4  11  23  37  55  81 112 148 187 227 271 319
#
# _framework density 18.621717
#
# number of rings (size 3 to 8) (size 9 to 14) (size 15 to 20)
#    0.000    2.333    1.667    1.500    2.333    3.000 
#    0.000    2.500    0.000    1.000    0.000    0.000 
#    0.000    0.000    0.000    0.000    0.000    0.000 
#
# Total GULP energy -595246.052107 kJ/mol
# GULP energy per Si atom -12400.959419 kJ/mol
# Density = 1.857933 g / cm^3
# Si number density = 18.621717 Si / 1000 Ang^3
#
#
#
# Elastic Constant Matrix: (Units=GPa)
#
#
# Indices 1 2 3 4 5 6 
#
# 1 72.7901 23.9690 60.4502 0.0000 0.0000 0.0000
# 2 23.9690 24.8928 33.7070 0.0000 0.0000 0.0000
# 3 60.4502 33.7070 154.8281 0.0000 0.0000 0.0000
# 4 0.0000 0.0000 0.0000 -67.2903 0.0000 0.0000
# 5 0.0000 0.0000 0.0000 0.0000 35.2295 0.0000
# 6 0.0000 0.0000 0.0000 0.0000 0.0000 22.4715
#
#
#
# Elastic Compliance Matrix: (Units=1/GPa)
#
#
# Indices 1 2 3 4 5 6 
#
# 1 0.023511 -0.014476 -0.006028 0.000000 0.000000 0.000000
# 2 -0.014476 0.065878 -0.008690 0.000000 0.000000 0.000000
# 3 -0.006028 -0.008690 0.010704 0.000000 0.000000 0.000000
# 4 0.000000 0.000000 0.000000 -0.014861 0.000000 0.000000
# 5 0.000000 0.000000 0.000000 0.000000 0.028385 0.000000
# 6 0.000000 0.000000 0.000000 0.000000 0.000000 0.044501
#
#
# Mechanical properties :
#
#
# Convention : Reuss Voigt Hill
#
# Bulk Modulus (GPa) = 23.97786 54.30704 39.14245
# Shear Modulus (GPa) = 21.70054 7.04112 14.37083
#
# Velocity S-wave (km/s) = 3.41740 1.94662 2.78101
# Velocity P-wave (km/s) = 5.33627 5.85483 5.60155
#
# Compressibility (1/GPa) = 0.04170514
#
# Stress axis : x y z
#
# Youngs Moduli (GPa) = 42.53316 15.17948 93.42129
#
# Poissons Ratio (x) = 0.21974 0.56314
# Poissons Ratio (y) = 0.61572 0.81184
# Poissons Ratio (z) = 0.25639 0.13191
#
# Static dielectric constant tensor:
#      x y z
#    x 3.596590 0.000000 0.000000 
#    y 0.000000 3.181580 0.000000 
#    z 0.000000 0.000000 3.555480 
# 
# 
# High freq. dielectric constant tensor:
#      x y z
#    x 1.729320 0.000000 0.000000 
#    y 0.000000 1.696550 0.000000 
#    z 0.000000 0.000000 1.733580 
# 
# From -- ./inp_files/12747.got.cif
#   From: 2010.03.12/outbox.cif.g09.slc.cpg/sg51_7_cif.got.tgz:12747.got - 2010.04.16 13:43:02.
