data_PCOD8212649
_publ_section_title
;
Structure prediction by ZEFSAII (Michael W. Deem and Ramdas Pophale) SiO2 
 PCOD8212649
Probable space group: P M M A
;
_chemical_formula_sum "Si O2"
_cell_formula_units_Z 48
_cell_length_a 8.745496
_cell_length_b 30.226171
_cell_length_c 9.662689
_cell_angle_alpha 90.000000
_cell_angle_beta 90.000000
_cell_angle_gamma 90.000000
_cell_volume 2554.262822
_symmetry_space_group_name_H-M "P M M A"
_symmetry_group_IT_number 51
_symmetry_cell_setting 'orthorhombic'
loop_
_space_group_symop_operation_xyz
x,y,z
1/2-x,-y,z
1/2+x,-y,-z
-x,y,-z
-x,-y,-z
1/2+x,y,-z
1/2-x,y,z
x,-y,z
loop_
_atom_site_type_symbol
_atom_site_label
_atom_site_fract_x
_atom_site_fract_y
_atom_site_fract_z
Si Si1 0.431160 0.135144 0.652734
Si Si2 0.430902 0.381133 0.348932
Si Si3 0.568994 0.794839 0.854518
Si Si4 0.928814 0.047966 0.650673
Si Si5 0.572397 0.551732 0.144057
Si Si6 0.070969 0.694076 0.142974
O O1 0.500000 0.137461 0.500000
O O2 0.250000 0.136795 0.647669
O O3 0.493954 0.176794 0.734586
O O4 0.487272 0.089154 0.726741
O O5 0.500000 0.378495 0.500000
O O6 0.250000 0.384111 0.359810
O O7 0.491628 0.424477 0.271874
O O8 0.485499 0.337329 0.266802
O O9 0.750000 0.801517 0.856270
O O10 0.520720 0.744235 0.824184
O O11 0.500000 0.810675 0.000000
O O12 0.750000 0.058797 0.638881
O O13 0.000000 0.044349 0.500000
O O14 0.954635 0.000000 0.725819
O O15 0.750000 0.563798 0.141801
O O16 0.543167 0.500000 0.165422
O O17 0.500000 0.568184 0.000000
O O18 0.250000 0.690857 0.123809
O O19 0.000000 0.676963 0.000000
#
# Coordination Sequence:
#
# PCOD8212649 Si02
#       6
#     8   8   8   8   8   8
#     4  11  21  33  51  77 107 140 177 219 267 315
#     4  11  23  38  56  82 114 147 182 222 272 322
#     4  10  20  37  57  79 107 139 177 218 264 318
#     4   9  16  27  45  70 100 134 172 215 262 312
#     4  10  21  38  60  85 112 145 185 226 268 317
#     4   9  20  37  58  81 105 137 177 220 264 316
#
# _framework density 18.792116
#
# number of rings (size 3 to 8) (size 9 to 14) (size 15 to 20)
#    0.000    2.000    0.000    5.000    0.000    6.333 
#    0.000    1.667    0.000    0.500    0.000    0.000 
#    0.000    0.000    0.000    0.000    0.000    0.000 
#
# Total GULP energy -595147.906858 kJ/mol
# GULP energy per Si atom -12398.914726 kJ/mol
# Density = 1.874934 g / cm^3
# Si number density = 18.792116 Si / 1000 Ang^3
#
#
#
# Elastic Constant Matrix: (Units=GPa)
#
#
# Indices 1 2 3 4 5 6 
#
# 1 115.4032 58.0610 54.8520 0.0000 0.0000 0.0000
# 2 58.0610 112.2796 72.7157 0.0000 0.0000 0.0000
# 3 54.8520 72.7157 123.7321 0.0000 0.0000 0.0000
# 4 0.0000 0.0000 0.0000 15.0913 0.0000 0.0000
# 5 0.0000 0.0000 0.0000 0.0000 34.0195 0.0000
# 6 0.0000 0.0000 0.0000 0.0000 0.0000 -20.4600
#
#
#
# Elastic Compliance Matrix: (Units=1/GPa)
#
#
# Indices 1 2 3 4 5 6 
#
# 1 0.012270 -0.004557 -0.002762 0.000000 0.000000 0.000000
# 2 -0.004557 0.016071 -0.007425 0.000000 0.000000 0.000000
# 3 -0.002762 -0.007425 0.013670 0.000000 0.000000 0.000000
# 4 0.000000 0.000000 0.000000 0.066263 0.000000 0.000000
# 5 0.000000 0.000000 0.000000 0.000000 0.029395 0.000000
# 6 0.000000 0.000000 0.000000 0.000000 0.000000 -0.048876
#
#
# Mechanical properties :
#
#
# Convention : Reuss Voigt Hill
#
# Bulk Modulus (GPa) = 79.84033 80.29695 80.06864
# Shear Modulus (GPa) = 40.83132 16.78258 28.80695
#
# Velocity S-wave (km/s) = 4.66638 2.99166 3.91951
# Velocity P-wave (km/s) = 8.46237 7.39968 7.94880
#
# Compressibility (1/GPa) = 0.01252500
#
# Stress axis : x y z
#
# Youngs Moduli (GPa) = 81.49664 62.22353 73.15405
#
# Poissons Ratio (x) = 0.28352 0.20204
# Poissons Ratio (y) = 0.37134 0.54315
# Poissons Ratio (z) = 0.22508 0.46200
#
# Static dielectric constant tensor:
#      x y z
#    x 3.558300 0.000000 0.000000 
#    y 0.000000 4.049930 0.000000 
#    z 0.000000 0.000000 3.296220 
# 
# 
# High freq. dielectric constant tensor:
#      x y z
#    x 1.745440 0.000000 0.000000 
#    y 0.000000 1.749240 0.000000 
#    z 0.000000 0.000000 1.701020 
# 
# From -- ./inp_files/5978.got.cif
#   From: 2010.03.12/outbox.cif.g09.slc.cpg/sg51_3_cif.got.tgz:5978.got - 2010.04.16 13:43:02.
