data_PCOD8212875
_publ_section_title
;
Structure prediction by ZEFSAII (Michael W. Deem and Ramdas Pophale) SiO2 
 PCOD8212875
Probable space group: P M M A
;
_chemical_formula_sum "Si O2"
_cell_formula_units_Z 64
_cell_length_a 28.888803
_cell_length_b 9.159604
_cell_length_c 12.459867
_cell_angle_alpha 90.000000
_cell_angle_beta 90.000000
_cell_angle_gamma 90.000000
_cell_volume 3297.005351
_symmetry_space_group_name_H-M "P M M A"
_symmetry_group_IT_number 51
_symmetry_cell_setting 'orthorhombic'
loop_
_space_group_symop_operation_xyz
x,y,z
1/2-x,-y,z
1/2+x,-y,-z
-x,y,-z
-x,-y,-z
1/2+x,y,-z
1/2-x,y,z
x,-y,z
loop_
_atom_site_type_symbol
_atom_site_label
_atom_site_fract_x
_atom_site_fract_y
_atom_site_fract_z
Si Si1 0.043117 0.674020 0.786951
Si Si2 0.103624 0.169019 0.956714
Si Si3 0.953991 0.830707 0.437095
Si Si4 0.804317 0.340926 0.329001
Si Si5 0.387672 0.831855 0.370120
Si Si6 0.801103 0.168342 0.125334
Si Si7 0.949236 0.171214 0.828083
Si Si8 0.698149 0.326899 0.566595
O O1 0.041224 0.500000 0.784750
O O2 0.083843 0.727591 0.864326
O O3 0.052603 0.732235 0.667412
O O4 0.995855 0.736846 0.836151
O O5 0.159459 0.195801 0.964496
O O6 0.093007 0.000000 0.928254
O O7 0.082486 0.211505 0.070870
O O8 0.910302 0.803375 0.514018
O O9 0.000000 0.782322 0.500000
O O10 0.958243 0.000000 0.402407
O O11 0.750000 0.362095 0.319130
O O12 0.828336 0.500000 0.315523
O O13 0.821533 0.235881 0.235108
O O14 0.814983 0.274492 0.446129
O O15 0.422851 0.778305 0.278860
O O16 0.339632 0.744987 0.355676
O O17 0.375867 0.000000 0.351819
O O18 0.750000 0.231593 0.091330
O O19 0.795176 0.000000 0.150254
O O20 0.961743 0.000000 0.824680
O O21 0.750000 0.274445 0.598199
O O22 0.695287 0.500000 0.574388
#
# Coordination Sequence:
#
# PCOD8212875 Si02
#       8
#     8   8   8   8   8   8   8   8
#     4  12  25  38  58  88 120 148 187 240 286 338
#     4  10  22  39  61  84 112 152 193 232 285 346
#     4  10  20  39  62  84 116 152 185 227 282 348
#     4   8  15  29  48  70 101 142 180 216 266 325
#     4  10  21  36  59  86 112 147 193 241 282 332
#     4   9  18  33  53  80 110 139 179 230 279 327
#     4  10  21  42  63  81 110 153 196 235 289 345
#     4   9  19  35  53  77 114 156 192 229 281 341
#
# _framework density 19.411553000000001
#
# number of rings (size 3 to 8) (size 9 to 14) (size 15 to 20)
#    0.000    2.250    1.250    2.250    1.750    4.500 
#    0.000    1.875    0.000    2.250    0.000    1.750 
#    0.000    0.000    0.000    0.000    0.000    0.000 
#
# Total GULP energy -793413.628181 kJ/mol
# GULP energy per Si atom -12397.087940 kJ/mol
# Density = 1.936737 g / cm^3
# Si number density = 19.411553 Si / 1000 Ang^3
#
#
#
# Elastic Constant Matrix: (Units=GPa)
#
#
# Indices 1 2 3 4 5 6 
#
# 1 116.0082 41.4329 34.8574 0.0000 0.0000 0.0000
# 2 41.4329 64.7711 36.3253 0.0000 0.0000 0.0000
# 3 34.8574 36.3253 82.1037 0.0000 0.0000 0.0000
# 4 0.0000 0.0000 0.0000 6.5900 0.0000 0.0000
# 5 0.0000 0.0000 0.0000 0.0000 23.1243 0.0000
# 6 0.0000 0.0000 0.0000 0.0000 0.0000 23.7677
#
#
#
# Elastic Compliance Matrix: (Units=1/GPa)
#
#
# Indices 1 2 3 4 5 6 
#
# 1 0.011453 -0.006117 -0.002156 0.000000 0.000000 0.000000
# 2 -0.006117 0.023801 -0.007933 0.000000 0.000000 0.000000
# 3 -0.002156 -0.007933 0.016605 0.000000 0.000000 0.000000
# 4 0.000000 0.000000 0.000000 0.151745 0.000000 0.000000
# 5 0.000000 0.000000 0.000000 0.000000 0.043244 0.000000
# 6 0.000000 0.000000 0.000000 0.000000 0.000000 0.042074
#
#
# Mechanical properties :
#
#
# Convention : Reuss Voigt Hill
#
# Bulk Modulus (GPa) = 51.42388 54.23493 52.82940
# Shear Modulus (GPa) = 15.25243 20.71424 17.98333
#
# Velocity S-wave (km/s) = 2.80615 3.27021 3.04702
# Velocity P-wave (km/s) = 6.08672 6.50071 6.29712
#
# Compressibility (1/GPa) = 0.01944622
#
# Stress axis : x y z
#
# Youngs Moduli (GPa) = 87.31679 42.01483 60.22277
#
# Poissons Ratio (x) = 0.25700 0.12983
# Poissons Ratio (y) = 0.53411 0.47777
# Poissons Ratio (z) = 0.18825 0.33332
#
# Static dielectric constant tensor:
#      x y z
#    x 3.673120 0.000000 0.000000 
#    y 0.000000 3.531000 0.000000 
#    z 0.000000 0.000000 3.549220 
# 
# 
# High freq. dielectric constant tensor:
#      x y z
#    x 1.766200 0.000000 0.000000 
#    y 0.000000 1.739500 0.000000 
#    z 0.000000 0.000000 1.739370 
# 
# From -- ./inp_files/19595.got.cif
#   From: 2010.03.12/outbox.cif.g09.slc.cpg/sg51_10_cif.got.tgz:19595.got - 2010.04.16 13:43:02.
