data_PCOD8212227
_publ_section_title
;
Structure prediction by ZEFSAII (Michael W. Deem and Ramdas Pophale) SiO2 
 PCOD8212227
Probable space group: P M M A
;
_chemical_formula_sum "Si O2"
_cell_formula_units_Z 56
_cell_length_a 8.939990
_cell_length_b 13.930678
_cell_length_c 23.447490
_cell_angle_alpha 90.000000
_cell_angle_beta 90.000000
_cell_angle_gamma 90.000000
_cell_volume 2920.153266
_symmetry_space_group_name_H-M "P M M A"
_symmetry_group_IT_number 51
_symmetry_cell_setting 'orthorhombic'
loop_
_space_group_symop_operation_xyz
x,y,z
1/2-x,-y,z
1/2+x,-y,-z
-x,y,-z
-x,-y,-z
1/2+x,y,-z
1/2-x,y,z
x,-y,z
loop_
_atom_site_type_symbol
_atom_site_label
_atom_site_fract_x
_atom_site_fract_y
_atom_site_fract_z
Si Si1 0.576823 0.711537 0.441574
Si Si2 0.423731 0.891469 0.627978
Si Si3 0.926830 0.210137 0.061838
Si Si4 0.578446 0.890923 0.841006
Si Si5 0.424858 0.396300 0.061188
Si Si6 0.073870 0.782667 0.271877
Si Si7 0.572987 0.390911 0.327690
O O1 0.500000 0.681385 0.500000
O O2 0.750000 0.696016 0.451803
O O3 0.538825 0.821981 0.425262
O O4 0.520412 0.642439 0.390637
O O5 0.250000 0.881185 0.644506
O O6 0.517694 0.860188 0.682584
O O7 0.465829 0.000000 0.610502
O O8 0.750000 0.214641 0.055127
O O9 0.974449 0.124757 0.103774
O O10 0.990747 0.308142 0.091935
O O11 0.000000 0.193732 0.000000
O O12 0.750000 0.870890 0.858169
O O13 0.527436 0.820847 0.790208
O O14 0.557193 0.000000 0.820276
O O15 0.250000 0.371947 0.054825
O O16 0.446344 0.500000 0.092673
O O17 0.500000 0.403983 0.000000
O O18 0.250000 0.773096 0.278217
O O19 0.001634 0.677728 0.280599
O O20 0.750000 0.379974 0.322086
O O21 0.520414 0.500000 0.317186
#
# Coordination Sequence:
#
# PCOD8212227 Si02
#       7
#     8   8   8   8   8   8   8
#     4   9  18  31  47  72 106 143 183 225 268 315
#     4   9  18  33  52  73 102 142 182 220 267 323
#     4  11  22  36  56  81 111 145 181 221 264 314
#     4  10  22  40  59  79 107 141 175 215 264 318
#     4   9  16  28  49  75 103 136 172 209 250 297
#     4  10  20  35  57  84 109 132 168 221 274 320
#     4   9  19  37  58  78 106 145 182 218 266 322
#
# _framework density 19.177074999999999
#
# number of rings (size 3 to 8) (size 9 to 14) (size 15 to 20)
#    0.000    2.429    0.000    4.286    0.000    6.571 
#    0.000    0.714    0.000    0.857    0.000    0.000 
#    0.000    0.000    0.000    0.000    0.000    0.000 
#
# Total GULP energy -694198.010236 kJ/mol
# GULP energy per Si atom -12396.393040 kJ/mol
# Density = 1.913343 g / cm^3
# Si number density = 19.177075 Si / 1000 Ang^3
#
#
#
# Elastic Constant Matrix: (Units=GPa)
#
#
# Indices 1 2 3 4 5 6 
#
# 1 88.0211 42.2128 46.0815 0.0000 0.0000 0.0000
# 2 42.2128 131.0615 50.3539 0.0000 0.0000 0.0000
# 3 46.0815 50.3539 97.3878 0.0000 0.0000 0.0000
# 4 0.0000 0.0000 0.0000 21.1404 0.0000 0.0000
# 5 0.0000 0.0000 0.0000 0.0000 30.3558 0.0000
# 6 0.0000 0.0000 0.0000 0.0000 0.0000 29.8349
#
#
#
# Elastic Compliance Matrix: (Units=1/GPa)
#
#
# Indices 1 2 3 4 5 6 
#
# 1 0.015874 -0.002779 -0.006074 0.000000 0.000000 0.000000
# 2 -0.002779 0.010008 -0.003860 0.000000 0.000000 0.000000
# 3 -0.006074 -0.003860 0.015138 0.000000 0.000000 0.000000
# 4 0.000000 0.000000 0.000000 0.047303 0.000000 0.000000
# 5 0.000000 0.000000 0.000000 0.000000 0.032943 0.000000
# 6 0.000000 0.000000 0.000000 0.000000 0.000000 0.033518
#
#
# Mechanical properties :
#
#
# Convention : Reuss Voigt Hill
#
# Bulk Modulus (GPa) = 64.12700 65.97410 65.05055
# Shear Modulus (GPa) = 26.96780 28.12102 27.54441
#
# Velocity S-wave (km/s) = 3.75407 3.83350 3.79399
# Velocity P-wave (km/s) = 7.23206 7.35334 7.29295
#
# Compressibility (1/GPa) = 0.01559406
#
# Stress axis : x y z
#
# Youngs Moduli (GPa) = 62.99755 99.92078 66.05903
#
# Poissons Ratio (x) = 0.27767 0.40125
# Poissons Ratio (y) = 0.17507 0.25496
# Poissons Ratio (z) = 0.38266 0.38566
#
# Static dielectric constant tensor:
#      x y z
#    x 3.443870 0.000000 0.000000 
#    y 0.000000 4.003770 0.000000 
#    z 0.000000 0.000000 3.195710 
# 
# 
# High freq. dielectric constant tensor:
#      x y z
#    x 1.744450 0.000000 0.000000 
#    y 0.000000 1.756940 0.000000 
#    z 0.000000 0.000000 1.719410 
# 
# From -- ./inp_files/31966.got.cif
#   From: 2010.03.12/outbox.cif.g09.slc.cpg/sg51_16_cif.got.tgz:31966.got - 2010.04.16 13:43:02.
