data_PCOD8212242
_publ_section_title
;
Structure prediction by ZEFSAII (Michael W. Deem and Ramdas Pophale) SiO2 
 PCOD8212242
Probable space group: P M M A
;
_chemical_formula_sum "Si O2"
_cell_formula_units_Z 56
_cell_length_a 18.627634
_cell_length_b 23.291260
_cell_length_c 6.971115
_cell_angle_alpha 90.000000
_cell_angle_beta 90.000000
_cell_angle_gamma 90.000000
_cell_volume 3024.495390
_symmetry_space_group_name_H-M "P M M A"
_symmetry_group_IT_number 51
_symmetry_cell_setting 'orthorhombic'
loop_
_space_group_symop_operation_xyz
x,y,z
1/2-x,-y,z
1/2+x,-y,-z
-x,y,-z
-x,-y,-z
1/2+x,y,-z
1/2-x,y,z
x,-y,z
loop_
_atom_site_type_symbol
_atom_site_label
_atom_site_fract_x
_atom_site_fract_y
_atom_site_fract_z
Si Si1 0.166765 0.653560 0.174351
Si Si2 0.333421 0.063736 0.211691
Si Si3 0.832594 0.433398 0.151217
Si Si4 0.925067 0.935583 0.420617
Si Si5 0.920576 0.862021 0.064676
Si Si6 0.924256 0.727766 0.094245
Si Si7 0.420060 0.643179 0.564166
O O1 0.250000 0.663719 0.217370
O O2 0.126372 0.653651 0.375450
O O3 0.153185 0.594517 0.057505
O O4 0.139177 0.704918 0.040231
O O5 0.250000 0.075334 0.220845
O O6 0.362573 0.065635 0.425579
O O7 0.350135 0.000000 0.123267
O O8 0.367147 0.116624 0.098330
O O9 0.750000 0.422663 0.214540
O O10 0.850324 0.500000 0.129859
O O11 0.885187 0.407947 0.312290
O O12 0.897489 0.895282 0.253399
O O13 0.000000 0.910518 0.500000
O O14 0.938509 0.000000 0.342498
O O15 0.913132 0.795270 0.109026
O O16 0.000000 0.879070 0.000000
O O17 0.920918 0.701032 0.307676
O O18 0.000000 0.710827 0.000000
O O19 0.500000 0.625448 0.500000
#
# Coordination Sequence:
#
# PCOD8212242 Si02
#       7
#     8   8   8   8   8   8   8
#     4  10  21  39  61  83 113 156 196 235 288 344
#     4  10  22  39  57  82 117 150 183 234 296 350
#     4   9  20  38  59  87 122 155 193 240 285 338
#     4  10  20  35  57  85 112 144 188 234 282 346
#     4  11  22  36  60  86 111 148 194 237 284 341
#     4  10  22  39  57  83 116 151 191 241 289 337
#     4  11  21  36  61  87 117 156 196 238 291 345
#
# _framework density 18.515485000000002
#
# number of rings (size 3 to 8) (size 9 to 14) (size 15 to 20)
#    0.000    1.857    2.857    0.857    0.000    4.857 
#    0.000    3.571    0.000    0.000    0.000    0.000 
#    0.000    0.000    0.000    0.000    0.000    0.000 
#
# Total GULP energy -694480.713053 kJ/mol
# GULP energy per Si atom -12401.441305 kJ/mol
# Density = 1.847334 g / cm^3
# Si number density = 18.515485 Si / 1000 Ang^3
#
#
#
# Elastic Constant Matrix: (Units=GPa)
#
#
# Indices 1 2 3 4 5 6 
#
# 1 128.6882 54.6792 64.8415 0.0000 0.0000 0.0000
# 2 54.6792 108.1836 59.7632 0.0000 0.0000 0.0000
# 3 64.8415 59.7632 125.7419 0.0000 0.0000 0.0000
# 4 0.0000 0.0000 0.0000 26.4601 0.0000 0.0000
# 5 0.0000 0.0000 0.0000 0.0000 36.4101 0.0000
# 6 0.0000 0.0000 0.0000 0.0000 0.0000 30.3643
#
#
#
# Elastic Compliance Matrix: (Units=1/GPa)
#
#
# Indices 1 2 3 4 5 6 
#
# 1 0.011349 -0.003394 -0.004239 0.000000 0.000000 0.000000
# 2 -0.003394 0.013550 -0.004690 0.000000 0.000000 0.000000
# 3 -0.004239 -0.004690 0.012368 0.000000 0.000000 0.000000
# 4 0.000000 0.000000 0.000000 0.037793 0.000000 0.000000
# 5 0.000000 0.000000 0.000000 0.000000 0.027465 0.000000
# 6 0.000000 0.000000 0.000000 0.000000 0.000000 0.032933
#
#
# Mechanical properties :
#
#
# Convention : Reuss Voigt Hill
#
# Bulk Modulus (GPa) = 79.23719 80.13129 79.68424
# Shear Modulus (GPa) = 30.43026 30.86889 30.64957
#
# Velocity S-wave (km/s) = 4.05841 4.08756 4.07301
# Velocity P-wave (km/s) = 8.05288 8.10243 8.07770
#
# Compressibility (1/GPa) = 0.01262034
#
# Stress axis : x y z
#
# Youngs Moduli (GPa) = 88.11475 73.80170 80.85601
#
# Poissons Ratio (x) = 0.25051 0.34275
# Poissons Ratio (y) = 0.29909 0.37919
# Poissons Ratio (z) = 0.37352 0.34611
#
# Static dielectric constant tensor:
#      x y z
#    x 3.494170 0.000000 0.000000 
#    y 0.000000 3.370490 0.000000 
#    z 0.000000 0.000000 3.422170 
# 
# 
# High freq. dielectric constant tensor:
#      x y z
#    x 1.726040 0.000000 0.000000 
#    y 0.000000 1.713890 0.000000 
#    z 0.000000 0.000000 1.723720 
# 
# From -- ./inp_files/2615.got.cif
#   From: 2010.03.12/outbox.cif.g09.slc.cpg/sg51_2_cif.got.tgz:2615.got - 2010.04.16 13:43:02.
