data_PCOD8212147
_publ_section_title
;
Structure prediction by ZEFSAII (Michael W. Deem and Ramdas Pophale) SiO2 
 PCOD8212147
Probable space group: P M M A
;
_chemical_formula_sum "Si O2"
_cell_formula_units_Z 64
_cell_length_a 8.858404
_cell_length_b 20.432056
_cell_length_c 18.283150
_cell_angle_alpha 90.000000
_cell_angle_beta 90.000000
_cell_angle_gamma 90.000000
_cell_volume 3309.166168
_symmetry_space_group_name_H-M "P M M A"
_symmetry_group_IT_number 51
_symmetry_cell_setting 'orthorhombic'
loop_
_space_group_symop_operation_xyz
x,y,z
1/2-x,-y,z
1/2+x,-y,-z
-x,y,-z
-x,-y,-z
1/2+x,y,-z
1/2-x,y,z
x,-y,z
loop_
_atom_site_type_symbol
_atom_site_label
_atom_site_fract_x
_atom_site_fract_y
_atom_site_fract_z
Si Si1 0.425213 0.928126 0.682759
Si Si2 0.928287 0.305768 0.424707
Si Si3 0.075841 0.425051 0.798221
Si Si4 0.073541 0.672197 0.923252
Si Si5 0.424374 0.202764 0.321222
Si Si6 0.578964 0.930288 0.833279
Si Si7 0.926444 0.424843 0.646345
Si Si8 0.079246 0.790661 0.148326
O O1 0.250000 0.912140 0.671007
O O2 0.521734 0.868438 0.648550
O O3 0.458825 0.931782 0.768609
O O4 0.465210 0.000000 0.648012
O O5 0.750000 0.304882 0.431446
O O6 0.000000 0.280043 0.500000
O O7 0.979813 0.259312 0.359085
O O8 0.983481 0.379800 0.410198
O O9 0.250000 0.409842 0.778921
O O10 0.054043 0.500000 0.821990
O O11 0.016244 0.380741 0.864500
O O12 0.975317 0.407249 0.728534
O O13 0.250000 0.667787 0.934117
O O14 0.032578 0.744498 0.895764
O O15 0.000000 0.654860 0.000000
O O16 0.250000 0.212010 0.341278
O O17 0.454771 0.209587 0.234834
O O18 0.750000 0.923712 0.800264
O O19 0.551041 0.865151 0.881827
O O20 0.564982 0.000000 0.877120
O O21 0.750000 0.410533 0.638539
O O22 0.966631 0.500000 0.628164
O O23 0.250000 0.767497 0.132602
#
# Coordination Sequence:
#
# PCOD8212147 Si02
#       8
#     8   8   8   8   8   8   8   8
#     4   9  16  26  44  74 109 141 176 220 267 315
#     4  12  25  40  58  80 110 146 183 224 269 318
#     4   9  19  37  59  82 107 137 175 217 262 312
#     4  11  23  36  52  74 103 139 176 217 263 314
#     4  10  20  35  56  81 109 142 181 224 271 323
#     4   8  14  26  45  70 100 134 171 213 264 316
#     4  10  21  38  61  88 115 143 177 217 262 314
#     4   9  18  32  52  77 105 136 171 215 262 312
#
# _framework density 19.340218
#
# number of rings (size 3 to 8) (size 9 to 14) (size 15 to 20)
#    0.000    2.250    0.000    4.125    0.000    7.500 
#    0.000    0.000    0.000    0.750    0.000    0.000 
#    0.000    0.000    0.000    0.000    0.000    0.000 
#
# Total GULP energy -793361.344145 kJ/mol
# GULP energy per Si atom -12396.271002 kJ/mol
# Density = 1.929620 g / cm^3
# Si number density = 19.340218 Si / 1000 Ang^3
#
#
#
# Elastic Constant Matrix: (Units=GPa)
#
#
# Indices 1 2 3 4 5 6 
#
# 1 84.3211 23.9487 16.1566 0.0000 0.0000 0.0000
# 2 23.9487 86.3525 9.7299 0.0000 0.0000 0.0000
# 3 16.1566 9.7299 33.8257 0.0000 0.0000 0.0000
# 4 0.0000 0.0000 0.0000 5.4638 0.0000 0.0000
# 5 0.0000 0.0000 0.0000 0.0000 27.6169 0.0000
# 6 0.0000 0.0000 0.0000 0.0000 0.0000 33.0489
#
#
#
# Elastic Compliance Matrix: (Units=1/GPa)
#
#
# Indices 1 2 3 4 5 6 
#
# 1 0.013861 -0.003202 -0.005700 0.000000 0.000000 0.000000
# 2 -0.003202 0.012708 -0.002126 0.000000 0.000000 0.000000
# 3 -0.005700 -0.002126 0.032897 0.000000 0.000000 0.000000
# 4 0.000000 0.000000 0.000000 0.183022 0.000000 0.000000
# 5 0.000000 0.000000 0.000000 0.000000 0.036210 0.000000
# 6 0.000000 0.000000 0.000000 0.000000 0.000000 0.030258
#
#
# Mechanical properties :
#
#
# Convention : Reuss Voigt Hill
#
# Bulk Modulus (GPa) = 26.73005 33.79664 30.26334
# Shear Modulus (GPa) = 14.55683 23.53687 19.04685
#
# Velocity S-wave (km/s) = 2.74646 3.49232 3.14161
# Velocity P-wave (km/s) = 4.88962 5.81158 5.37042
#
# Compressibility (1/GPa) = 0.03741108
#
# Stress axis : x y z
#
# Youngs Moduli (GPa) = 72.14538 78.69048 30.39775
#
# Poissons Ratio (x) = 0.25196 0.17325
# Poissons Ratio (y) = 0.23100 0.06463
# Poissons Ratio (z) = 0.41119 0.16730
#
# Static dielectric constant tensor:
#      x y z
#    x 3.530090 0.000000 0.000000 
#    y 0.000000 3.988770 0.000000 
#    z 0.000000 0.000000 3.139780 
# 
# 
# High freq. dielectric constant tensor:
#      x y z
#    x 1.758190 0.000000 0.000000 
#    y 0.000000 1.776390 0.000000 
#    z 0.000000 0.000000 1.704090 
# 
# From -- ./inp_files/28420.got.cif
#   From: 2010.03.12/outbox.cif.g09.slc.cpg/sg51_15_cif.got.tgz:28420.got - 2010.04.16 13:43:02.
