data_PCOD8212891
_publ_section_title
;
Structure prediction by ZEFSAII (Michael W. Deem and Ramdas Pophale) SiO2 
 PCOD8212891
Probable space group: P M M A
;
_chemical_formula_sum "Si O2"
_cell_formula_units_Z 48
_cell_length_a 19.089140
_cell_length_b 7.657821
_cell_length_c 16.522355
_cell_angle_alpha 90.000000
_cell_angle_beta 90.000000
_cell_angle_gamma 90.000000
_cell_volume 2415.257964
_symmetry_space_group_name_H-M "P M M A"
_symmetry_group_IT_number 51
_symmetry_cell_setting 'orthorhombic'
loop_
_space_group_symop_operation_xyz
x,y,z
1/2-x,-y,z
1/2+x,-y,-z
-x,y,-z
-x,-y,-z
1/2+x,y,-z
1/2-x,y,z
x,-y,z
loop_
_atom_site_type_symbol
_atom_site_label
_atom_site_fract_x
_atom_site_fract_y
_atom_site_fract_z
Si Si1 0.328172 0.801417 0.282000
Si Si2 0.422575 0.000000 0.034874
Si Si3 0.559323 0.706088 0.394538
Si Si4 0.667436 0.000000 0.123214
Si Si5 0.090691 0.705242 0.782489
Si Si6 0.094393 0.706847 0.432570
Si Si7 0.063542 0.305681 0.155193
O O1 0.250000 0.727152 0.268210
O O2 0.345498 0.791076 0.377531
O O3 0.383480 0.690002 0.230799
O O4 0.332311 0.000000 0.252394
O O5 0.410068 0.173403 0.087222
O O6 0.500000 0.000000 0.000000
O O7 0.365179 0.000000 0.965526
O O8 0.551765 0.500000 0.393809
O O9 0.595599 0.766437 0.311300
O O10 0.604545 0.764521 0.473187
O O11 0.480513 0.780052 0.401573
O O12 0.645283 0.823207 0.169117
O O13 0.750000 0.000000 0.113984
O O14 0.109015 0.500000 0.793364
O O15 0.013102 0.748533 0.814193
O O16 0.098767 0.500000 0.424491
O O17 0.061666 0.500000 0.117518
#
# Coordination Sequence:
#
# PCOD8212891 Si02
#       7
#     8   4   8   4   8   8   8
#     4  11  23  37  54  83 130 173 205 255 317 370
#     4  12  24  44  68  97 129 155 191 255 302 369
#     4   8  15  30  56  87 117 152 202 261 303 344
#     4  12  28  46  66  92 124 165 198 243 317 376
#     4  10  20  39  67  96 124 159 208 260 301 357
#     4   9  16  30  53  84 118 155 205 256 304 358
#     4  11  22  39  69  99 122 159 209 252 307 374
#
# _framework density 19.873653000000001
#
# number of rings (size 3 to 8) (size 9 to 14) (size 15 to 20)
#    0.000    1.833    4.167    1.500    0.000    3.333 
#    1.500    1.667    0.000    3.000    0.000    0.000 
#    0.000    0.000    0.000    0.000    0.000    0.000 
#
# Total GULP energy -595108.682484 kJ/mol
# GULP energy per Si atom -12398.097552 kJ/mol
# Density = 1.982842 g / cm^3
# Si number density = 19.873653 Si / 1000 Ang^3
#
#
#
# Elastic Constant Matrix: (Units=GPa)
#
#
# Indices 1 2 3 4 5 6 
#
# 1 120.9577 33.1161 55.3888 0.0000 0.0000 0.0000
# 2 33.1161 82.1037 49.7762 0.0000 0.0000 0.0000
# 3 55.3888 49.7762 147.4285 0.0000 0.0000 0.0000
# 4 0.0000 0.0000 0.0000 28.6889 0.0000 0.0000
# 5 0.0000 0.0000 0.0000 0.0000 26.5427 0.0000
# 6 0.0000 0.0000 0.0000 0.0000 0.0000 14.8697
#
#
#
# Elastic Compliance Matrix: (Units=1/GPa)
#
#
# Indices 1 2 3 4 5 6 
#
# 1 0.010313 -0.002277 -0.003106 0.000000 0.000000 0.000000
# 2 -0.002277 0.015817 -0.004485 0.000000 0.000000 0.000000
# 3 -0.003106 -0.004485 0.009464 0.000000 0.000000 0.000000
# 4 0.000000 0.000000 0.000000 0.034857 0.000000 0.000000
# 5 0.000000 0.000000 0.000000 0.000000 0.037675 0.000000
# 6 0.000000 0.000000 0.000000 0.000000 0.000000 0.067251
#
#
# Mechanical properties :
#
#
# Convention : Reuss Voigt Hill
#
# Bulk Modulus (GPa) = 63.05564 69.67245 66.36404
# Shear Modulus (GPa) = 24.95033 28.16750 26.55891
#
# Velocity S-wave (km/s) = 3.54707 3.76883 3.65963
# Velocity P-wave (km/s) = 6.96942 7.35340 7.16398
#
# Compressibility (1/GPa) = 0.01585901
#
# Stress axis : x y z
#
# Youngs Moduli (GPa) = 96.96584 63.22286 105.66268
#
# Poissons Ratio (x) = 0.14394 0.32818
# Poissons Ratio (y) = 0.22076 0.47389
# Poissons Ratio (z) = 0.30116 0.28355
#
# Static dielectric constant tensor:
#      x y z
#    x 3.343160 0.000000 0.000000 
#    y 0.000000 3.491010 0.000000 
#    z 0.000000 0.000000 3.978300 
# 
# 
# High freq. dielectric constant tensor:
#      x y z
#    x 1.741610 0.000000 0.000000 
#    y 0.000000 1.773320 0.000000 
#    z 0.000000 0.000000 1.782420 
# 
# From -- ./inp_files/24955.got.cif
#   From: 2010.03.12/outbox.cif.g09.slc.cpg/sg51_13_cif.got.tgz:24955.got - 2010.04.16 13:43:02.
