data_PCOD8212896
_publ_section_title
;
Structure prediction by ZEFSAII (Michael W. Deem and Ramdas Pophale) SiO2 
 PCOD8212896
Probable space group: P M M A
;
_chemical_formula_sum "Si O2"
_cell_formula_units_Z 48
_cell_length_a 28.829508
_cell_length_b 9.067821
_cell_length_c 9.683734
_cell_angle_alpha 90.000000
_cell_angle_beta 90.000000
_cell_angle_gamma 90.000000
_cell_volume 2531.529664
_symmetry_space_group_name_H-M "P M M A"
_symmetry_group_IT_number 51
_symmetry_cell_setting 'orthorhombic'
loop_
_space_group_symop_operation_xyz
x,y,z
1/2-x,-y,z
1/2+x,-y,-z
-x,y,-z
-x,-y,-z
1/2+x,y,-z
1/2-x,y,z
x,-y,z
loop_
_atom_site_type_symbol
_atom_site_label
_atom_site_fract_x
_atom_site_fract_y
_atom_site_fract_z
Si Si1 0.878757 0.324756 0.206437
Si Si2 0.027624 0.828522 0.862007
Si Si3 0.470885 0.664671 0.362289
Si Si4 0.804033 0.832091 0.709931
Si Si5 0.696136 0.171183 0.024116
Si Si6 0.874427 0.674239 0.520226
O O1 0.881973 0.500000 0.200529
O O2 0.924421 0.260003 0.134681
O O3 0.833417 0.272251 0.125488
O O4 0.875343 0.265691 0.363515
O O5 0.994795 0.779735 0.737955
O O6 0.039273 0.000000 0.846549
O O7 0.000000 0.792423 0.000000
O O8 0.500000 0.653785 0.500000
O O9 0.468364 0.500000 0.295971
O O10 0.420024 0.727257 0.397909
O O11 0.750000 0.813374 0.680728
O O12 0.829702 0.731381 0.599784
O O13 0.819683 0.000000 0.687318
O O14 0.815590 0.783848 0.866539
O O15 0.750000 0.200723 0.055846
O O16 0.684065 0.000000 0.048402
O O17 0.872621 0.500000 0.515384
#
# Coordination Sequence:
#
# PCOD8212896 Si02
#       6
#     8   8   8   8   8   8
#     4  11  23  40  60  85 118 154 194 237 287 344
#     4  11  25  41  58  86 119 151 193 241 287 340
#     4  10  20  40  62  82 116 155 191 232 283 340
#     4   9  20  39  61  85 115 151 190 234 286 342
#     4   9  20  40  62  85 117 153 190 238 290 339
#     4  10  22  38  58  86 117 151 189 235 286 337
#
# _framework density 18.960868000000001
#
# number of rings (size 3 to 8) (size 9 to 14) (size 15 to 20)
#    0.000    2.000    1.667    2.000    2.333    5.667 
#    0.000    5.000    0.000    0.000    0.000    0.000 
#    0.000    0.000    0.000    0.000    0.000    0.000 
#
# Total GULP energy -595320.518238 kJ/mol
# GULP energy per Si atom -12402.510797 kJ/mol
# Density = 1.891771 g / cm^3
# Si number density = 18.960868 Si / 1000 Ang^3
#
#
#
# Elastic Constant Matrix: (Units=GPa)
#
#
# Indices 1 2 3 4 5 6 
#
# 1 104.9844 44.8865 59.3232 0.0000 0.0000 0.0000
# 2 44.8865 55.4290 44.8127 0.0000 0.0000 0.0000
# 3 59.3232 44.8127 91.8487 0.0000 0.0000 0.0000
# 4 0.0000 0.0000 0.0000 33.9638 0.0000 0.0000
# 5 0.0000 0.0000 0.0000 0.0000 34.0758 0.0000
# 6 0.0000 0.0000 0.0000 0.0000 0.0000 39.7960
#
#
#
# Elastic Compliance Matrix: (Units=1/GPa)
#
#
# Indices 1 2 3 4 5 6 
#
# 1 0.016922 -0.008037 -0.007008 0.000000 0.000000 0.000000
# 2 -0.008037 0.033611 -0.011207 0.000000 0.000000 0.000000
# 3 -0.007008 -0.011207 0.020882 0.000000 0.000000 0.000000
# 4 0.000000 0.000000 0.000000 0.029443 0.000000 0.000000
# 5 0.000000 0.000000 0.000000 0.000000 0.029346 0.000000
# 6 0.000000 0.000000 0.000000 0.000000 0.000000 0.025128
#
#
# Mechanical properties :
#
#
# Convention : Reuss Voigt Hill
#
# Bulk Modulus (GPa) = 52.88570 61.14518 57.01544
# Shear Modulus (GPa) = 23.34926 28.44977 25.89951
#
# Velocity S-wave (km/s) = 3.51300 3.87776 3.69988
# Velocity P-wave (km/s) = 6.66389 7.23654 6.95611
#
# Compressibility (1/GPa) = 0.01890870
#
# Stress axis : x y z
#
# Youngs Moduli (GPa) = 59.09617 29.75248 47.88887
#
# Poissons Ratio (x) = 0.23914 0.33560
# Poissons Ratio (y) = 0.47499 0.53670
# Poissons Ratio (z) = 0.41414 0.33344
#
# Static dielectric constant tensor:
#      x y z
#    x 3.578130 0.000000 0.000000 
#    y 0.000000 3.401930 0.000000 
#    z 0.000000 0.000000 3.473400 
# 
# 
# High freq. dielectric constant tensor:
#      x y z
#    x 1.747770 0.000000 0.000000 
#    y 0.000000 1.732540 0.000000 
#    z 0.000000 0.000000 1.741180 
# 
# From -- ./inp_files/12831.got.cif
#   From: 2010.03.12/outbox.cif.g09.slc.cpg/sg51_7_cif.got.tgz:12831.got - 2010.04.16 13:43:02.
