data_PCOD8212249
_publ_section_title
;
Structure prediction by ZEFSAII (Michael W. Deem and Ramdas Pophale) SiO2 
 PCOD8212249
Probable space group: P M M A
;
_chemical_formula_sum "Si O2"
_cell_formula_units_Z 56
_cell_length_a 9.063403
_cell_length_b 19.330852
_cell_length_c 15.643249
_cell_angle_alpha 90.000000
_cell_angle_beta 90.000000
_cell_angle_gamma 90.000000
_cell_volume 2740.748879
_symmetry_space_group_name_H-M "P M M A"
_symmetry_group_IT_number 51
_symmetry_cell_setting 'orthorhombic'
loop_
_space_group_symop_operation_xyz
x,y,z
1/2-x,-y,z
1/2+x,-y,-z
-x,y,-z
-x,-y,-z
1/2+x,y,-z
1/2-x,y,z
x,-y,z
loop_
_atom_site_type_symbol
_atom_site_label
_atom_site_fract_x
_atom_site_fract_y
_atom_site_fract_z
Si Si1 0.593339 0.920871 0.926914
Si Si2 0.924665 0.707985 0.086030
Si Si3 0.579981 0.578525 0.342689
Si Si4 0.576338 0.579080 0.837585
Si Si5 0.084638 0.074579 0.758192
Si Si6 0.575195 0.300741 0.582884
Si Si7 0.418321 0.225465 0.732319
O O1 0.750000 0.882363 0.922233
O O2 0.523289 0.916905 0.835588
O O3 0.616153 0.000000 0.954959
O O4 0.500000 0.881955 0.000000
O O5 0.750000 0.699392 0.072403
O O6 0.957610 0.758263 0.167988
O O7 0.998474 0.632322 0.098160
O O8 0.000000 0.739539 0.000000
O O9 0.750000 0.602851 0.334835
O O10 0.569773 0.500000 0.372959
O O11 0.501180 0.590722 0.252829
O O12 0.492305 0.622173 0.413582
O O13 0.750000 0.595441 0.829093
O O14 0.551224 0.500000 0.869292
O O15 0.250000 0.073463 0.795152
O O16 0.062838 0.144457 0.704248
O O17 0.053533 0.000000 0.710173
O O18 0.500000 0.264176 0.500000
O O19 0.750000 0.301143 0.572404
O O20 0.530972 0.264225 0.671120
O O21 0.250000 0.249153 0.714649
#
# Coordination Sequence:
#
# PCOD8212249 Si02
#       7
#     8   8   8   8   8   8   8
#     4   9  16  26  42  67 101 139 180 227 276 331
#     4  11  23  38  58  82 116 160 207 256 303 356
#     4  10  20  36  60  90 125 162 199 243 296 352
#     4  10  20  35  57  85 117 155 202 253 303 354
#     4   9  18  34  57  83 111 146 186 232 292 357
#     4  12  25  41  65  92 122 160 201 246 296 355
#     4  10  22  41  62  87 121 157 196 246 300 358
#
# _framework density 20.432372000000001
#
# number of rings (size 3 to 8) (size 9 to 14) (size 15 to 20)
#    0.000    1.857    1.429    3.000    0.000    5.714 
#    0.000    1.429    0.000    0.429    0.000    0.000 
#    0.000    0.000    0.000    0.000    0.000    0.000 
#
# Total GULP energy -693893.217797 kJ/mol
# GULP energy per Si atom -12390.950318 kJ/mol
# Density = 2.038587 g / cm^3
# Si number density = 20.432372 Si / 1000 Ang^3
#
#
#
# Elastic Constant Matrix: (Units=GPa)
#
#
# Indices 1 2 3 4 5 6 
#
# 1 152.5372 41.8303 47.2782 0.0000 0.0000 0.0000
# 2 41.8303 106.6138 28.9615 0.0000 0.0000 0.0000
# 3 47.2782 28.9615 84.2796 0.0000 0.0000 0.0000
# 4 0.0000 0.0000 0.0000 9.1490 0.0000 0.0000
# 5 0.0000 0.0000 0.0000 0.0000 32.8348 0.0000
# 6 0.0000 0.0000 0.0000 0.0000 0.0000 -2.0165
#
#
#
# Elastic Compliance Matrix: (Units=1/GPa)
#
#
# Indices 1 2 3 4 5 6 
#
# 1 0.008386 -0.002220 -0.003942 0.000000 0.000000 0.000000
# 2 -0.002220 0.010933 -0.002512 0.000000 0.000000 0.000000
# 3 -0.003942 -0.002512 0.014940 0.000000 0.000000 0.000000
# 4 0.000000 0.000000 0.000000 0.109301 0.000000 0.000000
# 5 0.000000 0.000000 0.000000 0.000000 0.030455 0.000000
# 6 0.000000 0.000000 0.000000 0.000000 0.000000 -0.495906
#
#
# Mechanical properties :
#
#
# Convention : Reuss Voigt Hill
#
# Bulk Modulus (GPa) = 59.12791 64.39673 61.76232
# Shear Modulus (GPa) = -16.72756 23.01752 3.14498
#
# Velocity S-wave (km/s) = -2.86436 3.36001 1.24200
# Velocity P-wave (km/s) = 4.24991 6.82923 5.68771
#
# Compressibility (1/GPa) = 0.01691249
#
# Stress axis : x y z
#
# Youngs Moduli (GPa) = 119.24431 91.46752 66.93651
#
# Poissons Ratio (x) = 0.20302 0.26384
# Poissons Ratio (y) = 0.26467 0.16813
# Poissons Ratio (z) = 0.47002 0.22975
#
# Static dielectric constant tensor:
#      x y z
#    x 3.914050 0.000000 0.000000 
#    y 0.000000 4.037660 0.000000 
#    z 0.000000 0.000000 3.449580 
# 
# 
# High freq. dielectric constant tensor:
#      x y z
#    x 1.812190 0.000000 0.000000 
#    y 0.000000 1.799990 0.000000 
#    z 0.000000 0.000000 1.763610 
# 
# From -- ./inp_files/21783.got.cif
#   From: 2010.03.12/outbox.cif.g09.slc.cpg/sg51_11_cif.got.tgz:21783.got - 2010.04.16 13:43:02.
