data_PCOD8212802
_publ_section_title
;
Structure prediction by ZEFSAII (Michael W. Deem and Ramdas Pophale) SiO2 
 PCOD8212802
Probable space group: P M M A
;
_chemical_formula_sum "Si O2"
_cell_formula_units_Z 48
_cell_length_a 16.234691
_cell_length_b 17.365781
_cell_length_c 7.963631
_cell_angle_alpha 90.000000
_cell_angle_beta 90.000000
_cell_angle_gamma 90.000000
_cell_volume 2245.171265
_symmetry_space_group_name_H-M "P M M A"
_symmetry_group_IT_number 51
_symmetry_cell_setting 'orthorhombic'
loop_
_space_group_symop_operation_xyz
x,y,z
1/2-x,-y,z
1/2+x,-y,-z
-x,y,-z
-x,-y,-z
1/2+x,y,-z
1/2-x,y,z
x,-y,z
loop_
_atom_site_type_symbol
_atom_site_label
_atom_site_fract_x
_atom_site_fract_y
_atom_site_fract_z
Si Si1 0.842812 0.000000 0.761269
Si Si2 0.348096 0.586703 0.423665
Si Si3 0.152260 0.685133 0.734223
Si Si4 0.090743 0.148786 0.076226
Si Si5 0.347986 0.308545 0.116112
Si Si6 0.841776 0.145100 0.267857
Si Si7 0.911252 0.000000 0.423551
O O1 0.838768 0.000000 0.560563
O O2 0.750000 0.000000 0.834835
O O3 0.895124 0.924709 0.807460
O O4 0.250000 0.587409 0.430758
O O5 0.382572 0.500000 0.418657
O O6 0.383541 0.626369 0.594568
O O7 0.377797 0.628782 0.252897
O O8 0.250000 0.681391 0.734590
O O9 0.122687 0.666999 0.926272
O O10 0.125096 0.771020 0.674416
O O11 0.107285 0.229110 0.173115
O O12 0.160568 0.146120 0.933295
O O13 0.000000 0.146784 0.000000
O O14 0.250000 0.297903 0.123474
O O15 0.750000 0.128883 0.336504
O O16 0.903872 0.077476 0.316163
O O17 0.000000 0.000000 0.500000
#
# Coordination Sequence:
#
# PCOD8212802 Si02
#       7
#     4   8   8   8   8   8   4
#     4  12  24  36  56  86 112 148 194 242 288 340
#     4   9  17  29  50  82 115 144 181 241 301 344
#     4   8  16  30  50  76 105 143 190 232 278 341
#     4  11  22  38  58  82 112 146 191 244 297 345
#     4   9  18  33  54  80 111 149 191 235 288 358
#     4  10  20  38  58  76 107 157 197 230 284 352
#     4  12  25  38  53  84 122 150 190 238 287 336
#
# _framework density 21.379216
#
# number of rings (size 3 to 8) (size 9 to 14) (size 15 to 20)
#    0.000    2.167    0.000    5.000    2.333    0.667 
#    0.000    3.333    0.000    0.500    0.000    4.667 
#    0.000    0.000    0.000    0.000    0.000    0.000 
#
# Total GULP energy -594893.941244 kJ/mol
# GULP energy per Si atom -12393.623776 kJ/mol
# Density = 2.133056 g / cm^3
# Si number density = 21.379216 Si / 1000 Ang^3
#
#
#
# Elastic Constant Matrix: (Units=GPa)
#
#
# Indices 1 2 3 4 5 6 
#
# 1 40.6039 14.0842 5.6612 0.0000 0.0000 0.0000
# 2 14.0842 189.2413 86.7698 0.0000 0.0000 0.0000
# 3 5.6612 86.7698 114.5943 0.0000 0.0000 0.0000
# 4 0.0000 0.0000 0.0000 32.2405 0.0000 0.0000
# 5 0.0000 0.0000 0.0000 0.0000 18.0178 0.0000
# 6 0.0000 0.0000 0.0000 0.0000 0.0000 6.0360
#
#
#
# Elastic Compliance Matrix: (Units=1/GPa)
#
#
# Indices 1 2 3 4 5 6 
#
# 1 0.025286 -0.002005 0.000269 0.000000 0.000000 0.000000
# 2 -0.002005 0.008254 -0.006150 0.000000 0.000000 0.000000
# 3 0.000269 -0.006150 0.013370 0.000000 0.000000 0.000000
# 4 0.000000 0.000000 0.000000 0.031017 0.000000 0.000000
# 5 0.000000 0.000000 0.000000 0.000000 0.055501 0.000000
# 6 0.000000 0.000000 0.000000 0.000000 0.000000 0.165674
#
#
# Mechanical properties :
#
#
# Convention : Reuss Voigt Hill
#
# Bulk Modulus (GPa) = 32.11623 61.94108 47.02866
# Shear Modulus (GPa) = 15.37263 27.12047 21.24655
#
# Velocity S-wave (km/s) = 2.68441 3.56553 3.15587
# Velocity P-wave (km/s) = 4.96617 6.78131 5.94344
#
# Compressibility (1/GPa) = 0.03113690
#
# Stress axis : x y z
#
# Youngs Moduli (GPa) = 39.54715 121.15944 74.79309
#
# Poissons Ratio (x) = 0.24297 -0.02014
# Poissons Ratio (y) = 0.07931 0.46001
# Poissons Ratio (z) = -0.01065 0.74519
#
# Static dielectric constant tensor:
#      x y z
#    x 3.373620 0.000000 0.000000 
#    y 0.000000 4.218830 0.000000 
#    z 0.000000 0.000000 4.097240 
# 
# 
# High freq. dielectric constant tensor:
#      x y z
#    x 1.805210 0.000000 0.000000 
#    y 0.000000 1.840970 0.000000 
#    z 0.000000 0.000000 1.836870 
# 
# From -- ./inp_files/9677.got.cif
#   From: 2010.03.12/outbox.cif.g09.slc.cpg/sg51_5_cif.got.tgz:9677.got - 2010.04.16 13:43:02.
