data_PCOD8212481
_publ_section_title
;
Structure prediction by ZEFSAII (Michael W. Deem and Ramdas Pophale) SiO2 
 PCOD8212481
Probable space group: P M M A
;
_chemical_formula_sum "Si O2"
_cell_formula_units_Z 64
_cell_length_a 18.896249
_cell_length_b 19.040158
_cell_length_c 9.625251
_cell_angle_alpha 90.000000
_cell_angle_beta 90.000000
_cell_angle_gamma 90.000000
_cell_volume 3463.045635
_symmetry_space_group_name_H-M "P M M A"
_symmetry_group_IT_number 51
_symmetry_cell_setting 'orthorhombic'
loop_
_space_group_symop_operation_xyz
x,y,z
1/2-x,-y,z
1/2+x,-y,-z
-x,y,-z
-x,-y,-z
1/2+x,y,-z
1/2-x,y,z
x,-y,z
loop_
_atom_site_type_symbol
_atom_site_label
_atom_site_fract_x
_atom_site_fract_y
_atom_site_fract_z
Si Si1 0.071669 0.203968 0.914547
Si Si2 0.330818 0.669761 0.523638
Si Si3 0.572600 0.798166 0.419188
Si Si4 0.168515 0.582206 0.251408
Si Si5 0.671635 0.077775 0.414428
Si Si6 0.670395 0.421796 0.217460
Si Si7 0.084005 0.355052 0.008511
Si Si8 0.828861 0.077720 0.085207
O O1 0.060656 0.205457 0.747472
O O2 0.120072 0.139547 0.966778
O O3 0.108051 0.277074 0.960872
O O4 0.000000 0.194536 0.000000
O O5 0.250000 0.696899 0.525393
O O6 0.382413 0.735312 0.515362
O O7 0.342547 0.612914 0.404087
O O8 0.351665 0.631738 0.664766
O O9 0.500000 0.797978 0.500000
O O10 0.613117 0.868278 0.467236
O O11 0.250000 0.591952 0.202119
O O12 0.147961 0.500000 0.250703
O O13 0.114355 0.627929 0.159989
O O14 0.750000 0.097796 0.470903
O O15 0.674187 0.079514 0.249640
O O16 0.650571 0.000000 0.467285
O O17 0.750000 0.407389 0.164438
O O18 0.663579 0.500000 0.277647
O O19 0.617540 0.413560 0.090001
O O20 0.000000 0.362031 0.000000
O O21 0.750000 0.091203 0.025431
O O22 0.855629 0.000000 0.036349
#
# Coordination Sequence:
#
# PCOD8212481 Si02
#       8
#     8   8   8   8   8   8   8   8
#     4  10  22  37  53  80 114 150 185 225 270 323
#     4  10  21  37  58  82 107 140 181 228 282 330
#     4  11  22  35  57  82 114 148 187 229 271 326
#     4  10  22  40  60  82 109 141 180 228 282 337
#     4   8  15  31  55  83 113 144 183 229 272 318
#     4  10  20  36  58  82 106 136 180 229 276 328
#     4  11  23  37  54  79 113 148 184 224 270 326
#     4   8  15  30  55  84 110 140 183 230 271 316
#
# _framework density 18.480841000000002
#
# number of rings (size 3 to 8) (size 9 to 14) (size 15 to 20)
#    0.000    2.250    1.250    2.250    3.500    5.500 
#    0.000    0.000    0.000    2.250    0.000    1.750 
#    0.000    0.000    0.000    0.000    0.000    0.000 
#
# Total GULP energy -793327.627652 kJ/mol
# GULP energy per Si atom -12395.744182 kJ/mol
# Density = 1.843878 g / cm^3
# Si number density = 18.480841 Si / 1000 Ang^3
#
#
#
# Elastic Constant Matrix: (Units=GPa)
#
#
# Indices 1 2 3 4 5 6 
#
# 1 94.5599 65.0231 35.4634 0.0000 0.0000 0.0000
# 2 65.0231 133.6269 30.8506 0.0000 0.0000 0.0000
# 3 35.4634 30.8506 56.8775 0.0000 0.0000 0.0000
# 4 0.0000 0.0000 0.0000 21.1811 0.0000 0.0000
# 5 0.0000 0.0000 0.0000 0.0000 10.8263 0.0000
# 6 0.0000 0.0000 0.0000 0.0000 0.0000 26.2205
#
#
#
# Elastic Compliance Matrix: (Units=1/GPa)
#
#
# Indices 1 2 3 4 5 6 
#
# 1 0.018344 -0.007186 -0.007540 0.000000 0.000000 0.000000
# 2 -0.007186 0.011369 -0.001687 0.000000 0.000000 0.000000
# 3 -0.007540 -0.001687 0.023198 0.000000 0.000000 0.000000
# 4 0.000000 0.000000 0.000000 0.047212 0.000000 0.000000
# 5 0.000000 0.000000 0.000000 0.000000 0.092368 0.000000
# 6 0.000000 0.000000 0.000000 0.000000 0.000000 0.038138
#
#
# Mechanical properties :
#
#
# Convention : Reuss Voigt Hill
#
# Bulk Modulus (GPa) = 49.78413 60.85984 55.32199
# Shear Modulus (GPa) = 18.50825 21.89406 20.20115
#
# Velocity S-wave (km/s) = 3.16805 3.44567 3.30977
# Velocity P-wave (km/s) = 6.35443 6.98806 6.67876
#
# Compressibility (1/GPa) = 0.02008672
#
# Stress axis : x y z
#
# Youngs Moduli (GPa) = 54.51311 87.95546 43.10740
#
# Poissons Ratio (x) = 0.63200 0.32504
# Poissons Ratio (y) = 0.39170 0.07271
# Poissons Ratio (z) = 0.41104 0.14835
#
# Static dielectric constant tensor:
#      x y z
#    x 3.447690 0.000000 0.000000 
#    y 0.000000 3.736610 0.000000 
#    z 0.000000 0.000000 3.163200 
# 
# 
# High freq. dielectric constant tensor:
#      x y z
#    x 1.714690 0.000000 0.000000 
#    y 0.000000 1.732600 0.000000 
#    z 0.000000 0.000000 1.693060 
# 
# From -- ./inp_files/11220.got.cif
#   From: 2010.03.12/outbox.cif.g09.slc.cpg/sg51_6_cif.got.tgz:11220.got - 2010.04.16 13:43:02.
