data_PCOD8212097
_publ_section_title
;
Structure prediction by ZEFSAII (Michael W. Deem and Ramdas Pophale) SiO2 
 PCOD8212097
Probable space group: P M M A
;
_chemical_formula_sum "Si O2"
_cell_formula_units_Z 36
_cell_length_a 9.602066
_cell_length_b 10.890970
_cell_length_c 18.160843
_cell_angle_alpha 90.000000
_cell_angle_beta 90.000000
_cell_angle_gamma 90.000000
_cell_volume 1899.184917
_symmetry_space_group_name_H-M "P M M A"
_symmetry_group_IT_number 51
_symmetry_cell_setting 'orthorhombic'
loop_
_space_group_symop_operation_xyz
x,y,z
1/2-x,-y,z
1/2+x,-y,-z
-x,y,-z
-x,-y,-z
1/2+x,y,-z
1/2-x,y,z
x,-y,z
loop_
_atom_site_type_symbol
_atom_site_label
_atom_site_fract_x
_atom_site_fract_y
_atom_site_fract_z
Si Si1 0.482616 0.253081 0.849082
Si Si2 0.750000 0.138563 0.889090
Si Si3 0.092294 0.145622 0.433121
Si Si4 0.750000 0.146523 0.050853
Si Si5 0.905437 0.858920 0.297231
Si Si6 0.581115 0.500000 0.921930
O O1 0.617716 0.169073 0.840410
O O2 0.387390 0.199324 0.912818
O O3 0.409086 0.238445 0.770115
O O4 0.530552 0.388335 0.871072
O O5 0.750000 0.000000 0.912524
O O6 0.750000 0.205349 0.968840
O O7 0.250000 0.199199 0.434978
O O8 0.000000 0.200227 0.500000
O O9 0.017812 0.183992 0.357264
O O10 0.097731 0.000000 0.440024
O O11 0.750000 0.000000 0.056651
O O12 0.750000 0.851670 0.331591
O O13 0.933793 0.000000 0.271107
O O14 0.750000 0.500000 0.932951
O O15 0.500000 0.500000 0.000000
#
# Coordination Sequence:
#
# PCOD8212097 Si02
#       6
#     8   4   8   4   8   4
#     4  12  24  39  59  83 115 150 198 246 297 354
#     4  11  22  35  57  83 112 147 185 240 301 360
#     4   9  17  29  49  79 116 157 194 228 277 344
#     4  11  22  39  59  85 114 147 187 236 299 364
#     4  10  20  35  55  82 118 154 190 238 293 349
#     4  12  28  46  64  82 109 152 205 258 302 354
#
# _framework density 18.955499
#
# number of rings (size 3 to 8) (size 9 to 14) (size 15 to 20)
#    0.000    1.333    2.222    4.667    3.111    4.444 
#    0.000    0.000    0.000    0.000    0.000    0.778 
#    0.000    0.000    0.000    0.000    0.000    0.000 
#
# Total GULP energy -446245.968683 kJ/mol
# GULP energy per Si atom -12395.721352 kJ/mol
# Density = 1.891236 g / cm^3
# Si number density = 18.955499 Si / 1000 Ang^3
#
#
#
# Elastic Constant Matrix: (Units=GPa)
#
#
# Indices 1 2 3 4 5 6 
#
# 1 140.9709 31.9960 35.7396 0.0000 0.0000 0.0000
# 2 31.9960 67.7944 26.8451 0.0000 0.0000 0.0000
# 3 35.7396 26.8451 93.8623 0.0000 0.0000 0.0000
# 4 0.0000 0.0000 0.0000 8.1015 0.0000 0.0000
# 5 0.0000 0.0000 0.0000 0.0000 36.9274 0.0000
# 6 0.0000 0.0000 0.0000 0.0000 0.0000 23.9230
#
#
#
# Elastic Compliance Matrix: (Units=1/GPa)
#
#
# Indices 1 2 3 4 5 6 
#
# 1 0.008370 -0.003032 -0.002320 0.000000 0.000000 0.000000
# 2 -0.003032 0.017732 -0.003917 0.000000 0.000000 0.000000
# 3 -0.002320 -0.003917 0.012658 0.000000 0.000000 0.000000
# 4 0.000000 0.000000 0.000000 0.123435 0.000000 0.000000
# 5 0.000000 0.000000 0.000000 0.000000 0.027080 0.000000
# 6 0.000000 0.000000 0.000000 0.000000 0.000000 0.041801
#
#
# Mechanical properties :
#
#
# Convention : Reuss Voigt Hill
#
# Bulk Modulus (GPa) = 49.45009 54.64322 52.04666
# Shear Modulus (GPa) = 19.50431 27.66018 23.58224
#
# Velocity S-wave (km/s) = 3.21121 3.82411 3.53098
# Velocity P-wave (km/s) = 6.31611 6.95616 6.64385
#
# Compressibility (1/GPa) = 0.02022241
#
# Stress axis : x y z
#
# Youngs Moduli (GPa) = 119.47583 56.39401 79.00398
#
# Poissons Ratio (x) = 0.17096 0.18328
# Poissons Ratio (y) = 0.36220 0.30948
# Poissons Ratio (z) = 0.27717 0.22091
#
# Static dielectric constant tensor:
#      x y z
#    x 3.849990 0.000000 0.000000 
#    y 0.000000 3.136910 0.000000 
#    z 0.000000 0.000000 3.384340 
# 
# 
# High freq. dielectric constant tensor:
#      x y z
#    x 1.764870 0.000000 0.000000 
#    y 0.000000 1.686270 0.000000 
#    z 0.000000 0.000000 1.731920 
# 
# From -- ./inp_files/31331.got.cif
#   From: 2010.03.12/outbox.cif.g09.slc.cpg/sg51_16_cif.got.tgz:31331.got - 2010.04.16 13:43:02.
