data_PCOD8212093
_publ_section_title
;
Structure prediction by ZEFSAII (Michael W. Deem and Ramdas Pophale) SiO2 
 PCOD8212093
Probable space group: P M M A
;
_chemical_formula_sum "Si O2"
_cell_formula_units_Z 64
_cell_length_a 28.668497
_cell_length_b 8.961687
_cell_length_c 12.620259
_cell_angle_alpha 90.000000
_cell_angle_beta 90.000000
_cell_angle_gamma 90.000000
_cell_volume 3242.372924
_symmetry_space_group_name_H-M "P M M A"
_symmetry_group_IT_number 51
_symmetry_cell_setting 'orthorhombic'
loop_
_space_group_symop_operation_xyz
x,y,z
1/2-x,-y,z
1/2+x,-y,-z
-x,y,-z
-x,-y,-z
1/2+x,y,-z
1/2-x,y,z
x,-y,z
loop_
_atom_site_type_symbol
_atom_site_label
_atom_site_fract_x
_atom_site_fract_y
_atom_site_fract_z
Si Si1 0.801495 0.323112 0.499831
Si Si2 0.562629 0.826312 0.251743
Si Si3 0.121265 0.677275 0.338619
Si Si4 0.861923 0.328953 0.898675
Si Si5 0.654137 0.324019 0.282959
Si Si6 0.050427 0.669776 0.961307
Si Si7 0.695784 0.825340 0.075341
Si Si8 0.523779 0.174498 0.609170
O O1 0.750000 0.260868 0.528481
O O2 0.802118 0.500000 0.508935
O O3 0.839668 0.258102 0.581128
O O4 0.812530 0.275668 0.379285
O O5 0.602824 0.735997 0.313156
O O6 0.565942 0.782751 0.129269
O O7 0.512082 0.783669 0.297240
O O8 0.572982 0.000000 0.266333
O O9 0.117685 0.500000 0.343221
O O10 0.136527 0.730260 0.221666
O O11 0.071345 0.739190 0.371867
O O12 0.844885 0.500000 0.904155
O O13 0.914286 0.313024 0.941810
O O14 0.825972 0.230111 0.965143
O O15 0.652037 0.500000 0.267617
O O16 0.671844 0.255199 0.173814
O O17 0.049989 0.500000 0.917480
O O18 0.000000 0.719713 0.000000
O O19 0.750000 0.784701 0.074273
O O20 0.686836 0.000000 0.086919
O O21 0.500000 0.226263 0.500000
O O22 0.535288 0.000000 0.606493
#
# Coordination Sequence:
#
# PCOD8212093 Si02
#       8
#     8   8   8   8   8   8   8   8
#     4   9  19  36  59  88 118 148 188 243 302 356
#     4  11  22  35  55  83 115 154 197 240 291 350
#     4  10  21  38  62  90 118 152 198 246 293 349
#     4  10  21  37  58  86 118 155 195 239 293 352
#     4  11  21  36  60  88 118 153 194 245 303 355
#     4  10  20  35  55  81 114 151 191 237 287 342
#     4  11  24  40  59  85 118 156 198 247 299 353
#     4  10  22  39  57  82 119 162 202 241 293 353
#
# _framework density 19.738629
#
# number of rings (size 3 to 8) (size 9 to 14) (size 15 to 20)
#    0.000    1.750    1.250    3.000    0.000    5.000 
#    0.000    1.875    0.000    1.875    0.000    0.000 
#    0.000    0.000    0.000    0.000    0.000    0.000 
#
# Total GULP energy -793782.385046 kJ/mol
# GULP energy per Si atom -12402.849766 kJ/mol
# Density = 1.969370 g / cm^3
# Si number density = 19.738629 Si / 1000 Ang^3
#
#
#
# Elastic Constant Matrix: (Units=GPa)
#
#
# Indices 1 2 3 4 5 6 
#
# 1 153.9127 47.3674 65.6856 0.0000 0.0000 0.0000
# 2 47.3674 55.6231 40.0428 0.0000 0.0000 0.0000
# 3 65.6856 40.0428 135.2142 0.0000 0.0000 0.0000
# 4 0.0000 0.0000 0.0000 10.4583 0.0000 0.0000
# 5 0.0000 0.0000 0.0000 0.0000 33.6215 0.0000
# 6 0.0000 0.0000 0.0000 0.0000 0.0000 29.3145
#
#
#
# Elastic Compliance Matrix: (Units=1/GPa)
#
#
# Indices 1 2 3 4 5 6 
#
# 1 0.009597 -0.006121 -0.002849 0.000000 0.000000 0.000000
# 2 -0.006121 0.026754 -0.004949 0.000000 0.000000 0.000000
# 3 -0.002849 -0.004949 0.010246 0.000000 0.000000 0.000000
# 4 0.000000 0.000000 0.000000 0.095617 0.000000 0.000000
# 5 0.000000 0.000000 0.000000 0.000000 0.029743 0.000000
# 6 0.000000 0.000000 0.000000 0.000000 0.000000 0.034113
#
#
# Mechanical properties :
#
#
# Convention : Reuss Voigt Hill
#
# Bulk Modulus (GPa) = 53.31483 72.32684 62.82084
# Shear Modulus (GPa) = 20.81926 27.45581 24.13754
#
# Velocity S-wave (km/s) = 3.25121 3.73362 3.50073
# Velocity P-wave (km/s) = 6.41583 7.43696 6.94519
#
# Compressibility (1/GPa) = 0.01875651
#
# Stress axis : x y z
#
# Youngs Moduli (GPa) = 104.19789 37.37753 97.60332
#
# Poissons Ratio (x) = 0.22881 0.27811
# Poissons Ratio (y) = 0.63784 0.48307
# Poissons Ratio (z) = 0.29690 0.18499
#
# Static dielectric constant tensor:
#      x y z
#    x 3.858050 0.000000 0.000000 
#    y 0.000000 3.437900 0.000000 
#    z 0.000000 0.000000 3.732520 
# 
# 
# High freq. dielectric constant tensor:
#      x y z
#    x 1.783950 0.000000 0.000000 
#    y 0.000000 1.751460 0.000000 
#    z 0.000000 0.000000 1.776150 
# 
# From -- ./inp_files/19624.got.cif
#   From: 2010.03.12/outbox.cif.g09.slc.cpg/sg51_10_cif.got.tgz:19624.got - 2010.04.16 13:43:02.
