data_PCOD8212106
_publ_section_title
;
Structure prediction by ZEFSAII (Michael W. Deem and Ramdas Pophale) SiO2 
 PCOD8212106
Probable space group: P M M A
;
_chemical_formula_sum "Si O2"
_cell_formula_units_Z 48
_cell_length_a 18.227232
_cell_length_b 8.985661
_cell_length_c 16.271562
_cell_angle_alpha 90.000000
_cell_angle_beta 90.000000
_cell_angle_gamma 90.000000
_cell_volume 2665.017080
_symmetry_space_group_name_H-M "P M M A"
_symmetry_group_IT_number 51
_symmetry_cell_setting 'orthorhombic'
loop_
_space_group_symop_operation_xyz
x,y,z
1/2-x,-y,z
1/2+x,-y,-z
-x,y,-z
-x,-y,-z
1/2+x,y,-z
1/2-x,y,z
x,-y,z
loop_
_atom_site_type_symbol
_atom_site_label
_atom_site_fract_x
_atom_site_fract_y
_atom_site_fract_z
Si Si1 0.530940 0.673330 0.089760
Si Si2 0.833567 0.175730 0.157613
Si Si3 0.400260 0.827287 0.674760
Si Si4 0.335886 0.828647 0.508270
Si Si5 0.452727 0.826173 0.238042
Si Si6 0.664591 0.672916 0.658249
O O1 0.534567 0.500000 0.111204
O O2 0.612869 0.741543 0.094023
O O3 0.476327 0.752925 0.152772
O O4 0.500000 0.703616 0.000000
O O5 0.750000 0.214786 0.134864
O O6 0.851649 0.235125 0.249571
O O7 0.849235 0.000000 0.152227
O O8 0.377152 0.756756 0.587365
O O9 0.485639 0.796687 0.692426
O O10 0.381916 0.000000 0.666924
O O11 0.250000 0.811727 0.524676
O O12 0.361497 0.736767 0.429150
O O13 0.357900 0.000000 0.492642
O O14 0.377296 0.754138 0.267998
O O15 0.441094 0.000000 0.222491
O O16 0.750000 0.705231 0.672342
O O17 0.645820 0.500000 0.660570
#
# Coordination Sequence:
#
# PCOD8212106 Si02
#       6
#     8   8   8   8   8   8
#     4  10  21  37  56  78 106 138 168 202 252 312
#     4   9  17  31  53  80 108 137 171 211 253 298
#     4   8  15  28  48  75 103 131 164 205 251 296
#     4   9  16  28  48  71  97 133 174 209 242 288
#     4  10  20  35  56  78  99 127 167 212 256 304
#     4  10  21  36  51  69  99 136 172 213 258 300
#
# _framework density 18.011140999999999
#
# number of rings (size 3 to 8) (size 9 to 14) (size 15 to 20)
#    0.000    2.667    0.000    3.000    0.000    5.333 
#    0.000    8.333    0.000    5.000    0.000    0.000 
#    0.000    0.000    0.000    0.000    0.000    0.000 
#
# Total GULP energy -595191.120661 kJ/mol
# GULP energy per Si atom -12399.815014 kJ/mol
# Density = 1.797015 g / cm^3
# Si number density = 18.011141 Si / 1000 Ang^3
#
#
#
# Elastic Constant Matrix: (Units=GPa)
#
#
# Indices 1 2 3 4 5 6 
#
# 1 95.3021 60.6917 67.9523 0.0000 0.0000 0.0000
# 2 60.6917 95.7013 65.4991 0.0000 0.0000 0.0000
# 3 67.9523 65.4991 110.4330 0.0000 0.0000 0.0000
# 4 0.0000 0.0000 0.0000 17.5978 0.0000 0.0000
# 5 0.0000 0.0000 0.0000 0.0000 26.5944 0.0000
# 6 0.0000 0.0000 0.0000 0.0000 0.0000 24.7321
#
#
#
# Elastic Compliance Matrix: (Units=1/GPa)
#
#
# Indices 1 2 3 4 5 6 
#
# 1 0.021655 -0.007766 -0.008719 0.000000 0.000000 0.000000
# 2 -0.007766 0.020374 -0.007306 0.000000 0.000000 0.000000
# 3 -0.008719 -0.007306 0.018753 0.000000 0.000000 0.000000
# 4 0.000000 0.000000 0.000000 0.056825 0.000000 0.000000
# 5 0.000000 0.000000 0.000000 0.000000 0.037602 0.000000
# 6 0.000000 0.000000 0.000000 0.000000 0.000000 0.040433
#
#
# Mechanical properties :
#
#
# Convention : Reuss Voigt Hill
#
# Bulk Modulus (GPa) = 75.74740 76.63584 76.19162
# Shear Modulus (GPa) = 20.19179 20.93774 20.56477
#
# Velocity S-wave (km/s) = 3.35187 3.41323 3.38269
# Velocity P-wave (km/s) = 7.55826 7.62725 7.59283
#
# Compressibility (1/GPa) = 0.01320177
#
# Stress axis : x y z
#
# Youngs Moduli (GPa) = 46.17771 49.08166 53.32383
#
# Poissons Ratio (x) = 0.38117 0.46493
# Poissons Ratio (y) = 0.35862 0.38956
# Poissons Ratio (z) = 0.40263 0.35857
#
# Static dielectric constant tensor:
#      x y z
#    x 3.306750 0.000000 0.000000 
#    y 0.000000 3.230460 0.000000 
#    z 0.000000 0.000000 3.284860 
# 
# 
# High freq. dielectric constant tensor:
#      x y z
#    x 1.695450 0.000000 0.000000 
#    y 0.000000 1.684920 0.000000 
#    z 0.000000 0.000000 1.690350 
# 
# From -- ./inp_files/24812.got.cif
#   From: 2010.03.12/outbox.cif.g09.slc.cpg/sg51_13_cif.got.tgz:24812.got - 2010.04.16 13:43:02.
