data_PCOD8212243
_publ_section_title
;
Structure prediction by ZEFSAII (Michael W. Deem and Ramdas Pophale) SiO2 
 PCOD8212243
Probable space group: P M M A
;
_chemical_formula_sum "Si O2"
_cell_formula_units_Z 48
_cell_length_a 8.882489
_cell_length_b 9.775406
_cell_length_c 29.295791
_cell_angle_alpha 90.000000
_cell_angle_beta 90.000000
_cell_angle_gamma 90.000000
_cell_volume 2543.751665
_symmetry_space_group_name_H-M "P M M A"
_symmetry_group_IT_number 51
_symmetry_cell_setting 'orthorhombic'
loop_
_space_group_symop_operation_xyz
x,y,z
1/2-x,-y,z
1/2+x,-y,-z
-x,y,-z
-x,-y,-z
1/2+x,y,-z
1/2-x,y,z
x,-y,z
loop_
_atom_site_type_symbol
_atom_site_label
_atom_site_fract_x
_atom_site_fract_y
_atom_site_fract_z
Si Si1 0.573286 0.262828 0.104926
Si Si2 0.074431 0.158461 0.192156
Si Si3 0.074241 0.157231 0.713064
Si Si4 0.076978 0.000000 0.951737
Si Si5 0.572091 0.155739 0.452389
Si Si6 0.071142 0.344080 0.629531
Si Si7 0.926847 0.500000 0.950500
O O1 0.750000 0.298106 0.103830
O O2 0.519455 0.251058 0.157062
O O3 0.476576 0.372480 0.078786
O O4 0.529662 0.127021 0.078444
O O5 0.250000 0.191446 0.187272
O O6 0.020490 0.197661 0.242569
O O7 0.038749 0.000000 0.182379
O O8 0.250000 0.177677 0.723817
O O9 0.017296 0.260195 0.673894
O O10 0.043276 0.000000 0.698078
O O11 0.250000 0.000000 0.963438
O O12 0.000000 0.000000 0.000000
O O13 0.500000 0.200756 0.500000
O O14 0.750000 0.166702 0.456997
O O15 0.510273 0.261218 0.414412
O O16 0.525243 0.000000 0.439401
O O17 0.250000 0.347167 0.628317
O O18 0.007416 0.500000 0.630089
O O19 0.750000 0.500000 0.957922
O O20 0.000000 0.500000 0.000000
#
# Coordination Sequence:
#
# PCOD8212243 Si02
#       7
#     8   8   8   4   8   8   4
#     4  11  22  40  62  87 115 151 192 235 280 333
#     4  10  20  35  57  85 114 145 181 227 281 335
#     4   9  17  31  53  76  99 133 176 221 266 319
#     4  10  22  36  58  88 116 144 184 230 277 326
#     4   9  17  30  49  73 101 134 174 218 263 316
#     4   9  17  30  49  74 102 133 174 221 268 317
#     4  12  26  44  62  86 118 156 194 232 279 336
#
# _framework density 18.869767
#
# number of rings (size 3 to 8) (size 9 to 14) (size 15 to 20)
#    0.000    2.167    0.833    2.750    0.000    5.667 
#    1.500    0.833    0.000    5.000    0.000    0.000 
#    0.000    0.000    0.000    0.000    0.000    0.000 
#
# Total GULP energy -595199.760368 kJ/mol
# GULP energy per Si atom -12399.995008 kJ/mol
# Density = 1.882682 g / cm^3
# Si number density = 18.869767 Si / 1000 Ang^3
#
#
#
# Elastic Constant Matrix: (Units=GPa)
#
#
# Indices 1 2 3 4 5 6 
#
# 1 65.0838 42.0148 47.8353 0.0000 0.0000 0.0000
# 2 42.0148 127.5523 80.8501 0.0000 0.0000 0.0000
# 3 47.8353 80.8501 158.7535 0.0000 0.0000 0.0000
# 4 0.0000 0.0000 0.0000 29.8123 0.0000 0.0000
# 5 0.0000 0.0000 0.0000 0.0000 33.7183 0.0000
# 6 0.0000 0.0000 0.0000 0.0000 0.0000 22.1980
#
#
#
# Elastic Compliance Matrix: (Units=1/GPa)
#
#
# Indices 1 2 3 4 5 6 
#
# 1 0.021248 -0.004343 -0.004191 0.000000 0.000000 0.000000
# 2 -0.004343 0.012465 -0.005040 0.000000 0.000000 0.000000
# 3 -0.004191 -0.005040 0.010128 0.000000 0.000000 0.000000
# 4 0.000000 0.000000 0.000000 0.033543 0.000000 0.000000
# 5 0.000000 0.000000 0.000000 0.000000 0.029657 0.000000
# 6 0.000000 0.000000 0.000000 0.000000 0.000000 0.045049
#
#
# Mechanical properties :
#
#
# Convention : Reuss Voigt Hill
#
# Bulk Modulus (GPa) = 59.89675 76.97667 68.43671
# Shear Modulus (GPa) = 27.05589 29.19167 28.12378
#
# Velocity S-wave (km/s) = 3.79069 3.93747 3.86478
# Velocity P-wave (km/s) = 7.13934 7.84562 7.50080
#
# Compressibility (1/GPa) = 0.01669540
#
# Stress axis : x y z
#
# Youngs Moduli (GPa) = 47.06225 80.22660 98.73232
#
# Poissons Ratio (x) = 0.34840 0.41378
# Poissons Ratio (y) = 0.20437 0.49756
# Poissons Ratio (z) = 0.19723 0.40430
#
# Static dielectric constant tensor:
#      x y z
#    x 3.256330 0.000000 0.000000 
#    y 0.000000 3.557390 0.000000 
#    z 0.000000 0.000000 3.558030 
# 
# 
# High freq. dielectric constant tensor:
#      x y z
#    x 1.715240 0.000000 0.000000 
#    y 0.000000 1.729960 0.000000 
#    z 0.000000 0.000000 1.746230 
# 
# From -- ./inp_files/37202.got.cif
#   From: 2010.03.12/outbox.cif.g09.slc.cpg/sg51_19_cif.got.tgz:37202.got - 2010.04.16 13:43:02.
