data_PCOD8212056
_publ_section_title
;
Structure prediction by ZEFSAII (Michael W. Deem and Ramdas Pophale) SiO2 
 PCOD8212056
Probable space group: P M M A
;
_chemical_formula_sum "Si O2"
_cell_formula_units_Z 56
_cell_length_a 8.695119
_cell_length_b 22.709319
_cell_length_c 14.879282
_cell_angle_alpha 90.000000
_cell_angle_beta 90.000000
_cell_angle_gamma 90.000000
_cell_volume 2938.066463
_symmetry_space_group_name_H-M "P M M A"
_symmetry_group_IT_number 51
_symmetry_cell_setting 'orthorhombic'
loop_
_space_group_symop_operation_xyz
x,y,z
1/2-x,-y,z
1/2+x,-y,-z
-x,y,-z
-x,-y,-z
1/2+x,y,-z
1/2-x,y,z
x,-y,z
loop_
_atom_site_type_symbol
_atom_site_label
_atom_site_fract_x
_atom_site_fract_y
_atom_site_fract_z
Si Si1 0.569006 0.566199 0.093420
Si Si2 0.067909 0.292917 0.404413
Si Si3 0.069170 0.158445 0.406362
Si Si4 0.569066 0.887321 0.091437
Si Si5 0.567940 0.332623 0.226227
Si Si6 0.572635 0.934215 0.738662
Si Si7 0.932282 0.759706 0.906450
O O1 0.750000 0.567322 0.082087
O O2 0.508890 0.500000 0.113129
O O3 0.517467 0.607258 0.176232
O O4 0.500000 0.590383 0.000000
O O5 0.250000 0.300898 0.405725
O O6 0.019216 0.225320 0.383954
O O7 0.000000 0.313180 0.500000
O O8 0.994502 0.334408 0.327984
O O9 0.250000 0.153391 0.414315
O O10 0.006477 0.113841 0.330940
O O11 0.000000 0.137292 0.500000
O O12 0.750000 0.878320 0.081141
O O13 0.528936 0.931444 0.171589
O O14 0.489037 0.825298 0.111726
O O15 0.500000 0.914512 0.000000
O O16 0.750000 0.324347 0.226013
O O17 0.489275 0.278412 0.176465
O O18 0.750000 0.920387 0.761994
O O19 0.555283 0.000000 0.698285
O O20 0.750000 0.758274 0.911357
O O21 0.000000 0.734740 0.000000
#
# Coordination Sequence:
#
# PCOD8212056 Si02
#       7
#     8   8   8   8   8   8   8
#     4   9  19  35  54  78 111 150 188 225 264 309
#     4  10  20  35  55  79 108 140 177 222 272 324
#     4   9  19  35  55  78 104 135 168 208 259 314
#     4  11  22  37  56  76 101 134 173 217 266 318
#     4  11  21  33  53  81 111 143 181 223 268 317
#     4  10  21  37  55  76 104 137 173 213 258 311
#     4  11  21  34  52  77 109 140 173 214 265 322
#
# _framework density 19.060155000000002
#
# number of rings (size 3 to 8) (size 9 to 14) (size 15 to 20)
#    0.000    1.857    0.000    5.571    0.000    5.429 
#    0.000    0.000    0.000    0.429    0.000    0.000 
#    0.000    0.000    0.000    0.000    0.000    0.000 
#
# Total GULP energy -694557.712481 kJ/mol
# GULP energy per Si atom -12402.816294 kJ/mol
# Density = 1.901677 g / cm^3
# Si number density = 19.060155 Si / 1000 Ang^3
#
#
#
# Elastic Constant Matrix: (Units=GPa)
#
#
# Indices 1 2 3 4 5 6 
#
# 1 86.4755 28.4243 51.0947 0.0000 0.0000 0.0000
# 2 28.4243 72.5471 63.9188 0.0000 0.0000 0.0000
# 3 51.0947 63.9188 147.7154 0.0000 0.0000 0.0000
# 4 0.0000 0.0000 0.0000 31.4978 0.0000 0.0000
# 5 0.0000 0.0000 0.0000 0.0000 37.2990 0.0000
# 6 0.0000 0.0000 0.0000 0.0000 0.0000 18.6618
#
#
#
# Elastic Compliance Matrix: (Units=1/GPa)
#
#
# Indices 1 2 3 4 5 6 
#
# 1 0.014725 -0.002071 -0.004197 0.000000 0.000000 0.000000
# 2 -0.002071 0.022569 -0.009049 0.000000 0.000000 0.000000
# 3 -0.004197 -0.009049 0.012137 0.000000 0.000000 0.000000
# 4 0.000000 0.000000 0.000000 0.031748 0.000000 0.000000
# 5 0.000000 0.000000 0.000000 0.000000 0.026810 0.000000
# 6 0.000000 0.000000 0.000000 0.000000 0.000000 0.053585
#
#
# Mechanical properties :
#
#
# Convention : Reuss Voigt Hill
#
# Bulk Modulus (GPa) = 53.20469 65.95706 59.58088
# Shear Modulus (GPa) = 25.19205 28.37841 26.78523
#
# Velocity S-wave (km/s) = 3.63948 3.86280 3.75280
# Velocity P-wave (km/s) = 6.75543 7.38747 7.07851
#
# Compressibility (1/GPa) = 0.01879534
#
# Stress axis : x y z
#
# Youngs Moduli (GPa) = 67.91356 44.30879 82.39060
#
# Poissons Ratio (x) = 0.09178 0.34579
# Poissons Ratio (y) = 0.14068 0.74559
# Poissons Ratio (z) = 0.28503 0.40097
#
# Static dielectric constant tensor:
#      x y z
#    x 3.465070 0.000000 0.000000 
#    y 0.000000 3.501980 0.000000 
#    z 0.000000 0.000000 3.574230 
# 
# 
# High freq. dielectric constant tensor:
#      x y z
#    x 1.745250 0.000000 0.000000 
#    y 0.000000 1.723420 0.000000 
#    z 0.000000 0.000000 1.744260 
# 
# From -- ./inp_files/21732.got.cif
#   From: 2010.03.12/outbox.cif.g09.slc.cpg/sg51_11_cif.got.tgz:21732.got - 2010.04.16 13:43:02.
