data_PCOD8212722
_publ_section_title
;
Structure prediction by ZEFSAII (Michael W. Deem and Ramdas Pophale) SiO2 
 PCOD8212722
Probable space group: P M M A
;
_chemical_formula_sum "Si O2"
_cell_formula_units_Z 48
_cell_length_a 9.779453
_cell_length_b 9.003247
_cell_length_c 29.044229
_cell_angle_alpha 90.000000
_cell_angle_beta 90.000000
_cell_angle_gamma 90.000000
_cell_volume 2557.252319
_symmetry_space_group_name_H-M "P M M A"
_symmetry_group_IT_number 51
_symmetry_cell_setting 'orthorhombic'
loop_
_space_group_symop_operation_xyz
x,y,z
1/2-x,-y,z
1/2+x,-y,-z
-x,y,-z
-x,-y,-z
1/2+x,y,-z
1/2-x,y,z
x,-y,z
loop_
_atom_site_type_symbol
_atom_site_label
_atom_site_fract_x
_atom_site_fract_y
_atom_site_fract_z
Si Si1 0.535145 0.171335 0.100098
Si Si2 0.097175 0.823911 0.798433
Si Si3 0.750000 0.832948 0.943321
Si Si4 0.093144 0.823346 0.282810
Si Si5 0.907897 0.325952 0.357730
Si Si6 0.250000 0.325230 0.961971
Si Si7 0.599518 0.323850 0.461615
O O1 0.565520 0.237966 0.150611
O O2 0.376517 0.192392 0.090278
O O3 0.615241 0.262137 0.061740
O O4 0.581541 0.000000 0.097179
O O5 0.250000 0.773242 0.783569
O O6 0.986078 0.761282 0.762330
O O7 0.086463 0.000000 0.799651
O O8 0.750000 0.000000 0.964106
O O9 0.750000 0.717312 0.984645
O O10 0.250000 0.765789 0.282095
O O11 0.013763 0.764281 0.327051
O O12 0.089529 0.000000 0.284107
O O13 0.750000 0.281494 0.347322
O O14 0.928186 0.500000 0.348878
O O15 0.947169 0.282661 0.410047
O O16 0.250000 0.500000 0.957622
O O17 0.500000 0.253012 0.500000
O O18 0.750000 0.258319 0.470980
O O19 0.603684 0.500000 0.466473
#
# Coordination Sequence:
#
# PCOD8212722 Si02
#       7
#     8   8   4   8   8   4   8
#     4  10  20  37  60  84 107 135 176 222 262 305
#     4   9  17  32  56  80 101 131 171 214 259 307
#     4  10  22  36  58  86 110 138 174 220 267 304
#     4  10  21  34  52  80 110 137 170 215 266 318
#     4   9  18  33  52  75 105 141 179 218 261 314
#     4  12  24  38  56  80 112 148 180 210 253 312
#     4   8  14  25  43  69  99 131 171 218 264 307
#
# _framework density 18.770147000000001
#
# number of rings (size 3 to 8) (size 9 to 14) (size 15 to 20)
#    0.000    2.500    0.833    2.750    1.167    4.667 
#    0.000    2.500    0.000    0.500    0.000    0.000 
#    0.000    0.000    0.000    0.000    0.000    0.000 
#
# Total GULP energy -595108.265949 kJ/mol
# GULP energy per Si atom -12398.088874 kJ/mol
# Density = 1.872743 g / cm^3
# Si number density = 18.770147 Si / 1000 Ang^3
#
#
#
# Elastic Constant Matrix: (Units=GPa)
#
#
# Indices 1 2 3 4 5 6 
#
# 1 145.0986 26.8117 71.0463 0.0000 0.0000 0.0000
# 2 26.8117 35.5175 20.0012 0.0000 0.0000 0.0000
# 3 71.0463 20.0012 126.1442 0.0000 0.0000 0.0000
# 4 0.0000 0.0000 0.0000 -22.0868 0.0000 0.0000
# 5 0.0000 0.0000 0.0000 0.0000 34.6813 0.0000
# 6 0.0000 0.0000 0.0000 0.0000 0.0000 15.5401
#
#
#
# Elastic Compliance Matrix: (Units=1/GPa)
#
#
# Indices 1 2 3 4 5 6 
#
# 1 0.010245 -0.004924 -0.004989 0.000000 0.000000 0.000000
# 2 -0.004924 0.033282 -0.002504 0.000000 0.000000 0.000000
# 3 -0.004989 -0.002504 0.011134 0.000000 0.000000 0.000000
# 4 0.000000 0.000000 0.000000 -0.045276 0.000000 0.000000
# 5 0.000000 0.000000 0.000000 0.000000 0.028834 0.000000
# 6 0.000000 0.000000 0.000000 0.000000 0.000000 0.064350
#
#
# Mechanical properties :
#
#
# Convention : Reuss Voigt Hill
#
# Bulk Modulus (GPa) = 33.52654 60.27542 46.90098
# Shear Modulus (GPa) = 36.40456 18.22033 27.31245
#
# Velocity S-wave (km/s) = 4.40874 3.11900 3.81872
# Velocity P-wave (km/s) = 6.61940 6.71960 6.66969
#
# Compressibility (1/GPa) = 0.02982712
#
# Stress axis : x y z
#
# Youngs Moduli (GPa) = 97.61190 30.04612 89.81136
#
# Poissons Ratio (x) = 0.14795 0.44809
# Poissons Ratio (y) = 0.48064 0.22488
# Poissons Ratio (z) = 0.48701 0.07523
#
# Static dielectric constant tensor:
#      x y z
#    x 3.744540 0.000000 0.000000 
#    y 0.000000 2.993810 0.000000 
#    z 0.000000 0.000000 3.611910 
# 
# 
# High freq. dielectric constant tensor:
#      x y z
#    x 1.741440 0.000000 0.000000 
#    y 0.000000 1.678850 0.000000 
#    z 0.000000 0.000000 1.739450 
# 
# From -- ./inp_files/37105.got.cif
#   From: 2010.03.12/outbox.cif.g09.slc.cpg/sg51_19_cif.got.tgz:37105.got - 2010.04.16 13:43:02.
