data_PCOD8212666
_publ_section_title
;
Structure prediction by ZEFSAII (Michael W. Deem and Ramdas Pophale) SiO2 
 PCOD8212666
Probable space group: P M M A
;
_chemical_formula_sum "Si O2"
_cell_formula_units_Z 48
_cell_length_a 28.162471
_cell_length_b 9.066757
_cell_length_c 9.947252
_cell_angle_alpha 90.000000
_cell_angle_beta 90.000000
_cell_angle_gamma 90.000000
_cell_volume 2539.954016
_symmetry_space_group_name_H-M "P M M A"
_symmetry_group_IT_number 51
_symmetry_cell_setting 'orthorhombic'
loop_
_space_group_symop_operation_xyz
x,y,z
1/2-x,-y,z
1/2+x,-y,-z
-x,y,-z
-x,-y,-z
1/2+x,y,-z
1/2-x,y,z
x,-y,z
loop_
_atom_site_type_symbol
_atom_site_label
_atom_site_fract_x
_atom_site_fract_y
_atom_site_fract_z
Si Si1 0.869637 0.825475 0.025103
Si Si2 0.037844 0.330692 0.891061
Si Si3 0.024377 0.330175 0.365842
Si Si4 0.804504 0.827406 0.499567
Si Si5 0.693933 0.667338 0.229505
Si Si6 0.380119 0.173800 0.280065
O O1 0.869623 0.770015 0.870805
O O2 0.865062 0.000000 0.034313
O O3 0.916956 0.773929 0.100390
O O4 0.825266 0.753246 0.100186
O O5 0.052827 0.500000 0.918326
O O6 0.015308 0.308913 0.746359
O O7 0.000000 0.276571 0.000000
O O8 0.039355 0.500000 0.381577
O O9 0.071520 0.241128 0.334384
O O10 0.000000 0.268055 0.500000
O O11 0.750000 0.786131 0.533138
O O12 0.823173 0.742615 0.367874
O O13 0.836276 0.777257 0.625937
O O14 0.809935 0.000000 0.470069
O O15 0.750000 0.674030 0.218919
O O16 0.674874 0.500000 0.228972
O O17 0.386664 0.000000 0.280662
#
# Coordination Sequence:
#
# PCOD8212666 Si02
#       6
#     8   8   8   8   8   8
#     4  11  23  37  58  87 118 153 190 233 284 338
#     4  10  20  37  58  80 112 153 192 232 280 332
#     4  10  22  38  56  81 112 150 191 234 283 334
#     4   9  19  38  61  84 113 148 186 230 282 338
#     4  10  22  40  61  86 115 148 189 235 283 339
#     4  10  22  38  57  85 116 150 190 233 281 335
#
# _framework density 18.897981000000001
#
# number of rings (size 3 to 8) (size 9 to 14) (size 15 to 20)
#    0.000    2.000    1.667    1.000    2.333    4.333 
#    0.000    1.667    0.000    2.000    0.000    0.000 
#    0.000    0.000    0.000    0.000    0.000    0.000 
#
# Total GULP energy -595385.660314 kJ/mol
# GULP energy per Si atom -12403.867923 kJ/mol
# Density = 1.885497 g / cm^3
# Si number density = 18.897981 Si / 1000 Ang^3
#
#
#
# Elastic Constant Matrix: (Units=GPa)
#
#
# Indices 1 2 3 4 5 6 
#
# 1 74.3474 35.7961 58.3796 0.0000 0.0000 0.0000
# 2 35.7961 57.9134 43.5532 0.0000 0.0000 0.0000
# 3 58.3796 43.5532 143.7847 0.0000 0.0000 0.0000
# 4 0.0000 0.0000 0.0000 35.1356 0.0000 0.0000
# 5 0.0000 0.0000 0.0000 0.0000 35.4127 0.0000
# 6 0.0000 0.0000 0.0000 0.0000 0.0000 40.3466
#
#
#
# Elastic Compliance Matrix: (Units=1/GPa)
#
#
# Indices 1 2 3 4 5 6 
#
# 1 0.023090 -0.009352 -0.006542 0.000000 0.000000 0.000000
# 2 -0.009352 0.026149 -0.004123 0.000000 0.000000 0.000000
# 3 -0.006542 -0.004123 0.010860 0.000000 0.000000 0.000000
# 4 0.000000 0.000000 0.000000 0.028461 0.000000 0.000000
# 5 0.000000 0.000000 0.000000 0.000000 0.028238 0.000000
# 6 0.000000 0.000000 0.000000 0.000000 0.000000 0.024785
#
#
# Mechanical properties :
#
#
# Convention : Reuss Voigt Hill
#
# Bulk Modulus (GPa) = 49.84169 61.27814 55.55992
# Shear Modulus (GPa) = 26.55233 31.40010 28.97622
#
# Velocity S-wave (km/s) = 3.75245 4.08064 3.91998
# Velocity P-wave (km/s) = 6.72353 7.39583 7.06768
#
# Compressibility (1/GPa) = 0.02006352
#
# Stress axis : x y z
#
# Youngs Moduli (GPa) = 43.30814 38.24298 92.07909
#
# Poissons Ratio (x) = 0.35765 0.60242
# Poissons Ratio (y) = 0.40501 0.37969
# Poissons Ratio (z) = 0.28334 0.15769
#
# Static dielectric constant tensor:
#      x y z
#    x 3.404740 0.000000 0.000000 
#    y 0.000000 3.474830 0.000000 
#    z 0.000000 0.000000 3.677070 
# 
# 
# High freq. dielectric constant tensor:
#      x y z
#    x 1.736170 0.000000 0.000000 
#    y 0.000000 1.730540 0.000000 
#    z 0.000000 0.000000 1.747400 
# 
# From -- ./inp_files/12749.got.cif
#   From: 2010.03.12/outbox.cif.g09.slc.cpg/sg51_7_cif.got.tgz:12749.got - 2010.04.16 13:43:02.
