data_PCOD8212946
_publ_section_title
;
Structure prediction by ZEFSAII (Michael W. Deem and Ramdas Pophale) SiO2 
 PCOD8212946
Probable space group: P M M A
;
_chemical_formula_sum "Si O2"
_cell_formula_units_Z 48
_cell_length_a 8.843712
_cell_length_b 30.841256
_cell_length_c 9.342753
_cell_angle_alpha 90.000000
_cell_angle_beta 90.000000
_cell_angle_gamma 90.000000
_cell_volume 2548.246959
_symmetry_space_group_name_H-M "P M M A"
_symmetry_group_IT_number 51
_symmetry_cell_setting 'orthorhombic'
loop_
_space_group_symop_operation_xyz
x,y,z
1/2-x,-y,z
1/2+x,-y,-z
-x,y,-z
-x,-y,-z
1/2+x,y,-z
1/2-x,y,z
x,-y,z
loop_
_atom_site_type_symbol
_atom_site_label
_atom_site_fract_x
_atom_site_fract_y
_atom_site_fract_z
Si Si1 0.428890 0.828036 0.346315
Si Si2 0.426093 0.653957 0.146481
Si Si3 0.425797 0.000000 0.151896
Si Si4 0.429088 0.424327 0.343702
Si Si5 0.571694 0.906509 0.844783
Si Si6 0.571710 0.751219 0.852385
Si Si7 0.568734 0.500000 0.157872
O O1 0.500000 0.829532 0.500000
O O2 0.250000 0.829890 0.359929
O O3 0.491986 0.869273 0.258560
O O4 0.483234 0.783615 0.271248
O O5 0.250000 0.654043 0.115409
O O6 0.465606 0.623060 0.279592
O O7 0.483707 0.702406 0.185188
O O8 0.500000 0.636631 0.000000
O O9 0.470297 0.046011 0.226498
O O10 0.250000 0.000000 0.123493
O O11 0.500000 0.000000 0.000000
O O12 0.500000 0.427632 0.500000
O O13 0.250000 0.433733 0.350867
O O14 0.510167 0.458162 0.240954
O O15 0.750000 0.901188 0.863520
O O16 0.500000 0.900892 0.000000
O O17 0.750000 0.753257 0.870530
O O18 0.500000 0.767303 0.000000
O O19 0.750000 0.500000 0.150090
O O20 0.500000 0.500000 0.000000
#
# Coordination Sequence:
#
# PCOD8212946 Si02
#       7
#     8   8   4   8   8   8   4
#     4  10  21  34  48  69 100 133 167 205 250 301
#     4   9  19  35  56  80 107 137 172 213 258 307
#     4   8  14  26  45  68  94 120 154 200 249 294
#     4  11  23  39  58  83 114 147 181 219 263 312
#     4   9  17  30  49  72  95 124 161 204 249 298
#     4   9  18  34  54  77 102 131 169 213 256 303
#     4  12  25  42  63  86 112 144 182 224 267 312
#
# _framework density 18.836476999999999
#
# number of rings (size 3 to 8) (size 9 to 14) (size 15 to 20)
#    0.000    2.333    0.000    2.500    0.000    4.667 
#    0.000    0.417    0.000    0.000    0.000    0.000 
#    0.000    0.000    0.000    0.000    0.000    0.000 
#
# Total GULP energy -594961.416515 kJ/mol
# GULP energy per Si atom -12395.029511 kJ/mol
# Density = 1.879360 g / cm^3
# Si number density = 18.836477 Si / 1000 Ang^3
#
#
#
# Elastic Constant Matrix: (Units=GPa)
#
#
# Indices 1 2 3 4 5 6 
#
# 1 51.5863 45.9300 46.3481 0.0000 0.0000 0.0000
# 2 45.9300 147.5200 90.1009 0.0000 0.0000 0.0000
# 3 46.3481 90.1009 152.8885 0.0000 0.0000 0.0000
# 4 0.0000 0.0000 0.0000 14.0103 0.0000 0.0000
# 5 0.0000 0.0000 0.0000 0.0000 34.6274 0.0000
# 6 0.0000 0.0000 0.0000 0.0000 0.0000 14.9162
#
#
#
# Elastic Compliance Matrix: (Units=1/GPa)
#
#
# Indices 1 2 3 4 5 6 
#
# 1 0.029528 -0.005822 -0.005521 0.000000 0.000000 0.000000
# 2 -0.005822 0.011739 -0.005153 0.000000 0.000000 0.000000
# 3 -0.005521 -0.005153 0.011251 0.000000 0.000000 0.000000
# 4 0.000000 0.000000 0.000000 0.071376 0.000000 0.000000
# 5 0.000000 0.000000 0.000000 0.000000 0.028879 0.000000
# 6 0.000000 0.000000 0.000000 0.000000 0.000000 0.067041
#
#
# Mechanical properties :
#
#
# Convention : Reuss Voigt Hill
#
# Bulk Modulus (GPa) = 51.21015 79.63918 65.42467
# Shear Modulus (GPa) = 19.28165 24.01852 21.65008
#
# Velocity S-wave (km/s) = 3.20290 3.57474 3.39391
# Velocity P-wave (km/s) = 6.39717 7.70775 7.08284
#
# Compressibility (1/GPa) = 0.01952738
#
# Stress axis : x y z
#
# Youngs Moduli (GPa) = 33.86562 85.18882 88.88033
#
# Poissons Ratio (x) = 0.49595 0.49068
# Poissons Ratio (y) = 0.19716 0.45800
# Poissons Ratio (z) = 0.18696 0.43898
#
# Static dielectric constant tensor:
#      x y z
#    x 3.430690 0.000000 0.000000 
#    y 0.000000 4.238880 0.000000 
#    z 0.000000 0.000000 3.282880 
# 
# 
# High freq. dielectric constant tensor:
#      x y z
#    x 1.726720 0.000000 0.000000 
#    y 0.000000 1.756700 0.000000 
#    z 0.000000 0.000000 1.715120 
# 
# From -- ./inp_files/6112.got.cif
#   From: 2010.03.12/outbox.cif.g09.slc.cpg/sg51_4_cif.got.tgz:6112.got - 2010.04.16 13:43:02.
