data_PCOD8212909
_publ_section_title
;
Structure prediction by ZEFSAII (Michael W. Deem and Ramdas Pophale) SiO2 
 PCOD8212909
Probable space group: P M M A
;
_chemical_formula_sum "Si O2"
_cell_formula_units_Z 64
_cell_length_a 26.409063
_cell_length_b 13.513138
_cell_length_c 9.212785
_cell_angle_alpha 90.000000
_cell_angle_beta 90.000000
_cell_angle_gamma 90.000000
_cell_volume 3287.760252
_symmetry_space_group_name_H-M "P M M A"
_symmetry_group_IT_number 51
_symmetry_cell_setting 'orthorhombic'
loop_
_space_group_symop_operation_xyz
x,y,z
1/2-x,-y,z
1/2+x,-y,-z
-x,y,-z
-x,-y,-z
1/2+x,y,-z
1/2-x,y,z
x,-y,z
loop_
_atom_site_type_symbol
_atom_site_label
_atom_site_fract_x
_atom_site_fract_y
_atom_site_fract_z
Si Si1 0.609553 0.612168 0.930902
Si Si2 0.922918 0.383993 0.249354
Si Si3 0.308164 0.884692 0.744328
Si Si4 0.809923 0.707223 0.751533
Si Si5 0.690214 0.107540 0.934313
Si Si6 0.130574 0.248845 0.525586
Si Si7 0.982171 0.262197 0.840406
Si Si8 0.045566 0.111758 0.388893
O O1 0.592054 0.500000 0.907304
O O2 0.665163 0.627981 0.861501
O O3 0.570924 0.680472 0.842437
O O4 0.609399 0.635938 0.102692
O O5 0.930955 0.500000 0.277044
O O6 0.893599 0.339011 0.385874
O O7 0.977594 0.332852 0.238843
O O8 0.250000 0.852212 0.731703
O O9 0.339159 0.822103 0.631114
O O10 0.314595 0.000000 0.707227
O O11 0.330134 0.862471 0.905864
O O12 0.750000 0.688833 0.750715
O O13 0.825731 0.815221 0.812178
O O14 0.831580 0.700135 0.589569
O O15 0.750000 0.100278 0.949649
O O16 0.668358 0.000000 0.888435
O O17 0.089166 0.182331 0.447567
O O18 0.975607 0.158185 0.759647
O O19 0.000000 0.234355 0.000000
O O20 0.000000 0.108493 0.500000
O O21 0.065491 0.000000 0.360045
#
# Coordination Sequence:
#
# PCOD8212909 Si02
#       8
#     8   8   8   8   8   8   8   8
#     4  10  21  40  64  90 117 148 195 250 302 353
#     4  10  22  40  65  91 116 150 196 248 301 361
#     4   9  18  34  57  83 111 152 202 246 291 347
#     4  11  23  37  56  84 118 158 201 246 296 347
#     4   8  16  33  55  78 106 142 192 248 292 335
#     4  12  22  37  57  84 124 158 197 240 294 351
#     4  10  20  41  67  92 117 147 192 246 300 352
#     4  11  23  40  58  86 126 163 191 228 290 361
#
# _framework density 19.466138000000001
#
# number of rings (size 3 to 8) (size 9 to 14) (size 15 to 20)
#    0.000    1.875    2.500    2.625    0.000    3.500 
#    0.000    2.500    0.000    2.625    0.000    0.000 
#    0.000    0.000    0.000    0.000    0.000    0.000 
#
# Total GULP energy -793606.314754 kJ/mol
# GULP energy per Si atom -12400.098668 kJ/mol
# Density = 1.942183 g / cm^3
# Si number density = 19.466138 Si / 1000 Ang^3
#
#
#
# Elastic Constant Matrix: (Units=GPa)
#
#
# Indices 1 2 3 4 5 6 
#
# 1 87.2505 31.7707 46.9544 0.0000 0.0000 0.0000
# 2 31.7707 87.7609 55.8342 0.0000 0.0000 0.0000
# 3 46.9544 55.8342 107.5890 0.0000 0.0000 0.0000
# 4 0.0000 0.0000 0.0000 50.3077 0.0000 0.0000
# 5 0.0000 0.0000 0.0000 0.0000 34.9470 0.0000
# 6 0.0000 0.0000 0.0000 0.0000 0.0000 38.6311
#
#
#
# Elastic Compliance Matrix: (Units=1/GPa)
#
#
# Indices 1 2 3 4 5 6 
#
# 1 0.015192 -0.001913 -0.005637 0.000000 0.000000 0.000000
# 2 -0.001913 0.017252 -0.008118 0.000000 0.000000 0.000000
# 3 -0.005637 -0.008118 0.015968 0.000000 0.000000 0.000000
# 4 0.000000 0.000000 0.000000 0.019878 0.000000 0.000000
# 5 0.000000 0.000000 0.000000 0.000000 0.028615 0.000000
# 6 0.000000 0.000000 0.000000 0.000000 0.000000 0.025886
#
#
# Mechanical properties :
#
#
# Convention : Reuss Voigt Hill
#
# Bulk Modulus (GPa) = 58.56682 61.30214 59.93448
# Shear Modulus (GPa) = 31.28561 34.64657 32.96609
#
# Velocity S-wave (km/s) = 4.01332 4.22339 4.11969
# Velocity P-wave (km/s) = 7.18522 7.43927 7.31335
#
# Compressibility (1/GPa) = 0.01707451
#
# Stress axis : x y z
#
# Youngs Moduli (GPa) = 65.82609 57.96427 62.62625
#
# Poissons Ratio (x) = 0.11090 0.35303
# Poissons Ratio (y) = 0.12594 0.50841
# Poissons Ratio (z) = 0.37107 0.47056
#
# Static dielectric constant tensor:
#      x y z
#    x 3.519190 0.000000 0.000000 
#    y 0.000000 3.765010 0.000000 
#    z 0.000000 0.000000 3.680840 
# 
# 
# High freq. dielectric constant tensor:
#      x y z
#    x 1.752990 0.000000 0.000000 
#    y 0.000000 1.755780 0.000000 
#    z 0.000000 0.000000 1.765810 
# 
# From -- ./inp_files/13183.got.cif
#   From: 2010.03.12/outbox.cif.g09.slc.cpg/sg51_7_cif.got.tgz:13183.got - 2010.04.16 13:43:02.
