data_PCOD8212172
_publ_section_title
;
Structure prediction by ZEFSAII (Michael W. Deem and Ramdas Pophale) SiO2 
 PCOD8212172
Probable space group: P M M A
;
_chemical_formula_sum "Si O2"
_cell_formula_units_Z 56
_cell_length_a 15.750899
_cell_length_b 8.621896
_cell_length_c 21.092744
_cell_angle_alpha 90.000000
_cell_angle_beta 90.000000
_cell_angle_gamma 90.000000
_cell_volume 2864.449752
_symmetry_space_group_name_H-M "P M M A"
_symmetry_group_IT_number 51
_symmetry_cell_setting 'orthorhombic'
loop_
_space_group_symop_operation_xyz
x,y,z
1/2-x,-y,z
1/2+x,-y,-z
-x,y,-z
-x,-y,-z
1/2+x,y,-z
1/2-x,y,z
x,-y,z
loop_
_atom_site_type_symbol
_atom_site_label
_atom_site_fract_x
_atom_site_fract_y
_atom_site_fract_z
Si Si1 0.588515 0.680520 0.808693
Si Si2 0.654305 0.175960 0.383952
Si Si3 0.750000 0.313928 0.733960
Si Si4 0.002872 0.319251 0.930194
Si Si5 0.654764 0.175941 0.134498
Si Si6 0.937943 0.176171 0.258832
Si Si7 0.750000 0.184191 0.591839
Si Si8 0.597887 0.680086 0.507973
O O1 0.601834 0.500000 0.818397
O O2 0.671783 0.750453 0.775934
O O3 0.564500 0.752785 0.878532
O O4 0.512703 0.708801 0.759829
O O5 0.750000 0.186016 0.358891
O O6 0.593289 0.228609 0.327490
O O7 0.642037 0.295230 0.440706
O O8 0.633716 0.000000 0.406317
O O9 0.750000 0.500000 0.726260
O O10 0.750000 0.239883 0.664434
O O11 0.983841 0.500000 0.936597
O O12 0.096994 0.293914 0.904285
O O13 0.000000 0.240483 0.000000
O O14 0.750000 0.225424 0.119472
O O15 0.639408 0.191125 0.209585
O O16 0.636000 0.000000 0.112319
O O17 0.972406 0.000000 0.259951
O O18 0.839063 0.240012 0.559495
O O19 0.750000 0.000000 0.588508
O O20 0.500000 0.744831 0.500000
O O21 0.594409 0.500000 0.526052
#
# Coordination Sequence:
#
# PCOD8212172 Si02
#       8
#     8   8   4   8   8   8   4   8
#     4   9  19  36  56  79 109 146 189 232 280 337
#     4  10  20  35  56  83 113 145 182 227 281 338
#     4  10  22  40  60  80 110 153 196 239 288 343
#     4   9  18  34  54  80 112 145 183 228 277 329
#     4   9  17  31  51  76 107 142 180 217 263 325
#     4   9  18  32  53  80 110 143 179 222 275 333
#     4  12  26  44  66  90 118 153 198 251 304 355
#     4  11  25  43  62  85 116 153 193 239 294 356
#
# _framework density 19.550001999999999
#
# number of rings (size 3 to 8) (size 9 to 14) (size 15 to 20)
#    0.000    2.286    0.714    1.500    2.000    4.571 
#    1.286    0.000    0.000    2.571    0.000    0.000 
#    0.000    0.000    0.000    0.000    0.000    0.000 
#
# Total GULP energy -693924.305745 kJ/mol
# GULP energy per Si atom -12391.505460 kJ/mol
# Density = 1.950551 g / cm^3
# Si number density = 19.550002 Si / 1000 Ang^3
#
#
#
# Elastic Constant Matrix: (Units=GPa)
#
#
# Indices 1 2 3 4 5 6 
#
# 1 131.8654 22.9286 72.6264 0.0000 0.0000 0.0000
# 2 22.9286 35.9017 25.6584 0.0000 0.0000 0.0000
# 3 72.6264 25.6584 158.9381 0.0000 0.0000 0.0000
# 4 0.0000 0.0000 0.0000 21.1235 0.0000 0.0000
# 5 0.0000 0.0000 0.0000 0.0000 21.2633 0.0000
# 6 0.0000 0.0000 0.0000 0.0000 0.0000 22.1396
#
#
#
# Elastic Compliance Matrix: (Units=1/GPa)
#
#
# Indices 1 2 3 4 5 6 
#
# 1 0.010557 -0.003724 -0.004223 0.000000 0.000000 0.000000
# 2 -0.003724 0.032800 -0.003593 0.000000 0.000000 0.000000
# 3 -0.004223 -0.003593 0.008801 0.000000 0.000000 0.000000
# 4 0.000000 0.000000 0.000000 0.047341 0.000000 0.000000
# 5 0.000000 0.000000 0.000000 0.000000 0.047029 0.000000
# 6 0.000000 0.000000 0.000000 0.000000 0.000000 0.045168
#
#
# Mechanical properties :
#
#
# Convention : Reuss Voigt Hill
#
# Bulk Modulus (GPa) = 34.39018 63.23690 48.81354
# Shear Modulus (GPa) = 22.27471 26.60473 24.43972
#
# Velocity S-wave (km/s) = 3.37912 3.69298 3.53953
# Velocity P-wave (km/s) = 5.73181 7.11341 6.45965
#
# Compressibility (1/GPa) = 0.02907807
#
# Stress axis : x y z
#
# Youngs Moduli (GPa) = 94.72637 30.48735 113.61834
#
# Poissons Ratio (x) = 0.11354 0.47977
# Poissons Ratio (y) = 0.35278 0.40828
# Poissons Ratio (z) = 0.40000 0.10955
#
# Static dielectric constant tensor:
#      x y z
#    x 3.743700 0.000000 0.000000 
#    y 0.000000 3.336420 0.000000 
#    z 0.000000 0.000000 3.794310 
# 
# 
# High freq. dielectric constant tensor:
#      x y z
#    x 1.763380 0.000000 0.000000 
#    y 0.000000 1.740610 0.000000 
#    z 0.000000 0.000000 1.765380 
# 
# From -- ./inp_files/33534.got.cif
#   From: 2010.03.12/outbox.cif.g09.slc.cpg/sg51_17_cif.got.tgz:33534.got - 2010.04.16 13:43:02.
