data_PCOD8212201
_publ_section_title
;
Structure prediction by ZEFSAII (Michael W. Deem and Ramdas Pophale) SiO2 
 PCOD8212201
Probable space group: P M M A
;
_chemical_formula_sum "Si O2"
_cell_formula_units_Z 56
_cell_length_a 9.258870
_cell_length_b 19.723133
_cell_length_c 15.550708
_cell_angle_alpha 90.000000
_cell_angle_beta 90.000000
_cell_angle_gamma 90.000000
_cell_volume 2839.775816
_symmetry_space_group_name_H-M "P M M A"
_symmetry_group_IT_number 51
_symmetry_cell_setting 'orthorhombic'
loop_
_space_group_symop_operation_xyz
x,y,z
1/2-x,-y,z
1/2+x,-y,-z
-x,y,-z
-x,-y,-z
1/2+x,y,-z
1/2-x,y,z
x,-y,z
loop_
_atom_site_type_symbol
_atom_site_label
_atom_site_fract_x
_atom_site_fract_y
_atom_site_fract_z
Si Si1 0.077388 0.697761 0.584010
Si Si2 0.918900 0.336973 0.223050
Si Si3 0.475197 0.158063 0.637480
Si Si4 0.750000 0.925034 0.650143
Si Si5 0.081633 0.924554 0.088584
Si Si6 0.250000 0.927444 0.548864
Si Si7 0.094220 0.187066 0.817733
Si Si8 0.916054 0.419745 0.915088
O O1 0.250000 0.705189 0.569080
O O2 0.047314 0.658098 0.674035
O O3 0.996316 0.770292 0.591246
O O4 0.000000 0.662577 0.500000
O O5 0.750000 0.351200 0.208000
O O6 0.962287 0.264475 0.180629
O O7 0.012690 0.391997 0.172415
O O8 0.614743 0.120714 0.676018
O O9 0.396132 0.110983 0.569498
O O10 0.372277 0.170821 0.718412
O O11 0.750000 0.939402 0.550804
O O12 0.750000 0.000000 0.696678
O O13 0.250000 0.912556 0.073442
O O14 0.024223 0.864607 0.147879
O O15 0.053450 0.000000 0.128165
O O16 0.000000 0.918210 0.000000
O O17 0.250000 0.000000 0.597041
O O18 0.250000 0.179640 0.865674
O O19 0.750000 0.395639 0.921289
O O20 0.927178 0.500000 0.909500
O O21 0.000000 0.392964 0.000000
#
# Coordination Sequence:
#
# PCOD8212201 Si02
#       8
#     8   8   8   4   8   4   8   8
#     4  10  20  35  57  82 110 149 195 244 294 346
#     4   9  20  38  58  86 123 155 195 243 286 341
#     4  11  21  36  50  72 101 135 180 231 284 346
#     4  11  24  34  46  68  97 131 176 231 285 345
#     4  10  22  39  58  79 102 133 179 231 286 352
#     4  11  20  34  50  66  93 133 176 223 283 345
#     4  10  21  39  57  78 108 143 182 231 286 339
#     4  10  21  38  63  96 130 164 198 229 273 336
#
# _framework density 19.719866
#
# number of rings (size 3 to 8) (size 9 to 14) (size 15 to 20)
#    0.000    1.857    1.429    3.429    2.000    5.714 
#    2.571    0.000    0.000    0.429    0.000    0.000 
#    0.000    0.000    0.000    0.000    0.000    0.000 
#
# Total GULP energy -693957.995561 kJ/mol
# GULP energy per Si atom -12392.107064 kJ/mol
# Density = 1.967498 g / cm^3
# Si number density = 19.719866 Si / 1000 Ang^3
#
#
#
# Elastic Constant Matrix: (Units=GPa)
#
#
# Indices 1 2 3 4 5 6 
#
# 1 110.8046 31.6723 46.1100 0.0000 0.0000 0.0000
# 2 31.6723 40.2749 33.2449 0.0000 0.0000 0.0000
# 3 46.1100 33.2449 101.1146 0.0000 0.0000 0.0000
# 4 0.0000 0.0000 0.0000 18.8425 0.0000 0.0000
# 5 0.0000 0.0000 0.0000 0.0000 33.7067 0.0000
# 6 0.0000 0.0000 0.0000 0.0000 0.0000 26.3536
#
#
#
# Elastic Compliance Matrix: (Units=1/GPa)
#
#
# Indices 1 2 3 4 5 6 
#
# 1 0.012424 -0.006991 -0.003367 0.000000 0.000000 0.000000
# 2 -0.006991 0.038012 -0.009310 0.000000 0.000000 0.000000
# 3 -0.003367 -0.009310 0.014486 0.000000 0.000000 0.000000
# 4 0.000000 0.000000 0.000000 0.053071 0.000000 0.000000
# 5 0.000000 0.000000 0.000000 0.000000 0.029668 0.000000
# 6 0.000000 0.000000 0.000000 0.000000 0.000000 0.037946
#
#
# Mechanical properties :
#
#
# Convention : Reuss Voigt Hill
#
# Bulk Modulus (GPa) = 39.08313 52.69427 45.88870
# Shear Modulus (GPa) = 21.41585 25.19168 23.30376
#
# Velocity S-wave (km/s) = 3.29903 3.57806 3.44137
# Velocity P-wave (km/s) = 5.86291 6.62189 6.25392
#
# Compressibility (1/GPa) = 0.02558649
#
# Stress axis : x y z
#
# Youngs Moduli (GPa) = 80.48643 26.30758 69.03164
#
# Poissons Ratio (x) = 0.18392 0.23244
# Poissons Ratio (y) = 0.56270 0.64266
# Poissons Ratio (z) = 0.27101 0.24491
#
# Static dielectric constant tensor:
#      x y z
#    x 9.718180 0.000000 0.000000 
#    y 0.000000 3.470520 0.000000 
#    z 0.000000 0.000000 3.647760 
# 
# 
# High freq. dielectric constant tensor:
#      x y z
#    x 1.775150 0.000000 0.000000 
#    y 0.000000 1.741230 0.000000 
#    z 0.000000 0.000000 1.770140 
# 
# From -- ./inp_files/21892.got.cif
#   From: 2010.03.12/outbox.cif.g09.slc.cpg/sg51_11_cif.got.tgz:21892.got - 2010.04.16 13:43:02.
