data_PCOD8212543
_publ_section_title
;
Structure prediction by ZEFSAII (Michael W. Deem and Ramdas Pophale) SiO2 
 PCOD8212543
Probable space group: P M M A
;
_chemical_formula_sum "Si O2"
_cell_formula_units_Z 56
_cell_length_a 16.660738
_cell_length_b 31.380104
_cell_length_c 5.085685
_cell_angle_alpha 90.000000
_cell_angle_beta 90.000000
_cell_angle_gamma 90.000000
_cell_volume 2658.875918
_symmetry_space_group_name_H-M "P M M A"
_symmetry_group_IT_number 51
_symmetry_cell_setting 'orthorhombic'
loop_
_space_group_symop_operation_xyz
x,y,z
1/2-x,-y,z
1/2+x,-y,-z
-x,y,-z
-x,-y,-z
1/2+x,y,-z
1/2-x,y,z
x,-y,z
loop_
_atom_site_type_symbol
_atom_site_label
_atom_site_fract_x
_atom_site_fract_y
_atom_site_fract_z
Si Si1 0.052856 0.182476 0.252993
Si Si2 0.345234 0.047596 0.703634
Si Si3 0.589634 0.408768 0.088589
Si Si4 0.654797 0.099902 0.794634
Si Si5 0.842243 0.735855 0.691882
Si Si6 0.341741 0.548697 0.407950
Si Si7 0.342090 0.319024 0.802119
O O1 0.113979 0.145430 0.174026
O O2 0.102775 0.223261 0.345325
O O3 0.000000 0.167563 0.500000
O O4 0.000000 0.194086 0.000000
O O5 0.250000 0.044443 0.692984
O O6 0.376575 0.076253 0.464814
O O7 0.381941 0.000000 0.687895
O O8 0.374099 0.069999 0.968736
O O9 0.648183 0.424364 0.857940
O O10 0.500000 0.418084 0.000000
O O11 0.603409 0.434095 0.357716
O O12 0.601535 0.358858 0.139747
O O13 0.750000 0.107133 0.794828
O O14 0.750000 0.749475 0.646309
O O15 0.867535 0.700615 0.477403
O O16 0.855546 0.716958 0.979996
O O17 0.250000 0.553033 0.499748
O O18 0.365243 0.500000 0.348586
O O19 0.250000 0.334758 0.796851
#
# Coordination Sequence:
#
# PCOD8212543 Si02
#       7
#     8   8   8   8   8   8   8
#     4  12  25  40  59  85 119 155 191 238 293 348
#     4   9  17  31  56  88 114 142 190 247 292 332
#     4  12  25  40  63  96 130 163 201 254 312 365
#     4  10  20  36  59  84 114 152 193 238 286 345
#     4  10  22  41  64  88 114 151 198 243 290 347
#     4  11  24  43  66  90 122 168 216 257 302 362
#     4  10  21  39  64  90 119 155 195 241 292 355
#
# _framework density 21.061530999999999
#
# number of rings (size 3 to 8) (size 9 to 14) (size 15 to 20)
#    0.000    1.429    0.000    5.571    0.000    7.429 
#    0.000    5.714    0.000    8.571    0.000    0.000 
#    0.000    0.000    0.000    0.000    0.000    0.000 
#
# Total GULP energy -694768.703551 kJ/mol
# GULP energy per Si atom -12406.583992 kJ/mol
# Density = 2.101359 g / cm^3
# Si number density = 21.061531 Si / 1000 Ang^3
#
#
#
# Elastic Constant Matrix: (Units=GPa)
#
#
# Indices 1 2 3 4 5 6 
#
# 1 54.9711 47.1079 24.2380 0.0000 0.0000 0.0000
# 2 47.1079 120.5415 28.2115 0.0000 0.0000 0.0000
# 3 24.2380 28.2115 117.5433 0.0000 0.0000 0.0000
# 4 0.0000 0.0000 0.0000 -35.8378 0.0000 0.0000
# 5 0.0000 0.0000 0.0000 0.0000 27.2290 0.0000
# 6 0.0000 0.0000 0.0000 0.0000 0.0000 9.6871
#
#
#
# Elastic Compliance Matrix: (Units=1/GPa)
#
#
# Indices 1 2 3 4 5 6 
#
# 1 0.028582 -0.010373 -0.003404 0.000000 0.000000 0.000000
# 2 -0.010373 0.012554 -0.000874 0.000000 0.000000 0.000000
# 3 -0.003404 -0.000874 0.009419 0.000000 0.000000 0.000000
# 4 0.000000 0.000000 0.000000 -0.027903 0.000000 0.000000
# 5 0.000000 0.000000 0.000000 0.000000 0.036726 0.000000
# 6 0.000000 0.000000 0.000000 0.000000 0.000000 0.103230
#
#
# Mechanical properties :
#
#
# Convention : Reuss Voigt Hill
#
# Bulk Modulus (GPa) = 47.05313 54.68567 50.86940
# Shear Modulus (GPa) = 25.12633 13.11554 19.12094
#
# Velocity S-wave (km/s) = 3.45773 2.49815 3.01634
# Velocity P-wave (km/s) = 6.19116 5.86021 6.02796
#
# Compressibility (1/GPa) = 0.02125257
#
# Stress axis : x y z
#
# Youngs Moduli (GPa) = 34.98755 79.65383 106.16569
#
# Poissons Ratio (x) = 0.82626 0.36139
# Poissons Ratio (y) = 0.36293 0.09281
# Poissons Ratio (z) = 0.11910 0.06963
#
# Static dielectric constant tensor:
#      x y z
#    x 3.630750 0.000000 0.000000 
#    y 0.000000 3.879250 0.000000 
#    z 0.000000 0.000000 3.982190 
# 
# 
# High freq. dielectric constant tensor:
#      x y z
#    x 1.810240 0.000000 0.000000 
#    y 0.000000 1.834480 0.000000 
#    z 0.000000 0.000000 1.843280 
# 
# From -- ./inp_files/1477.got.cif
#   From: 2010.03.12/outbox.cif.g09.slc.cpg/sg51_1_cif.got.tgz:1477.got - 2010.04.16 13:43:02.
