data_PCOD8212148
_publ_section_title
;
Structure prediction by ZEFSAII (Michael W. Deem and Ramdas Pophale) SiO2 
 PCOD8212148
Probable space group: P M M A
;
_chemical_formula_sum "Si O2"
_cell_formula_units_Z 64
_cell_length_a 8.884661
_cell_length_b 18.285450
_cell_length_c 20.683207
_cell_angle_alpha 90.000000
_cell_angle_beta 90.000000
_cell_angle_gamma 90.000000
_cell_volume 3360.194316
_symmetry_space_group_name_H-M "P M M A"
_symmetry_group_IT_number 51
_symmetry_cell_setting 'orthorhombic'
loop_
_space_group_symop_operation_xyz
x,y,z
1/2-x,-y,z
1/2+x,-y,-z
-x,y,-z
-x,-y,-z
1/2+x,y,-z
1/2-x,y,z
x,-y,z
loop_
_atom_site_type_symbol
_atom_site_label
_atom_site_fract_x
_atom_site_fract_y
_atom_site_fract_z
Si Si1 0.926014 0.584660 0.567255
Si Si2 0.425584 0.085342 0.796206
Si Si3 0.927998 0.665918 0.313752
Si Si4 0.085128 0.086617 0.939033
Si Si5 0.422855 0.586625 0.194982
Si Si6 0.580038 0.412963 0.064272
Si Si7 0.572835 0.177800 0.687658
Si Si8 0.072798 0.082823 0.434176
O O1 0.750000 0.601251 0.563552
O O2 0.958757 0.500000 0.582278
O O3 0.000000 0.608577 0.500000
O O4 0.997838 0.632374 0.622985
O O5 0.250000 0.106913 0.787632
O O6 0.484175 0.104907 0.868708
O O7 0.534279 0.129021 0.749252
O O8 0.446690 0.000000 0.781951
O O9 0.750000 0.660238 0.319737
O O10 0.980076 0.622038 0.251176
O O11 0.977613 0.749084 0.307668
O O12 0.250000 0.121046 0.941438
O O13 0.093205 0.000000 0.947271
O O14 0.000000 0.122385 0.000000
O O15 0.250000 0.611826 0.200783
O O16 0.437371 0.500000 0.201437
O O17 0.487653 0.614372 0.126567
O O18 0.750000 0.382476 0.067781
O O19 0.581418 0.500000 0.062038
O O20 0.500000 0.381762 0.000000
O O21 0.750000 0.195030 0.686626
O O22 0.519989 0.134467 0.623935
O O23 0.250000 0.085031 0.442538
O O24 0.000000 0.113057 0.500000
O O25 0.017217 0.000000 0.420062
#
# Coordination Sequence:
#
# PCOD8212148 Si02
#       8
#     8   8   8   8   8   8   8   8
#     4  10  21  39  63  89 115 143 178 221 268 319
#     4   9  18  33  53  78 108 141 178 221 270 324
#     4  12  25  39  56  79 110 147 185 225 273 327
#     4   8  14  25  43  70 103 135 169 213 262 312
#     4  10  20  35  56  81 109 142 181 226 275 327
#     4   9  16  27  46  75 109 142 178 222 271 321
#     4  11  23  38  55  77 108 143 182 226 269 318
#     4   9  19  36  58  83 108 135 170 213 260 311
#
# _framework density 19.046517000000001
#
# number of rings (size 3 to 8) (size 9 to 14) (size 15 to 20)
#    0.000    2.250    0.000    4.125    0.000    7.250 
#    0.000    3.750    0.000    0.750    0.000    3.500 
#    0.000    0.000    0.000    0.000    0.000    0.000 
#
# Total GULP energy -793581.691653 kJ/mol
# GULP energy per Si atom -12399.713932 kJ/mol
# Density = 1.900317 g / cm^3
# Si number density = 19.046517 Si / 1000 Ang^3
#
#
#
# Elastic Constant Matrix: (Units=GPa)
#
#
# Indices 1 2 3 4 5 6 
#
# 1 68.8245 20.4870 39.8855 0.0000 0.0000 0.0000
# 2 20.4870 37.5978 34.5265 0.0000 0.0000 0.0000
# 3 39.8855 34.5265 147.1405 0.0000 0.0000 0.0000
# 4 0.0000 0.0000 0.0000 -3.2764 0.0000 0.0000
# 5 0.0000 0.0000 0.0000 0.0000 42.1626 0.0000
# 6 0.0000 0.0000 0.0000 0.0000 0.0000 24.7397
#
#
#
# Elastic Compliance Matrix: (Units=1/GPa)
#
#
# Indices 1 2 3 4 5 6 
#
# 1 0.018582 -0.007010 -0.003392 0.000000 0.000000 0.000000
# 2 -0.007010 0.036548 -0.006676 0.000000 0.000000 0.000000
# 3 -0.003392 -0.006676 0.009282 0.000000 0.000000 0.000000
# 4 0.000000 0.000000 0.000000 -0.305209 0.000000 0.000000
# 5 0.000000 0.000000 0.000000 0.000000 0.023718 0.000000
# 6 0.000000 0.000000 0.000000 0.000000 0.000000 0.040421
#
#
# Mechanical properties :
#
#
# Convention : Reuss Voigt Hill
#
# Bulk Modulus (GPa) = 33.05153 49.26231 41.15692
# Shear Modulus (GPa) = -37.75967 23.30275 -7.22846
#
# Velocity S-wave (km/s) = -4.45736 3.50160 -1.95023
# Velocity P-wave (km/s) = 3.01661 6.50143 4.07239
#
# Compressibility (1/GPa) = 0.03025579
#
# Stress axis : x y z
#
# Youngs Moduli (GPa) = 53.81452 27.36161 107.73361
#
# Poissons Ratio (x) = 0.19182 0.36545
# Poissons Ratio (y) = 0.37726 0.71918
# Poissons Ratio (z) = 0.18255 0.18265
#
# Static dielectric constant tensor:
#      x y z
#    x 3.574780 0.000000 0.000000 
#    y 0.000000 3.200700 0.000000 
#    z 0.000000 0.000000 3.672220 
# 
# 
# High freq. dielectric constant tensor:
#      x y z
#    x 1.746540 0.000000 0.000000 
#    y 0.000000 1.705560 0.000000 
#    z 0.000000 0.000000 1.760630 
# 
# From -- ./inp_files/32304.got.cif
#   From: 2010.03.12/outbox.cif.g09.slc.cpg/sg51_17_cif.got.tgz:32304.got - 2010.04.16 13:43:02.
