data_PCOD8212267
_publ_section_title
;
Structure prediction by ZEFSAII (Michael W. Deem and Ramdas Pophale) SiO2 
 PCOD8212267
Probable space group: P M M A
;
_chemical_formula_sum "Si O2"
_cell_formula_units_Z 48
_cell_length_a 23.454922
_cell_length_b 9.071577
_cell_length_c 11.323562
_cell_angle_alpha 90.000000
_cell_angle_beta 90.000000
_cell_angle_gamma 90.000000
_cell_volume 2409.349740
_symmetry_space_group_name_H-M "P M M A"
_symmetry_group_IT_number 51
_symmetry_cell_setting 'orthorhombic'
loop_
_space_group_symop_operation_xyz
x,y,z
1/2-x,-y,z
1/2+x,-y,-z
-x,y,-z
-x,-y,-z
1/2+x,y,-z
1/2-x,y,z
x,-y,z
loop_
_atom_site_type_symbol
_atom_site_label
_atom_site_fract_x
_atom_site_fract_y
_atom_site_fract_z
Si Si1 0.316376 0.325276 0.354852
Si Si2 0.687236 0.833530 0.196556
Si Si3 0.979731 0.674558 0.262570
Si Si4 0.409898 0.826794 0.217294
Si Si5 0.079906 0.830833 0.945972
Si Si6 0.630481 0.326706 0.400865
O O1 0.250000 0.276777 0.358626
O O2 0.321176 0.500000 0.339320
O O3 0.348694 0.245136 0.247262
O O4 0.350039 0.268492 0.471399
O O5 0.750000 0.801839 0.146770
O O6 0.645418 0.802785 0.087952
O O7 0.676036 0.729525 0.307013
O O8 0.680341 0.000000 0.242956
O O9 0.988534 0.500000 0.262042
O O10 0.959843 0.726573 0.132796
O O11 0.933354 0.723646 0.362009
O O12 0.039692 0.752165 0.295069
O O13 0.406979 0.000000 0.242034
O O14 0.425641 0.790110 0.082346
O O15 0.061199 0.000000 0.922657
O O16 0.634263 0.500000 0.399234
#
# Coordination Sequence:
#
# PCOD8212267 Si02
#       6
#     8   8   8   8   8   8
#     4  10  22  40  59  78 105 142 181 221 265 315
#     4   9  17  30  51  78 105 135 174 221 269 316
#     4  10  20  35  58  85 110 137 175 224 273 321
#     4  11  23  37  55  79 110 147 182 218 262 318
#     4   9  19  35  53  76 109 146 181 219 267 319
#     4   9  19  36  57  80 106 138 175 219 272 322
#
# _framework density 19.922388999999999
#
# number of rings (size 3 to 8) (size 9 to 14) (size 15 to 20)
#    0.000    2.333    0.000    2.000    0.000    7.333 
#    0.000    5.000    0.000    0.000    0.000    0.000 
#    0.000    0.000    0.000    0.000    0.000    0.000 
#
# Total GULP energy -595122.300656 kJ/mol
# GULP energy per Si atom -12398.381264 kJ/mol
# Density = 1.987704 g / cm^3
# Si number density = 19.922389 Si / 1000 Ang^3
#
#
#
# Elastic Constant Matrix: (Units=GPa)
#
#
# Indices 1 2 3 4 5 6 
#
# 1 141.8408 42.3323 31.4286 0.0000 0.0000 0.0000
# 2 42.3323 38.5157 25.0735 0.0000 0.0000 0.0000
# 3 31.4286 25.0735 39.2461 0.0000 0.0000 0.0000
# 4 0.0000 0.0000 0.0000 27.3705 0.0000 0.0000
# 5 0.0000 0.0000 0.0000 0.0000 18.2733 0.0000
# 6 0.0000 0.0000 0.0000 0.0000 0.0000 28.8948
#
#
#
# Elastic Compliance Matrix: (Units=1/GPa)
#
#
# Indices 1 2 3 4 5 6 
#
# 1 0.010564 -0.010450 -0.001784 0.000000 0.000000 0.000000
# 2 -0.010450 0.054787 -0.026634 0.000000 0.000000 0.000000
# 3 -0.001784 -0.026634 0.043925 0.000000 0.000000 0.000000
# 4 0.000000 0.000000 0.000000 0.036536 0.000000 0.000000
# 5 0.000000 0.000000 0.000000 0.000000 0.054725 0.000000
# 6 0.000000 0.000000 0.000000 0.000000 0.000000 0.034608
#
#
# Mechanical properties :
#
#
# Convention : Reuss Voigt Hill
#
# Bulk Modulus (GPa) = 31.70495 46.36350 39.03423
# Shear Modulus (GPa) = 15.46105 22.95894 19.20999
#
# Velocity S-wave (km/s) = 2.78881 3.39841 3.10859
# Velocity P-wave (km/s) = 5.13018 6.22266 5.70264
#
# Compressibility (1/GPa) = 0.03154081
#
# Stress axis : x y z
#
# Youngs Moduli (GPa) = 94.66014 18.25241 22.76632
#
# Poissons Ratio (x) = 0.19073 0.04061
# Poissons Ratio (y) = 0.98917 0.60636
# Poissons Ratio (z) = 0.16885 0.48614
#
# Static dielectric constant tensor:
#      x y z
#    x 3.886620 0.000000 0.000000 
#    y 0.000000 3.516040 0.000000 
#    z 0.000000 0.000000 3.552150 
# 
# 
# High freq. dielectric constant tensor:
#      x y z
#    x 1.794050 0.000000 0.000000 
#    y 0.000000 1.769150 0.000000 
#    z 0.000000 0.000000 1.760740 
# 
# From -- ./inp_files/18596.got.cif
#   From: 2010.03.12/outbox.cif.g09.slc.cpg/sg51_10_cif.got.tgz:18596.got - 2010.04.16 13:43:02.
