data_PCOD8212956
_publ_section_title
;
Structure prediction by ZEFSAII (Michael W. Deem and Ramdas Pophale) SiO2 
 PCOD8212956
Probable space group: P M M A
;
_chemical_formula_sum "Si O2"
_cell_formula_units_Z 48
_cell_length_a 17.330383
_cell_length_b 9.686968
_cell_length_c 15.209870
_cell_angle_alpha 90.000000
_cell_angle_beta 90.000000
_cell_angle_gamma 90.000000
_cell_volume 2553.415721
_symmetry_space_group_name_H-M "P M M A"
_symmetry_group_IT_number 51
_symmetry_cell_setting 'orthorhombic'
loop_
_space_group_symop_operation_xyz
x,y,z
1/2-x,-y,z
1/2+x,-y,-z
-x,y,-z
-x,-y,-z
1/2+x,y,-z
1/2-x,y,z
x,-y,z
loop_
_atom_site_type_symbol
_atom_site_label
_atom_site_fract_x
_atom_site_fract_y
_atom_site_fract_z
Si Si1 0.659807 0.347953 0.363110
Si Si2 0.661425 0.334809 0.711962
Si Si3 0.661772 0.848405 0.217237
Si Si4 0.400406 0.337447 0.922405
Si Si5 0.927590 0.338238 0.881867
Si Si6 0.919480 0.338459 0.536525
O O1 0.750000 0.355905 0.346374
O O2 0.622890 0.500000 0.344949
O O3 0.621211 0.238189 0.296257
O O4 0.644723 0.304704 0.463356
O O5 0.750000 0.281158 0.708099
O O6 0.661848 0.500000 0.711609
O O7 0.620417 0.274305 0.800309
O O8 0.612295 0.276392 0.628593
O O9 0.750000 0.871778 0.242196
O O10 0.659678 0.757881 0.128745
O O11 0.622314 0.000000 0.207001
O O12 0.386049 0.500000 0.904993
O O13 0.483984 0.288574 0.886434
O O14 0.388074 0.302151 0.025014
O O15 0.928762 0.500000 0.869309
O O16 0.931639 0.500000 0.551584
O O17 0.000000 0.273645 0.500000
#
# Coordination Sequence:
#
# PCOD8212956 Si02
#       6
#     8   8   8   8   8   8
#     4   9  17  30  48  70  96 127 162 199 241 291
#     4   9  16  26  41  65 100 134 160 194 245 301
#     4  10  21  34  48  70  99 131 166 205 250 295
#     4   9  17  31  51  74 100 128 164 207 247 292
#     4   8  16  29  46  72 101 129 160 200 248 293
#     4   9  17  26  41  70 100 127 158 198 246 291
#
# _framework density 18.798349000000002
#
# number of rings (size 3 to 8) (size 9 to 14) (size 15 to 20)
#    0.000    3.000    0.000    2.000    2.333    3.667 
#    0.000    3.333    0.000    0.500    0.000    0.000 
#    0.000    4.000    0.000    0.000    0.000    0.000 
#
# Total GULP energy -594706.931929 kJ/mol
# GULP energy per Si atom -12389.727749 kJ/mol
# Density = 1.875556 g / cm^3
# Si number density = 18.798349 Si / 1000 Ang^3
#
#
#
# Elastic Constant Matrix: (Units=GPa)
#
#
# Indices 1 2 3 4 5 6 
#
# 1 61.3387 12.9467 47.1336 0.0000 0.0000 0.0000
# 2 12.9467 66.7616 49.3290 0.0000 0.0000 0.0000
# 3 47.1336 49.3290 162.2400 0.0000 0.0000 0.0000
# 4 0.0000 0.0000 0.0000 0.9271 0.0000 0.0000
# 5 0.0000 0.0000 0.0000 0.0000 36.7282 0.0000
# 6 0.0000 0.0000 0.0000 0.0000 0.0000 8.1043
#
#
#
# Elastic Compliance Matrix: (Units=1/GPa)
#
#
# Indices 1 2 3 4 5 6 
#
# 1 0.021005 0.000562 -0.006273 0.000000 0.000000 0.000000
# 2 0.000562 0.019334 -0.006042 0.000000 0.000000 0.000000
# 3 -0.006273 -0.006042 0.009823 0.000000 0.000000 0.000000
# 4 0.000000 0.000000 0.000000 1.078667 0.000000 0.000000
# 5 0.000000 0.000000 0.000000 0.000000 0.027227 0.000000
# 6 0.000000 0.000000 0.000000 0.000000 0.000000 0.123392
#
#
# Mechanical properties :
#
#
# Convention : Reuss Voigt Hill
#
# Bulk Modulus (GPa) = 37.51547 56.57321 47.04434
# Shear Modulus (GPa) = 3.81144 21.21396 12.51270
#
# Velocity S-wave (km/s) = 1.42546 3.36296 2.58278
# Velocity P-wave (km/s) = 4.76543 6.72603 5.82876
#
# Compressibility (1/GPa) = 0.02665567
#
# Stress axis : x y z
#
# Youngs Moduli (GPa) = 47.60849 51.72291 101.80105
#
# Poissons Ratio (x) = -0.02905 0.63860
# Poissons Ratio (y) = -0.02674 0.61504
# Poissons Ratio (z) = 0.29865 0.31249
#
# Static dielectric constant tensor:
#      x y z
#    x 3.415130 0.000000 0.000000 
#    y 0.000000 3.113550 0.000000 
#    z 0.000000 0.000000 3.768840 
# 
# 
# High freq. dielectric constant tensor:
#      x y z
#    x 1.716760 0.000000 0.000000 
#    y 0.000000 1.659700 0.000000 
#    z 0.000000 0.000000 1.746260 
# 
# From -- ./inp_files/24720.got.cif
#   From: 2010.03.12/outbox.cif.g09.slc.cpg/sg51_13_cif.got.tgz:24720.got - 2010.04.16 13:43:02.
