data_PCOD8212532
_publ_section_title
;
Structure prediction by ZEFSAII (Michael W. Deem and Ramdas Pophale) SiO2 
 PCOD8212532
Probable space group: P M M A
;
_chemical_formula_sum "Si O2"
_cell_formula_units_Z 48
_cell_length_a 9.691835
_cell_length_b 9.240668
_cell_length_c 29.189103
_cell_angle_alpha 90.000000
_cell_angle_beta 90.000000
_cell_angle_gamma 90.000000
_cell_volume 2614.147738
_symmetry_space_group_name_H-M "P M M A"
_symmetry_group_IT_number 51
_symmetry_cell_setting 'orthorhombic'
loop_
_space_group_symop_operation_xyz
x,y,z
1/2-x,-y,z
1/2+x,-y,-z
-x,y,-z
-x,-y,-z
1/2+x,y,-z
1/2-x,y,z
x,-y,z
loop_
_atom_site_type_symbol
_atom_site_label
_atom_site_fract_x
_atom_site_fract_y
_atom_site_fract_z
Si Si1 0.498305 0.166823 0.898719
Si Si2 0.406514 0.172358 0.282159
Si Si3 0.250000 0.837697 0.967522
Si Si4 0.591273 0.331741 0.457839
Si Si5 0.750000 0.328779 0.939529
Si Si6 0.096828 0.171801 0.798922
Si Si7 0.408162 0.830124 0.633672
O O1 0.382608 0.186746 0.936697
O O2 0.619836 0.272223 0.912030
O O3 0.443457 0.220834 0.849806
O O4 0.548053 0.000000 0.896358
O O5 0.250000 0.233599 0.283230
O O6 0.485377 0.233239 0.237266
O O7 0.491081 0.226496 0.326403
O O8 0.403771 0.000000 0.280960
O O9 0.250000 0.000000 0.988297
O O10 0.250000 0.724870 0.008429
O O11 0.500000 0.274756 0.500000
O O12 0.750000 0.299655 0.469809
O O13 0.564489 0.500000 0.448647
O O14 0.544398 0.247157 0.412699
O O15 0.750000 0.500000 0.940222
O O16 0.250000 0.231998 0.787321
O O17 0.100233 0.000000 0.796050
O O18 0.250000 0.790519 0.646463
O O19 0.424483 0.000000 0.626139
#
# Coordination Sequence:
#
# PCOD8212532 Si02
#       7
#     8   8   4   8   4   8   8
#     4  10  20  36  59  84 107 135 175 222 266 307
#     4   9  17  27  44  75 109 135 160 200 253 305
#     4  10  20  38  60  84 108 134 176 226 265 306
#     4   9  18  32  49  69  94 127 168 211 252 296
#     4  12  26  38  52  78 112 148 178 210 259 318
#     4   9  16  29  51  79 106 131 165 210 259 308
#     4   9  17  30  47  69 100 135 168 203 246 296
#
# _framework density 18.361626000000001
#
# number of rings (size 3 to 8) (size 9 to 14) (size 15 to 20)
#    0.000    2.500    0.833    1.750    1.167    5.667 
#    0.000    0.000    0.000    1.000    0.000    0.000 
#    0.000    0.000    0.000    0.000    0.000    0.000 
#
# Total GULP energy -595190.239698 kJ/mol
# GULP energy per Si atom -12399.796660 kJ/mol
# Density = 1.831983 g / cm^3
# Si number density = 18.361626 Si / 1000 Ang^3
#
#
#
# Elastic Constant Matrix: (Units=GPa)
#
#
# Indices 1 2 3 4 5 6 
#
# 1 144.6613 41.1714 85.8908 0.0000 0.0000 0.0000
# 2 41.1714 47.4401 35.5935 0.0000 0.0000 0.0000
# 3 85.8908 35.5935 149.6656 0.0000 0.0000 0.0000
# 4 0.0000 0.0000 0.0000 -0.4454 0.0000 0.0000
# 5 0.0000 0.0000 0.0000 0.0000 16.9806 0.0000
# 6 0.0000 0.0000 0.0000 0.0000 0.0000 9.9487
#
#
#
# Elastic Compliance Matrix: (Units=1/GPa)
#
#
# Indices 1 2 3 4 5 6 
#
# 1 0.011858 -0.006312 -0.005304 0.000000 0.000000 0.000000
# 2 -0.006312 0.029017 -0.003279 0.000000 0.000000 0.000000
# 3 -0.005304 -0.003279 0.010505 0.000000 0.000000 0.000000
# 4 0.000000 0.000000 0.000000 -2.245156 0.000000 0.000000
# 5 0.000000 0.000000 0.000000 0.000000 0.058891 0.000000
# 6 0.000000 0.000000 0.000000 0.000000 0.000000 0.100516
#
#
# Mechanical properties :
#
#
# Convention : Reuss Voigt Hill
#
# Bulk Modulus (GPa) = 46.31490 74.11983 60.21736
# Shear Modulus (GPa) = -2.50328 17.23752 7.36712
#
# Velocity S-wave (km/s) = -1.16888 3.06727 2.00523
# Velocity P-wave (km/s) = 4.84322 7.28001 6.18285
#
# Compressibility (1/GPa) = 0.02159132
#
# Stress axis : x y z
#
# Youngs Moduli (GPa) = 84.32832 34.46278 95.18982
#
# Poissons Ratio (x) = 0.21752 0.50492
# Poissons Ratio (y) = 0.53226 0.31209
# Poissons Ratio (z) = 0.44730 0.11299
#
# Static dielectric constant tensor:
#      x y z
#    x 3.554940 0.000000 0.000000 
#    y 0.000000 2.938970 0.000000 
#    z 0.000000 0.000000 3.546740 
# 
# 
# High freq. dielectric constant tensor:
#      x y z
#    x 1.723690 0.000000 0.000000 
#    y 0.000000 1.660960 0.000000 
#    z 0.000000 0.000000 1.724530 
# 
# From -- ./inp_files/37229.got.cif
#   From: 2010.03.12/outbox.cif.g09.slc.cpg/sg51_19_cif.got.tgz:37229.got - 2010.04.16 13:43:02.
