data_PCOD8212947
_publ_section_title
;
Structure prediction by ZEFSAII (Michael W. Deem and Ramdas Pophale) SiO2 
 PCOD8212947
Probable space group: P M M A
;
_chemical_formula_sum "Si O2"
_cell_formula_units_Z 56
_cell_length_a 9.400502
_cell_length_b 14.551106
_cell_length_c 22.570377
_cell_angle_alpha 90.000000
_cell_angle_beta 90.000000
_cell_angle_gamma 90.000000
_cell_volume 3087.349982
_symmetry_space_group_name_H-M "P M M A"
_symmetry_group_IT_number 51
_symmetry_cell_setting 'orthorhombic'
loop_
_space_group_symop_operation_xyz
x,y,z
1/2-x,-y,z
1/2+x,-y,-z
-x,y,-z
-x,-y,-z
1/2+x,y,-z
1/2-x,y,z
x,-y,z
loop_
_atom_site_type_symbol
_atom_site_label
_atom_site_fract_x
_atom_site_fract_y
_atom_site_fract_z
Si Si1 0.909352 0.771681 0.252516
Si Si2 0.091499 0.398227 0.253015
Si Si3 0.973773 0.212495 0.385992
Si Si4 0.086644 0.891237 0.170500
Si Si5 0.590738 0.600071 0.606282
Si Si6 0.750000 0.105906 0.599061
Si Si7 0.087471 0.890605 0.943520
Si Si8 0.250000 0.105488 0.541255
O O1 0.750000 0.779291 0.226361
O O2 0.895112 0.777798 0.323476
O O3 0.977733 0.675732 0.230037
O O4 0.009070 0.853193 0.228894
O O5 0.250000 0.375442 0.228616
O O6 0.044460 0.500000 0.231677
O O7 0.097168 0.394571 0.323407
O O8 0.888734 0.153867 0.433548
O O9 0.997054 0.313622 0.415699
O O10 0.118172 0.158724 0.372747
O O11 0.250000 0.856758 0.166498
O O12 0.997774 0.855229 0.113963
O O13 0.082481 0.000000 0.174650
O O14 0.750000 0.609551 0.580402
O O15 0.526800 0.500000 0.586727
O O16 0.750000 0.114198 0.528667
O O17 0.750000 0.000000 0.619533
O O18 0.250000 0.852606 0.943821
O O19 0.091312 0.000000 0.944650
O O20 0.000000 0.853093 0.000000
O O21 0.250000 0.000000 0.561825
#
# Coordination Sequence:
#
# PCOD8212947 Si02
#       8
#     8   8   8   8   8   4   8   4
#     4  11  22  34  49  75 108 137 164 203 260 318
#     4   8  15  29  51  75  99 129 165 203 243 294
#     4  11  21  38  57  80 100 130 167 208 262 316
#     4  10  21  34  48  69 100 140 182 221 259 302
#     4   8  14  28  53  80 102 126 156 193 242 304
#     4  11  24  40  61  77  91 127 177 219 254 301
#     4   9  16  28  47  69  96 133 178 222 261 302
#     4  11  24  42  57  75 103 129 165 219 266 301
#
# _framework density 18.138532000000001
#
# number of rings (size 3 to 8) (size 9 to 14) (size 15 to 20)
#    0.000    2.286    1.429    3.000    2.000    5.143 
#    0.000    0.357    0.000    2.571    0.000    0.000 
#    0.000    0.571    0.000    2.143    0.000    3.286 
#
# Total GULP energy -694165.827480 kJ/mol
# GULP energy per Si atom -12395.818348 kJ/mol
# Density = 1.809725 g / cm^3
# Si number density = 18.138532 Si / 1000 Ang^3
#
#
#
# Elastic Constant Matrix: (Units=GPa)
#
#
# Indices 1 2 3 4 5 6 
#
# 1 133.7809 44.5210 19.3914 0.0000 0.0000 0.0000
# 2 44.5210 100.0438 18.7764 0.0000 0.0000 0.0000
# 3 19.3914 18.7764 37.9264 0.0000 0.0000 0.0000
# 4 0.0000 0.0000 0.0000 1.1782 0.0000 0.0000
# 5 0.0000 0.0000 0.0000 0.0000 33.9683 0.0000
# 6 0.0000 0.0000 0.0000 0.0000 0.0000 31.3958
#
#
#
# Elastic Compliance Matrix: (Units=1/GPa)
#
#
# Indices 1 2 3 4 5 6 
#
# 1 0.009056 -0.003485 -0.002905 0.000000 0.000000 0.000000
# 2 -0.003485 0.012360 -0.004338 0.000000 0.000000 0.000000
# 3 -0.002905 -0.004338 0.030000 0.000000 0.000000 0.000000
# 4 0.000000 0.000000 0.000000 0.848747 0.000000 0.000000
# 5 0.000000 0.000000 0.000000 0.000000 0.029439 0.000000
# 6 0.000000 0.000000 0.000000 0.000000 0.000000 0.031851
#
#
# Mechanical properties :
#
#
# Convention : Reuss Voigt Hill
#
# Bulk Modulus (GPa) = 33.37652 48.56986 40.97319
# Shear Modulus (GPa) = 5.03578 25.91261 15.47419
#
# Velocity S-wave (km/s) = 1.66803 3.78378 2.92398
# Velocity P-wave (km/s) = 4.70644 6.77677 5.83417
#
# Compressibility (1/GPa) = 0.02996118
#
# Stress axis : x y z
#
# Youngs Moduli (GPa) = 110.42841 80.90311 33.33384
#
# Poissons Ratio (x) = 0.28192 0.09683
# Poissons Ratio (y) = 0.38481 0.14459
# Poissons Ratio (z) = 0.32078 0.35093
#
# Static dielectric constant tensor:
#      x y z
#    x 3.155910 0.000000 0.000000 
#    y 0.000000 3.549420 0.000000 
#    z 0.000000 0.000000 3.007350 
# 
# 
# High freq. dielectric constant tensor:
#      x y z
#    x 1.713130 0.000000 0.000000 
#    y 0.000000 1.690870 0.000000 
#    z 0.000000 0.000000 1.661700 
# 
# From -- ./inp_files/32120.got.cif
#   From: 2010.03.12/outbox.cif.g09.slc.cpg/sg51_17_cif.got.tgz:32120.got - 2010.04.16 13:43:02.
