data_PCOD8212436
_publ_section_title
;
Structure prediction by ZEFSAII (Michael W. Deem and Ramdas Pophale) SiO2 
 PCOD8212436
Probable space group: P M M A
;
_chemical_formula_sum "Si O2"
_cell_formula_units_Z 48
_cell_length_a 8.964172
_cell_length_b 30.648006
_cell_length_c 9.332466
_cell_angle_alpha 90.000000
_cell_angle_beta 90.000000
_cell_angle_gamma 90.000000
_cell_volume 2563.945688
_symmetry_space_group_name_H-M "P M M A"
_symmetry_group_IT_number 51
_symmetry_cell_setting 'orthorhombic'
loop_
_space_group_symop_operation_xyz
x,y,z
1/2-x,-y,z
1/2+x,-y,-z
-x,y,-z
-x,-y,-z
1/2+x,y,-z
1/2-x,y,z
x,-y,z
loop_
_atom_site_type_symbol
_atom_site_label
_atom_site_fract_x
_atom_site_fract_y
_atom_site_fract_z
Si Si1 0.076588 0.748933 0.355200
Si Si2 0.073399 0.848938 0.350012
Si Si3 0.074534 0.594131 0.346151
Si Si4 0.924100 0.000000 0.346461
Si Si5 0.577467 0.500000 0.649952
Si Si6 0.072497 0.081887 0.846449
Si Si7 0.426138 0.327316 0.152181
O O1 0.250000 0.743689 0.382810
O O2 0.034963 0.798631 0.317572
O O3 0.022915 0.717623 0.227642
O O4 0.000000 0.733056 0.500000
O O5 0.250000 0.857928 0.356932
O O6 0.000000 0.863842 0.500000
O O7 0.998245 0.874622 0.219875
O O8 0.250000 0.600063 0.368553
O O9 0.036187 0.546271 0.273838
O O10 0.012663 0.631404 0.241581
O O11 0.000000 0.599487 0.500000
O O12 0.972881 0.957779 0.256838
O O13 0.000000 0.000000 0.500000
O O14 0.750000 0.000000 0.375171
O O15 0.750000 0.500000 0.615483
O O16 0.500000 0.500000 0.500000
O O17 0.250000 0.086885 0.862532
O O18 0.000000 0.072909 0.000000
O O19 0.250000 0.329558 0.133864
O O20 0.500000 0.328782 0.000000
#
# Coordination Sequence:
#
# PCOD8212436 Si02
#       7
#     8   8   8   4   4   8   8
#     4   9  19  35  55  78 103 132 171 214 257 303
#     4  10  20  36  57  82 110 140 175 217 261 311
#     4   9  17  30  50  73  97 125 162 204 249 299
#     4  10  23  40  60  84 110 142 181 222 265 310
#     4   8  14  26  45  70  96 122 154 200 249 294
#     4  11  23  39  58  83 113 146 181 219 264 313
#     4  10  21  35  49  70 100 134 169 207 251 302
#
# _framework density 18.721145
#
# number of rings (size 3 to 8) (size 9 to 14) (size 15 to 20)
#    0.000    2.333    0.000    2.250    0.000    5.333 
#    0.000    2.083    0.000    0.000    0.000    0.000 
#    0.000    0.000    0.000    0.000    0.000    0.000 
#
# Total GULP energy -595054.803267 kJ/mol
# GULP energy per Si atom -12396.975068 kJ/mol
# Density = 1.867854 g / cm^3
# Si number density = 18.721145 Si / 1000 Ang^3
#
#
#
# Elastic Constant Matrix: (Units=GPa)
#
#
# Indices 1 2 3 4 5 6 
#
# 1 52.5901 44.8877 50.3573 0.0000 0.0000 0.0000
# 2 44.8877 136.2510 86.0845 0.0000 0.0000 0.0000
# 3 50.3573 86.0845 151.5598 0.0000 0.0000 0.0000
# 4 0.0000 0.0000 0.0000 99.0546 0.0000 0.0000
# 5 0.0000 0.0000 0.0000 0.0000 36.9972 0.0000
# 6 0.0000 0.0000 0.0000 0.0000 0.0000 15.2882
#
#
#
# Elastic Compliance Matrix: (Units=1/GPa)
#
#
# Indices 1 2 3 4 5 6 
#
# 1 0.030467 -0.005680 -0.006897 0.000000 0.000000 0.000000
# 2 -0.005680 0.012506 -0.005216 0.000000 0.000000 0.000000
# 3 -0.006897 -0.005216 0.011852 0.000000 0.000000 0.000000
# 4 0.000000 0.000000 0.000000 0.010095 0.000000 0.000000
# 5 0.000000 0.000000 0.000000 0.000000 0.027029 0.000000
# 6 0.000000 0.000000 0.000000 0.000000 0.000000 0.065410
#
#
# Mechanical properties :
#
#
# Convention : Reuss Voigt Hill
#
# Bulk Modulus (GPa) = 51.97577 78.11775 65.04676
# Shear Modulus (GPa) = 25.08034 40.87277 32.97655
#
# Velocity S-wave (km/s) = 3.66413 4.67759 4.20153
# Velocity P-wave (km/s) = 6.76200 8.42560 7.63922
#
# Compressibility (1/GPa) = 0.01923974
#
# Stress axis : x y z
#
# Youngs Moduli (GPa) = 32.82248 79.95983 84.37093
#
# Poissons Ratio (x) = 0.45415 0.58190
# Poissons Ratio (y) = 0.18642 0.44010
# Poissons Ratio (z) = 0.22637 0.41709
#
# Static dielectric constant tensor:
#      x y z
#    x 3.422430 0.000000 0.000000 
#    y 0.000000 4.016690 0.000000 
#    z 0.000000 0.000000 3.339940 
# 
# 
# High freq. dielectric constant tensor:
#      x y z
#    x 1.725800 0.000000 0.000000 
#    y 0.000000 1.749700 0.000000 
#    z 0.000000 0.000000 1.711220 
# 
# From -- ./inp_files/6094.got.cif
#   From: 2010.03.12/outbox.cif.g09.slc.cpg/sg51_4_cif.got.tgz:6094.got - 2010.04.16 13:43:02.
