data_PCOD8212822
_publ_section_title
;
Structure prediction by ZEFSAII (Michael W. Deem and Ramdas Pophale) SiO2 
 PCOD8212822
Probable space group: P M M A
;
_chemical_formula_sum "Si O2"
_cell_formula_units_Z 64
_cell_length_a 23.831399
_cell_length_b 9.020569
_cell_length_c 14.959402
_cell_angle_alpha 90.000000
_cell_angle_beta 90.000000
_cell_angle_gamma 90.000000
_cell_volume 3215.864221
_symmetry_space_group_name_H-M "P M M A"
_symmetry_group_IT_number 51
_symmetry_cell_setting 'orthorhombic'
loop_
_space_group_symop_operation_xyz
x,y,z
1/2-x,-y,z
1/2+x,-y,-z
-x,y,-z
-x,-y,-z
1/2+x,y,-z
1/2-x,y,z
x,-y,z
loop_
_atom_site_type_symbol
_atom_site_label
_atom_site_fract_x
_atom_site_fract_y
_atom_site_fract_z
Si Si1 0.885496 0.325124 0.141484
Si Si2 0.617236 0.827940 0.816390
Si Si3 0.601272 0.675024 0.640436
Si Si4 0.186452 0.669909 0.689242
Si Si5 0.876010 0.174216 0.455504
Si Si6 0.001907 0.826388 0.896779
Si Si7 0.685555 0.173048 0.989038
Si Si8 0.519545 0.661454 0.399682
O O1 0.887796 0.500000 0.130456
O O2 0.852621 0.276148 0.230050
O O3 0.948219 0.262218 0.151420
O O4 0.853711 0.261067 0.056141
O O5 0.632982 0.735422 0.727751
O O6 0.556847 0.778327 0.853799
O O7 0.616659 0.000000 0.790792
O O8 0.665128 0.792559 0.888707
O O9 0.609531 0.500000 0.630398
O O10 0.626400 0.750625 0.552286
O O11 0.535278 0.717393 0.653961
O O12 0.250000 0.691345 0.721564
O O13 0.174034 0.500000 0.663281
O O14 0.176976 0.770977 0.601729
O O15 0.930569 0.220153 0.396565
O O16 0.875279 0.000000 0.469002
O O17 0.013833 0.000000 0.886013
O O18 0.000000 0.780431 0.000000
O O19 0.750000 0.224350 0.998391
O O20 0.678395 0.000000 0.010400
O O21 0.500000 0.638311 0.500000
O O22 0.540370 0.500000 0.363039
#
# Coordination Sequence:
#
# PCOD8212822 Si02
#       8
#     8   8   8   8   8   8   8   8
#     4  11  23  38  61  91 122 154 196 245 298 358
#     4  10  21  37  58  87 123 158 199 249 297 351
#     4  10  21  37  58  83 116 157 197 237 291 352
#     4  10  23  43  62  82 115 157 197 242 299 358
#     4  11  22  36  58  86 114 146 192 243 292 345
#     4  10  20  38  60  85 123 164 199 240 299 361
#     4  10  21  40  64  86 114 156 200 244 296 349
#     4   8  16  32  52  76 108 145 184 227 278 339
#
# _framework density 19.901337999999999
#
# number of rings (size 3 to 8) (size 9 to 14) (size 15 to 20)
#    0.000    2.000    1.250    3.000    1.750    6.000 
#    0.000    0.625    0.000    2.250    0.000    0.000 
#    0.000    0.000    0.000    0.000    0.000    0.000 
#
# Total GULP energy -793676.755697 kJ/mol
# GULP energy per Si atom -12401.199308 kJ/mol
# Density = 1.985604 g / cm^3
# Si number density = 19.901338 Si / 1000 Ang^3
#
#
#
# Elastic Constant Matrix: (Units=GPa)
#
#
# Indices 1 2 3 4 5 6 
#
# 1 73.4242 22.4481 14.0850 0.0000 0.0000 0.0000
# 2 22.4481 81.8938 40.2734 0.0000 0.0000 0.0000
# 3 14.0850 40.2734 86.8749 0.0000 0.0000 0.0000
# 4 0.0000 0.0000 0.0000 31.5336 0.0000 0.0000
# 5 0.0000 0.0000 0.0000 0.0000 28.3462 0.0000
# 6 0.0000 0.0000 0.0000 0.0000 0.0000 21.0105
#
#
#
# Elastic Compliance Matrix: (Units=1/GPa)
#
#
# Indices 1 2 3 4 5 6 
#
# 1 0.014896 -0.003750 -0.000676 0.000000 0.000000 0.000000
# 2 -0.003750 0.016761 -0.007162 0.000000 0.000000 0.000000
# 3 -0.000676 -0.007162 0.014941 0.000000 0.000000 0.000000
# 4 0.000000 0.000000 0.000000 0.031712 0.000000 0.000000
# 5 0.000000 0.000000 0.000000 0.000000 0.035278 0.000000
# 6 0.000000 0.000000 0.000000 0.000000 0.000000 0.047595
#
#
# Mechanical properties :
#
#
# Convention : Reuss Voigt Hill
#
# Bulk Modulus (GPa) = 42.69900 43.97842 43.33871
# Shear Modulus (GPa) = 26.01893 27.20381 26.61137
#
# Velocity S-wave (km/s) = 3.61972 3.70122 3.66069
# Velocity P-wave (km/s) = 6.24273 6.35701 6.30013
#
# Compressibility (1/GPa) = 0.02341975
#
# Stress axis : x y z
#
# Youngs Moduli (GPa) = 67.13261 59.66190 66.93153
#
# Poissons Ratio (x) = 0.22376 0.04527
# Poissons Ratio (y) = 0.25178 0.47937
# Poissons Ratio (z) = 0.04541 0.42730
#
# Static dielectric constant tensor:
#      x y z
#    x 3.703780 0.000000 0.000000 
#    y 0.000000 3.494040 0.000000 
#    z 0.000000 0.000000 3.604670 
# 
# 
# High freq. dielectric constant tensor:
#      x y z
#    x 1.767630 0.000000 0.000000 
#    y 0.000000 1.768780 0.000000 
#    z 0.000000 0.000000 1.780430 
# 
# From -- ./inp_files/26331.got.cif
#   From: 2010.03.12/outbox.cif.g09.slc.cpg/sg51_14_cif.got.tgz:26331.got - 2010.04.16 13:43:02.
