data_PCOD8212899
_publ_section_title
;
Structure prediction by ZEFSAII (Michael W. Deem and Ramdas Pophale) SiO2 
 PCOD8212899
Probable space group: P M M A
;
_chemical_formula_sum "Si O2"
_cell_formula_units_Z 18
_cell_length_a 15.488726
_cell_length_b 7.573741
_cell_length_c 7.886715
_cell_angle_alpha 90.000000
_cell_angle_beta 90.000000
_cell_angle_gamma 90.000000
_cell_volume 925.171602
_symmetry_space_group_name_H-M "P M M A"
_symmetry_group_IT_number 51
_symmetry_cell_setting 'orthorhombic'
loop_
_space_group_symop_operation_xyz
x,y,z
1/2-x,-y,z
1/2+x,-y,-z
-x,y,-z
-x,-y,-z
1/2+x,y,-z
1/2-x,y,z
x,-y,z
loop_
_atom_site_type_symbol
_atom_site_label
_atom_site_fract_x
_atom_site_fract_y
_atom_site_fract_z
Si Si1 0.921314 0.699620 0.115417
Si Si2 0.250000 0.195601 0.052497
Si Si3 0.250000 0.000000 0.378410
Si Si4 0.915536 0.000000 0.387702
O O1 0.938918 0.500000 0.177838
O O2 0.834536 0.699988 0.004458
O O3 0.912969 0.823416 0.277226
O O4 0.000000 0.768999 0.000000
O O5 0.250000 0.000000 0.965983
O O6 0.250000 0.174186 0.257381
O O7 0.166226 0.000000 0.492174
O O8 0.000000 0.000000 0.500000
#
# Coordination Sequence:
#
# PCOD8212899 Si02
#       4
#     8   4   2   4
#     4  11  23  40  63  88 117 159 205 243 289 354
#     4  10  20  40  64  85 113 157 203 239 292 350
#     4  10  22  36  60  90 116 154 194 236 308 354
#     4  12  22  38  62  86 126 156 188 248 302 352
#
# _framework density 19.455849000000001
#
# number of rings (size 3 to 8) (size 9 to 14) (size 15 to 20)
#    0.667    0.444    2.222    5.333    0.000    0.889 
#    0.000    4.444    0.000    0.000    0.000    0.000 
#    0.000    0.000    0.000    0.000    0.000    0.000 
#
# Total GULP energy -223234.558692 kJ/mol
# GULP energy per Si atom -12401.919927 kJ/mol
# Density = 1.941157 g / cm^3
# Si number density = 19.455849 Si / 1000 Ang^3
#
#
#
# Elastic Constant Matrix: (Units=GPa)
#
#
# Indices 1 2 3 4 5 6 
#
# 1 189.2574 22.2201 83.0914 0.0000 0.0000 0.0000
# 2 22.2201 97.0117 55.8242 0.0000 0.0000 0.0000
# 3 83.0914 55.8242 151.0712 0.0000 0.0000 0.0000
# 4 0.0000 0.0000 0.0000 10.2672 0.0000 0.0000
# 5 0.0000 0.0000 0.0000 0.0000 44.6574 0.0000
# 6 0.0000 0.0000 0.0000 0.0000 0.0000 20.3902
#
#
#
# Elastic Compliance Matrix: (Units=1/GPa)
#
#
# Indices 1 2 3 4 5 6 
#
# 1 0.007012 0.000779 -0.004144 0.000000 0.000000 0.000000
# 2 0.000779 0.013178 -0.005298 0.000000 0.000000 0.000000
# 3 -0.004144 -0.005298 0.010857 0.000000 0.000000 0.000000
# 4 0.000000 0.000000 0.000000 0.097398 0.000000 0.000000
# 5 0.000000 0.000000 0.000000 0.000000 0.022393 0.000000
# 6 0.000000 0.000000 0.000000 0.000000 0.000000 0.049043
#
#
# Mechanical properties :
#
#
# Convention : Reuss Voigt Hill
#
# Bulk Modulus (GPa) = 72.88861 84.40129 78.64495
# Shear Modulus (GPa) = 22.54473 33.47658 28.01066
#
# Velocity S-wave (km/s) = 3.40775 4.15256 3.79846
# Velocity P-wave (km/s) = 7.28208 8.15272 7.72967
#
# Compressibility (1/GPa) = 0.01371956
#
# Stress axis : x y z
#
# Youngs Moduli (GPa) = 142.61350 75.88194 92.10918
#
# Poissons Ratio (x) = -0.05910 0.38174
# Poissons Ratio (y) = -0.11107 0.48800
# Poissons Ratio (z) = 0.59106 0.40203
#
# Static dielectric constant tensor:
#      x y z
#    x 3.680370 0.000000 0.000000 
#    y 0.000000 3.447650 0.000000 
#    z 0.000000 0.000000 3.482240 
# 
# 
# High freq. dielectric constant tensor:
#      x y z
#    x 1.781920 0.000000 0.000000 
#    y 0.000000 1.755860 0.000000 
#    z 0.000000 0.000000 1.750140 
# 
# From -- ./inp_files/7226.got.cif
#   From: 2010.03.12/outbox.cif.g09.slc.cpg/sg51_4_cif.got.tgz:7226.got - 2010.04.16 13:43:02.
