data_PCOD8212381
_publ_section_title
;
Structure prediction by ZEFSAII (Michael W. Deem and Ramdas Pophale) SiO2 
 PCOD8212381
Probable space group: P M M A
;
_chemical_formula_sum "Si O2"
_cell_formula_units_Z 44
_cell_length_a 8.874415
_cell_length_b 28.508725
_cell_length_c 9.437718
_cell_angle_alpha 90.000000
_cell_angle_beta 90.000000
_cell_angle_gamma 90.000000
_cell_volume 2387.726202
_symmetry_space_group_name_H-M "P M M A"
_symmetry_group_IT_number 51
_symmetry_cell_setting 'orthorhombic'
loop_
_space_group_symop_operation_xyz
x,y,z
1/2-x,-y,z
1/2+x,-y,-z
-x,y,-z
-x,-y,-z
1/2+x,y,-z
1/2-x,y,z
x,-y,z
loop_
_atom_site_type_symbol
_atom_site_label
_atom_site_fract_x
_atom_site_fract_y
_atom_site_fract_z
Si Si1 0.426562 0.500000 0.654039
Si Si2 0.572232 0.150368 0.847942
Si Si3 0.573550 0.950453 0.847974
Si Si4 0.073827 0.769838 0.354479
Si Si5 0.929195 0.412485 0.153829
Si Si6 0.072009 0.337260 0.349391
O O1 0.250000 0.500000 0.629086
O O2 0.500000 0.500000 0.500000
O O3 0.477623 0.545146 0.743460
O O4 0.750000 0.155726 0.864080
O O5 0.529502 0.099477 0.774525
O O6 0.506301 0.193593 0.758346
O O7 0.500000 0.154197 0.000000
O O8 0.750000 0.950262 0.873066
O O9 0.527606 0.000000 0.767780
O O10 0.500000 0.951010 0.000000
O O11 0.250000 0.776342 0.372033
O O12 0.033969 0.716589 0.312340
O O13 0.000000 0.784251 0.500000
O O14 0.750000 0.408253 0.138626
O O15 0.996817 0.365593 0.221777
O O16 0.000000 0.421125 0.000000
O O17 0.250000 0.347049 0.356931
O O18 0.000000 0.351931 0.500000
#
# Coordination Sequence:
#
# PCOD8212381 Si02
#       6
#     4   8   8   8   8   8
#     4  10  23  40  60  84 110 142 179 214 251 298
#     4   9  17  29  45  68  95 122 156 199 245 293
#     4   8  13  22  38  60  86 116 150 190 237 287
#     4   9  19  34  51  71  97 130 167 204 244 293
#     4  11  23  39  58  83 112 142 174 212 258 302
#     4  10  20  36  56  78 103 134 173 214 254 302
#
# _framework density 18.427575000000001
#
# number of rings (size 3 to 8) (size 9 to 14) (size 15 to 20)
#    0.000    2.545    0.000    1.909    0.000    5.091 
#    0.000    1.818    0.000    0.545    0.000    0.000 
#    0.000    0.000    0.000    0.000    0.000    0.000 
#
# Total GULP energy -545135.782197 kJ/mol
# GULP energy per Si atom -12389.449595 kJ/mol
# Density = 1.838563 g / cm^3
# Si number density = 18.427575 Si / 1000 Ang^3
#
#
#
# Elastic Constant Matrix: (Units=GPa)
#
#
# Indices 1 2 3 4 5 6 
#
# 1 42.8067 40.3112 39.9431 0.0000 0.0000 0.0000
# 2 40.3112 152.8057 85.8396 0.0000 0.0000 0.0000
# 3 39.9431 85.8396 118.6961 0.0000 0.0000 0.0000
# 4 0.0000 0.0000 0.0000 32.1644 0.0000 0.0000
# 5 0.0000 0.0000 0.0000 0.0000 29.9778 0.0000
# 6 0.0000 0.0000 0.0000 0.0000 0.0000 22.6855
#
#
#
# Elastic Compliance Matrix: (Units=1/GPa)
#
#
# Indices 1 2 3 4 5 6 
#
# 1 0.035808 -0.004509 -0.008789 0.000000 0.000000 0.000000
# 2 -0.004509 0.011590 -0.006864 0.000000 0.000000 0.000000
# 3 -0.008789 -0.006864 0.016347 0.000000 0.000000 0.000000
# 4 0.000000 0.000000 0.000000 0.031090 0.000000 0.000000
# 5 0.000000 0.000000 0.000000 0.000000 0.033358 0.000000
# 6 0.000000 0.000000 0.000000 0.000000 0.000000 0.044081
#
#
# Mechanical properties :
#
#
# Convention : Reuss Voigt Hill
#
# Bulk Modulus (GPa) = 42.69890 71.83292 57.26591
# Shear Modulus (GPa) = 22.68547 26.84652 24.76600
#
# Velocity S-wave (km/s) = 3.51245 3.82103 3.66999
# Velocity P-wave (km/s) = 6.29851 7.65068 7.00729
#
# Compressibility (1/GPa) = 0.02341981
#
# Stress axis : x y z
#
# Youngs Moduli (GPa) = 27.92659 86.28258 61.17457
#
# Poissons Ratio (x) = 0.38906 0.53767
# Poissons Ratio (y) = 0.12592 0.41992
# Poissons Ratio (z) = 0.24545 0.59226
#
# Static dielectric constant tensor:
#      x y z
#    x 3.359690 0.000000 0.000000 
#    y 0.000000 4.181370 0.000000 
#    z 0.000000 0.000000 3.089690 
# 
# 
# High freq. dielectric constant tensor:
#      x y z
#    x 1.714690 0.000000 0.000000 
#    y 0.000000 1.744160 0.000000 
#    z 0.000000 0.000000 1.682800 
# 
# From -- ./inp_files/5695.got.cif
#   From: 2010.03.12/outbox.cif.g09.slc.cpg/sg51_3_cif.got.tgz:5695.got - 2010.04.16 13:43:02.
