data_PCOD8212991
_publ_section_title
;
Structure prediction by ZEFSAII (Michael W. Deem and Ramdas Pophale) SiO2 
 PCOD8212991
Probable space group: P M M A
;
_chemical_formula_sum "Si O2"
_cell_formula_units_Z 64
_cell_length_a 15.253530
_cell_length_b 22.960500
_cell_length_c 9.136826
_cell_angle_alpha 90.000000
_cell_angle_beta 90.000000
_cell_angle_gamma 90.000000
_cell_volume 3199.978469
_symmetry_space_group_name_H-M "P M M A"
_symmetry_group_IT_number 51
_symmetry_cell_setting 'orthorhombic'
loop_
_space_group_symop_operation_xyz
x,y,z
1/2-x,-y,z
1/2+x,-y,-z
-x,y,-z
-x,-y,-z
1/2+x,y,-z
1/2-x,y,z
x,-y,z
loop_
_atom_site_type_symbol
_atom_site_label
_atom_site_fract_x
_atom_site_fract_y
_atom_site_fract_z
Si Si1 0.349250 0.861173 0.347325
Si Si2 0.649582 0.757773 0.270528
Si Si3 0.651615 0.435228 0.871130
Si Si4 0.649084 0.884835 0.314152
Si Si5 0.084202 0.658990 0.910162
Si Si6 0.488597 0.933778 0.166615
Si Si7 0.147654 0.270686 0.414585
Si Si8 0.030393 0.375751 0.339788
O O1 0.250000 0.874090 0.294434
O O2 0.361739 0.884314 0.511480
O O3 0.416621 0.892862 0.241266
O O4 0.367179 0.792044 0.340976
O O5 0.750000 0.766873 0.312411
O O6 0.614827 0.823185 0.245736
O O7 0.638448 0.717549 0.127262
O O8 0.609610 0.729310 0.418491
O O9 0.750000 0.429602 0.812832
O O10 0.633538 0.500000 0.934914
O O11 0.588833 0.426358 0.732136
O O12 0.638977 0.388178 0.999912
O O13 0.750000 0.899311 0.270721
O O14 0.583030 0.931902 0.247264
O O15 0.056922 0.630675 0.756460
O O16 0.000000 0.679428 0.000000
O O17 0.454453 0.000000 0.174353
O O18 0.500000 0.913204 0.000000
O O19 0.250000 0.289132 0.405919
O O20 0.088353 0.316962 0.329161
O O21 0.000000 0.395009 0.500000
#
# Coordination Sequence:
#
# PCOD8212991 Si02
#       8
#     8   8   8   8   8   8   8   8
#     4   9  20  39  63  90 117 154 200 250 302 355
#     4   9  17  33  56  83 116 149 186 235 291 351
#     4  10  23  44  62  77 112 164 206 243 290 350
#     4   9  20  38  61  88 117 154 198 252 305 355
#     4  10  21  34  56  86 116 154 194 235 290 350
#     4  11  25  41  58  83 119 163 203 248 299 357
#     4   9  18  34  58  86 120 152 182 231 296 358
#     4  11  21  34  58  92 119 147 190 248 304 347
#
# _framework density 20.000133999999999
#
# number of rings (size 3 to 8) (size 9 to 14) (size 15 to 20)
#    0.000    2.250    1.250    2.625    1.750    5.000 
#    2.250    2.500    0.000    1.500    0.000    0.000 
#    0.000    0.000    0.000    0.000    0.000    0.000 
#
# Total GULP energy -793439.997856 kJ/mol
# GULP energy per Si atom -12397.499967 kJ/mol
# Density = 1.995461 g / cm^3
# Si number density = 20.000134 Si / 1000 Ang^3
#
#
#
# Elastic Constant Matrix: (Units=GPa)
#
#
# Indices 1 2 3 4 5 6 
#
# 1 87.1937 36.5953 39.3054 0.0000 0.0000 0.0000
# 2 36.5953 88.1117 42.5475 0.0000 0.0000 0.0000
# 3 39.3054 42.5475 99.7250 0.0000 0.0000 0.0000
# 4 0.0000 0.0000 0.0000 30.1077 0.0000 0.0000
# 5 0.0000 0.0000 0.0000 0.0000 26.7852 0.0000
# 6 0.0000 0.0000 0.0000 0.0000 0.0000 29.0985
#
#
#
# Elastic Compliance Matrix: (Units=1/GPa)
#
#
# Indices 1 2 3 4 5 6 
#
# 1 0.015132 -0.004288 -0.004135 0.000000 0.000000 0.000000
# 2 -0.004288 0.015509 -0.004927 0.000000 0.000000 0.000000
# 3 -0.004135 -0.004927 0.013759 0.000000 0.000000 0.000000
# 4 0.000000 0.000000 0.000000 0.033214 0.000000 0.000000
# 5 0.000000 0.000000 0.000000 0.000000 0.037334 0.000000
# 6 0.000000 0.000000 0.000000 0.000000 0.000000 0.034366
#
#
# Mechanical properties :
#
#
# Convention : Reuss Voigt Hill
#
# Bulk Modulus (GPa) = 56.49298 56.88075 56.68686
# Shear Modulus (GPa) = 27.48533 27.63710 27.56122
#
# Velocity S-wave (km/s) = 3.71112 3.72135 3.71624
# Velocity P-wave (km/s) = 6.83161 6.85321 6.84242
#
# Compressibility (1/GPa) = 0.01770131
#
# Stress axis : x y z
#
# Youngs Moduli (GPa) = 66.08356 64.47706 72.67862
#
# Poissons Ratio (x) = 0.27650 0.30050
# Poissons Ratio (y) = 0.28339 0.35808
# Poissons Ratio (z) = 0.27323 0.31767
#
# Static dielectric constant tensor:
#      x y z
#    x 3.643150 0.000000 0.000000 
#    y 0.000000 3.522500 0.000000 
#    z 0.000000 0.000000 3.537320 
# 
# 
# High freq. dielectric constant tensor:
#      x y z
#    x 1.786060 0.000000 0.000000 
#    y 0.000000 1.771050 0.000000 
#    z 0.000000 0.000000 1.770270 
# 
# From -- ./inp_files/8686.got.cif
#   From: 2010.03.12/outbox.cif.g09.slc.cpg/sg51_5_cif.got.tgz:8686.got - 2010.04.16 13:43:02.
