data_PCOD8212693
_publ_section_title
;
Structure prediction by ZEFSAII (Michael W. Deem and Ramdas Pophale) SiO2 
 PCOD8212693
Probable space group: P M M A
;
_chemical_formula_sum "Si O2"
_cell_formula_units_Z 40
_cell_length_a 25.700233
_cell_length_b 8.940827
_cell_length_c 9.348168
_cell_angle_alpha 90.000000
_cell_angle_beta 90.000000
_cell_angle_gamma 90.000000
_cell_volume 2148.034543
_symmetry_space_group_name_H-M "P M M A"
_symmetry_group_IT_number 51
_symmetry_cell_setting 'orthorhombic'
loop_
_space_group_symop_operation_xyz
x,y,z
1/2-x,-y,z
1/2+x,-y,-z
-x,y,-z
-x,-y,-z
1/2+x,y,-z
1/2-x,y,z
x,-y,z
loop_
_atom_site_type_symbol
_atom_site_label
_atom_site_fract_x
_atom_site_fract_y
_atom_site_fract_z
Si Si1 0.346203 0.174908 0.090400
Si Si2 0.657057 0.823312 0.582821
Si Si3 0.750000 0.677684 0.411452
Si Si4 0.250000 0.176315 0.895039
Si Si5 0.048924 0.326965 0.084772
Si Si6 0.550848 0.673480 0.583708
O O1 0.333551 0.225657 0.252643
O O2 0.398442 0.249731 0.031125
O O3 0.355380 0.000000 0.088217
O O4 0.299776 0.223980 0.987594
O O5 0.698921 0.740296 0.486937
O O6 0.599898 0.771236 0.532297
O O7 0.662968 0.000000 0.560994
O O8 0.750000 0.500000 0.419931
O O9 0.750000 0.728910 0.248105
O O10 0.250000 0.000000 0.860321
O O11 0.054849 0.500000 0.047484
O O12 0.039275 0.297345 0.250911
O O13 0.000000 0.257620 0.000000
O O14 0.500000 0.728854 0.500000
O O15 0.562966 0.500000 0.552010
#
# Coordination Sequence:
#
# PCOD8212693 Si02
#       6
#     8   8   4   4   8   8
#     4   9  19  36  58  80 104 138 178 218 262 316
#     4  10  20  37  59  81 107 141 181 222 266 318
#     4  12  25  38  54  80 110 140 177 220 270 322
#     4  10  21  38  56  78 108 138 171 216 270 318
#     4   9  18  32  50  74 105 140 176 215 259 306
#     4   9  18  33  52  76 108 143 179 219 261 308
#
# _framework density 18.621675
#
# number of rings (size 3 to 8) (size 9 to 14) (size 15 to 20)
#    0.000    2.400    0.000    2.100    0.000    5.600 
#    0.000    3.000    0.000    0.000    0.000    0.000 
#    0.000    0.000    0.000    0.000    0.000    0.000 
#
# Total GULP energy -496104.705246 kJ/mol
# GULP energy per Si atom -12402.617631 kJ/mol
# Density = 1.857929 g / cm^3
# Si number density = 18.621675 Si / 1000 Ang^3
#
#
#
# Elastic Constant Matrix: (Units=GPa)
#
#
# Indices 1 2 3 4 5 6 
#
# 1 188.6368 67.9235 92.4018 0.0000 0.0000 0.0000
# 2 67.9235 69.4871 50.2594 0.0000 0.0000 0.0000
# 3 92.4018 50.2594 94.6385 0.0000 0.0000 0.0000
# 4 0.0000 0.0000 0.0000 24.9184 0.0000 0.0000
# 5 0.0000 0.0000 0.0000 0.0000 39.0792 0.0000
# 6 0.0000 0.0000 0.0000 0.0000 0.0000 38.6124
#
#
#
# Elastic Compliance Matrix: (Units=1/GPa)
#
#
# Indices 1 2 3 4 5 6 
#
# 1 0.011097 -0.004888 -0.008239 0.000000 0.000000 0.000000
# 2 -0.004888 0.025520 -0.008780 0.000000 0.000000 0.000000
# 3 -0.008239 -0.008780 0.023273 0.000000 0.000000 0.000000
# 4 0.000000 0.000000 0.000000 0.040131 0.000000 0.000000
# 5 0.000000 0.000000 0.000000 0.000000 0.025589 0.000000
# 6 0.000000 0.000000 0.000000 0.000000 0.000000 0.025898
#
#
# Mechanical properties :
#
#
# Convention : Reuss Voigt Hill
#
# Bulk Modulus (GPa) = 62.20387 85.99240 74.09814
# Shear Modulus (GPa) = 24.91510 30.00053 27.45781
#
# Velocity S-wave (km/s) = 3.66178 4.01815 3.84410
# Velocity P-wave (km/s) = 7.16622 8.23446 7.71884
#
# Compressibility (1/GPa) = 0.01607617
#
# Stress axis : x y z
#
# Youngs Moduli (GPa) = 90.11447 39.18497 42.96766
#
# Poissons Ratio (x) = 0.19155 0.35400
# Poissons Ratio (y) = 0.44051 0.37726
# Poissons Ratio (z) = 0.74243 0.34405
#
# Static dielectric constant tensor:
#      x y z
#    x 3.622540 0.000000 0.000000 
#    y 0.000000 3.353680 0.000000 
#    z 0.000000 0.000000 3.457650 
# 
# 
# High freq. dielectric constant tensor:
#      x y z
#    x 1.737390 0.000000 0.000000 
#    y 0.000000 1.716540 0.000000 
#    z 0.000000 0.000000 1.718060 
# 
# From -- ./inp_files/12138.got.cif
#   From: 2010.03.12/outbox.cif.g09.slc.cpg/sg51_7_cif.got.tgz:12138.got - 2010.04.16 13:43:02.
