data_PCOD8212407
_publ_section_title
;
Structure prediction by ZEFSAII (Michael W. Deem and Ramdas Pophale) SiO2 
 PCOD8212407
Probable space group: P M M A
;
_chemical_formula_sum "Si O2"
_cell_formula_units_Z 52
_cell_length_a 9.139558
_cell_length_b 20.090054
_cell_length_c 14.731858
_cell_angle_alpha 90.000000
_cell_angle_beta 90.000000
_cell_angle_gamma 90.000000
_cell_volume 2704.978524
_symmetry_space_group_name_H-M "P M M A"
_symmetry_group_IT_number 51
_symmetry_cell_setting 'orthorhombic'
loop_
_space_group_symop_operation_xyz
x,y,z
1/2-x,-y,z
1/2+x,-y,-z
-x,y,-z
-x,-y,-z
1/2+x,y,-z
1/2-x,y,z
x,-y,z
loop_
_atom_site_type_symbol
_atom_site_label
_atom_site_fract_x
_atom_site_fract_y
_atom_site_fract_z
Si Si1 0.423023 0.186462 0.908732
Si Si2 0.923669 0.072730 0.222332
Si Si3 0.581095 0.389269 0.284410
Si Si4 0.916483 0.727375 0.414612
Si Si5 0.922119 0.122091 0.411536
Si Si6 0.421504 0.661992 0.908008
Si Si7 0.074445 0.500000 0.400274
O O1 0.250000 0.180230 0.919751
O O2 0.486370 0.134399 0.835211
O O3 0.467759 0.262182 0.884077
O O4 0.500000 0.163774 0.000000
O O5 0.750000 0.077309 0.219654
O O6 0.977148 0.080006 0.325769
O O7 0.976312 0.000000 0.186178
O O8 0.750000 0.413235 0.293927
O O9 0.561490 0.315393 0.324086
O O10 0.535978 0.384917 0.177858
O O11 0.475222 0.436884 0.341048
O O12 0.750000 0.728526 0.445322
O O13 0.972366 0.801680 0.394447
O O14 0.000000 0.694795 0.500000
O O15 0.750000 0.116433 0.425428
O O16 0.000000 0.092290 0.500000
O O17 0.250000 0.657873 0.926534
O O18 0.500000 0.636633 0.000000
O O19 0.250000 0.500000 0.412180
O O20 0.000000 0.500000 0.500000
#
# Coordination Sequence:
#
# PCOD8212407 Si02
#       7
#     8   8   8   8   8   8   4
#     4   9  17  31  51  75 102 132 167 209 257 305
#     4   9  17  29  46  67  93 130 172 207 246 304
#     4  10  20  36  57  79 105 139 176 213 255 301
#     4   9  17  29  48  73  98 125 161 207 256 303
#     4   9  17  30  47  68  94 124 162 208 255 302
#     4   9  18  33  55  81 107 135 170 215 263 308
#     4  12  26  42  59  82 113 146 177 208 246 296
#
# _framework density 19.223811999999999
#
# number of rings (size 3 to 8) (size 9 to 14) (size 15 to 20)
#    0.000    2.615    0.000    2.077    0.000    6.769 
#    0.000    1.154    0.000    8.308    0.000    0.000 
#    0.000    0.000    0.000    0.000    0.000    0.000 
#
# Total GULP energy -644528.833979 kJ/mol
# GULP energy per Si atom -12394.785269 kJ/mol
# Density = 1.918006 g / cm^3
# Si number density = 19.223812 Si / 1000 Ang^3
#
#
#
# Elastic Constant Matrix: (Units=GPa)
#
#
# Indices 1 2 3 4 5 6 
#
# 1 48.0516 25.0094 43.6517 0.0000 0.0000 0.0000
# 2 25.0094 65.9965 47.0268 0.0000 0.0000 0.0000
# 3 43.6517 47.0268 143.1018 0.0000 0.0000 0.0000
# 4 0.0000 0.0000 0.0000 27.4262 0.0000 0.0000
# 5 0.0000 0.0000 0.0000 0.0000 33.6980 0.0000
# 6 0.0000 0.0000 0.0000 0.0000 0.0000 14.7447
#
#
#
# Elastic Compliance Matrix: (Units=1/GPa)
#
#
# Indices 1 2 3 4 5 6 
#
# 1 0.030783 -0.006495 -0.007255 0.000000 0.000000 0.000000
# 2 -0.006495 0.021156 -0.004971 0.000000 0.000000 0.000000
# 3 -0.007255 -0.004971 0.010835 0.000000 0.000000 0.000000
# 4 0.000000 0.000000 0.000000 0.036462 0.000000 0.000000
# 5 0.000000 0.000000 0.000000 0.000000 0.029675 0.000000
# 6 0.000000 0.000000 0.000000 0.000000 0.000000 0.067821
#
#
# Mechanical properties :
#
#
# Convention : Reuss Voigt Hill
#
# Bulk Modulus (GPa) = 39.47884 54.28064 46.87974
# Shear Modulus (GPa) = 20.60857 24.60458 22.60657
#
# Velocity S-wave (km/s) = 3.27774 3.58145 3.43296
# Velocity P-wave (km/s) = 5.90811 6.73794 6.33663
#
# Compressibility (1/GPa) = 0.02533002
#
# Stress axis : x y z
#
# Youngs Moduli (GPa) = 32.48595 47.26828 92.29482
#
# Poissons Ratio (x) = 0.30701 0.66964
# Poissons Ratio (y) = 0.21100 0.45880
# Poissons Ratio (z) = 0.23570 0.23497
#
# Static dielectric constant tensor:
#      x y z
#    x 3.277710 0.000000 0.000000 
#    y 0.000000 3.570740 0.000000 
#    z 0.000000 0.000000 3.718370 
# 
# 
# High freq. dielectric constant tensor:
#      x y z
#    x 1.715860 0.000000 0.000000 
#    y 0.000000 1.742080 0.000000 
#    z 0.000000 0.000000 1.754940 
# 
# From -- ./inp_files/21643.got.cif
#   From: 2010.03.12/outbox.cif.g09.slc.cpg/sg51_11_cif.got.tgz:21643.got - 2010.04.16 13:43:02.
