data_PCOD8212637
_publ_section_title
;
Structure prediction by ZEFSAII (Michael W. Deem and Ramdas Pophale) SiO2 
 PCOD8212637
Probable space group: P M M A
;
_chemical_formula_sum "Si O2"
_cell_formula_units_Z 64
_cell_length_a 14.737441
_cell_length_b 18.429025
_cell_length_c 11.490777
_cell_angle_alpha 90.000000
_cell_angle_beta 90.000000
_cell_angle_gamma 90.000000
_cell_volume 3120.856753
_symmetry_space_group_name_H-M "P M M A"
_symmetry_group_IT_number 51
_symmetry_cell_setting 'orthorhombic'
loop_
_space_group_symop_operation_xyz
x,y,z
1/2-x,-y,z
1/2+x,-y,-z
-x,y,-z
-x,-y,-z
1/2+x,y,-z
1/2-x,y,z
x,-y,z
loop_
_atom_site_type_symbol
_atom_site_label
_atom_site_fract_x
_atom_site_fract_y
_atom_site_fract_z
Si Si1 0.648588 0.581237 0.245474
Si Si2 0.351742 0.664985 0.533564
Si Si3 0.008507 0.810711 0.132292
Si Si4 0.143551 0.583055 0.312076
Si Si5 0.515057 0.353595 0.870846
Si Si6 0.103357 0.916894 0.511485
Si Si7 0.851336 0.917493 0.748006
Si Si8 0.646873 0.797297 0.316194
O O1 0.750000 0.591647 0.194861
O O2 0.612980 0.500000 0.221709
O O3 0.648451 0.594747 0.383474
O O4 0.583436 0.640449 0.188411
O O5 0.250000 0.689217 0.502331
O O6 0.397063 0.637541 0.412266
O O7 0.396826 0.734177 0.599729
O O8 0.048239 0.729405 0.129685
O O9 0.912874 0.810603 0.200741
O O10 0.079601 0.862428 0.194506
O O11 0.000000 0.839125 0.000000
O O12 0.250000 0.596726 0.291836
O O13 0.125953 0.500000 0.349116
O O14 0.090771 0.598533 0.192913
O O15 0.500000 0.384085 0.000000
O O16 0.153067 0.903750 0.389698
O O17 0.152070 0.871129 0.611137
O O18 0.000000 0.891202 0.500000
O O19 0.109454 0.000000 0.551834
O O20 0.750000 0.904804 0.797802
O O21 0.883842 0.000000 0.772971
O O22 0.750000 0.775648 0.278064
#
# Coordination Sequence:
#
# PCOD8212637 Si02
#       8
#     8   8   8   8   8   8   8   8
#     4  10  20  37  62  87 115 155 201 251 306 364
#     4   9  19  36  59  89 121 153 193 245 309 375
#     4  11  25  43  63  89 125 168 212 261 310 362
#     4  10  22  40  62  90 123 157 199 258 319 371
#     4  11  25  42  59  84 121 164 209 252 297 360
#     4  10  20  36  62  96 131 164 197 243 308 378
#     4  10  22  42  67  94 126 164 207 255 309 372
#     4  11  22  38  64  93 125 163 204 254 313 375
#
# _framework density 20.507189
#
# number of rings (size 3 to 8) (size 9 to 14) (size 15 to 20)
#    0.000    1.750    2.500    1.125    1.750    5.500 
#    0.000    5.000    0.000    0.000    0.000    0.000 
#    0.000    0.000    0.000    0.000    0.000    0.000 
#
# Total GULP energy -793442.115782 kJ/mol
# GULP energy per Si atom -12397.533059 kJ/mol
# Density = 2.046051 g / cm^3
# Si number density = 20.507189 Si / 1000 Ang^3
#
#
#
# Elastic Constant Matrix: (Units=GPa)
#
#
# Indices 1 2 3 4 5 6 
#
# 1 90.8527 40.1162 47.3946 0.0000 0.0000 0.0000
# 2 40.1162 97.5307 49.9014 0.0000 0.0000 0.0000
# 3 47.3946 49.9014 125.0793 0.0000 0.0000 0.0000
# 4 0.0000 0.0000 0.0000 27.9002 0.0000 0.0000
# 5 0.0000 0.0000 0.0000 0.0000 16.2891 0.0000
# 6 0.0000 0.0000 0.0000 0.0000 0.0000 27.1410
#
#
#
# Elastic Compliance Matrix: (Units=1/GPa)
#
#
# Indices 1 2 3 4 5 6 
#
# 1 0.014903 -0.004072 -0.004023 0.000000 0.000000 0.000000
# 2 -0.004072 0.013995 -0.004041 0.000000 0.000000 0.000000
# 3 -0.004023 -0.004041 0.011131 0.000000 0.000000 0.000000
# 4 0.000000 0.000000 0.000000 0.035842 0.000000 0.000000
# 5 0.000000 0.000000 0.000000 0.000000 0.061391 0.000000
# 6 0.000000 0.000000 0.000000 0.000000 0.000000 0.036845
#
#
# Mechanical properties :
#
#
# Convention : Reuss Voigt Hill
#
# Bulk Modulus (GPa) = 63.45330 65.36524 64.40927
# Shear Modulus (GPa) = 24.55426 26.00276 25.27851
#
# Velocity S-wave (km/s) = 3.46403 3.56474 3.51474
# Velocity P-wave (km/s) = 6.85627 6.99190 6.92442
#
# Compressibility (1/GPa) = 0.01575962
#
# Stress axis : x y z
#
# Youngs Moduli (GPa) = 67.09975 71.45201 89.83740
#
# Poissons Ratio (x) = 0.29094 0.36138
# Poissons Ratio (y) = 0.27322 0.36301
# Poissons Ratio (z) = 0.26991 0.28872
#
# Static dielectric constant tensor:
#      x y z
#    x 3.687870 0.000000 0.000000 
#    y 0.000000 3.727190 0.000000 
#    z 0.000000 0.000000 3.659020 
# 
# 
# High freq. dielectric constant tensor:
#      x y z
#    x 1.797830 0.000000 0.000000 
#    y 0.000000 1.808590 0.000000 
#    z 0.000000 0.000000 1.785940 
# 
# From -- ./inp_files/16810.got.cif
#   From: 2010.03.12/outbox.cif.g09.slc.cpg/sg51_9_cif.got.tgz:16810.got - 2010.04.16 13:43:02.
