data_PCOD8212143
_publ_section_title
;
Structure prediction by ZEFSAII (Michael W. Deem and Ramdas Pophale) SiO2 
 PCOD8212143
Probable space group: P M M A
;
_chemical_formula_sum "Si O2"
_cell_formula_units_Z 64
_cell_length_a 29.570790
_cell_length_b 9.291330
_cell_length_c 12.162470
_cell_angle_alpha 90.000000
_cell_angle_beta 90.000000
_cell_angle_gamma 90.000000
_cell_volume 3341.662571
_symmetry_space_group_name_H-M "P M M A"
_symmetry_group_IT_number 51
_symmetry_cell_setting 'orthorhombic'
loop_
_space_group_symop_operation_xyz
x,y,z
1/2-x,-y,z
1/2+x,-y,-z
-x,y,-z
-x,-y,-z
1/2+x,y,-z
1/2-x,y,z
x,-y,z
loop_
_atom_site_type_symbol
_atom_site_label
_atom_site_fract_x
_atom_site_fract_y
_atom_site_fract_z
Si Si1 0.801301 0.829454 0.270920
Si Si2 0.303651 0.841108 0.487236
Si Si3 0.045231 0.332692 0.713501
Si Si4 0.199047 0.332719 0.279993
Si Si5 0.047905 0.829518 0.266562
Si Si6 0.872112 0.665082 0.129611
Si Si7 0.119000 0.667736 0.122859
Si Si8 0.053515 0.841890 0.508145
O O1 0.750000 0.775598 0.252287
O O2 0.819092 0.783281 0.392833
O O3 0.832381 0.759713 0.179268
O O4 0.803676 0.000000 0.260128
O O5 0.250000 0.848516 0.488433
O O6 0.321244 0.739853 0.389856
O O7 0.323844 0.000000 0.466063
O O8 0.033165 0.500000 0.697514
O O9 0.080480 0.307301 0.810856
O O10 0.067705 0.273742 0.600139
O O11 0.000759 0.244756 0.745313
O O12 0.250000 0.277609 0.253218
O O13 0.199555 0.500000 0.305313
O O14 0.167287 0.294577 0.177383
O O15 0.080033 0.764821 0.174271
O O16 0.070373 0.796230 0.386308
O O17 0.041684 0.000000 0.249548
O O18 0.857158 0.500000 0.140278
O O19 0.877999 0.710669 0.003803
O O20 0.106705 0.500000 0.139259
O O21 0.000000 0.851172 0.500000
O O22 0.072778 0.000000 0.540515
#
# Coordination Sequence:
#
# PCOD8212143 Si02
#       8
#     8   8   8   8   8   8   8   8
#     4   9  19  36  57  81 109 141 176 216 264 316
#     4   8  15  30  52  78 108 139 170 208 260 318
#     4  10  20  35  56  81 109 140 176 218 265 318
#     4   9  18  33  54  79 105 135 173 216 260 308
#     4  10  21  37  57  81 108 138 174 217 267 320
#     4  10  23  39  54  77 107 142 184 224 263 311
#     4  10  22  39  55  74 105 143 182 222 263 310
#     4   8  16  32  53  79 109 137 169 212 263 320
#
# _framework density 19.152142999999999
#
# number of rings (size 3 to 8) (size 9 to 14) (size 15 to 20)
#    0.000    2.750    0.000    2.250    0.000    7.500 
#    0.000   10.000    0.000    1.500    0.000    0.000 
#    0.000    0.000    0.000    0.000    0.000    0.000 
#
# Total GULP energy -793440.482957 kJ/mol
# GULP energy per Si atom -12397.507546 kJ/mol
# Density = 1.910855 g / cm^3
# Si number density = 19.152143 Si / 1000 Ang^3
#
#
#
# Elastic Constant Matrix: (Units=GPa)
#
#
# Indices 1 2 3 4 5 6 
#
# 1 85.1247 54.1560 66.9760 0.0000 0.0000 0.0000
# 2 54.1560 86.6989 73.3855 0.0000 0.0000 0.0000
# 3 66.9760 73.3855 171.7627 0.0000 0.0000 0.0000
# 4 0.0000 0.0000 0.0000 298.9459 0.0000 0.0000
# 5 0.0000 0.0000 0.0000 0.0000 40.0973 0.0000
# 6 0.0000 0.0000 0.0000 0.0000 0.0000 18.7514
#
#
#
# Elastic Compliance Matrix: (Units=1/GPa)
#
#
# Indices 1 2 3 4 5 6 
#
# 1 0.021177 -0.009773 -0.004082 0.000000 0.000000 0.000000
# 2 -0.009773 0.022578 -0.005836 0.000000 0.000000 0.000000
# 3 -0.004082 -0.005836 0.009907 0.000000 0.000000 0.000000
# 4 0.000000 0.000000 0.000000 0.003345 0.000000 0.000000
# 5 0.000000 0.000000 0.000000 0.000000 0.024939 0.000000
# 6 0.000000 0.000000 0.000000 0.000000 0.000000 0.053329
#
#
# Mechanical properties :
#
#
# Convention : Reuss Voigt Hill
#
# Bulk Modulus (GPa) = 70.02409 81.40237 75.71323
# Shear Modulus (GPa) = 27.86799 81.49682 54.68241
#
# Velocity S-wave (km/s) = 3.81870 6.53029 5.34917
# Velocity P-wave (km/s) = 7.48897 9.97271 8.81872
#
# Compressibility (1/GPa) = 0.01428080
#
# Stress axis : x y z
#
# Youngs Moduli (GPa) = 47.22208 44.29025 100.93725
#
# Poissons Ratio (x) = 0.43283 0.41204
# Poissons Ratio (y) = 0.46148 0.58906
# Poissons Ratio (z) = 0.19277 0.25848
#
# Static dielectric constant tensor:
#      x y z
#    x 3.378390 0.000000 0.000000 
#    y 0.000000 3.538930 0.000000 
#    z 0.000000 0.000000 3.723270 
# 
# 
# High freq. dielectric constant tensor:
#      x y z
#    x 1.739380 0.000000 0.000000 
#    y 0.000000 1.740060 0.000000 
#    z 0.000000 0.000000 1.745800 
# 
# From -- ./inp_files/19518.got.cif
#   From: 2010.03.12/outbox.cif.g09.slc.cpg/sg51_10_cif.got.tgz:19518.got - 2010.04.16 13:43:02.
