data_PCOD8212376
_publ_section_title
;
Structure prediction by ZEFSAII (Michael W. Deem and Ramdas Pophale) SiO2 
 PCOD8212376
Probable space group: P M M A
;
_chemical_formula_sum "Si O2"
_cell_formula_units_Z 40
_cell_length_a 8.956512
_cell_length_b 24.857739
_cell_length_c 9.744377
_cell_angle_alpha 90.000000
_cell_angle_beta 90.000000
_cell_angle_gamma 90.000000
_cell_volume 2169.474820
_symmetry_space_group_name_H-M "P M M A"
_symmetry_group_IT_number 51
_symmetry_cell_setting 'orthorhombic'
loop_
_space_group_symop_operation_xyz
x,y,z
1/2-x,-y,z
1/2+x,-y,-z
-x,y,-z
-x,-y,-z
1/2+x,y,-z
1/2-x,y,z
x,-y,z
loop_
_atom_site_type_symbol
_atom_site_label
_atom_site_fract_x
_atom_site_fract_y
_atom_site_fract_z
Si Si1 0.574869 0.439701 0.857501
Si Si2 0.423794 0.355541 0.360924
Si Si3 0.424457 0.060772 0.638593
Si Si4 0.426095 0.768128 0.355552
Si Si5 0.572733 0.151172 0.149067
O O1 0.750000 0.433110 0.876948
O O2 0.533959 0.500000 0.806871
O O3 0.510690 0.395556 0.753109
O O4 0.500000 0.426255 0.000000
O O5 0.500000 0.373228 0.500000
O O6 0.250000 0.364634 0.380356
O O7 0.460019 0.294046 0.322993
O O8 0.500000 0.083321 0.500000
O O9 0.250000 0.062994 0.611299
O O10 0.468972 0.096884 0.768656
O O11 0.479194 0.000000 0.669587
O O12 0.500000 0.785418 0.500000
O O13 0.250000 0.780521 0.362749
O O14 0.502396 0.799172 0.230634
O O15 0.750000 0.159185 0.135433
O O16 0.500000 0.147043 0.000000
#
# Coordination Sequence:
#
# PCOD8212376 Si02
#       5
#     8   8   8   8   8
#     4   9  18  33  51  72 100 133 169 208 251 301
#     4   9  19  34  52  76 103 132 167 209 255 302
#     4   9  19  36  57  80 105 135 172 212 255 305
#     4  10  20  36  56  77 104 137 174 214 258 309
#     4  11  23  37  54  78 108 140 175 215 260 308
#
# _framework density 18.437643000000001
#
# number of rings (size 3 to 8) (size 9 to 14) (size 15 to 20)
#    0.000    2.400    0.000    1.800    0.000    6.400 
#    0.000    2.000    0.000    0.000    0.000    0.000 
#    0.000    0.000    0.000    0.000    0.000    0.000 
#
# Total GULP energy -496030.845045 kJ/mol
# GULP energy per Si atom -12400.771126 kJ/mol
# Density = 1.839568 g / cm^3
# Si number density = 18.437643 Si / 1000 Ang^3
#
#
#
# Elastic Constant Matrix: (Units=GPa)
#
#
# Indices 1 2 3 4 5 6 
#
# 1 62.3082 50.3110 67.7856 0.0000 0.0000 0.0000
# 2 50.3110 115.3841 99.8951 0.0000 0.0000 0.0000
# 3 67.7856 99.8951 175.6871 0.0000 0.0000 0.0000
# 4 0.0000 0.0000 0.0000 31.6031 0.0000 0.0000
# 5 0.0000 0.0000 0.0000 0.0000 37.9872 0.0000
# 6 0.0000 0.0000 0.0000 0.0000 0.0000 25.0070
#
#
#
# Elastic Compliance Matrix: (Units=1/GPa)
#
#
# Indices 1 2 3 4 5 6 
#
# 1 0.029594 -0.005945 -0.008038 0.000000 0.000000 0.000000
# 2 -0.005945 0.018264 -0.008091 0.000000 0.000000 0.000000
# 3 -0.008038 -0.008091 0.013394 0.000000 0.000000 0.000000
# 4 0.000000 0.000000 0.000000 0.031643 0.000000 0.000000
# 5 0.000000 0.000000 0.000000 0.000000 0.026325 0.000000
# 6 0.000000 0.000000 0.000000 0.000000 0.000000 0.039989
#
#
# Mechanical properties :
#
#
# Convention : Reuss Voigt Hill
#
# Bulk Modulus (GPa) = 58.46663 87.70695 73.08679
# Shear Modulus (GPa) = 23.91694 27.94530 25.93112
#
# Velocity S-wave (km/s) = 3.60555 3.89738 3.75430
# Velocity P-wave (km/s) = 7.00804 8.24169 7.64977
#
# Compressibility (1/GPa) = 0.01710377
#
# Stress axis : x y z
#
# Youngs Moduli (GPa) = 33.79038 54.75344 74.66145
#
# Poissons Ratio (x) = 0.32550 0.60014
# Poissons Ratio (y) = 0.20088 0.60408
# Poissons Ratio (z) = 0.27161 0.44301
#
# Static dielectric constant tensor:
#      x y z
#    x 3.389590 0.000000 0.000000 
#    y 0.000000 3.689010 0.000000 
#    z 0.000000 0.000000 3.421380 
# 
# 
# High freq. dielectric constant tensor:
#      x y z
#    x 1.716730 0.000000 0.000000 
#    y 0.000000 1.725740 0.000000 
#    z 0.000000 0.000000 1.713300 
# 
# From -- ./inp_files/5205.got.cif
#   From: 2010.03.12/outbox.cif.g09.slc.cpg/sg51_3_cif.got.tgz:5205.got - 2010.04.16 13:43:02.
