data_PCOD8212801
_publ_section_title
;
Structure prediction by ZEFSAII (Michael W. Deem and Ramdas Pophale) SiO2 
 PCOD8212801
Probable space group: P M M A
;
_chemical_formula_sum "Si O2"
_cell_formula_units_Z 52
_cell_length_a 8.835484
_cell_length_b 22.674371
_cell_length_c 14.274389
_cell_angle_alpha 90.000000
_cell_angle_beta 90.000000
_cell_angle_gamma 90.000000
_cell_volume 2859.717420
_symmetry_space_group_name_H-M "P M M A"
_symmetry_group_IT_number 51
_symmetry_cell_setting 'orthorhombic'
loop_
_space_group_symop_operation_xyz
x,y,z
1/2-x,-y,z
1/2+x,-y,-z
-x,y,-z
-x,-y,-z
1/2+x,y,-z
1/2-x,y,z
x,-y,z
loop_
_atom_site_type_symbol
_atom_site_label
_atom_site_fract_x
_atom_site_fract_y
_atom_site_fract_z
Si Si1 0.570305 0.668254 0.791991
Si Si2 0.929376 0.224265 0.100175
Si Si3 0.573654 0.431559 0.098390
Si Si4 0.071772 0.000000 0.101234
Si Si5 0.428169 0.283537 0.405803
Si Si6 0.074979 0.849987 0.408311
Si Si7 0.427314 0.882439 0.205523
O O1 0.750000 0.672575 0.803176
O O2 0.494754 0.714858 0.861494
O O3 0.509797 0.603815 0.819161
O O4 0.519278 0.679815 0.685055
O O5 0.750000 0.228879 0.091834
O O6 0.973893 0.171148 0.168104
O O7 0.000000 0.210071 0.000000
O O8 0.750000 0.415400 0.094895
O O9 0.546672 0.500000 0.120118
O O10 0.500000 0.413291 0.000000
O O11 0.017575 0.942496 0.157330
O O12 0.250000 0.000000 0.089786
O O13 0.000000 0.000000 0.000000
O O14 0.500000 0.311372 0.500000
O O15 0.250000 0.286173 0.416395
O O16 0.486756 0.216487 0.392356
O O17 0.250000 0.847164 0.429848
O O18 0.040353 0.888800 0.316448
O O19 0.000000 0.879421 0.500000
O O20 0.250000 0.869194 0.187158
#
# Coordination Sequence:
#
# PCOD8212801 Si02
#       7
#     8   8   8   4   8   8   8
#     4  11  21  36  56  81 112 143 180 224 272 322
#     4  12  24  36  53  78 108 142 177 221 275 324
#     4  10  21  37  56  80 111 148 188 227 268 318
#     4  10  22  38  59  78 102 142 183 224 271 324
#     4   9  18  32  52  78 108 142 174 217 268 322
#     4   9  17  32  53  77 108 139 174 216 267 323
#     4  10  20  38  57  78 107 141 180 223 270 324
#
# _framework density 18.183613999999999
#
# number of rings (size 3 to 8) (size 9 to 14) (size 15 to 20)
#    0.000    1.846    1.538    3.231    0.000    4.615 
#    0.000    0.385    0.000    0.462    0.000    0.000 
#    0.000    0.000    0.000    0.000    0.000    0.000 
#
# Total GULP energy -644917.146647 kJ/mol
# GULP energy per Si atom -12402.252820 kJ/mol
# Density = 1.814223 g / cm^3
# Si number density = 18.183614 Si / 1000 Ang^3
#
#
#
# Elastic Constant Matrix: (Units=GPa)
#
#
# Indices 1 2 3 4 5 6 
#
# 1 74.6150 31.0363 43.7948 0.0000 0.0000 0.0000
# 2 31.0363 79.5503 48.1268 0.0000 0.0000 0.0000
# 3 43.7948 48.1268 141.6858 0.0000 0.0000 0.0000
# 4 0.0000 0.0000 0.0000 36.3026 0.0000 0.0000
# 5 0.0000 0.0000 0.0000 0.0000 35.4385 0.0000
# 6 0.0000 0.0000 0.0000 0.0000 0.0000 17.7379
#
#
#
# Elastic Compliance Matrix: (Units=1/GPa)
#
#
# Indices 1 2 3 4 5 6 
#
# 1 0.017560 -0.004490 -0.003903 0.000000 0.000000 0.000000
# 2 -0.004490 0.016970 -0.004376 0.000000 0.000000 0.000000
# 3 -0.003903 -0.004376 0.009751 0.000000 0.000000 0.000000
# 4 0.000000 0.000000 0.000000 0.027546 0.000000 0.000000
# 5 0.000000 0.000000 0.000000 0.000000 0.028218 0.000000
# 6 0.000000 0.000000 0.000000 0.000000 0.000000 0.056376
#
#
# Mechanical properties :
#
#
# Convention : Reuss Voigt Hill
#
# Bulk Modulus (GPa) = 53.35356 60.19632 56.77494
# Shear Modulus (GPa) = 26.56638 29.42203 27.99421
#
# Velocity S-wave (km/s) = 3.82646 4.02687 3.92794
# Velocity P-wave (km/s) = 6.99483 7.40253 7.20156
#
# Compressibility (1/GPa) = 0.01874289
#
# Stress axis : x y z
#
# Youngs Moduli (GPa) = 56.94607 58.92720 102.55614
#
# Poissons Ratio (x) = 0.26459 0.40025
# Poissons Ratio (y) = 0.25569 0.44883
# Poissons Ratio (z) = 0.22225 0.25789
#
# Static dielectric constant tensor:
#      x y z
#    x 3.525160 0.000000 0.000000 
#    y 0.000000 3.286780 0.000000 
#    z 0.000000 0.000000 3.476390 
# 
# 
# High freq. dielectric constant tensor:
#      x y z
#    x 1.706350 0.000000 0.000000 
#    y 0.000000 1.684480 0.000000 
#    z 0.000000 0.000000 1.714760 
# 
# From -- ./inp_files/21533.got.cif
#   From: 2010.03.12/outbox.cif.g09.slc.cpg/sg51_11_cif.got.tgz:21533.got - 2010.04.16 13:43:02.
