data_PCOD8212426
_publ_section_title
;
Structure prediction by ZEFSAII (Michael W. Deem and Ramdas Pophale) SiO2 
 PCOD8212426
Probable space group: P M M A
;
_chemical_formula_sum "Si O2"
_cell_formula_units_Z 40
_cell_length_a 25.938159
_cell_length_b 8.786358
_cell_length_c 8.895683
_cell_angle_alpha 90.000000
_cell_angle_beta 90.000000
_cell_angle_gamma 90.000000
_cell_volume 2027.343510
_symmetry_space_group_name_H-M "P M M A"
_symmetry_group_IT_number 51
_symmetry_cell_setting 'orthorhombic'
loop_
_space_group_symop_operation_xyz
x,y,z
1/2-x,-y,z
1/2+x,-y,-z
-x,y,-z
-x,-y,-z
1/2+x,y,-z
1/2-x,y,z
x,-y,z
loop_
_atom_site_type_symbol
_atom_site_label
_atom_site_fract_x
_atom_site_fract_y
_atom_site_fract_z
Si Si1 0.348052 0.820442 0.585209
Si Si2 0.750000 0.319415 0.572654
Si Si3 0.449745 0.179814 0.417425
Si Si4 0.150752 0.677402 0.906171
Si Si5 0.250000 0.319941 0.089222
Si Si6 0.048928 0.323970 0.095743
O O1 0.299889 0.736975 0.513486
O O2 0.398964 0.758945 0.501310
O O3 0.352697 0.778682 0.758834
O O4 0.341025 0.000000 0.567515
O O5 0.750000 0.500000 0.572701
O O6 0.750000 0.252677 0.742107
O O7 0.500000 0.249564 0.500000
O O8 0.448624 0.227110 0.245512
O O9 0.451380 0.000000 0.427120
O O10 0.156571 0.500000 0.863138
O O11 0.199362 0.736684 0.002109
O O12 0.099970 0.708239 0.001748
O O13 0.250000 0.500000 0.100059
O O14 0.043663 0.500000 0.139913
O O15 0.000000 0.268783 0.000000
#
# Coordination Sequence:
#
# PCOD8212426 Si02
#       6
#     8   4   8   8   4   8
#     4  11  23  38  57  85 117 148 190 238 280 332
#     4  11  22  39  62  84 112 151 188 229 288 344
#     4  10  22  39  58  82 115 155 195 234 281 340
#     4  10  20  36  57  81 110 145 186 230 281 338
#     4   9  19  35  56  80 104 137 182 225 268 330
#     4  10  21  36  56  84 114 145 188 239 284 332
#
# _framework density 19.730252
#
# number of rings (size 3 to 8) (size 9 to 14) (size 15 to 20)
#    0.000    1.800    0.000    3.900    0.000    5.600 
#    0.000    2.000    0.000    0.000    0.000    0.000 
#    0.000    0.000    0.000    0.000    0.000    0.000 
#
# Total GULP energy -496190.655886 kJ/mol
# GULP energy per Si atom -12404.766397 kJ/mol
# Density = 1.968535 g / cm^3
# Si number density = 19.730252 Si / 1000 Ang^3
#
#
#
# Elastic Constant Matrix: (Units=GPa)
#
#
# Indices 1 2 3 4 5 6 
#
# 1 183.5601 30.0193 63.3934 0.0000 0.0000 0.0000
# 2 30.0193 27.6018 13.8574 0.0000 0.0000 0.0000
# 3 63.3934 13.8574 118.6021 0.0000 0.0000 0.0000
# 4 0.0000 0.0000 0.0000 35.3879 0.0000 0.0000
# 5 0.0000 0.0000 0.0000 0.0000 21.2082 0.0000
# 6 0.0000 0.0000 0.0000 0.0000 0.0000 -9.1942
#
#
#
# Elastic Compliance Matrix: (Units=1/GPa)
#
#
# Indices 1 2 3 4 5 6 
#
# 1 0.007693 -0.006695 -0.003329 0.000000 0.000000 0.000000
# 2 -0.006695 0.044313 -0.001599 0.000000 0.000000 0.000000
# 3 -0.003329 -0.001599 0.010398 0.000000 0.000000 0.000000
# 4 0.000000 0.000000 0.000000 0.028258 0.000000 0.000000
# 5 0.000000 0.000000 0.000000 0.000000 0.047152 0.000000
# 6 0.000000 0.000000 0.000000 0.000000 0.000000 -0.108764
#
#
# Mechanical properties :
#
#
# Convention : Reuss Voigt Hill
#
# Bulk Modulus (GPa) = 25.53810 60.47824 43.00817
# Shear Modulus (GPa) = 76.51207 24.31330 50.41269
#
# Velocity S-wave (km/s) = 6.23404 3.51420 5.06028
# Velocity P-wave (km/s) = 8.04919 6.86915 7.48247
#
# Compressibility (1/GPa) = 0.03915718
#
# Stress axis : x y z
#
# Youngs Moduli (GPa) = 129.99668 22.56655 96.17209
#
# Poissons Ratio (x) = 0.15108 0.32020
# Poissons Ratio (y) = 0.87029 0.15380
# Poissons Ratio (z) = 0.43282 0.03609
#
# Static dielectric constant tensor:
#      x y z
#    x 3.881700 0.000000 0.000000 
#    y 0.000000 3.367210 0.000000 
#    z 0.000000 0.000000 3.657790 
# 
# 
# High freq. dielectric constant tensor:
#      x y z
#    x 1.793910 0.000000 0.000000 
#    y 0.000000 1.749750 0.000000 
#    z 0.000000 0.000000 1.784480 
# 
# From -- ./inp_files/12154.got.cif
#   From: 2010.03.12/outbox.cif.g09.slc.cpg/sg51_7_cif.got.tgz:12154.got - 2010.04.16 13:43:02.
