data_PCOD8212849
_publ_section_title
;
Structure prediction by ZEFSAII (Michael W. Deem and Ramdas Pophale) SiO2 
 PCOD8212849
Probable space group: P M M A
;
_chemical_formula_sum "Si O2"
_cell_formula_units_Z 48
_cell_length_a 28.177033
_cell_length_b 8.592212
_cell_length_c 9.823070
_cell_angle_alpha 90.000000
_cell_angle_beta 90.000000
_cell_angle_gamma 90.000000
_cell_volume 2378.195120
_symmetry_space_group_name_H-M "P M M A"
_symmetry_group_IT_number 51
_symmetry_cell_setting 'orthorhombic'
loop_
_space_group_symop_operation_xyz
x,y,z
1/2-x,-y,z
1/2+x,-y,-z
-x,y,-z
-x,-y,-z
1/2+x,y,-z
1/2-x,y,z
x,-y,z
loop_
_atom_site_type_symbol
_atom_site_label
_atom_site_fract_x
_atom_site_fract_y
_atom_site_fract_z
Si Si1 0.301493 0.683769 0.725409
Si Si2 0.862307 0.682813 0.520012
Si Si3 0.457537 0.816830 0.595827
Si Si4 0.041273 0.683124 0.901132
Si Si5 0.144580 0.682196 0.989355
Si Si6 0.804881 0.181406 0.759918
O O1 0.250000 0.761634 0.746106
O O2 0.296337 0.500000 0.722017
O O3 0.322717 0.743777 0.584371
O O4 0.336722 0.734330 0.843008
O O5 0.872240 0.500000 0.508369
O O6 0.910651 0.769660 0.485796
O O7 0.841077 0.722801 0.666319
O O8 0.500000 0.754036 0.500000
O O9 0.460623 0.751410 0.749133
O O10 0.459860 0.000000 0.610250
O O11 0.036609 0.500000 0.880748
O O12 0.089088 0.724525 0.984115
O O13 0.000000 0.748642 0.000000
O O14 0.153149 0.500000 0.021097
O O15 0.174858 0.787133 0.090924
O O16 0.750000 0.239238 0.748259
O O17 0.807850 0.000000 0.725427
#
# Coordination Sequence:
#
# PCOD8212849 Si02
#       6
#     8   8   8   8   8   8
#     4   9  17  32  58  89 117 146 191 250 302 354
#     4  11  22  40  65  91 121 159 207 259 310 362
#     4  11  25  43  63  92 127 163 203 250 312 381
#     4  10  22  41  65  95 125 157 206 262 312 366
#     4  10  20  38  62  90 122 160 205 255 307 360
#     4  11  25  42  59  88 131 172 208 250 305 368
#
# _framework density 20.183375000000002
#
# number of rings (size 3 to 8) (size 9 to 14) (size 15 to 20)
#    0.000    1.667    1.667    2.500    2.333    5.000 
#    0.000    0.000    0.000    3.000    0.000    0.000 
#    0.000    0.000    0.000    0.000    0.000    0.000 
#
# Total GULP energy -595099.505524 kJ/mol
# GULP energy per Si atom -12397.906365 kJ/mol
# Density = 2.013744 g / cm^3
# Si number density = 20.183375 Si / 1000 Ang^3
#
#
#
# Elastic Constant Matrix: (Units=GPa)
#
#
# Indices 1 2 3 4 5 6 
#
# 1 139.8915 22.0964 34.6429 0.0000 0.0000 0.0000
# 2 22.0964 30.0474 17.6009 0.0000 0.0000 0.0000
# 3 34.6429 17.6009 88.4468 0.0000 0.0000 0.0000
# 4 0.0000 0.0000 0.0000 23.6178 0.0000 0.0000
# 5 0.0000 0.0000 0.0000 0.0000 36.7713 0.0000
# 6 0.0000 0.0000 0.0000 0.0000 0.0000 24.7742
#
#
#
# Elastic Compliance Matrix: (Units=1/GPa)
#
#
# Indices 1 2 3 4 5 6 
#
# 1 0.008502 -0.004869 -0.002361 0.000000 0.000000 0.000000
# 2 -0.004869 0.040461 -0.006144 0.000000 0.000000 0.000000
# 3 -0.002361 -0.006144 0.013454 0.000000 0.000000 0.000000
# 4 0.000000 0.000000 0.000000 0.042341 0.000000 0.000000
# 5 0.000000 0.000000 0.000000 0.000000 0.027195 0.000000
# 6 0.000000 0.000000 0.000000 0.000000 0.000000 0.040365
#
#
# Mechanical properties :
#
#
# Convention : Reuss Voigt Hill
#
# Bulk Modulus (GPa) = 28.03717 45.22956 36.63336
# Shear Modulus (GPa) = 23.70159 29.30238 26.50198
#
# Velocity S-wave (km/s) = 3.43054 3.81439 3.62755
# Velocity P-wave (km/s) = 5.44177 6.46973 5.97789
#
# Compressibility (1/GPa) = 0.03566694
#
# Stress axis : x y z
#
# Youngs Moduli (GPa) = 117.61599 24.71527 74.32848
#
# Poissons Ratio (x) = 0.12035 0.17550
# Poissons Ratio (y) = 0.57271 0.45671
# Poissons Ratio (z) = 0.27771 0.15186
#
# Static dielectric constant tensor:
#      x y z
#    x 4.076580 0.000000 0.000000 
#    y 0.000000 3.405580 0.000000 
#    z 0.000000 0.000000 3.728820 
# 
# 
# High freq. dielectric constant tensor:
#      x y z
#    x 1.807780 0.000000 0.000000 
#    y 0.000000 1.765810 0.000000 
#    z 0.000000 0.000000 1.799850 
# 
# From -- ./inp_files/12792.got.cif
#   From: 2010.03.12/outbox.cif.g09.slc.cpg/sg51_7_cif.got.tgz:12792.got - 2010.04.16 13:43:02.
