data_PCOD8212612
_publ_section_title
;
Structure prediction by ZEFSAII (Michael W. Deem and Ramdas Pophale) SiO2 
 PCOD8212612
Probable space group: P M M A
;
_chemical_formula_sum "Si O2"
_cell_formula_units_Z 64
_cell_length_a 23.102605
_cell_length_b 8.779192
_cell_length_c 15.994955
_cell_angle_alpha 90.000000
_cell_angle_beta 90.000000
_cell_angle_gamma 90.000000
_cell_volume 3244.132042
_symmetry_space_group_name_H-M "P M M A"
_symmetry_group_IT_number 51
_symmetry_cell_setting 'orthorhombic'
loop_
_space_group_symop_operation_xyz
x,y,z
1/2-x,-y,z
1/2+x,-y,-z
-x,y,-z
-x,-y,-z
1/2+x,y,-z
1/2-x,y,z
x,-y,z
loop_
_atom_site_type_symbol
_atom_site_label
_atom_site_fract_x
_atom_site_fract_y
_atom_site_fract_z
Si Si1 0.314708 0.826504 0.664375
Si Si2 0.965482 0.679256 0.106633
Si Si3 0.315512 0.169658 0.471706
Si Si4 0.494693 0.177933 0.404565
Si Si5 0.583589 0.180098 0.949950
Si Si6 0.683280 0.820313 0.824227
Si Si7 0.882656 0.323026 0.667381
Si Si8 0.578575 0.325174 0.286979
O O1 0.250000 0.805496 0.697757
O O2 0.318547 0.781114 0.567383
O O3 0.353292 0.710437 0.717826
O O4 0.335103 0.000000 0.677334
O O5 0.963801 0.500000 0.088647
O O6 0.948648 0.722123 0.199689
O O7 0.030474 0.739891 0.097201
O O8 0.918955 0.760341 0.045280
O O9 0.250000 0.166619 0.439618
O O10 0.349529 0.294299 0.419018
O O11 0.342647 0.000000 0.459001
O O12 0.500000 0.238029 0.500000
O O13 0.447001 0.260032 0.346757
O O14 0.555068 0.217239 0.360680
O O15 0.481560 0.000000 0.404350
O O16 0.644690 0.224660 0.905775
O O17 0.574085 0.000000 0.947775
O O18 0.750000 0.759480 0.833656
O O19 0.651861 0.754561 0.742807
O O20 0.684675 0.000000 0.813021
O O21 0.886778 0.500000 0.687586
O O22 0.566496 0.500000 0.308611
#
# Coordination Sequence:
#
# PCOD8212612 Si02
#       8
#     8   8   8   8   8   8   8   8
#     4   9  19  36  57  79 104 140 184 225 267 317
#     4  10  21  37  58  84 115 147 177 218 278 341
#     4   9  18  34  54  74 101 141 187 230 271 318
#     4  11  24  40  58  80 110 152 196 237 286 339
#     4  10  20  36  61  88 109 137 183 231 274 325
#     4  10  22  40  60  83 115 154 193 235 285 342
#     4  12  24  35  52  81 114 147 187 233 282 337
#     4  11  23  37  56  84 114 144 180 223 273 328
#
# _framework density 19.727927000000001
#
# number of rings (size 3 to 8) (size 9 to 14) (size 15 to 20)
#    0.000    1.750    0.000    6.000    0.000   11.750 
#    0.000    1.875    0.000    2.250    0.000    0.000 
#    0.000    0.000    0.000    0.000    0.000    0.000 
#
# Total GULP energy -793535.929861 kJ/mol
# GULP energy per Si atom -12398.998904 kJ/mol
# Density = 1.968303 g / cm^3
# Si number density = 19.727927 Si / 1000 Ang^3
#
#
#
# Elastic Constant Matrix: (Units=GPa)
#
#
# Indices 1 2 3 4 5 6 
#
# 1 108.5810 29.6023 45.8031 0.0000 0.0000 0.0000
# 2 29.6023 43.5367 34.7119 0.0000 0.0000 0.0000
# 3 45.8031 34.7119 90.7199 0.0000 0.0000 0.0000
# 4 0.0000 0.0000 0.0000 28.9304 0.0000 0.0000
# 5 0.0000 0.0000 0.0000 0.0000 33.3109 0.0000
# 6 0.0000 0.0000 0.0000 0.0000 0.0000 19.4914
#
#
#
# Elastic Compliance Matrix: (Units=1/GPa)
#
#
# Indices 1 2 3 4 5 6 
#
# 1 0.012402 -0.004950 -0.004367 0.000000 0.000000 0.000000
# 2 -0.004950 0.035028 -0.010903 0.000000 0.000000 0.000000
# 3 -0.004367 -0.010903 0.017400 0.000000 0.000000 0.000000
# 4 0.000000 0.000000 0.000000 0.034566 0.000000 0.000000
# 5 0.000000 0.000000 0.000000 0.000000 0.030020 0.000000
# 6 0.000000 0.000000 0.000000 0.000000 0.000000 0.051305
#
#
# Mechanical properties :
#
#
# Convention : Reuss Voigt Hill
#
# Bulk Modulus (GPa) = 41.00418 51.45246 46.22832
# Shear Modulus (GPa) = 21.80630 25.19457 23.50043
#
# Velocity S-wave (km/s) = 3.32829 3.57753 3.45516
# Velocity P-wave (km/s) = 5.96657 6.57287 6.27705
#
# Compressibility (1/GPa) = 0.02438776
#
# Stress axis : x y z
#
# Youngs Moduli (GPa) = 80.63506 28.54829 57.47172
#
# Poissons Ratio (x) = 0.14132 0.25099
# Poissons Ratio (y) = 0.39917 0.62664
# Poissons Ratio (z) = 0.35215 0.31128
#
# Static dielectric constant tensor:
#      x y z
#    x 3.848260 0.000000 0.000000 
#    y 0.000000 3.515460 0.000000 
#    z 0.000000 0.000000 3.585070 
# 
# 
# High freq. dielectric constant tensor:
#      x y z
#    x 1.776330 0.000000 0.000000 
#    y 0.000000 1.765610 0.000000 
#    z 0.000000 0.000000 1.762830 
# 
# From -- ./inp_files/26204.got.cif
#   From: 2010.03.12/outbox.cif.g09.slc.cpg/sg51_14_cif.got.tgz:26204.got - 2010.04.16 13:43:02.
