data_PCOD8212408
_publ_section_title
;
Structure prediction by ZEFSAII (Michael W. Deem and Ramdas Pophale) SiO2 
 PCOD8212408
Probable space group: P M M A
;
_chemical_formula_sum "Si O2"
_cell_formula_units_Z 48
_cell_length_a 8.774789
_cell_length_b 30.830102
_cell_length_c 9.260326
_cell_angle_alpha 90.000000
_cell_angle_beta 90.000000
_cell_angle_gamma 90.000000
_cell_volume 2505.174137
_symmetry_space_group_name_H-M "P M M A"
_symmetry_group_IT_number 51
_symmetry_cell_setting 'orthorhombic'
loop_
_space_group_symop_operation_xyz
x,y,z
1/2-x,-y,z
1/2+x,-y,-z
-x,y,-z
-x,-y,-z
1/2+x,y,-z
1/2-x,y,z
x,-y,z
loop_
_atom_site_type_symbol
_atom_site_label
_atom_site_fract_x
_atom_site_fract_y
_atom_site_fract_z
Si Si1 0.570270 0.092913 0.344015
Si Si2 0.571818 0.423150 0.841750
Si Si3 0.427749 0.000000 0.655169
Si Si4 0.929188 0.830586 0.150324
Si Si5 0.427069 0.661068 0.346674
Si Si6 0.068649 0.500000 0.659530
Si Si7 0.929667 0.267509 0.154204
O O1 0.500000 0.094668 0.500000
O O2 0.750000 0.098247 0.356663
O O3 0.501455 0.133831 0.258812
O O4 0.527539 0.045989 0.267726
O O5 0.750000 0.434956 0.852828
O O6 0.544874 0.377139 0.766979
O O7 0.486243 0.458059 0.744995
O O8 0.500000 0.422082 0.000000
O O9 0.500000 0.000000 0.500000
O O10 0.250000 0.000000 0.628224
O O11 0.750000 0.834814 0.137098
O O12 0.974749 0.781757 0.195710
O O13 0.000000 0.843197 0.000000
O O14 0.500000 0.648596 0.500000
O O15 0.250000 0.670077 0.371216
O O16 0.504295 0.703906 0.283167
O O17 0.250000 0.500000 0.647840
O O18 0.000000 0.500000 0.500000
O O19 0.750000 0.274421 0.142846
O O20 0.000000 0.280951 0.000000
#
# Coordination Sequence:
#
# PCOD8212408 Si02
#       7
#     8   8   4   8   8   4   8
#     4   9  17  30  48  71  97 127 167 211 258 310
#     4  11  24  42  64  90 120 155 194 233 277 329
#     4   8  14  26  45  66  92 126 162 206 255 306
#     4   9  19  34  51  73 102 136 172 212 260 315
#     4  11  24  40  60  86 116 149 185 229 278 326
#     4  12  25  42  65  92 124 158 194 238 285 330
#     4  10  20  36  57  79 106 141 181 223 269 324
#
# _framework density 19.160345
#
# number of rings (size 3 to 8) (size 9 to 14) (size 15 to 20)
#    0.000    2.000    0.000    3.500    0.000    7.333 
#    0.000    2.083    0.000    0.000    0.000    0.000 
#    0.000    0.000    0.000    0.000    0.000    0.000 
#
# Total GULP energy -594979.259882 kJ/mol
# GULP energy per Si atom -12395.401248 kJ/mol
# Density = 1.911673 g / cm^3
# Si number density = 19.160345 Si / 1000 Ang^3
#
#
#
# Elastic Constant Matrix: (Units=GPa)
#
#
# Indices 1 2 3 4 5 6 
#
# 1 81.9028 51.0855 54.5318 0.0000 0.0000 0.0000
# 2 51.0855 130.4933 69.4565 0.0000 0.0000 0.0000
# 3 54.5318 69.4565 124.2917 0.0000 0.0000 0.0000
# 4 0.0000 0.0000 0.0000 42.9490 0.0000 0.0000
# 5 0.0000 0.0000 0.0000 0.0000 34.3733 0.0000
# 6 0.0000 0.0000 0.0000 0.0000 0.0000 25.8016
#
#
#
# Elastic Compliance Matrix: (Units=1/GPa)
#
#
# Indices 1 2 3 4 5 6 
#
# 1 0.018746 -0.004215 -0.005870 0.000000 0.000000 0.000000
# 2 -0.004215 0.011855 -0.004776 0.000000 0.000000 0.000000
# 3 -0.005870 -0.004776 0.013290 0.000000 0.000000 0.000000
# 4 0.000000 0.000000 0.000000 0.023283 0.000000 0.000000
# 5 0.000000 0.000000 0.000000 0.000000 0.029092 0.000000
# 6 0.000000 0.000000 0.000000 0.000000 0.000000 0.038757
#
#
# Mechanical properties :
#
#
# Convention : Reuss Voigt Hill
#
# Bulk Modulus (GPa) = 70.56574 76.31503 73.44039
# Shear Modulus (GPa) = 29.50412 31.39905 30.45158
#
# Velocity S-wave (km/s) = 3.92835 4.05254 3.99093
# Velocity P-wave (km/s) = 7.58188 7.86216 7.72329
#
# Compressibility (1/GPa) = 0.01417118
#
# Stress axis : x y z
#
# Youngs Moduli (GPa) = 53.34336 84.35176 75.24712
#
# Poissons Ratio (x) = 0.35552 0.44167
# Poissons Ratio (y) = 0.22483 0.35936
# Poissons Ratio (z) = 0.31310 0.40284
#
# Static dielectric constant tensor:
#      x y z
#    x 3.578100 0.000000 0.000000 
#    y 0.000000 4.123610 0.000000 
#    z 0.000000 0.000000 3.388340 
# 
# 
# High freq. dielectric constant tensor:
#      x y z
#    x 1.751280 0.000000 0.000000 
#    y 0.000000 1.769460 0.000000 
#    z 0.000000 0.000000 1.732490 
# 
# From -- ./inp_files/6134.got.cif
#   From: 2010.03.12/outbox.cif.g09.slc.cpg/sg51_4_cif.got.tgz:6134.got - 2010.04.16 13:43:02.
