data_PCOD8212620
_publ_section_title
;
Structure prediction by ZEFSAII (Michael W. Deem and Ramdas Pophale) SiO2 
 PCOD8212620
Probable space group: P M M A
;
_chemical_formula_sum "Si O2"
_cell_formula_units_Z 48
_cell_length_a 14.472507
_cell_length_b 17.411841
_cell_length_c 8.968300
_cell_angle_alpha 90.000000
_cell_angle_beta 90.000000
_cell_angle_gamma 90.000000
_cell_volume 2259.948739
_symmetry_space_group_name_H-M "P M M A"
_symmetry_group_IT_number 51
_symmetry_cell_setting 'orthorhombic'
loop_
_space_group_symop_operation_xyz
x,y,z
1/2-x,-y,z
1/2+x,-y,-z
-x,y,-z
-x,-y,-z
1/2+x,y,-z
1/2-x,y,z
x,-y,z
loop_
_atom_site_type_symbol
_atom_site_label
_atom_site_fract_x
_atom_site_fract_y
_atom_site_fract_z
Si Si1 0.850256 0.691733 0.679549
Si Si2 0.601674 0.416782 0.436201
Si Si3 0.973902 0.913334 0.335214
Si Si4 0.971458 0.353983 0.156585
Si Si5 0.852279 0.854909 0.800026
Si Si6 0.143253 0.800937 0.862120
O O1 0.750000 0.676001 0.755090
O O2 0.846279 0.655919 0.511565
O O3 0.867812 0.782889 0.687215
O O4 0.929484 0.648918 0.766051
O O5 0.500000 0.418865 0.500000
O O6 0.650107 0.500000 0.465867
O O7 0.596983 0.405253 0.256927
O O8 0.895446 0.860717 0.259920
O O9 0.000000 0.882867 0.500000
O O10 0.068218 0.915303 0.238432
O O11 0.934748 0.000000 0.342496
O O12 0.922985 0.272254 0.136732
O O13 0.000000 0.392418 0.000000
O O14 0.750000 0.890079 0.772842
O O15 0.863337 0.833704 0.972253
O O16 0.250000 0.781466 0.822063
#
# Coordination Sequence:
#
# PCOD8212620 Si02
#       6
#     8   8   8   8   8   8
#     4  10  20  36  61  89 120 159 204 255 306 364
#     4   9  21  38  57  86 122 162 203 244 300 366
#     4  11  25  42  62  91 126 161 199 249 311 371
#     4  11  20  36  62  91 125 162 206 261 309 363
#     4  10  21  39  63  92 121 158 210 256 304 367
#     4  11  23  40  63  91 122 161 209 257 308 363
#
# _framework density 21.239419000000002
#
# number of rings (size 3 to 8) (size 9 to 14) (size 15 to 20)
#    0.000    1.667    3.333    0.500    2.333    4.000 
#    0.000    3.333    0.000    0.000    0.000    0.000 
#    0.000    0.000    0.000    0.000    0.000    0.000 
#
# Total GULP energy -594692.492862 kJ/mol
# GULP energy per Si atom -12389.426935 kJ/mol
# Density = 2.119108 g / cm^3
# Si number density = 21.239419 Si / 1000 Ang^3
#
#
#
# Elastic Constant Matrix: (Units=GPa)
#
#
# Indices 1 2 3 4 5 6 
#
# 1 101.9372 5.4226 26.5410 0.0000 0.0000 0.0000
# 2 5.4226 52.9337 31.9749 0.0000 0.0000 0.0000
# 3 26.5410 31.9749 120.9595 0.0000 0.0000 0.0000
# 4 0.0000 0.0000 0.0000 20.7681 0.0000 0.0000
# 5 0.0000 0.0000 0.0000 0.0000 24.4278 0.0000
# 6 0.0000 0.0000 0.0000 0.0000 0.0000 165.9910
#
#
#
# Elastic Compliance Matrix: (Units=1/GPa)
#
#
# Indices 1 2 3 4 5 6 
#
# 1 0.010411 0.000373 -0.002383 0.000000 0.000000 0.000000
# 2 0.000373 0.022495 -0.006028 0.000000 0.000000 0.000000
# 3 -0.002383 -0.006028 0.010384 0.000000 0.000000 0.000000
# 4 0.000000 0.000000 0.000000 0.048151 0.000000 0.000000
# 5 0.000000 0.000000 0.000000 0.000000 0.040937 0.000000
# 6 0.000000 0.000000 0.000000 0.000000 0.000000 0.006024
#
#
# Mechanical properties :
#
#
# Convention : Reuss Voigt Hill
#
# Bulk Modulus (GPa) = 36.74767 44.85637 40.80202
# Shear Modulus (GPa) = 30.57206 56.36351 43.46779
#
# Velocity S-wave (km/s) = 3.79806 5.15702 4.52880
# Velocity P-wave (km/s) = 6.04755 7.52496 6.82634
#
# Compressibility (1/GPa) = 0.02721261
#
# Stress axis : x y z
#
# Youngs Moduli (GPa) = 96.05650 44.45492 96.30579
#
# Poissons Ratio (x) = -0.01658 0.22948
# Poissons Ratio (y) = -0.03582 0.58055
# Poissons Ratio (z) = 0.22889 0.26798
#
# Static dielectric constant tensor:
#      x y z
#    x 4.034640 0.000000 0.000000 
#    y 0.000000 3.797400 0.000000 
#    z 0.000000 0.000000 4.198350 
# 
# 
# High freq. dielectric constant tensor:
#      x y z
#    x 1.839710 0.000000 0.000000 
#    y 0.000000 1.807600 0.000000 
#    z 0.000000 0.000000 1.835230 
# 
# From -- ./inp_files/8282.got.cif
#   From: 2010.03.12/outbox.cif.g09.slc.cpg/sg51_5_cif.got.tgz:8282.got - 2010.04.16 13:43:02.
