data_PCOD8212911
_publ_section_title
;
Structure prediction by ZEFSAII (Michael W. Deem and Ramdas Pophale) SiO2 
 PCOD8212911
Probable space group: P M M A
;
_chemical_formula_sum "Si O2"
_cell_formula_units_Z 48
_cell_length_a 8.074434
_cell_length_b 28.756827
_cell_length_c 10.014680
_cell_angle_alpha 90.000000
_cell_angle_beta 90.000000
_cell_angle_gamma 90.000000
_cell_volume 2325.359641
_symmetry_space_group_name_H-M "P M M A"
_symmetry_group_IT_number 51
_symmetry_cell_setting 'orthorhombic'
loop_
_space_group_symop_operation_xyz
x,y,z
1/2-x,-y,z
1/2+x,-y,-z
-x,y,-z
-x,-y,-z
1/2+x,y,-z
1/2-x,y,z
x,-y,z
loop_
_atom_site_type_symbol
_atom_site_label
_atom_site_fract_x
_atom_site_fract_y
_atom_site_fract_z
Si Si1 0.445278 0.876183 0.857062
Si Si2 0.446008 0.771057 0.853954
Si Si3 0.940368 0.696696 0.649624
Si Si4 0.250000 0.445249 0.222539
Si Si5 0.054046 0.051896 0.644622
Si Si6 0.250000 0.554630 0.531106
Si Si7 0.570050 0.398263 0.250628
O O1 0.250000 0.875648 0.845775
O O2 0.511686 0.823824 0.835525
O O3 0.522997 0.911435 0.749008
O O4 0.500000 0.895497 0.000000
O O5 0.250000 0.766744 0.837963
O O6 0.535047 0.742468 0.737833
O O7 0.500000 0.752436 0.000000
O O8 0.750000 0.681931 0.645127
O O9 0.000000 0.706763 0.500000
O O10 0.040886 0.655708 0.720912
O O11 0.250000 0.500000 0.193227
O O12 0.250000 0.430562 0.377714
O O13 0.419704 0.421877 0.165202
O O14 0.250000 0.050979 0.655795
O O15 0.000000 0.069602 0.500000
O O16 0.982681 0.000000 0.672141
O O17 0.250000 0.500000 0.547625
O O18 0.086808 0.574737 0.606912
O O19 0.750000 0.402779 0.174409
#
# Coordination Sequence:
#
# PCOD8212911 Si02
#       7
#     8   8   8   4   8   4   8
#     4   9  19  35  55  79 108 141 181 229 281 332
#     4  10  21  39  59  81 109 144 185 234 286 341
#     4  12  23  37  56  81 111 147 186 231 287 345
#     4  11  18  28  44  66  99 143 185 223 274 339
#     4   9  18  33  52  77 111 149 187 229 275 328
#     4   9  18  28  42  64  97 139 179 217 268 329
#     4  10  21  31  45  69 104 142 182 229 280 337
#
# _framework density 20.641970000000001
#
# number of rings (size 3 to 8) (size 9 to 14) (size 15 to 20)
#    0.500    1.500    0.833    4.000    0.000    3.667 
#    0.000    1.667    0.000    0.000    0.000    0.000 
#    0.000    4.000    0.000    0.000    0.000    0.000 
#
# Total GULP energy -595022.373547 kJ/mol
# GULP energy per Si atom -12396.299449 kJ/mol
# Density = 2.059499 g / cm^3
# Si number density = 20.641970 Si / 1000 Ang^3
#
#
#
# Elastic Constant Matrix: (Units=GPa)
#
#
# Indices 1 2 3 4 5 6 
#
# 1 103.6181 27.2134 19.5815 0.0000 0.0000 0.0000
# 2 27.2134 117.6540 61.7572 0.0000 0.0000 0.0000
# 3 19.5815 61.7572 75.7927 0.0000 0.0000 0.0000
# 4 0.0000 0.0000 0.0000 -0.7790 0.0000 0.0000
# 5 0.0000 0.0000 0.0000 0.0000 20.2454 0.0000
# 6 0.0000 0.0000 0.0000 0.0000 0.0000 21.1950
#
#
#
# Elastic Compliance Matrix: (Units=1/GPa)
#
#
# Indices 1 2 3 4 5 6 
#
# 1 0.010344 -0.001729 -0.001263 0.000000 0.000000 0.000000
# 2 -0.001729 0.015141 -0.011890 0.000000 0.000000 0.000000
# 3 -0.001263 -0.011890 0.023208 0.000000 0.000000 0.000000
# 4 0.000000 0.000000 0.000000 -1.283727 0.000000 0.000000
# 5 0.000000 0.000000 0.000000 0.000000 0.049394 0.000000
# 6 0.000000 0.000000 0.000000 0.000000 0.000000 0.047181
#
#
# Mechanical properties :
#
#
# Convention : Reuss Voigt Hill
#
# Bulk Modulus (GPa) = 52.83320 57.12987 54.98154
# Shear Modulus (GPa) = -4.53562 20.69980 8.08209
#
# Velocity S-wave (km/s) = -1.48393 3.17014 1.98088
# Velocity P-wave (km/s) = 4.76598 6.41376 5.65026
#
# Compressibility (1/GPa) = 0.01892749
#
# Stress axis : x y z
#
# Youngs Moduli (GPa) = 96.67674 66.04725 43.08772
#
# Poissons Ratio (x) = 0.11423 0.05443
# Poissons Ratio (y) = 0.16720 0.51232
# Poissons Ratio (z) = 0.12212 0.78531
#
# Static dielectric constant tensor:
#      x y z
#    x 3.822450 0.000000 0.000000 
#    y 0.000000 3.888900 0.000000 
#    z 0.000000 0.000000 3.469160 
# 
# 
# High freq. dielectric constant tensor:
#      x y z
#    x 1.817620 0.000000 0.000000 
#    y 0.000000 1.810920 0.000000 
#    z 0.000000 0.000000 1.774230 
# 
# From -- ./inp_files/6103.got.cif
#   From: 2010.03.12/outbox.cif.g09.slc.cpg/sg51_4_cif.got.tgz:6103.got - 2010.04.16 13:43:02.
