data_PCOD8212015
_publ_section_title
;
Structure prediction by ZEFSAII (Michael W. Deem and Ramdas Pophale) SiO2 
 PCOD8212015
Probable space group: P M M A
;
_chemical_formula_sum "Si O2"
_cell_formula_units_Z 48
_cell_length_a 14.637870
_cell_length_b 8.547620
_cell_length_c 20.210835
_cell_angle_alpha 90.000000
_cell_angle_beta 90.000000
_cell_angle_gamma 90.000000
_cell_volume 2528.758461
_symmetry_space_group_name_H-M "P M M A"
_symmetry_group_IT_number 51
_symmetry_cell_setting 'orthorhombic'
loop_
_space_group_symop_operation_xyz
x,y,z
1/2-x,-y,z
1/2+x,-y,-z
-x,y,-z
-x,-y,-z
1/2+x,y,-z
1/2-x,y,z
x,-y,z
loop_
_atom_site_type_symbol
_atom_site_label
_atom_site_fract_x
_atom_site_fract_y
_atom_site_fract_z
Si Si1 0.750000 0.673296 0.081677
Si Si2 0.948676 0.186120 0.206192
Si Si3 0.439194 0.816007 0.560775
Si Si4 0.250000 0.315343 0.521447
Si Si5 0.750000 0.176549 0.213733
Si Si6 0.250000 0.314802 0.372429
Si Si7 0.944392 0.684332 0.677700
Si Si8 0.447114 0.321079 0.938214
O O1 0.750000 0.500000 0.116903
O O2 0.750000 0.813133 0.134385
O O3 0.841327 0.688559 0.038523
O O4 0.848918 0.249930 0.234199
O O5 0.964619 0.229014 0.129728
O O6 0.027892 0.269298 0.248033
O O7 0.953875 0.000000 0.213871
O O8 0.500000 0.750250 0.500000
O O9 0.339127 0.741072 0.560339
O O10 0.487398 0.772258 0.628779
O O11 0.427508 0.000000 0.555209
O O12 0.250000 0.500000 0.519515
O O13 0.250000 0.245732 0.446897
O O14 0.750000 0.000000 0.238338
O O15 0.250000 0.500000 0.375784
O O16 0.340735 0.256146 0.334534
O O17 0.952373 0.500000 0.666159
O O18 0.478838 0.500000 0.927149
O O19 0.500000 0.243848 0.000000
#
# Coordination Sequence:
#
# PCOD8212015 Si02
#       8
#     4   8   8   4   4   4   8   8
#     4   8  14  26  46  72  98 129 172 215 258 313
#     4  10  20  35  54  80 111 145 182 227 281 334
#     4  11  23  38  57  85 116 145 180 228 284 335
#     4  11  21  38  62  86 112 147 192 235 276 326
#     4   8  16  31  51  71 101 139 172 210 265 326
#     4   9  20  37  59  81 105 143 190 234 273 323
#     4  11  22  39  60  82 109 146 190 233 278 331
#     4   9  17  31  52  77 105 139 180 225 272 325
#
# _framework density 18.981646999999999
#
# number of rings (size 3 to 8) (size 9 to 14) (size 15 to 20)
#    0.000    2.167    1.667    1.750    0.000    2.333 
#    0.000    5.000    0.000    3.000    0.000    0.000 
#    0.000    0.000    0.000    0.000    0.000    0.000 
#
# Total GULP energy -594843.719763 kJ/mol
# GULP energy per Si atom -12392.577495 kJ/mol
# Density = 1.893844 g / cm^3
# Si number density = 18.981647 Si / 1000 Ang^3
#
#
#
# Elastic Constant Matrix: (Units=GPa)
#
#
# Indices 1 2 3 4 5 6 
#
# 1 158.8513 25.0316 63.4864 0.0000 0.0000 0.0000
# 2 25.0316 43.3218 11.1750 0.0000 0.0000 0.0000
# 3 63.4864 11.1750 90.1072 0.0000 0.0000 0.0000
# 4 0.0000 0.0000 0.0000 25.1677 0.0000 0.0000
# 5 0.0000 0.0000 0.0000 0.0000 33.2640 0.0000
# 6 0.0000 0.0000 0.0000 0.0000 0.0000 20.4190
#
#
#
# Elastic Compliance Matrix: (Units=1/GPa)
#
#
# Indices 1 2 3 4 5 6 
#
# 1 0.009337 -0.003820 -0.006105 0.000000 0.000000 0.000000
# 2 -0.003820 0.025409 -0.000460 0.000000 0.000000 0.000000
# 3 -0.006105 -0.000460 0.015456 0.000000 0.000000 0.000000
# 4 0.000000 0.000000 0.000000 0.039733 0.000000 0.000000
# 5 0.000000 0.000000 0.000000 0.000000 0.030063 0.000000
# 6 0.000000 0.000000 0.000000 0.000000 0.000000 0.048974
#
#
# Mechanical properties :
#
#
# Convention : Reuss Voigt Hill
#
# Bulk Modulus (GPa) = 33.97557 54.62957 44.30257
# Shear Modulus (GPa) = 25.05609 28.60929 26.83269
#
# Velocity S-wave (km/s) = 3.63715 3.88649 3.76388
# Velocity P-wave (km/s) = 5.96460 6.99874 6.50226
#
# Compressibility (1/GPa) = 0.02943291
#
# Stress axis : x y z
#
# Youngs Moduli (GPa) = 107.10078 39.35619 64.69944
#
# Poissons Ratio (x) = 0.15035 0.39497
# Poissons Ratio (y) = 0.40915 0.02974
# Poissons Ratio (z) = 0.65382 0.01809
#
# Static dielectric constant tensor:
#      x y z
#    x 3.888600 0.000000 0.000000 
#    y 0.000000 3.353950 0.000000 
#    z 0.000000 0.000000 3.279220 
# 
# 
# High freq. dielectric constant tensor:
#      x y z
#    x 1.750870 0.000000 0.000000 
#    y 0.000000 1.728290 0.000000 
#    z 0.000000 0.000000 1.713440 
# 
# From -- ./inp_files/29711.got.cif
#   From: 2010.03.12/outbox.cif.g09.slc.cpg/sg51_15_cif.got.tgz:29711.got - 2010.04.16 13:43:02.
