data_PCOD8212236
_publ_section_title
;
Structure prediction by ZEFSAII (Michael W. Deem and Ramdas Pophale) SiO2 
 PCOD8212236
Probable space group: P M M A
;
_chemical_formula_sum "Si O2"
_cell_formula_units_Z 48
_cell_length_a 30.191230
_cell_length_b 8.923462
_cell_length_c 9.337972
_cell_angle_alpha 90.000000
_cell_angle_beta 90.000000
_cell_angle_gamma 90.000000
_cell_volume 2515.745779
_symmetry_space_group_name_H-M "P M M A"
_symmetry_group_IT_number 51
_symmetry_cell_setting 'orthorhombic'
loop_
_space_group_symop_operation_xyz
x,y,z
1/2-x,-y,z
1/2+x,-y,-z
-x,y,-z
-x,-y,-z
1/2+x,y,-z
1/2-x,y,z
x,-y,z
loop_
_atom_site_type_symbol
_atom_site_label
_atom_site_fract_x
_atom_site_fract_y
_atom_site_fract_z
Si Si1 0.321955 0.840910 0.506397
Si Si2 0.394588 0.166789 0.742304
Si Si3 0.849280 0.321476 0.989616
Si Si4 0.250000 0.330198 0.648684
Si Si5 0.448071 0.327208 0.517184
Si Si6 0.889175 0.826575 0.720974
Si Si7 0.750000 0.321997 0.037961
O O1 0.363604 0.854102 0.607404
O O2 0.292036 0.703895 0.552138
O O3 0.340450 0.811678 0.348512
O O4 0.295647 0.000000 0.510943
O O5 0.436209 0.254621 0.672636
O O6 0.408248 0.000000 0.799547
O O7 0.368526 0.261050 0.861105
O O8 0.852076 0.500000 0.990903
O O9 0.882834 0.257328 0.871331
O O10 0.797146 0.270022 0.967166
O O11 0.250000 0.500000 0.689514
O O12 0.250000 0.247693 0.802207
O O13 0.500000 0.309133 0.500000
O O14 0.432967 0.500000 0.519656
O O15 0.426063 0.250338 0.378148
O O16 0.902473 0.000000 0.745655
O O17 0.750000 0.500000 0.041904
#
# Coordination Sequence:
#
# PCOD8212236 Si02
#       7
#     8   8   8   4   8   8   4
#     4   9  19  34  51  74 106 143 183 229 278 330
#     4  10  20  35  57  84 113 149 189 229 280 338
#     4  11  21  37  58  83 118 156 196 239 285 336
#     4  11  19  30  51  78 106 140 189 239 278 327
#     4  10  21  39  64  91 115 144 185 233 288 347
#     4  10  22  39  57  82 115 149 187 231 287 344
#     4   9  20  34  51  80 114 152 195 237 282 331
#
# _framework density 19.079829
#
# number of rings (size 3 to 8) (size 9 to 14) (size 15 to 20)
#    0.000    2.000    1.667    3.250    0.000    5.333 
#    0.000    4.167    0.000    5.000    0.000    0.000 
#    0.000    0.000    0.000    0.000    0.000    0.000 
#
# Total GULP energy -594662.536551 kJ/mol
# GULP energy per Si atom -12388.802845 kJ/mol
# Density = 1.903640 g / cm^3
# Si number density = 19.079829 Si / 1000 Ang^3
#
#
#
# Elastic Constant Matrix: (Units=GPa)
#
#
# Indices 1 2 3 4 5 6 
#
# 1 85.4827 42.9940 30.0178 0.0000 0.0000 0.0000
# 2 42.9940 115.1422 33.5687 0.0000 0.0000 0.0000
# 3 30.0178 33.5687 73.9380 0.0000 0.0000 0.0000
# 4 0.0000 0.0000 0.0000 30.4559 0.0000 0.0000
# 5 0.0000 0.0000 0.0000 0.0000 21.5562 0.0000
# 6 0.0000 0.0000 0.0000 0.0000 0.0000 24.9695
#
#
#
# Elastic Compliance Matrix: (Units=1/GPa)
#
#
# Indices 1 2 3 4 5 6 
#
# 1 0.015465 -0.004546 -0.004215 0.000000 0.000000 0.000000
# 2 -0.004546 0.011346 -0.003306 0.000000 0.000000 0.000000
# 3 -0.004215 -0.003306 0.016737 0.000000 0.000000 0.000000
# 4 0.000000 0.000000 0.000000 0.032834 0.000000 0.000000
# 5 0.000000 0.000000 0.000000 0.000000 0.046390 0.000000
# 6 0.000000 0.000000 0.000000 0.000000 0.000000 0.040049
#
#
# Mechanical properties :
#
#
# Convention : Reuss Voigt Hill
#
# Bulk Modulus (GPa) = 51.50587 54.19155 52.84871
# Shear Modulus (GPa) = 25.84984 26.59513 26.22248
#
# Velocity S-wave (km/s) = 3.68479 3.73753 3.71125
# Velocity P-wave (km/s) = 6.71990 6.86219 6.79142
#
# Compressibility (1/GPa) = 0.01941526
#
# Stress axis : x y z
#
# Youngs Moduli (GPa) = 64.66400 88.13642 59.74874
#
# Poissons Ratio (x) = 0.40064 0.25182
# Poissons Ratio (y) = 0.29395 0.19751
# Poissons Ratio (z) = 0.27253 0.29136
#
# Static dielectric constant tensor:
#      x y z
#    x 3.660300 0.000000 0.000000 
#    y 0.000000 3.737330 0.000000 
#    z 0.000000 0.000000 3.423630 
# 
# 
# High freq. dielectric constant tensor:
#      x y z
#    x 1.726850 0.000000 0.000000 
#    y 0.000000 1.749200 0.000000 
#    z 0.000000 0.000000 1.736290 
# 
# From -- ./inp_files/12901.got.cif
#   From: 2010.03.12/outbox.cif.g09.slc.cpg/sg51_7_cif.got.tgz:12901.got - 2010.04.16 13:43:02.
