data_PCOD8212862
_publ_section_title
;
Structure prediction by ZEFSAII (Michael W. Deem and Ramdas Pophale) SiO2 
 PCOD8212862
Probable space group: P M M A
;
_chemical_formula_sum "Si O2"
_cell_formula_units_Z 40
_cell_length_a 14.128956
_cell_length_b 13.684212
_cell_length_c 10.009241
_cell_angle_alpha 90.000000
_cell_angle_beta 90.000000
_cell_angle_gamma 90.000000
_cell_volume 1935.222981
_symmetry_space_group_name_H-M "P M M A"
_symmetry_group_IT_number 51
_symmetry_cell_setting 'orthorhombic'
loop_
_space_group_symop_operation_xyz
x,y,z
1/2-x,-y,z
1/2+x,-y,-z
-x,y,-z
-x,-y,-z
1/2+x,y,-z
1/2-x,y,z
x,-y,z
loop_
_atom_site_type_symbol
_atom_site_label
_atom_site_fract_x
_atom_site_fract_y
_atom_site_fract_z
Si Si1 0.250000 0.883540 0.294642
Si Si2 0.532358 0.614265 0.787665
Si Si3 0.059388 0.891518 0.866935
Si Si4 0.250000 0.882481 0.987437
Si Si5 0.055253 0.206736 0.365987
Si Si6 0.854485 0.384622 0.047508
O O1 0.250000 0.847546 0.141233
O O2 0.341877 0.842484 0.370992
O O3 0.250000 0.000000 0.304931
O O4 0.542764 0.500000 0.753715
O O5 0.561723 0.675865 0.656041
O O6 0.424945 0.642153 0.831282
O O7 0.601779 0.648541 0.906485
O O8 0.005066 0.829731 0.758704
O O9 0.076320 0.000000 0.808114
O O10 0.158744 0.840901 0.908537
O O11 0.000000 0.899472 0.000000
O O12 0.250000 0.000000 0.986871
O O13 0.000000 0.180319 0.500000
O O14 0.750000 0.336287 0.066714
O O15 0.844733 0.500000 0.042923
#
# Coordination Sequence:
#
# PCOD8212862 Si02
#       6
#     4   8   8   4   8   8
#     4  11  24  45  70  94 127 166 209 272 333 382
#     4   9  20  38  59  90 130 169 211 264 319 374
#     4  10  20  38  64  93 123 159 209 265 321 378
#     4   9  18  35  65 100 123 154 206 258 322 388
#     4  12  27  43  62  96 131 172 221 258 315 394
#     4   8  15  31  59  93 124 162 212 264 322 372
#
# _framework density 20.669453000000001
#
# number of rings (size 3 to 8) (size 9 to 14) (size 15 to 20)
#    0.000    2.200    2.000    1.800    4.200    2.800 
#    3.600    1.000    0.000    0.000    0.000    0.000 
#    0.000    0.000    0.000    0.000    0.000    0.000 
#
# Total GULP energy -495922.348995 kJ/mol
# GULP energy per Si atom -12398.058725 kJ/mol
# Density = 2.062241 g / cm^3
# Si number density = 20.669453 Si / 1000 Ang^3
#
#
#
# Elastic Constant Matrix: (Units=GPa)
#
#
# Indices 1 2 3 4 5 6 
#
# 1 173.0334 47.9760 38.1162 0.0000 0.0000 0.0000
# 2 47.9760 68.7501 36.6869 0.0000 0.0000 0.0000
# 3 38.1162 36.6869 76.9099 0.0000 0.0000 0.0000
# 4 0.0000 0.0000 0.0000 38.5398 0.0000 0.0000
# 5 0.0000 0.0000 0.0000 0.0000 29.1507 0.0000
# 6 0.0000 0.0000 0.0000 0.0000 0.0000 32.5611
#
#
#
# Elastic Compliance Matrix: (Units=1/GPa)
#
#
# Indices 1 2 3 4 5 6 
#
# 1 0.007309 -0.004249 -0.001595 0.000000 0.000000 0.000000
# 2 -0.004249 0.021982 -0.008380 0.000000 0.000000 0.000000
# 3 -0.001595 -0.008380 0.017790 0.000000 0.000000 0.000000
# 4 0.000000 0.000000 0.000000 0.025947 0.000000 0.000000
# 5 0.000000 0.000000 0.000000 0.000000 0.034304 0.000000
# 6 0.000000 0.000000 0.000000 0.000000 0.000000 0.030711
#
#
# Mechanical properties :
#
#
# Convention : Reuss Voigt Hill
#
# Bulk Modulus (GPa) = 53.66950 62.69465 58.18208
# Shear Modulus (GPa) = 28.95124 33.11128 31.03126
#
# Velocity S-wave (km/s) = 3.74662 4.00677 3.87888
# Velocity P-wave (km/s) = 6.68866 7.19746 6.94772
#
# Compressibility (1/GPa) = 0.01863256
#
# Stress axis : x y z
#
# Youngs Moduli (GPa) = 136.82230 45.49107 56.21044
#
# Poissons Ratio (x) = 0.19329 0.08968
# Poissons Ratio (y) = 0.58135 0.47105
# Poissons Ratio (z) = 0.21829 0.38122
#
# Static dielectric constant tensor:
#      x y z
#    x 4.408780 0.000000 0.000000 
#    y 0.000000 3.880870 0.000000 
#    z 0.000000 0.000000 3.179330 
# 
# 
# High freq. dielectric constant tensor:
#      x y z
#    x 1.823430 0.000000 0.000000 
#    y 0.000000 1.826410 0.000000 
#    z 0.000000 0.000000 1.758300 
# 
# From -- ./inp_files/8013.got.cif
#   From: 2010.03.12/outbox.cif.g09.slc.cpg/sg51_5_cif.got.tgz:8013.got - 2010.04.16 13:43:02.
