data_PCOD8212185
_publ_section_title
;
Structure prediction by ZEFSAII (Michael W. Deem and Ramdas Pophale) SiO2 
 PCOD8212185
Probable space group: P M M A
;
_chemical_formula_sum "Si O2"
_cell_formula_units_Z 64
_cell_length_a 23.465865
_cell_length_b 8.954185
_cell_length_c 14.923287
_cell_angle_alpha 90.000000
_cell_angle_beta 90.000000
_cell_angle_gamma 90.000000
_cell_volume 3135.646687
_symmetry_space_group_name_H-M "P M M A"
_symmetry_group_IT_number 51
_symmetry_cell_setting 'orthorhombic'
loop_
_space_group_symop_operation_xyz
x,y,z
1/2-x,-y,z
1/2+x,-y,-z
-x,y,-z
-x,-y,-z
1/2+x,y,-z
1/2-x,y,z
x,-y,z
loop_
_atom_site_type_symbol
_atom_site_label
_atom_site_fract_x
_atom_site_fract_y
_atom_site_fract_z
Si Si1 0.187001 0.831966 0.285698
Si Si2 0.004856 0.173534 0.221744
Si Si3 0.375855 0.828124 0.807102
Si Si4 0.344005 0.668964 0.450623
Si Si5 0.474793 0.670084 0.407509
Si Si6 0.685983 0.323770 0.352791
Si Si7 0.387789 0.323725 0.145824
Si Si8 0.315994 0.176184 0.989241
O O1 0.250000 0.830231 0.242226
O O2 0.192705 0.778059 0.388096
O O3 0.146590 0.716756 0.235101
O O4 0.161827 0.000000 0.280589
O O5 0.942939 0.199505 0.177984
O O6 0.004750 0.233995 0.323186
O O7 0.048815 0.257558 0.156016
O O8 0.021151 0.000000 0.224662
O O9 0.355705 0.736932 0.722017
O O10 0.362802 0.000000 0.787693
O O11 0.340629 0.774096 0.893466
O O12 0.319968 0.500000 0.445094
O O13 0.407566 0.676408 0.414541
O O14 0.338694 0.728922 0.551645
O O15 0.500000 0.736561 0.500000
O O16 0.496577 0.500000 0.393936
O O17 0.750000 0.261222 0.339913
O O18 0.685535 0.500000 0.345890
O O19 0.392392 0.500000 0.135944
O O20 0.354483 0.257392 0.062022
O O21 0.250000 0.226646 0.996302
O O22 0.321952 0.000000 0.004524
#
# Coordination Sequence:
#
# PCOD8212185 Si02
#       8
#     8   8   8   8   8   8   8   8
#     4  11  23  38  58  86 120 158 199 246 300 358
#     4  11  23  40  62  90 125 163 207 256 306 365
#     4  10  23  42  65  92 122 162 207 255 311 365
#     4  10  20  35  56  84 119 162 207 250 300 361
#     4  10  20  35  57  85 119 163 211 256 304 359
#     4  10  21  37  59  89 125 165 208 256 310 366
#     4  12  25  41  63  91 124 160 200 249 307 368
#     4  10  22  43  69  94 122 158 202 252 307 369
#
# _framework density 20.410464000000001
#
# number of rings (size 3 to 8) (size 9 to 14) (size 15 to 20)
#    0.000    1.500    1.250    3.750    0.000    7.750 
#    0.000    2.500    0.000    0.000    0.000    0.000 
#    0.000    0.000    0.000    0.000    0.000    0.000 
#
# Total GULP energy -793765.305020 kJ/mol
# GULP energy per Si atom -12402.582891 kJ/mol
# Density = 2.036401 g / cm^3
# Si number density = 20.410464 Si / 1000 Ang^3
#
#
#
# Elastic Constant Matrix: (Units=GPa)
#
#
# Indices 1 2 3 4 5 6 
#
# 1 88.1565 38.3487 40.7614 0.0000 0.0000 0.0000
# 2 38.3487 74.4168 43.1284 0.0000 0.0000 0.0000
# 3 40.7614 43.1284 116.0275 0.0000 0.0000 0.0000
# 4 0.0000 0.0000 0.0000 36.2338 0.0000 0.0000
# 5 0.0000 0.0000 0.0000 0.0000 40.0951 0.0000
# 6 0.0000 0.0000 0.0000 0.0000 0.0000 14.2161
#
#
#
# Elastic Compliance Matrix: (Units=1/GPa)
#
#
# Indices 1 2 3 4 5 6 
#
# 1 0.015475 -0.006148 -0.003151 0.000000 0.000000 0.000000
# 2 -0.006148 0.019570 -0.005114 0.000000 0.000000 0.000000
# 3 -0.003151 -0.005114 0.011627 0.000000 0.000000 0.000000
# 4 0.000000 0.000000 0.000000 0.027599 0.000000 0.000000
# 5 0.000000 0.000000 0.000000 0.000000 0.024941 0.000000
# 6 0.000000 0.000000 0.000000 0.000000 0.000000 0.070343
#
#
# Mechanical properties :
#
#
# Convention : Reuss Voigt Hill
#
# Bulk Modulus (GPa) = 56.04074 58.11977 57.08026
# Shear Modulus (GPa) = 24.47020 28.53315 26.50167
#
# Velocity S-wave (km/s) = 3.46628 3.74300 3.60729
# Velocity P-wave (km/s) = 6.59822 6.87149 6.73624
#
# Compressibility (1/GPa) = 0.01784416
#
# Stress axis : x y z
#
# Youngs Moduli (GPa) = 64.62003 51.09768 86.00863
#
# Poissons Ratio (x) = 0.31417 0.27102
# Poissons Ratio (y) = 0.39731 0.43989
# Poissons Ratio (z) = 0.20362 0.26134
#
# Static dielectric constant tensor:
#      x y z
#    x 3.855280 0.000000 0.000000 
#    y 0.000000 3.622430 0.000000 
#    z 0.000000 0.000000 3.785100 
# 
# 
# High freq. dielectric constant tensor:
#      x y z
#    x 1.812410 0.000000 0.000000 
#    y 0.000000 1.787940 0.000000 
#    z 0.000000 0.000000 1.801130 
# 
# From -- ./inp_files/26301.got.cif
#   From: 2010.03.12/outbox.cif.g09.slc.cpg/sg51_14_cif.got.tgz:26301.got - 2010.04.16 13:43:02.
