data_PCOD8212156
_publ_section_title
;
Structure prediction by ZEFSAII (Michael W. Deem and Ramdas Pophale) SiO2 
 PCOD8212156
Probable space group: P M M A
;
_chemical_formula_sum "Si O2"
_cell_formula_units_Z 64
_cell_length_a 23.171183
_cell_length_b 8.767028
_cell_length_c 15.989825
_cell_angle_alpha 90.000000
_cell_angle_beta 90.000000
_cell_angle_gamma 90.000000
_cell_volume 3248.211588
_symmetry_space_group_name_H-M "P M M A"
_symmetry_group_IT_number 51
_symmetry_cell_setting 'orthorhombic'
loop_
_space_group_symop_operation_xyz
x,y,z
1/2-x,-y,z
1/2+x,-y,-z
-x,y,-z
-x,-y,-z
1/2+x,y,-z
1/2-x,y,z
x,-y,z
loop_
_atom_site_type_symbol
_atom_site_label
_atom_site_fract_x
_atom_site_fract_y
_atom_site_fract_z
Si Si1 0.314500 0.825997 0.666721
Si Si2 0.963895 0.819477 0.118945
Si Si3 0.315333 0.170411 0.473816
Si Si4 0.495028 0.178743 0.404214
Si Si5 0.587537 0.179365 0.947918
Si Si6 0.683502 0.818359 0.822324
Si Si7 0.882325 0.322549 0.665473
Si Si8 0.578325 0.324663 0.284668
O O1 0.250000 0.803575 0.700285
O O2 0.318120 0.781155 0.569710
O O3 0.353762 0.712021 0.720338
O O4 0.334394 0.000000 0.680349
O O5 0.949677 0.718824 0.197812
O O6 0.029105 0.769532 0.098151
O O7 0.959695 0.000000 0.137473
O O8 0.918990 0.771789 0.045039
O O9 0.250000 0.169945 0.441325
O O10 0.350473 0.294262 0.422065
O O11 0.341761 0.000000 0.461125
O O12 0.500000 0.236574 0.500000
O O13 0.446958 0.261565 0.347422
O O14 0.555057 0.220407 0.360447
O O15 0.482705 0.000000 0.401897
O O16 0.645155 0.243874 0.901454
O O17 0.591007 0.000000 0.943880
O O18 0.750000 0.757807 0.829052
O O19 0.652526 0.762450 0.738269
O O20 0.683951 0.000000 0.820142
O O21 0.884245 0.500000 0.686925
O O22 0.566376 0.500000 0.304336
#
# Coordination Sequence:
#
# PCOD8212156 Si02
#       8
#     8   8   8   8   8   8   8   8
#     4   9  19  37  59  79 101 137 185 229 267 311
#     4   9  17  34  60  83 107 142 184 229 275 329
#     4   9  18  34  55  76 100 137 187 234 271 314
#     4  11  24  41  60  80 107 148 194 237 282 331
#     4   8  16  33  58  84 104 133 185 238 277 320
#     4  10  20  35  56  81 112 151 194 239 286 340
#     4  12  24  35  51  79 114 148 184 228 280 338
#     4  12  24  36  54  84 118 146 176 217 271 332
#
# _framework density 19.703150000000001
#
# number of rings (size 3 to 8) (size 9 to 14) (size 15 to 20)
#    0.000    2.000    0.000    6.000    0.000    7.750 
#    0.000    3.750    0.000    2.250    0.000    0.000 
#    0.000    0.000    0.000    0.000    0.000    0.000 
#
# Total GULP energy -793409.414553 kJ/mol
# GULP energy per Si atom -12397.022102 kJ/mol
# Density = 1.965830 g / cm^3
# Si number density = 19.703150 Si / 1000 Ang^3
#
#
#
# Elastic Constant Matrix: (Units=GPa)
#
#
# Indices 1 2 3 4 5 6 
#
# 1 109.3725 26.3829 42.5797 0.0000 0.0000 0.0000
# 2 26.3829 45.4779 22.4658 0.0000 0.0000 0.0000
# 3 42.5797 22.4658 85.9235 0.0000 0.0000 0.0000
# 4 0.0000 0.0000 0.0000 4.9416 0.0000 0.0000
# 5 0.0000 0.0000 0.0000 0.0000 34.1246 0.0000
# 6 0.0000 0.0000 0.0000 0.0000 0.0000 16.2287
#
#
#
# Elastic Compliance Matrix: (Units=1/GPa)
#
#
# Indices 1 2 3 4 5 6 
#
# 1 0.012136 -0.004673 -0.004792 0.000000 0.000000 0.000000
# 2 -0.004673 0.027049 -0.004757 0.000000 0.000000 0.000000
# 3 -0.004792 -0.004757 0.015257 0.000000 0.000000 0.000000
# 4 0.000000 0.000000 0.000000 0.202363 0.000000 0.000000
# 5 0.000000 0.000000 0.000000 0.000000 0.029304 0.000000
# 6 0.000000 0.000000 0.000000 0.000000 0.000000 0.061619
#
#
# Mechanical properties :
#
#
# Convention : Reuss Voigt Hill
#
# Bulk Modulus (GPa) = 38.46405 47.07006 42.76706
# Shear Modulus (GPa) = 12.99245 21.01534 17.00389
#
# Velocity S-wave (km/s) = 2.57068 3.26942 2.94088
# Velocity P-wave (km/s) = 5.32685 6.18010 5.76927
#
# Compressibility (1/GPa) = 0.02599830
#
# Stress axis : x y z
#
# Youngs Moduli (GPa) = 82.39985 36.96932 65.54480
#
# Poissons Ratio (x) = 0.17276 0.31410
# Poissons Ratio (y) = 0.38506 0.31178
# Poissons Ratio (z) = 0.39487 0.17585
#
# Static dielectric constant tensor:
#      x y z
#    x 4.024470 0.000000 0.000000 
#    y 0.000000 3.258040 0.000000 
#    z 0.000000 0.000000 3.622340 
# 
# 
# High freq. dielectric constant tensor:
#      x y z
#    x 1.777980 0.000000 0.000000 
#    y 0.000000 1.740420 0.000000 
#    z 0.000000 0.000000 1.761880 
# 
# From -- ./inp_files/26205.got.cif
#   From: 2010.03.12/outbox.cif.g09.slc.cpg/sg51_14_cif.got.tgz:26205.got - 2010.04.16 13:43:02.
