data_PCOD8212656
_publ_section_title
;
Structure prediction by ZEFSAII (Michael W. Deem and Ramdas Pophale) SiO2 
 PCOD8212656
Probable space group: P M M A
;
_chemical_formula_sum "Si O2"
_cell_formula_units_Z 48
_cell_length_a 8.678800
_cell_length_b 30.714545
_cell_length_c 9.690289
_cell_angle_alpha 90.000000
_cell_angle_beta 90.000000
_cell_angle_gamma 90.000000
_cell_volume 2583.095697
_symmetry_space_group_name_H-M "P M M A"
_symmetry_group_IT_number 51
_symmetry_cell_setting 'orthorhombic'
loop_
_space_group_symop_operation_xyz
x,y,z
1/2-x,-y,z
1/2+x,-y,-z
-x,y,-z
-x,-y,-z
1/2+x,y,-z
1/2-x,y,z
x,-y,z
loop_
_atom_site_type_symbol
_atom_site_label
_atom_site_fract_x
_atom_site_fract_y
_atom_site_fract_z
Si Si1 0.932451 0.860210 0.150673
Si Si2 0.567319 0.618702 0.847340
Si Si3 0.067578 0.689147 0.647424
Si Si4 0.429037 0.449122 0.645671
Si Si5 0.568540 0.788111 0.355898
Si Si6 0.568640 0.954044 0.150557
O O1 0.750000 0.856279 0.140451
O O2 0.000297 0.821281 0.243193
O O3 0.981274 0.907599 0.218040
O O4 0.000000 0.854359 0.000000
O O5 0.750000 0.620319 0.855114
O O6 0.505335 0.660868 0.768295
O O7 0.514672 0.575177 0.769154
O O8 0.500000 0.618162 0.000000
O O9 0.250000 0.682419 0.644156
O O10 0.019593 0.738825 0.680330
O O11 0.000000 0.674360 0.500000
O O12 0.500000 0.434245 0.500000
O O13 0.250000 0.436393 0.645619
O O14 0.455435 0.500000 0.670503
O O15 0.500000 0.803134 0.500000
O O16 0.750000 0.792039 0.365729
O O17 0.750000 0.953802 0.135081
O O18 0.517978 0.000000 0.227050
O O19 0.500000 0.954855 0.000000
#
# Coordination Sequence:
#
# PCOD8212656 Si02
#       6
#     8   8   8   8   8   8
#     4   9  17  29  45  69  97 124 159 202 249 299
#     4  12  25  40  58  82 113 146 179 218 266 314
#     4  10  20  37  58  79 103 134 175 217 259 309
#     4  10  21  39  63  89 116 148 186 224 261 305
#     4   9  19  34  52  73  98 130 167 207 249 299
#     4   8  13  22  38  60  87 119 154 194 240 290
#
# _framework density 18.582355
#
# number of rings (size 3 to 8) (size 9 to 14) (size 15 to 20)
#    0.000    2.333    0.000    3.000    0.000    3.333 
#    0.000    1.667    0.000    0.500    0.000    0.000 
#    0.000    0.000    0.000    0.000    0.000    0.000 
#
# Total GULP energy -594808.702494 kJ/mol
# GULP energy per Si atom -12391.847969 kJ/mol
# Density = 1.854006 g / cm^3
# Si number density = 18.582355 Si / 1000 Ang^3
#
#
#
# Elastic Constant Matrix: (Units=GPa)
#
#
# Indices 1 2 3 4 5 6 
#
# 1 74.6995 40.5382 47.3744 0.0000 0.0000 0.0000
# 2 40.5382 137.6141 83.2186 0.0000 0.0000 0.0000
# 3 47.3744 83.2186 132.2408 0.0000 0.0000 0.0000
# 4 0.0000 0.0000 0.0000 16.1221 0.0000 0.0000
# 5 0.0000 0.0000 0.0000 0.0000 30.1520 0.0000
# 6 0.0000 0.0000 0.0000 0.0000 0.0000 22.9412
#
#
#
# Elastic Compliance Matrix: (Units=1/GPa)
#
#
# Indices 1 2 3 4 5 6 
#
# 1 0.017737 -0.002232 -0.004950 0.000000 0.000000 0.000000
# 2 -0.002232 0.012012 -0.006759 0.000000 0.000000 0.000000
# 3 -0.004950 -0.006759 0.013589 0.000000 0.000000 0.000000
# 4 0.000000 0.000000 0.000000 0.062027 0.000000 0.000000
# 5 0.000000 0.000000 0.000000 0.000000 0.033165 0.000000
# 6 0.000000 0.000000 0.000000 0.000000 0.000000 0.043590
#
#
# Mechanical properties :
#
#
# Convention : Reuss Voigt Hill
#
# Bulk Modulus (GPa) = 64.70026 76.31298 70.50662
# Shear Modulus (GPa) = 23.23923 25.40460 24.32192
#
# Velocity S-wave (km/s) = 3.54023 3.70149 3.62176
# Velocity P-wave (km/s) = 7.18364 7.70874 7.45082
#
# Compressibility (1/GPa) = 0.01545589
#
# Stress axis : x y z
#
# Youngs Moduli (GPa) = 56.37840 83.25211 73.58952
#
# Poissons Ratio (x) = 0.18580 0.36426
# Poissons Ratio (y) = 0.12582 0.49742
# Poissons Ratio (z) = 0.27906 0.56274
#
# Static dielectric constant tensor:
#      x y z
#    x 3.424820 0.000000 0.000000 
#    y 0.000000 4.124560 0.000000 
#    z 0.000000 0.000000 3.201090 
# 
# 
# High freq. dielectric constant tensor:
#      x y z
#    x 1.724600 0.000000 0.000000 
#    y 0.000000 1.748740 0.000000 
#    z 0.000000 0.000000 1.691290 
# 
# From -- ./inp_files/5981.got.cif
#   From: 2010.03.12/outbox.cif.g09.slc.cpg/sg51_3_cif.got.tgz:5981.got - 2010.04.16 13:43:02.
