data_PCOD8212306
_publ_section_title
;
Structure prediction by ZEFSAII (Michael W. Deem and Ramdas Pophale) SiO2 
 PCOD8212306
Probable space group: P M M A
;
_chemical_formula_sum "Si O2"
_cell_formula_units_Z 48
_cell_length_a 7.772376
_cell_length_b 9.055346
_cell_length_c 34.384447
_cell_angle_alpha 90.000000
_cell_angle_beta 90.000000
_cell_angle_gamma 90.000000
_cell_volume 2420.030811
_symmetry_space_group_name_H-M "P M M A"
_symmetry_group_IT_number 51
_symmetry_cell_setting 'orthorhombic'
loop_
_space_group_symop_operation_xyz
x,y,z
1/2-x,-y,z
1/2+x,-y,-z
-x,y,-z
-x,-y,-z
1/2+x,y,-z
1/2-x,y,z
x,-y,z
loop_
_atom_site_type_symbol
_atom_site_label
_atom_site_fract_x
_atom_site_fract_y
_atom_site_fract_z
Si Si1 0.250000 0.676020 0.753885
Si Si2 0.947725 0.340992 0.615189
Si Si3 0.451638 0.168931 0.957088
Si Si4 0.950414 0.165572 0.458892
Si Si5 0.750000 0.176464 0.163111
Si Si6 0.943033 0.324209 0.698828
Si Si7 0.054834 0.671299 0.117286
O O1 0.250000 0.500000 0.761295
O O2 0.250000 0.764696 0.793449
O O3 0.420944 0.728535 0.730984
O O4 0.750000 0.370310 0.623051
O O5 0.038821 0.500000 0.607143
O O6 0.012150 0.269115 0.656072
O O7 0.964786 0.240303 0.577833
O O8 0.250000 0.182640 0.949400
O O9 0.550237 0.273631 0.927101
O O10 0.513820 0.000000 0.951524
O O11 0.500000 0.224713 0.000000
O O12 0.750000 0.170508 0.452316
O O13 0.000000 0.243707 0.500000
O O14 0.024189 0.000000 0.460212
O O15 0.576950 0.233493 0.142653
O O16 0.750000 0.000000 0.161826
O O17 0.750000 0.263820 0.708797
O O18 0.939391 0.500000 0.697202
O O19 0.250000 0.691970 0.133091
O O20 0.000501 0.500000 0.119198
#
# Coordination Sequence:
#
# PCOD8212306 Si02
#       7
#     4   8   8   8   4   8   8
#     4  10  20  36  62  88 114 152 194 238 294 354
#     4   9  18  33  54  80 108 138 176 224 276 328
#     4  10  20  35  58  90 128 170 210 252 305 367
#     4  10  21  35  50  70  99 139 184 226 271 328
#     4  12  26  44  64  90 126 166 204 254 314 372
#     4   8  16  32  55  85 116 144 181 230 283 343
#     4  11  24  42  65  92 123 163 211 262 312 364
#
# _framework density 19.834458000000001
#
# number of rings (size 3 to 8) (size 9 to 14) (size 15 to 20)
#    0.000    2.167    0.833    3.250    1.167    4.667 
#    0.000    2.500    0.000    1.000    0.000    0.000 
#    0.000    0.000    0.000    0.000    0.000    0.000 
#
# Total GULP energy -594944.155593 kJ/mol
# GULP energy per Si atom -12394.669908 kJ/mol
# Density = 1.978931 g / cm^3
# Si number density = 19.834458 Si / 1000 Ang^3
#
#
#
# Elastic Constant Matrix: (Units=GPa)
#
#
# Indices 1 2 3 4 5 6 
#
# 1 93.6795 37.3617 55.4851 0.0000 0.0000 0.0000
# 2 37.3617 84.6621 59.4640 0.0000 0.0000 0.0000
# 3 55.4851 59.4640 166.7113 0.0000 0.0000 0.0000
# 4 0.0000 0.0000 0.0000 47.6418 0.0000 0.0000
# 5 0.0000 0.0000 0.0000 0.0000 31.9100 0.0000
# 6 0.0000 0.0000 0.0000 0.0000 0.0000 10.7855
#
#
#
# Elastic Compliance Matrix: (Units=1/GPa)
#
#
# Indices 1 2 3 4 5 6 
#
# 1 0.014215 -0.003936 -0.003327 0.000000 0.000000 0.000000
# 2 -0.003936 0.016850 -0.004700 0.000000 0.000000 0.000000
# 3 -0.003327 -0.004700 0.008782 0.000000 0.000000 0.000000
# 4 0.000000 0.000000 0.000000 0.020990 0.000000 0.000000
# 5 0.000000 0.000000 0.000000 0.000000 0.031338 0.000000
# 6 0.000000 0.000000 0.000000 0.000000 0.000000 0.092717
#
#
# Mechanical properties :
#
#
# Convention : Reuss Voigt Hill
#
# Bulk Modulus (GPa) = 62.81292 72.18606 67.49949
# Shear Modulus (GPa) = 23.35065 30.91692 27.13379
#
# Velocity S-wave (km/s) = 3.43487 3.95238 3.70268
# Velocity P-wave (km/s) = 6.88973 7.56979 7.23775
#
# Compressibility (1/GPa) = 0.01592029
#
# Stress axis : x y z
#
# Youngs Moduli (GPa) = 70.34725 59.34718 113.86700
#
# Poissons Ratio (x) = 0.23361 0.37884
# Poissons Ratio (y) = 0.27692 0.53518
# Poissons Ratio (z) = 0.23405 0.27894
#
# Static dielectric constant tensor:
#      x y z
#    x 4.610110 0.000000 0.000000 
#    y 0.000000 3.399910 0.000000 
#    z 0.000000 0.000000 4.073380 
# 
# 
# High freq. dielectric constant tensor:
#      x y z
#    x 1.781460 0.000000 0.000000 
#    y 0.000000 1.741440 0.000000 
#    z 0.000000 0.000000 1.782790 
# 
# From -- ./inp_files/37096.got.cif
#   From: 2010.03.12/outbox.cif.g09.slc.cpg/sg51_19_cif.got.tgz:37096.got - 2010.04.16 13:43:02.
