data_PCOD8212893
_publ_section_title
;
Structure prediction by ZEFSAII (Michael W. Deem and Ramdas Pophale) SiO2 
 PCOD8212893
Probable space group: P M M A
;
_chemical_formula_sum "Si O2"
_cell_formula_units_Z 56
_cell_length_a 20.574905
_cell_length_b 8.928363
_cell_length_c 15.066398
_cell_angle_alpha 90.000000
_cell_angle_beta 90.000000
_cell_angle_gamma 90.000000
_cell_volume 2767.700635
_symmetry_space_group_name_H-M "P M M A"
_symmetry_group_IT_number 51
_symmetry_cell_setting 'orthorhombic'
loop_
_space_group_symop_operation_xyz
x,y,z
1/2-x,-y,z
1/2+x,-y,-z
-x,y,-z
-x,-y,-z
1/2+x,y,-z
1/2-x,y,z
x,-y,z
loop_
_atom_site_type_symbol
_atom_site_label
_atom_site_fract_x
_atom_site_fract_y
_atom_site_fract_z
Si Si1 0.824686 0.322654 0.148598
Si Si2 0.124548 0.824275 0.488529
Si Si3 0.968581 0.828158 0.667238
Si Si4 0.599693 0.675662 0.325705
Si Si5 0.885399 0.165289 0.836946
Si Si6 0.927330 0.325446 0.002761
Si Si7 0.250000 0.163106 0.236103
Si Si8 0.750000 0.673463 0.589924
O O1 0.750000 0.260517 0.137133
O O2 0.822565 0.500000 0.138409
O O3 0.852005 0.278247 0.245723
O O4 0.876093 0.256518 0.075293
O O5 0.061365 0.783598 0.428697
O O6 0.115909 0.772749 0.588713
O O7 0.186727 0.742732 0.452130
O O8 0.136906 0.000000 0.485064
O O9 0.912779 0.804296 0.739301
O O10 0.025769 0.717466 0.698125
O O11 0.993658 0.000000 0.664496
O O12 0.605417 0.500000 0.346303
O O13 0.808870 0.174461 0.830888
O O14 0.907798 0.000000 0.870936
O O15 0.902728 0.296065 0.904249
O O16 0.932769 0.500000 0.022997
O O17 0.000000 0.253579 0.000000
O O18 0.250000 0.297714 0.305462
O O19 0.250000 0.000000 0.285909
O O20 0.750000 0.500000 0.569141
#
# Coordination Sequence:
#
# PCOD8212893 Si02
#       8
#     8   8   8   8   8   8   4   4
#     4   9  20  39  59  81 118 162 199 244 309 370
#     4  11  23  41  62  85 121 166 203 242 301 369
#     4  10  21  39  61  85 119 163 198 235 301 375
#     4  11  23  38  61  89 117 153 204 262 304 349
#     4  10  21  37  61  88 118 157 197 239 294 359
#     4  10  21  38  61  89 119 154 197 248 308 365
#     4  10  20  40  60  83 122 163 194 233 300 364
#     4  12  24  38  60  91 122 155 202 255 298 346
#
# _framework density 20.233402000000002
#
# number of rings (size 3 to 8) (size 9 to 14) (size 15 to 20)
#    0.000    1.714    1.429    2.786    2.000    5.429 
#    0.000    1.429    0.000    1.714    0.000    0.000 
#    0.000    0.000    0.000    0.000    0.000    0.000 
#
# Total GULP energy -694162.483160 kJ/mol
# GULP energy per Si atom -12395.758628 kJ/mol
# Density = 2.018735 g / cm^3
# Si number density = 20.233402 Si / 1000 Ang^3
#
#
#
# Elastic Constant Matrix: (Units=GPa)
#
#
# Indices 1 2 3 4 5 6 
#
# 1 153.1187 36.4176 54.7678 0.0000 0.0000 0.0000
# 2 36.4176 50.6790 23.1852 0.0000 0.0000 0.0000
# 3 54.7678 23.1852 116.4481 0.0000 0.0000 0.0000
# 4 0.0000 0.0000 0.0000 33.8158 0.0000 0.0000
# 5 0.0000 0.0000 0.0000 0.0000 27.0839 0.0000
# 6 0.0000 0.0000 0.0000 0.0000 0.0000 24.4714
#
#
#
# Elastic Compliance Matrix: (Units=1/GPa)
#
#
# Indices 1 2 3 4 5 6 
#
# 1 0.008832 -0.004892 -0.003180 0.000000 0.000000 0.000000
# 2 -0.004892 0.024419 -0.002561 0.000000 0.000000 0.000000
# 3 -0.003180 -0.002561 0.010593 0.000000 0.000000 0.000000
# 4 0.000000 0.000000 0.000000 0.029572 0.000000 0.000000
# 5 0.000000 0.000000 0.000000 0.000000 0.036922 0.000000
# 6 0.000000 0.000000 0.000000 0.000000 0.000000 0.040864
#
#
# Mechanical properties :
#
#
# Convention : Reuss Voigt Hill
#
# Bulk Modulus (GPa) = 44.29051 60.99857 52.64454
# Shear Modulus (GPa) = 27.77883 30.79922 29.28903
#
# Velocity S-wave (km/s) = 3.70931 3.90577 3.80881
# Velocity P-wave (km/s) = 6.34686 7.11006 6.73927
#
# Compressibility (1/GPa) = 0.02257820
#
# Stress axis : x y z
#
# Youngs Moduli (GPa) = 113.22915 40.95193 94.40224
#
# Poissons Ratio (x) = 0.20032 0.30018
# Poissons Ratio (y) = 0.55388 0.24179
# Poissons Ratio (z) = 0.36004 0.10489
#
# Static dielectric constant tensor:
#      x y z
#    x 3.946210 0.000000 0.000000 
#    y 0.000000 3.494680 0.000000 
#    z 0.000000 0.000000 3.669130 
# 
# 
# High freq. dielectric constant tensor:
#      x y z
#    x 1.808330 0.000000 0.000000 
#    y 0.000000 1.766290 0.000000 
#    z 0.000000 0.000000 1.793380 
# 
# From -- ./inp_files/25938.got.cif
#   From: 2010.03.12/outbox.cif.g09.slc.cpg/sg51_13_cif.got.tgz:25938.got - 2010.04.16 13:43:02.
