data_PCOD8212774
_publ_section_title
;
Structure prediction by ZEFSAII (Michael W. Deem and Ramdas Pophale) SiO2 
 PCOD8212774
Probable space group: P M M A
;
_chemical_formula_sum "Si O2"
_cell_formula_units_Z 64
_cell_length_a 22.794865
_cell_length_b 14.826053
_cell_length_c 9.385567
_cell_angle_alpha 90.000000
_cell_angle_beta 90.000000
_cell_angle_gamma 90.000000
_cell_volume 3171.926294
_symmetry_space_group_name_H-M "P M M A"
_symmetry_group_IT_number 51
_symmetry_cell_setting 'orthorhombic'
loop_
_space_group_symop_operation_xyz
x,y,z
1/2-x,-y,z
1/2+x,-y,-z
-x,y,-z
-x,-y,-z
1/2+x,y,-z
1/2-x,y,z
x,-y,z
loop_
_atom_site_type_symbol
_atom_site_label
_atom_site_fract_x
_atom_site_fract_y
_atom_site_fract_z
Si Si1 0.509850 0.105425 0.663921
Si Si2 0.915969 0.598176 0.832364
Si Si3 0.317313 0.773709 0.933412
Si Si4 0.025796 0.398759 0.643252
Si Si5 0.880220 0.101464 0.276753
Si Si6 0.879564 0.396673 0.143533
Si Si7 0.184812 0.100457 0.439363
Si Si8 0.878781 0.212250 0.778415
O O1 0.500000 0.133047 0.500000
O O2 0.448691 0.126034 0.745441
O O3 0.559044 0.165825 0.741029
O O4 0.527458 0.000000 0.675495
O O5 0.887335 0.500000 0.794002
O O6 0.880062 0.679197 0.757517
O O7 0.981126 0.602436 0.772945
O O8 0.920464 0.608896 0.002836
O O9 0.250000 0.788858 0.976715
O O10 0.335002 0.834648 0.801523
O O11 0.324782 0.669136 0.885740
O O12 0.360710 0.805634 0.058813
O O13 0.041215 0.500000 0.594438
O O14 0.085113 0.359207 0.716034
O O15 0.000000 0.348184 0.500000
O O16 0.865493 0.110201 0.443370
O O17 0.868541 0.000000 0.223734
O O18 0.858210 0.500000 0.167551
O O19 0.250000 0.117470 0.502180
O O20 0.172848 0.173783 0.318497
O O21 0.180967 0.000000 0.372599
#
# Coordination Sequence:
#
# PCOD8212774 Si02
#       8
#     8   8   8   8   8   8   8   8
#     4  10  20  38  63  92 123 150 190 243 301 369
#     4   9  19  34  52  79 118 158 192 233 289 357
#     4  11  25  41  57  84 120 156 203 253 294 347
#     4   9  17  30  51  82 115 143 181 236 291 344
#     4  10  22  40  61  85 118 157 192 234 296 363
#     4   9  19  37  59  80 110 155 199 240 293 354
#     4  10  20  37  62  88 114 153 204 247 290 356
#     4  11  22  36  60  89 120 154 196 248 304 350
#
# _framework density 20.177012999999999
#
# number of rings (size 3 to 8) (size 9 to 14) (size 15 to 20)
#    0.000    2.125    1.250    1.500    1.750    5.500 
#    0.000    1.250    0.000    1.125    0.000    0.000 
#    0.000    5.000    0.000    0.000    0.000    0.000 
#
# Total GULP energy -793037.611887 kJ/mol
# GULP energy per Si atom -12391.212686 kJ/mol
# Density = 2.013109 g / cm^3
# Si number density = 20.177013 Si / 1000 Ang^3
#
#
#
# Elastic Constant Matrix: (Units=GPa)
#
#
# Indices 1 2 3 4 5 6 
#
# 1 101.3267 47.4139 38.4673 0.0000 0.0000 0.0000
# 2 47.4139 116.2157 47.9175 0.0000 0.0000 0.0000
# 3 38.4673 47.9175 74.1739 0.0000 0.0000 0.0000
# 4 0.0000 0.0000 0.0000 18.0746 0.0000 0.0000
# 5 0.0000 0.0000 0.0000 0.0000 32.0839 0.0000
# 6 0.0000 0.0000 0.0000 0.0000 0.0000 25.6217
#
#
#
# Elastic Compliance Matrix: (Units=1/GPa)
#
#
# Indices 1 2 3 4 5 6 
#
# 1 0.013262 -0.003510 -0.004610 0.000000 0.000000 0.000000
# 2 -0.003510 0.012658 -0.006357 0.000000 0.000000 0.000000
# 3 -0.004610 -0.006357 0.019979 0.000000 0.000000 0.000000
# 4 0.000000 0.000000 0.000000 0.055326 0.000000 0.000000
# 5 0.000000 0.000000 0.000000 0.000000 0.031168 0.000000
# 6 0.000000 0.000000 0.000000 0.000000 0.000000 0.039029
#
#
# Mechanical properties :
#
#
# Convention : Reuss Voigt Hill
#
# Bulk Modulus (GPa) = 59.01452 62.14596 60.58024
# Shear Modulus (GPa) = 24.26896 25.68388 24.97642
#
# Velocity S-wave (km/s) = 3.47191 3.57168 3.52215
# Velocity P-wave (km/s) = 6.73677 6.91928 6.82864
#
# Compressibility (1/GPa) = 0.01694498
#
# Stress axis : x y z
#
# Youngs Moduli (GPa) = 75.40600 79.00404 50.05143
#
# Poissons Ratio (x) = 0.27727 0.23075
# Poissons Ratio (y) = 0.26464 0.31817
# Poissons Ratio (z) = 0.34765 0.50222
#
# Static dielectric constant tensor:
#      x y z
#    x 3.467270 0.000000 0.000000 
#    y 0.000000 3.838840 0.000000 
#    z 0.000000 0.000000 3.588350 
# 
# 
# High freq. dielectric constant tensor:
#      x y z
#    x 1.769150 0.000000 0.000000 
#    y 0.000000 1.790740 0.000000 
#    z 0.000000 0.000000 1.778810 
# 
# From -- ./inp_files/11867.got.cif
#   From: 2010.03.12/outbox.cif.g09.slc.cpg/sg51_6_cif.got.tgz:11867.got - 2010.04.16 13:43:02.
