data_PCOD8212132
_publ_section_title
;
Structure prediction by ZEFSAII (Michael W. Deem and Ramdas Pophale) SiO2 
 PCOD8212132
Probable space group: P M M A
;
_chemical_formula_sum "Si O2"
_cell_formula_units_Z 56
_cell_length_a 21.029399
_cell_length_b 9.105813
_cell_length_c 14.195672
_cell_angle_alpha 90.000000
_cell_angle_beta 90.000000
_cell_angle_gamma 90.000000
_cell_volume 2718.326034
_symmetry_space_group_name_H-M "P M M A"
_symmetry_group_IT_number 51
_symmetry_cell_setting 'orthorhombic'
loop_
_space_group_symop_operation_xyz
x,y,z
1/2-x,-y,z
1/2+x,-y,-z
-x,y,-z
-x,-y,-z
1/2+x,y,-z
1/2-x,y,z
x,-y,z
loop_
_atom_site_type_symbol
_atom_site_label
_atom_site_fract_x
_atom_site_fract_y
_atom_site_fract_z
Si Si1 0.871376 0.675222 0.701957
Si Si2 0.824692 0.827123 0.889415
Si Si3 0.991568 0.170867 0.609573
Si Si4 0.175711 0.661109 0.630024
Si Si5 0.932800 0.826529 0.036401
Si Si6 0.099668 0.829729 0.758104
Si Si7 0.820936 0.159871 0.540170
O O1 0.870740 0.500000 0.704889
O O2 0.855226 0.736500 0.804536
O O3 0.936439 0.734467 0.657721
O O4 0.817682 0.739622 0.632998
O O5 0.750000 0.785783 0.907809
O O6 0.869600 0.781967 0.977627
O O7 0.830286 0.000000 0.867335
O O8 0.000000 0.216521 0.500000
O O9 0.052368 0.206525 0.672791
O O10 0.974280 0.000000 0.618041
O O11 0.250000 0.645433 0.613971
O O12 0.144051 0.500000 0.629537
O O13 0.163157 0.741584 0.729652
O O14 0.143939 0.755381 0.544878
O O15 0.939576 0.000000 0.035534
O O16 0.925456 0.767877 0.142771
O O17 0.000000 0.758287 0.000000
O O18 0.116405 0.000000 0.767308
O O19 0.750000 0.127798 0.507760
O O20 0.854967 0.000000 0.556120
#
# Coordination Sequence:
#
# PCOD8212132 Si02
#       7
#     8   8   8   8   8   8   8
#     4  12  24  36  55  83 116 153 191 237 296 358
#     4  10  21  38  60  85 114 152 201 256 312 372
#     4  10  21  37  58  85 118 156 197 239 287 349
#     4  10  21  36  54  80 116 153 185 222 273 334
#     4   9  18  35  60  87 113 145 192 250 307 359
#     4  10  20  35  59  87 112 144 188 238 288 338
#     4  10  20  35  56  80 108 146 190 233 277 330
#
# _framework density 20.600914
#
# number of rings (size 3 to 8) (size 9 to 14) (size 15 to 20)
#    0.000    1.857    0.000    4.286    0.000    8.571 
#    0.000    2.143    0.000    1.714    0.000    0.000 
#    0.000    0.000    0.000    0.000    0.000    0.000 
#
# Total GULP energy -693933.966164 kJ/mol
# GULP energy per Si atom -12391.677967 kJ/mol
# Density = 2.055403 g / cm^3
# Si number density = 20.600914 Si / 1000 Ang^3
#
#
#
# Elastic Constant Matrix: (Units=GPa)
#
#
# Indices 1 2 3 4 5 6 
#
# 1 83.6644 36.5783 51.5304 0.0000 0.0000 0.0000
# 2 36.5783 107.0510 62.5908 0.0000 0.0000 0.0000
# 3 51.5304 62.5908 172.1987 0.0000 0.0000 0.0000
# 4 0.0000 0.0000 0.0000 12.8869 0.0000 0.0000
# 5 0.0000 0.0000 0.0000 0.0000 34.5892 0.0000
# 6 0.0000 0.0000 0.0000 0.0000 0.0000 19.4452
#
#
#
# Elastic Compliance Matrix: (Units=1/GPa)
#
#
# Indices 1 2 3 4 5 6 
#
# 1 0.015512 -0.003284 -0.003448 0.000000 0.000000 0.000000
# 2 -0.003284 0.012558 -0.003582 0.000000 0.000000 0.000000
# 3 -0.003448 -0.003582 0.008141 0.000000 0.000000 0.000000
# 4 0.000000 0.000000 0.000000 0.077598 0.000000 0.000000
# 5 0.000000 0.000000 0.000000 0.000000 0.028911 0.000000
# 6 0.000000 0.000000 0.000000 0.000000 0.000000 0.051426
#
#
# Mechanical properties :
#
#
# Convention : Reuss Voigt Hill
#
# Bulk Modulus (GPa) = 64.17427 73.81258 68.99342
# Shear Modulus (GPa) = 22.73052 27.53193 25.13122
#
# Velocity S-wave (km/s) = 3.32531 3.65970 3.49651
# Velocity P-wave (km/s) = 6.77956 7.33249 7.06144
#
# Compressibility (1/GPa) = 0.01558257
#
# Stress axis : x y z
#
# Youngs Moduli (GPa) = 64.46511 79.63268 122.83507
#
# Poissons Ratio (x) = 0.26153 0.42357
# Poissons Ratio (y) = 0.21172 0.43995
# Poissons Ratio (z) = 0.22229 0.28522
#
# Static dielectric constant tensor:
#      x y z
#    x 3.916650 0.000000 0.000000 
#    y 0.000000 3.770290 0.000000 
#    z 0.000000 0.000000 3.886850 
# 
# 
# High freq. dielectric constant tensor:
#      x y z
#    x 1.811570 0.000000 0.000000 
#    y 0.000000 1.785320 0.000000 
#    z 0.000000 0.000000 1.809350 
# 
# From -- ./inp_files/25625.got.cif
#   From: 2010.03.12/outbox.cif.g09.slc.cpg/sg51_13_cif.got.tgz:25625.got - 2010.04.16 13:43:02.
