data_PCOD8212340
_publ_section_title
;
Structure prediction by ZEFSAII (Michael W. Deem and Ramdas Pophale) SiO2 
 PCOD8212340
Probable space group: P M M A
;
_chemical_formula_sum "Si O2"
_cell_formula_units_Z 44
_cell_length_a 8.737877
_cell_length_b 28.253794
_cell_length_c 9.978296
_cell_angle_alpha 90.000000
_cell_angle_beta 90.000000
_cell_angle_gamma 90.000000
_cell_volume 2463.423524
_symmetry_space_group_name_H-M "P M M A"
_symmetry_group_IT_number 51
_symmetry_cell_setting 'orthorhombic'
loop_
_space_group_symop_operation_xyz
x,y,z
1/2-x,-y,z
1/2+x,-y,-z
-x,y,-z
-x,-y,-z
1/2+x,y,-z
1/2-x,y,z
x,-y,z
loop_
_atom_site_type_symbol
_atom_site_label
_atom_site_fract_x
_atom_site_fract_y
_atom_site_fract_z
Si Si1 0.570347 0.824373 0.861348
Si Si2 0.930966 0.102213 0.646275
Si Si3 0.431387 0.354750 0.648566
Si Si4 0.930749 0.284239 0.858635
Si Si5 0.571466 0.000000 0.643535
Si Si6 0.070948 0.551276 0.354221
O O1 0.750000 0.830596 0.872853
O O2 0.502592 0.857322 0.743611
O O3 0.525322 0.770242 0.831913
O O4 0.500000 0.842112 0.000000
O O5 0.750000 0.107280 0.632618
O O6 0.000000 0.109735 0.500000
O O7 0.976212 0.050325 0.711025
O O8 0.500000 0.349595 0.500000
O O9 0.250000 0.352984 0.641120
O O10 0.492398 0.312391 0.738369
O O11 0.486452 0.404534 0.717271
O O12 0.750000 0.292860 0.860222
O O13 0.000000 0.301383 0.000000
O O14 0.500000 0.000000 0.500000
O O15 0.750000 0.000000 0.622468
O O16 0.250000 0.562869 0.365144
O O17 0.044996 0.500000 0.281089
O O18 0.000000 0.547248 0.500000
#
# Coordination Sequence:
#
# PCOD8212340 Si02
#       6
#     8   8   8   8   4   8
#     4   9  19  34  51  70  95 126 161 199 241 290
#     4   9  17  30  48  72  97 125 160 198 240 285
#     4  11  21  33  51  76 104 133 166 207 249 290
#     4  10  20  36  54  72  96 129 167 205 248 301
#     4   8  14  26  45  66  94 126 156 192 235 284
#     4   9  16  27  45  70 100 132 164 200 243 290
#
# _framework density 17.861319999999999
#
# number of rings (size 3 to 8) (size 9 to 14) (size 15 to 20)
#    0.000    2.545    0.000    3.818    0.000    3.273 
#    0.000    2.273    0.000    0.545    0.000    0.000 
#    0.000    0.000    0.000    0.000    0.000    0.000 
#
# Total GULP energy -545156.553883 kJ/mol
# GULP energy per Si atom -12389.921679 kJ/mol
# Density = 1.782067 g / cm^3
# Si number density = 17.861320 Si / 1000 Ang^3
#
#
#
# Elastic Constant Matrix: (Units=GPa)
#
#
# Indices 1 2 3 4 5 6 
#
# 1 79.4945 49.2224 37.9402 0.0000 0.0000 0.0000
# 2 49.2224 139.0989 77.6369 0.0000 0.0000 0.0000
# 3 37.9402 77.6369 91.8570 0.0000 0.0000 0.0000
# 4 0.0000 0.0000 0.0000 6.4943 0.0000 0.0000
# 5 0.0000 0.0000 0.0000 0.0000 26.5511 0.0000
# 6 0.0000 0.0000 0.0000 0.0000 0.0000 20.0821
#
#
#
# Elastic Compliance Matrix: (Units=1/GPa)
#
#
# Indices 1 2 3 4 5 6 
#
# 1 0.016717 -0.003903 -0.003606 0.000000 0.000000 0.000000
# 2 -0.003903 0.014520 -0.010660 0.000000 0.000000 0.000000
# 3 -0.003606 -0.010660 0.021386 0.000000 0.000000 0.000000
# 4 0.000000 0.000000 0.000000 0.153981 0.000000 0.000000
# 5 0.000000 0.000000 0.000000 0.000000 0.037663 0.000000
# 6 0.000000 0.000000 0.000000 0.000000 0.000000 0.049796
#
#
# Mechanical properties :
#
#
# Convention : Reuss Voigt Hill
#
# Bulk Modulus (GPa) = 61.40728 71.11659 66.26193
# Shear Modulus (GPa) = 14.88846 20.33555 17.61201
#
# Velocity S-wave (km/s) = 2.89027 3.37786 3.14354
# Velocity P-wave (km/s) = 6.75225 7.42399 7.09608
#
# Compressibility (1/GPa) = 0.01628471
#
# Stress axis : x y z
#
# Youngs Moduli (GPa) = 59.81849 68.86944 46.75967
#
# Poissons Ratio (x) = 0.26880 0.16862
# Poissons Ratio (y) = 0.23347 0.49847
# Poissons Ratio (z) = 0.21571 0.73417
#
# Static dielectric constant tensor:
#      x y z
#    x 3.323690 0.000000 0.000000 
#    y 0.000000 4.205820 0.000000 
#    z 0.000000 0.000000 3.021180 
# 
# 
# High freq. dielectric constant tensor:
#      x y z
#    x 1.698390 0.000000 0.000000 
#    y 0.000000 1.714020 0.000000 
#    z 0.000000 0.000000 1.649020 
# 
# From -- ./inp_files/5758.got.cif
#   From: 2010.03.12/outbox.cif.g09.slc.cpg/sg51_3_cif.got.tgz:5758.got - 2010.04.16 13:43:02.
