data_PCOD8212526
_publ_section_title
;
Structure prediction by ZEFSAII (Michael W. Deem and Ramdas Pophale) SiO2 
 PCOD8212526
Probable space group: P M M A
;
_chemical_formula_sum "Si O2"
_cell_formula_units_Z 56
_cell_length_a 15.179387
_cell_length_b 9.125860
_cell_length_c 21.369855
_cell_angle_alpha 90.000000
_cell_angle_beta 90.000000
_cell_angle_gamma 90.000000
_cell_volume 2960.258323
_symmetry_space_group_name_H-M "P M M A"
_symmetry_group_IT_number 51
_symmetry_cell_setting 'orthorhombic'
loop_
_space_group_symop_operation_xyz
x,y,z
1/2-x,-y,z
1/2+x,-y,-z
-x,y,-z
-x,-y,-z
1/2+x,y,-z
1/2-x,y,z
x,-y,z
loop_
_atom_site_type_symbol
_atom_site_label
_atom_site_fract_x
_atom_site_fract_y
_atom_site_fract_z
Si Si1 0.503853 0.329637 0.851805
Si Si2 0.901631 0.173455 0.503241
Si Si3 0.650712 0.829763 0.637932
Si Si4 0.851283 0.171890 0.928180
Si Si5 0.002628 0.671601 0.707574
Si Si6 0.350126 0.329745 0.944556
Si Si7 0.848754 0.169269 0.368839
O O1 0.525567 0.500000 0.861247
O O2 0.587992 0.238608 0.874349
O O3 0.486422 0.290051 0.780134
O O4 0.415374 0.284315 0.888790
O O5 0.856160 0.231179 0.566718
O O6 0.850619 0.224466 0.440951
O O7 0.000000 0.237521 0.500000
O O8 0.902335 0.000000 0.505954
O O9 0.750000 0.806200 0.661813
O O10 0.587606 0.740860 0.683371
O O11 0.623421 0.000000 0.640539
O O12 0.750000 0.209907 0.912106
O O13 0.867275 0.000000 0.931822
O O14 0.878652 0.239694 0.994586
O O15 0.998854 0.500000 0.695203
O O16 0.086955 0.735017 0.672661
O O17 0.250000 0.291740 0.923999
O O18 0.359385 0.500000 0.961525
O O19 0.750000 0.189790 0.343155
O O20 0.878987 0.000000 0.365070
#
# Coordination Sequence:
#
# PCOD8212526 Si02
#       7
#     8   8   8   8   8   8   8
#     4  10  22  38  56  78 106 147 191 223 258 311
#     4   9  15  29  57  85 108 135 175 230 280 326
#     4  10  20  36  59  83 107 140 184 231 279 331
#     4  10  21  36  56  85 116 141 170 217 275 324
#     4  11  24  39  54  77 113 151 186 228 274 323
#     4   9  18  35  59  83 107 138 178 221 263 314
#     4  10  20  36  59  84 109 140 183 231 277 329
#
# _framework density 18.917269000000001
#
# number of rings (size 3 to 8) (size 9 to 14) (size 15 to 20)
#    0.000    2.143    1.429    1.714    0.000    7.714 
#    0.000    5.714    0.000    3.429    0.000    0.000 
#    0.000    0.000    0.000    0.000    0.000    0.000 
#
# Total GULP energy -694464.877890 kJ/mol
# GULP energy per Si atom -12401.158534 kJ/mol
# Density = 1.887421 g / cm^3
# Si number density = 18.917269 Si / 1000 Ang^3
#
#
#
# Elastic Constant Matrix: (Units=GPa)
#
#
# Indices 1 2 3 4 5 6 
#
# 1 109.6029 45.4056 49.4165 0.0000 0.0000 0.0000
# 2 45.4056 65.6404 48.2708 0.0000 0.0000 0.0000
# 3 49.4165 48.2708 95.0292 0.0000 0.0000 0.0000
# 4 0.0000 0.0000 0.0000 40.1413 0.0000 0.0000
# 5 0.0000 0.0000 0.0000 0.0000 1.9658 0.0000
# 6 0.0000 0.0000 0.0000 0.0000 0.0000 26.0042
#
#
#
# Elastic Compliance Matrix: (Units=1/GPa)
#
#
# Indices 1 2 3 4 5 6 
#
# 1 0.013535 -0.006683 -0.003644 0.000000 0.000000 0.000000
# 2 -0.006683 0.027619 -0.010554 0.000000 0.000000 0.000000
# 3 -0.003644 -0.010554 0.017779 0.000000 0.000000 0.000000
# 4 0.000000 0.000000 0.000000 0.024912 0.000000 0.000000
# 5 0.000000 0.000000 0.000000 0.000000 0.508698 0.000000
# 6 0.000000 0.000000 0.000000 0.000000 0.000000 0.038455
#
#
# Mechanical properties :
#
#
# Convention : Reuss Voigt Hill
#
# Bulk Modulus (GPa) = 58.23696 61.82869 60.03283
# Shear Modulus (GPa) = 7.36938 22.10090 14.73514
#
# Velocity S-wave (km/s) = 1.97586 3.42174 2.79395
# Velocity P-wave (km/s) = 6.00477 6.95455 6.49704
#
# Compressibility (1/GPa) = 0.01717123
#
# Stress axis : x y z
#
# Youngs Moduli (GPa) = 73.88017 36.20752 56.24722
#
# Poissons Ratio (x) = 0.24199 0.20495
# Poissons Ratio (y) = 0.49377 0.59361
# Poissons Ratio (z) = 0.26920 0.38212
#
# Static dielectric constant tensor:
#      x y z
#    x 3.603300 0.000000 0.000000 
#    y 0.000000 3.273950 0.000000 
#    z 0.000000 0.000000 3.513200 
# 
# 
# High freq. dielectric constant tensor:
#      x y z
#    x 1.748630 0.000000 0.000000 
#    y 0.000000 1.712460 0.000000 
#    z 0.000000 0.000000 1.733450 
# 
# From -- ./inp_files/33358.got.cif
#   From: 2010.03.12/outbox.cif.g09.slc.cpg/sg51_17_cif.got.tgz:33358.got - 2010.04.16 13:43:02.
