data_PCOD8212064
_publ_section_title
;
Structure prediction by ZEFSAII (Michael W. Deem and Ramdas Pophale) SiO2 
 PCOD8212064
Probable space group: P M M A
;
_chemical_formula_sum "Si O2"
_cell_formula_units_Z 44
_cell_length_a 8.847326
_cell_length_b 28.106631
_cell_length_c 9.343415
_cell_angle_alpha 90.000000
_cell_angle_beta 90.000000
_cell_angle_gamma 90.000000
_cell_volume 2323.413247
_symmetry_space_group_name_H-M "P M M A"
_symmetry_group_IT_number 51
_symmetry_cell_setting 'orthorhombic'
loop_
_space_group_symop_operation_xyz
x,y,z
1/2-x,-y,z
1/2+x,-y,-z
-x,y,-z
-x,-y,-z
1/2+x,y,-z
1/2-x,y,z
x,-y,z
loop_
_atom_site_type_symbol
_atom_site_label
_atom_site_fract_x
_atom_site_fract_y
_atom_site_fract_z
Si Si1 0.429215 0.186135 0.847975
Si Si2 0.572549 0.000000 0.653640
Si Si3 0.571397 0.638164 0.154315
Si Si4 0.427512 0.274515 0.654493
Si Si5 0.929843 0.912572 0.847630
Si Si6 0.572106 0.553541 0.351629
O O1 0.250000 0.180555 0.865994
O O2 0.473639 0.226008 0.733548
O O3 0.501196 0.137017 0.791699
O O4 0.500000 0.200644 0.000000
O O5 0.500000 0.000000 0.500000
O O6 0.519351 0.046854 0.737689
O O7 0.750000 0.000000 0.634929
O O8 0.750000 0.640549 0.136965
O O9 0.511769 0.681265 0.252472
O O10 0.518380 0.588546 0.225664
O O11 0.500000 0.642798 0.000000
O O12 0.500000 0.275630 0.500000
O O13 0.250000 0.278526 0.634647
O O14 0.750000 0.908394 0.862110
O O15 0.000000 0.926092 0.000000
O O16 0.500000 0.570637 0.500000
O O17 0.750000 0.556398 0.372481
O O18 0.519319 0.500000 0.312135
#
# Coordination Sequence:
#
# PCOD8212064 Si02
#       6
#     8   4   8   8   8   8
#     4  10  20  35  55  80 106 135 172 213 257 306
#     4  10  23  38  54  78 108 140 175 214 258 306
#     4  10  21  36  53  76 105 137 174 216 260 307
#     4  10  22  37  54  77 105 137 174 214 258 309
#     4  10  20  36  57  81 106 137 175 213 256 307
#     4   9  18  33  53  77 105 136 172 214 259 309
#
# _framework density 18.937653999999998
#
# number of rings (size 3 to 8) (size 9 to 14) (size 15 to 20)
#    0.000    2.182    0.000    3.545    0.000    5.455 
#    0.000    3.636    0.000    0.000    0.000    0.000 
#    0.000    0.000    0.000    0.000    0.000    0.000 
#
# Total GULP energy -545689.797117 kJ/mol
# GULP energy per Si atom -12402.040844 kJ/mol
# Density = 1.889455 g / cm^3
# Si number density = 18.937654 Si / 1000 Ang^3
#
#
#
# Elastic Constant Matrix: (Units=GPa)
#
#
# Indices 1 2 3 4 5 6 
#
# 1 52.0169 50.1383 48.1492 0.0000 0.0000 0.0000
# 2 50.1383 163.5560 116.5564 0.0000 0.0000 0.0000
# 3 48.1492 116.5564 172.5750 0.0000 0.0000 0.0000
# 4 0.0000 0.0000 0.0000 32.3599 0.0000 0.0000
# 5 0.0000 0.0000 0.0000 0.0000 37.4835 0.0000
# 6 0.0000 0.0000 0.0000 0.0000 0.0000 21.5147
#
#
#
# Elastic Compliance Matrix: (Units=1/GPa)
#
#
# Indices 1 2 3 4 5 6 
#
# 1 0.028634 -0.005947 -0.003973 0.000000 0.000000 0.000000
# 2 -0.005947 0.013023 -0.007136 0.000000 0.000000 0.000000
# 3 -0.003973 -0.007136 0.011723 0.000000 0.000000 0.000000
# 4 0.000000 0.000000 0.000000 0.030902 0.000000 0.000000
# 5 0.000000 0.000000 0.000000 0.000000 0.026678 0.000000
# 6 0.000000 0.000000 0.000000 0.000000 0.000000 0.046480
#
#
# Mechanical properties :
#
#
# Convention : Reuss Voigt Hill
#
# Bulk Modulus (GPa) = 51.89951 90.87061 71.38506
# Shear Modulus (GPa) = 25.25589 29.82521 27.54055
#
# Velocity S-wave (km/s) = 3.65586 3.97283 3.81763
# Velocity P-wave (km/s) = 6.72944 8.31461 7.56366
#
# Compressibility (1/GPa) = 0.01926801
#
# Stress axis : x y z
#
# Youngs Moduli (GPa) = 34.92397 76.78896 85.30405
#
# Poissons Ratio (x) = 0.45664 0.33887
# Poissons Ratio (y) = 0.20768 0.60876
# Poissons Ratio (z) = 0.13874 0.54799
#
# Static dielectric constant tensor:
#      x y z
#    x 3.402270 0.000000 0.000000 
#    y 0.000000 3.845860 0.000000 
#    z 0.000000 0.000000 3.428550 
# 
# 
# High freq. dielectric constant tensor:
#      x y z
#    x 1.732960 0.000000 0.000000 
#    y 0.000000 1.754450 0.000000 
#    z 0.000000 0.000000 1.734790 
# 
# From -- ./inp_files/5697.got.cif
#   From: 2010.03.12/outbox.cif.g09.slc.cpg/sg51_3_cif.got.tgz:5697.got - 2010.04.16 13:43:02.
