data_PCOD8212235
_publ_section_title
;
Structure prediction by ZEFSAII (Michael W. Deem and Ramdas Pophale) SiO2 
 PCOD8212235
Probable space group: P M M A
;
_chemical_formula_sum "Si O2"
_cell_formula_units_Z 48
_cell_length_a 10.176272
_cell_length_b 28.788316
_cell_length_c 8.629521
_cell_angle_alpha 90.000000
_cell_angle_beta 90.000000
_cell_angle_gamma 90.000000
_cell_volume 2528.084918
_symmetry_space_group_name_H-M "P M M A"
_symmetry_group_IT_number 51
_symmetry_cell_setting 'orthorhombic'
loop_
_space_group_symop_operation_xyz
x,y,z
1/2-x,-y,z
1/2+x,-y,-z
-x,y,-z
-x,-y,-z
1/2+x,y,-z
1/2-x,y,z
x,-y,z
loop_
_atom_site_type_symbol
_atom_site_label
_atom_site_fract_x
_atom_site_fract_y
_atom_site_fract_z
Si Si1 0.493284 0.052289 0.684783
Si Si2 0.750000 0.889062 0.315549
Si Si3 0.750000 0.217273 0.321287
Si Si4 0.404268 0.650209 0.351762
Si Si5 0.250000 0.897658 0.316135
Si Si6 0.897423 0.450801 0.636535
Si Si7 0.250000 0.792907 0.311653
Si Si8 0.992023 0.738403 0.817668
O O1 0.500000 0.051919 0.500000
O O2 0.377146 0.084535 0.749966
O O3 0.626346 0.074341 0.750043
O O4 0.474851 0.000000 0.747648
O O5 0.750000 0.835693 0.258085
O O6 0.750000 0.893670 0.499455
O O7 0.750000 0.215150 0.505565
O O8 0.625539 0.245725 0.262650
O O9 0.500000 0.655044 0.500000
O O10 0.250000 0.660455 0.394978
O O11 0.418322 0.598295 0.274645
O O12 0.456079 0.685511 0.223244
O O13 0.250000 0.845655 0.253431
O O14 0.750000 0.449707 0.566101
O O15 0.914190 0.500000 0.733346
O O16 0.000000 0.452284 0.500000
O O17 0.379961 0.771607 0.242833
O O18 0.000000 0.742825 0.000000
#
# Coordination Sequence:
#
# PCOD8212235 Si02
#       8
#     8   4   4   8   4   8   4   8
#     4   9  15  24  40  67 105 139 162 198 262 326
#     4   9  17  29  44  71  98 135 175 212 257 312
#     4  11  23  38  61  80 107 147 190 230 273 327
#     4  10  20  35  57  84 113 148 190 228 273 334
#     4   9  17  27  46  69 100 133 173 214 257 316
#     4   8  14  26  47  77 110 141 177 224 270 315
#     4  11  21  40  59  80 107 145 190 232 273 329
#     4  12  25  39  55  80 113 145 183 234 287 333
#
# _framework density 18.986705000000001
#
# number of rings (size 3 to 8) (size 9 to 14) (size 15 to 20)
#    0.000    2.167    0.833    3.500    1.167    4.667 
#    0.000    0.000    0.000    0.500    0.000    0.000 
#    0.000   46.667    0.000    0.000    0.000    0.000 
#
# Total GULP energy -594660.164784 kJ/mol
# GULP energy per Si atom -12388.753433 kJ/mol
# Density = 1.894349 g / cm^3
# Si number density = 18.986705 Si / 1000 Ang^3
#
#
#
# Elastic Constant Matrix: (Units=GPa)
#
#
# Indices 1 2 3 4 5 6 
#
# 1 161.1606 80.6491 27.2855 0.0000 0.0000 0.0000
# 2 80.6491 196.1824 34.1672 0.0000 0.0000 0.0000
# 3 27.2855 34.1672 57.6124 0.0000 0.0000 0.0000
# 4 0.0000 0.0000 0.0000 0.4780 0.0000 0.0000
# 5 0.0000 0.0000 0.0000 0.0000 14.7564 0.0000
# 6 0.0000 0.0000 0.0000 0.0000 0.0000 34.1842
#
#
#
# Elastic Compliance Matrix: (Units=1/GPa)
#
#
# Indices 1 2 3 4 5 6 
#
# 1 0.008025 -0.002941 -0.002057 0.000000 0.000000 0.000000
# 2 -0.002941 0.006762 -0.002618 0.000000 0.000000 0.000000
# 3 -0.002057 -0.002618 0.019884 0.000000 0.000000 0.000000
# 4 0.000000 0.000000 0.000000 2.092133 0.000000 0.000000
# 5 0.000000 0.000000 0.000000 0.000000 0.067767 0.000000
# 6 0.000000 0.000000 0.000000 0.000000 0.000000 0.029253
#
#
# Mechanical properties :
#
#
# Convention : Reuss Voigt Hill
#
# Bulk Modulus (GPa) = 51.43789 77.68433 64.56111
# Shear Modulus (GPa) = 2.22664 28.07396 15.15030
#
# Velocity S-wave (km/s) = 1.08410 3.84944 2.82785
# Velocity P-wave (km/s) = 5.35886 7.79497 6.68876
#
# Compressibility (1/GPa) = 0.01944092
#
# Stress axis : x y z
#
# Youngs Moduli (GPa) = 124.61332 147.88323 50.29242
#
# Poissons Ratio (x) = 0.43489 0.10343
# Poissons Ratio (y) = 0.36646 0.13164
# Poissons Ratio (z) = 0.25628 0.38709
#
# Static dielectric constant tensor:
#      x y z
#    x 3.752310 0.000000 0.000000 
#    y 0.000000 4.238470 0.000000 
#    z 0.000000 0.000000 2.837960 
# 
# 
# High freq. dielectric constant tensor:
#      x y z
#    x 1.763370 0.000000 0.000000 
#    y 0.000000 1.772570 0.000000 
#    z 0.000000 0.000000 1.660040 
# 
# From -- ./inp_files/6313.got.cif
#   From: 2010.03.12/outbox.cif.g09.slc.cpg/sg51_4_cif.got.tgz:6313.got - 2010.04.16 13:43:02.
