data_PCOD8212311
_publ_section_title
;
Structure prediction by ZEFSAII (Michael W. Deem and Ramdas Pophale) SiO2 
 PCOD8212311
Probable space group: P M M A
;
_chemical_formula_sum "Si O2"
_cell_formula_units_Z 64
_cell_length_a 19.081402
_cell_length_b 19.616009
_cell_length_c 9.211641
_cell_angle_alpha 90.000000
_cell_angle_beta 90.000000
_cell_angle_gamma 90.000000
_cell_volume 3447.926008
_symmetry_space_group_name_H-M "P M M A"
_symmetry_group_IT_number 51
_symmetry_cell_setting 'orthorhombic'
loop_
_space_group_symop_operation_xyz
x,y,z
1/2-x,-y,z
1/2+x,-y,-z
-x,y,-z
-x,-y,-z
1/2+x,y,-z
1/2-x,y,z
x,-y,z
loop_
_atom_site_type_symbol
_atom_site_label
_atom_site_fract_x
_atom_site_fract_y
_atom_site_fract_z
Si Si1 0.052936 0.421239 0.376984
Si Si2 0.068000 0.331140 0.099750
Si Si3 0.426463 0.183890 0.165478
Si Si4 0.828145 0.076213 0.335275
Si Si5 0.829258 0.923045 0.677516
Si Si6 0.833781 0.675767 0.147221
Si Si7 0.670444 0.577278 0.408334
Si Si8 0.914748 0.182846 0.163108
O O1 0.036166 0.500000 0.345705
O O2 0.045722 0.384336 0.222630
O O3 0.129855 0.408868 0.441983
O O4 0.000000 0.392781 0.500000
O O5 0.098666 0.262546 0.173826
O O6 0.130836 0.358367 0.996088
O O7 0.000000 0.312399 0.000000
O O8 0.381119 0.134028 0.263335
O O9 0.506204 0.187860 0.221422
O O10 0.416999 0.157091 0.001978
O O11 0.750000 0.093391 0.281054
O O12 0.832204 0.084014 0.506422
O O13 0.881280 0.126144 0.261461
O O14 0.848825 0.000000 0.288757
O O15 0.750000 0.909106 0.733005
O O16 0.852032 0.000000 0.724020
O O17 0.750000 0.683439 0.126584
O O18 0.853528 0.626833 0.280248
O O19 0.870575 0.747783 0.179368
O O20 0.750000 0.590660 0.450373
O O21 0.657064 0.500000 0.353966
#
# Coordination Sequence:
#
# PCOD8212311 Si02
#       8
#     8   8   8   8   8   8   8   8
#     4  10  22  37  58  85 111 150 197 238 289 347
#     4  11  21  39  56  78 119 149 186 240 291 336
#     4  10  21  37  55  79 112 150 183 225 289 333
#     4   9  19  36  56  79 108 141 180 230 280 327
#     4   9  20  39  59  82 114 148 187 235 282 336
#     4  10  20  35  59  84 110 151 193 231 283 345
#     4   9  19  37  57  81 115 147 183 235 289 342
#     4  10  20  36  54  78 111 144 185 231 274 335
#
# _framework density 18.561883999999999
#
# number of rings (size 3 to 8) (size 9 to 14) (size 15 to 20)
#    0.000    2.250    2.500    1.875    0.000    6.250 
#    0.000    5.000    0.000    0.000    0.000    0.000 
#    0.000    0.000    0.000    0.000    0.000    0.000 
#
# Total GULP energy -793312.193781 kJ/mol
# GULP energy per Si atom -12395.503028 kJ/mol
# Density = 1.851964 g / cm^3
# Si number density = 18.561884 Si / 1000 Ang^3
#
#
#
# Elastic Constant Matrix: (Units=GPa)
#
#
# Indices 1 2 3 4 5 6 
#
# 1 87.2222 42.9526 35.5743 0.0000 0.0000 0.0000
# 2 42.9526 82.0508 45.2783 0.0000 0.0000 0.0000
# 3 35.5743 45.2783 62.1521 0.0000 0.0000 0.0000
# 4 0.0000 0.0000 0.0000 41.8686 0.0000 0.0000
# 5 0.0000 0.0000 0.0000 0.0000 37.2338 0.0000
# 6 0.0000 0.0000 0.0000 0.0000 0.0000 29.0581
#
#
#
# Elastic Compliance Matrix: (Units=1/GPa)
#
#
# Indices 1 2 3 4 5 6 
#
# 1 0.016408 -0.005697 -0.005241 0.000000 0.000000 0.000000
# 2 -0.005697 0.022359 -0.013028 0.000000 0.000000 0.000000
# 3 -0.005241 -0.013028 0.028580 0.000000 0.000000 0.000000
# 4 0.000000 0.000000 0.000000 0.023884 0.000000 0.000000
# 5 0.000000 0.000000 0.000000 0.000000 0.026857 0.000000
# 6 0.000000 0.000000 0.000000 0.000000 0.000000 0.034414
#
#
# Mechanical properties :
#
#
# Convention : Reuss Voigt Hill
#
# Bulk Modulus (GPa) = 51.50600 53.22617 52.36609
# Shear Modulus (GPa) = 24.16536 28.80676 26.48606
#
# Velocity S-wave (km/s) = 3.61207 3.94373 3.78154
# Velocity P-wave (km/s) = 6.72344 7.03382 6.88038
#
# Compressibility (1/GPa) = 0.01941521
#
# Stress axis : x y z
#
# Youngs Moduli (GPa) = 60.94496 44.72423 34.98898
#
# Poissons Ratio (x) = 0.25481 0.18338
# Poissons Ratio (y) = 0.34722 0.45583
# Poissons Ratio (z) = 0.31942 0.58266
#
# Static dielectric constant tensor:
#      x y z
#    x 3.599210 0.000000 0.000000 
#    y 0.000000 3.378830 0.000000 
#    z 0.000000 0.000000 3.298940 
# 
# 
# High freq. dielectric constant tensor:
#      x y z
#    x 1.730290 0.000000 0.000000 
#    y 0.000000 1.719630 0.000000 
#    z 0.000000 0.000000 1.710660 
# 
# From -- ./inp_files/10010.got.cif
#   From: 2010.03.12/outbox.cif.g09.slc.cpg/sg51_6_cif.got.tgz:10010.got - 2010.04.16 13:43:02.
