data_PCOD8212754
_publ_section_title
;
Structure prediction by ZEFSAII (Michael W. Deem and Ramdas Pophale) SiO2 
 PCOD8212754
Probable space group: P M M A
;
_chemical_formula_sum "Si O2"
_cell_formula_units_Z 40
_cell_length_a 20.357810
_cell_length_b 9.029155
_cell_length_c 11.476353
_cell_angle_alpha 90.000000
_cell_angle_beta 90.000000
_cell_angle_gamma 90.000000
_cell_volume 2109.512307
_symmetry_space_group_name_H-M "P M M A"
_symmetry_group_IT_number 51
_symmetry_cell_setting 'orthorhombic'
loop_
_space_group_symop_operation_xyz
x,y,z
1/2-x,-y,z
1/2+x,-y,-z
-x,y,-z
-x,-y,-z
1/2+x,y,-z
1/2-x,y,z
x,-y,z
loop_
_atom_site_type_symbol
_atom_site_label
_atom_site_fract_x
_atom_site_fract_y
_atom_site_fract_z
Si Si1 0.497187 0.172932 0.633274
Si Si2 0.623220 0.673278 0.244225
Si Si3 0.750000 0.324843 0.636687
Si Si4 0.631803 0.173192 0.764004
Si Si5 0.750000 0.675785 0.373733
Si Si6 0.826942 0.327436 0.989434
O O1 0.500000 0.234129 0.500000
O O2 0.441318 0.249289 0.708728
O O3 0.563862 0.209667 0.700822
O O4 0.481892 0.000000 0.630011
O O5 0.615572 0.500000 0.267718
O O6 0.685239 0.740448 0.313168
O O7 0.635536 0.706808 0.109014
O O8 0.750000 0.500000 0.648100
O O9 0.686029 0.262923 0.695932
O O10 0.750000 0.269430 0.505131
O O11 0.632946 0.230575 0.896339
O O12 0.647805 0.000000 0.761750
O O13 0.750000 0.500000 0.359865
O O14 0.750000 0.281114 0.996361
O O15 0.831863 0.500000 0.956780
#
# Coordination Sequence:
#
# PCOD8212754 Si02
#       6
#     8   8   4   8   4   8
#     4  10  23  42  59  81 119 160 195 238 291 344
#     4  10  20  37  62  88 115 150 193 239 288 344
#     4  11  21  34  57  86 114 145 188 241 292 341
#     4  11  23  38  58  83 115 154 196 238 283 343
#     4   9  18  34  57  86 114 143 186 239 290 339
#     4  10  20  37  61  87 118 152 189 239 292 342
#
# _framework density 18.961728999999998
#
# number of rings (size 3 to 8) (size 9 to 14) (size 15 to 20)
#    0.000    1.800    2.000    2.100    0.000    3.600 
#    0.000    5.500    0.000    0.000    0.000    0.000 
#    0.000    0.000    0.000    0.000    0.000    0.000 
#
# Total GULP energy -496052.035234 kJ/mol
# GULP energy per Si atom -12401.300881 kJ/mol
# Density = 1.891857 g / cm^3
# Si number density = 18.961729 Si / 1000 Ang^3
#
#
#
# Elastic Constant Matrix: (Units=GPa)
#
#
# Indices 1 2 3 4 5 6 
#
# 1 129.1845 55.6408 85.5109 0.0000 0.0000 0.0000
# 2 55.6408 53.7899 55.9586 0.0000 0.0000 0.0000
# 3 85.5109 55.9586 153.3575 0.0000 0.0000 0.0000
# 4 0.0000 0.0000 0.0000 24.5733 0.0000 0.0000
# 5 0.0000 0.0000 0.0000 0.0000 46.9217 0.0000
# 6 0.0000 0.0000 0.0000 0.0000 0.0000 32.5265
#
#
#
# Elastic Compliance Matrix: (Units=1/GPa)
#
#
# Indices 1 2 3 4 5 6 
#
# 1 0.015722 -0.011513 -0.004565 0.000000 0.000000 0.000000
# 2 -0.011513 0.038398 -0.007591 0.000000 0.000000 0.000000
# 3 -0.004565 -0.007591 0.011836 0.000000 0.000000 0.000000
# 4 0.000000 0.000000 0.000000 0.040695 0.000000 0.000000
# 5 0.000000 0.000000 0.000000 0.000000 0.021312 0.000000
# 6 0.000000 0.000000 0.000000 0.000000 0.000000 0.030744
#
#
# Mechanical properties :
#
#
# Convention : Reuss Voigt Hill
#
# Bulk Modulus (GPa) = 53.71715 81.17252 67.44484
# Shear Modulus (GPa) = 23.55708 30.08575 26.82142
#
# Velocity S-wave (km/s) = 3.52852 3.98761 3.76507
# Velocity P-wave (km/s) = 6.70756 8.00643 7.38560
#
# Compressibility (1/GPa) = 0.01861603
#
# Stress axis : x y z
#
# Youngs Moduli (GPa) = 63.60705 26.04334 84.48734
#
# Poissons Ratio (x) = 0.29985 0.38569
# Poissons Ratio (y) = 0.73233 0.64135
# Poissons Ratio (z) = 0.29037 0.19770
#
# Static dielectric constant tensor:
#      x y z
#    x 3.350210 0.000000 0.000000 
#    y 0.000000 3.342550 0.000000 
#    z 0.000000 0.000000 3.787430 
# 
# 
# High freq. dielectric constant tensor:
#      x y z
#    x 1.743760 0.000000 0.000000 
#    y 0.000000 1.723150 0.000000 
#    z 0.000000 0.000000 1.757790 
# 
# From -- ./inp_files/17943.got.cif
#   From: 2010.03.12/outbox.cif.g09.slc.cpg/sg51_9_cif.got.tgz:17943.got - 2010.04.16 13:43:02.
