data_PCOD8212631
_publ_section_title
;
Structure prediction by ZEFSAII (Michael W. Deem and Ramdas Pophale) SiO2 
 PCOD8212631
Probable space group: P M M A
;
_chemical_formula_sum "Si O2"
_cell_formula_units_Z 48
_cell_length_a 9.018478
_cell_length_b 14.942656
_cell_length_c 18.944704
_cell_angle_alpha 90.000000
_cell_angle_beta 90.000000
_cell_angle_gamma 90.000000
_cell_volume 2552.988584
_symmetry_space_group_name_H-M "P M M A"
_symmetry_group_IT_number 51
_symmetry_cell_setting 'orthorhombic'
loop_
_space_group_symop_operation_xyz
x,y,z
1/2-x,-y,z
1/2+x,-y,-z
-x,y,-z
-x,-y,-z
1/2+x,y,-z
1/2-x,y,z
x,-y,z
loop_
_atom_site_type_symbol
_atom_site_label
_atom_site_fract_x
_atom_site_fract_y
_atom_site_fract_z
Si Si1 0.925523 0.500000 0.924319
Si Si2 0.575822 0.000000 0.074854
Si Si3 0.079673 0.846461 0.821091
Si Si4 0.920620 0.357713 0.169630
Si Si5 0.074892 0.745066 0.424654
Si Si6 0.575135 0.899584 0.678853
Si Si7 0.579805 0.603708 0.329066
O O1 0.750000 0.500000 0.933091
O O2 0.975011 0.411628 0.882896
O O3 0.000000 0.500000 0.000000
O O4 0.523340 0.087487 0.117745
O O5 0.750000 0.000000 0.062463
O O6 0.500000 0.000000 0.000000
O O7 0.250000 0.866497 0.802299
O O8 0.057681 0.746124 0.848822
O O9 0.987749 0.861194 0.750906
O O10 0.750000 0.388035 0.159533
O O11 0.971873 0.377644 0.249290
O O12 0.250000 0.739922 0.434094
O O13 0.024381 0.835577 0.384826
O O14 0.000000 0.745614 0.500000
O O15 0.023439 0.658534 0.381565
O O16 0.750000 0.899184 0.686636
O O17 0.515801 0.000000 0.663941
O O18 0.750000 0.634474 0.338654
O O19 0.559790 0.500000 0.347667
#
# Coordination Sequence:
#
# PCOD8212631 Si02
#       7
#     4   4   8   8   8   8   8
#     4  12  26  42  62  88 123 162 201 250 302 354
#     4  10  22  38  56  86 121 156 195 238 289 346
#     4  10  20  36  62  90 118 153 198 243 291 354
#     4  10  20  38  63  91 121 154 196 248 299 356
#     4  11  24  40  59  86 121 157 197 245 297 351
#     4  10  21  37  59  88 120 154 196 245 295 350
#     4  10  20  37  63  90 117 153 193 238 295 355
#
# _framework density 18.801494000000002
#
# number of rings (size 3 to 8) (size 9 to 14) (size 15 to 20)
#    0.000    1.667    3.333    1.250    0.000    4.333 
#    0.000    1.667    0.000    0.000    0.000    0.000 
#    0.000    0.000    0.000    0.000    0.000    0.000 
#
# Total GULP energy -595399.714370 kJ/mol
# GULP energy per Si atom -12404.160716 kJ/mol
# Density = 1.875870 g / cm^3
# Si number density = 18.801494 Si / 1000 Ang^3
#
#
#
# Elastic Constant Matrix: (Units=GPa)
#
#
# Indices 1 2 3 4 5 6 
#
# 1 60.3085 41.9046 59.9924 0.0000 0.0000 0.0000
# 2 41.9046 129.2576 65.2273 0.0000 0.0000 0.0000
# 3 59.9924 65.2273 157.1890 0.0000 0.0000 0.0000
# 4 0.0000 0.0000 0.0000 29.5478 0.0000 0.0000
# 5 0.0000 0.0000 0.0000 0.0000 31.8911 0.0000
# 6 0.0000 0.0000 0.0000 0.0000 0.0000 27.2849
#
#
#
# Elastic Compliance Matrix: (Units=1/GPa)
#
#
# Indices 1 2 3 4 5 6 
#
# 1 0.028918 -0.004814 -0.009039 0.000000 0.000000 0.000000
# 2 -0.004814 0.010587 -0.002556 0.000000 0.000000 0.000000
# 3 -0.009039 -0.002556 0.010872 0.000000 0.000000 0.000000
# 4 0.000000 0.000000 0.000000 0.033844 0.000000 0.000000
# 5 0.000000 0.000000 0.000000 0.000000 0.031357 0.000000
# 6 0.000000 0.000000 0.000000 0.000000 0.000000 0.036650
#
#
# Mechanical properties :
#
#
# Convention : Reuss Voigt Hill
#
# Bulk Modulus (GPa) = 56.94951 75.66707 66.30829
# Shear Modulus (GPa) = 26.19192 29.72013 27.95602
#
# Velocity S-wave (km/s) = 3.73644 3.98016 3.86022
# Velocity P-wave (km/s) = 6.99788 7.83931 7.43052
#
# Compressibility (1/GPa) = 0.01755941
#
# Stress axis : x y z
#
# Youngs Moduli (GPa) = 34.58059 94.45678 91.97646
#
# Poissons Ratio (x) = 0.45467 0.83141
# Poissons Ratio (y) = 0.16645 0.23509
# Poissons Ratio (z) = 0.31259 0.24143
#
# Static dielectric constant tensor:
#      x y z
#    x 3.392170 0.000000 0.000000 
#    y 0.000000 3.592690 0.000000 
#    z 0.000000 0.000000 3.414580 
# 
# 
# High freq. dielectric constant tensor:
#      x y z
#    x 1.723910 0.000000 0.000000 
#    y 0.000000 1.749060 0.000000 
#    z 0.000000 0.000000 1.728630 
# 
# From -- ./inp_files/27654.got.cif
#   From: 2010.03.12/outbox.cif.g09.slc.cpg/sg51_14_cif.got.tgz:27654.got - 2010.04.16 13:43:02.
