data_PCOD8212530
_publ_section_title
;
Structure prediction by ZEFSAII (Michael W. Deem and Ramdas Pophale) SiO2 
 PCOD8212530
Probable space group: P M M A
;
_chemical_formula_sum "Si O2"
_cell_formula_units_Z 48
_cell_length_a 27.594584
_cell_length_b 9.303956
_cell_length_c 9.756530
_cell_angle_alpha 90.000000
_cell_angle_beta 90.000000
_cell_angle_gamma 90.000000
_cell_volume 2504.879759
_symmetry_space_group_name_H-M "P M M A"
_symmetry_group_IT_number 51
_symmetry_cell_setting 'orthorhombic'
loop_
_space_group_symop_operation_xyz
x,y,z
1/2-x,-y,z
1/2+x,-y,-z
-x,y,-z
-x,-y,-z
1/2+x,y,-z
1/2-x,y,z
x,-y,z
loop_
_atom_site_type_symbol
_atom_site_label
_atom_site_fract_x
_atom_site_fract_y
_atom_site_fract_z
Si Si1 0.545237 0.330684 0.093212
Si Si2 0.862084 0.834795 0.036015
Si Si3 0.853854 0.329680 0.528726
Si Si4 0.694231 0.166581 0.765033
Si Si5 0.043566 0.670587 0.593832
Si Si6 0.695085 0.837105 0.302309
O O1 0.553223 0.500000 0.095986
O O2 0.590700 0.261580 0.015762
O O3 0.539144 0.271803 0.249491
O O4 0.500000 0.286418 0.000000
O O5 0.838465 0.787718 0.178392
O O6 0.878362 0.000000 0.037257
O O7 0.822142 0.806888 0.920221
O O8 0.850773 0.500000 0.540042
O O9 0.842454 0.261226 0.675355
O O10 0.906295 0.277796 0.474735
O O11 0.812928 0.271707 0.426555
O O12 0.750000 0.216951 0.748677
O O13 0.689247 0.000000 0.722995
O O14 0.040797 0.500000 0.596142
O O15 0.000000 0.733093 0.500000
O O16 0.750000 0.825592 0.252108
O O17 0.683168 0.000000 0.349399
#
# Coordination Sequence:
#
# PCOD8212530 Si02
#       6
#     8   8   8   8   8   8
#     4  10  21  37  60  86 113 148 189 230 283 346
#     4  10  21  38  60  84 114 148 190 239 283 330
#     4  11  22  36  58  86 116 147 187 237 285 334
#     4  10  22  40  59  81 114 156 196 232 278 338
#     4   9  19  36  56  81 112 147 185 227 278 338
#     4  10  20  36  59  83 110 149 190 228 280 345
#
# _framework density 19.162595
#
# number of rings (size 3 to 8) (size 9 to 14) (size 15 to 20)
#    0.000    2.000    1.667    1.500    2.333    5.667 
#    0.000    0.000    0.000    5.500    0.000    0.000 
#    0.000    0.000    0.000    0.000    0.000    0.000 
#
# Total GULP energy -595277.083419 kJ/mol
# GULP energy per Si atom -12401.605905 kJ/mol
# Density = 1.911898 g / cm^3
# Si number density = 19.162595 Si / 1000 Ang^3
#
#
#
# Elastic Constant Matrix: (Units=GPa)
#
#
# Indices 1 2 3 4 5 6 
#
# 1 114.9858 33.8427 37.2080 0.0000 0.0000 0.0000
# 2 33.8427 43.0664 27.5535 0.0000 0.0000 0.0000
# 3 37.2080 27.5535 89.8950 0.0000 0.0000 0.0000
# 4 0.0000 0.0000 0.0000 28.3641 0.0000 0.0000
# 5 0.0000 0.0000 0.0000 0.0000 37.4622 0.0000
# 6 0.0000 0.0000 0.0000 0.0000 0.0000 28.0680
#
#
#
# Elastic Compliance Matrix: (Units=1/GPa)
#
#
# Indices 1 2 3 4 5 6 
#
# 1 0.011759 -0.007621 -0.002531 0.000000 0.000000 0.000000
# 2 -0.007621 0.033823 -0.007213 0.000000 0.000000 0.000000
# 3 -0.002531 -0.007213 0.014383 0.000000 0.000000 0.000000
# 4 0.000000 0.000000 0.000000 0.035256 0.000000 0.000000
# 5 0.000000 0.000000 0.000000 0.000000 0.026694 0.000000
# 6 0.000000 0.000000 0.000000 0.000000 0.000000 0.035628
#
#
# Mechanical properties :
#
#
# Convention : Reuss Voigt Hill
#
# Bulk Modulus (GPa) = 39.62759 49.46172 44.54465
# Shear Modulus (GPa) = 24.91491 28.73506 26.82499
#
# Velocity S-wave (km/s) = 3.60972 3.87659 3.74553
# Velocity P-wave (km/s) = 6.17236 6.77531 6.48085
#
# Compressibility (1/GPa) = 0.02523494
#
# Stress axis : x y z
#
# Youngs Moduli (GPa) = 85.04292 29.56539 69.52893
#
# Poissons Ratio (x) = 0.22532 0.17599
# Poissons Ratio (y) = 0.64811 0.50149
# Poissons Ratio (z) = 0.21526 0.21325
#
# Static dielectric constant tensor:
#      x y z
#    x 3.598430 0.000000 0.000000 
#    y 0.000000 3.274240 0.000000 
#    z 0.000000 0.000000 3.606830 
# 
# 
# High freq. dielectric constant tensor:
#      x y z
#    x 1.753530 0.000000 0.000000 
#    y 0.000000 1.720700 0.000000 
#    z 0.000000 0.000000 1.756070 
# 
# From -- ./inp_files/12730.got.cif
#   From: 2010.03.12/outbox.cif.g09.slc.cpg/sg51_7_cif.got.tgz:12730.got - 2010.04.16 13:43:02.
