data_PCOD8212065
_publ_section_title
;
Structure prediction by ZEFSAII (Michael W. Deem and Ramdas Pophale) SiO2 
 PCOD8212065
Probable space group: P M M A
;
_chemical_formula_sum "Si O2"
_cell_formula_units_Z 44
_cell_length_a 8.858930
_cell_length_b 28.691330
_cell_length_c 9.619656
_cell_angle_alpha 90.000000
_cell_angle_beta 90.000000
_cell_angle_gamma 90.000000
_cell_volume 2445.071101
_symmetry_space_group_name_H-M "P M M A"
_symmetry_group_IT_number 51
_symmetry_cell_setting 'orthorhombic'
loop_
_space_group_symop_operation_xyz
x,y,z
1/2-x,-y,z
1/2+x,-y,-z
-x,y,-z
-x,-y,-z
1/2+x,y,-z
1/2-x,y,z
x,-y,z
loop_
_atom_site_type_symbol
_atom_site_label
_atom_site_fract_x
_atom_site_fract_y
_atom_site_fract_z
Si Si1 0.073937 0.232211 0.349180
Si Si2 0.576361 0.680120 0.351378
Si Si3 0.572373 0.052261 0.853982
Si Si4 0.927015 0.423552 0.347628
Si Si5 0.430637 0.500000 0.153705
Si Si6 0.426602 0.130143 0.351389
O O1 0.250000 0.241292 0.361784
O O2 0.040236 0.181263 0.282455
O O3 0.000000 0.231492 0.500000
O O4 0.000936 0.276585 0.265922
O O5 0.500000 0.677493 0.500000
O O6 0.750000 0.692506 0.368397
O O7 0.553610 0.628904 0.285628
O O8 0.750000 0.057779 0.870097
O O9 0.505969 0.089673 0.745769
O O10 0.528790 0.000000 0.804679
O O11 0.500000 0.064249 0.000000
O O12 0.750000 0.436862 0.358544
O O13 0.000000 0.429958 0.500000
O O14 0.012675 0.454954 0.236578
O O15 0.250000 0.500000 0.144043
O O16 0.500000 0.500000 0.000000
O O17 0.500000 0.124745 0.500000
O O18 0.250000 0.123180 0.372575
#
# Coordination Sequence:
#
# PCOD8212065 Si02
#       6
#     8   8   8   8   4   8
#     4   9  15  24  40  63  94 126 155 190 235 285
#     4   9  16  26  44  70  99 128 160 198 238 281
#     4   9  18  33  50  67  90 121 158 199 241 287
#     4  10  20  35  55  80 107 134 168 209 249 290
#     4  12  25  40  57  76 102 136 170 206 251 302
#     4   9  18  30  45  69  98 126 157 195 239 285
#
# _framework density 17.995387000000001
#
# number of rings (size 3 to 8) (size 9 to 14) (size 15 to 20)
#    0.000    2.545    0.000    3.818    0.000    4.000 
#    0.000    0.000    0.000    1.091    0.000    5.091 
#    0.000    0.000    0.000    0.000    0.000    0.000 
#
# Total GULP energy -545094.190193 kJ/mol
# GULP energy per Si atom -12388.504323 kJ/mol
# Density = 1.795443 g / cm^3
# Si number density = 17.995387 Si / 1000 Ang^3
#
#
#
# Elastic Constant Matrix: (Units=GPa)
#
#
# Indices 1 2 3 4 5 6 
#
# 1 103.5144 69.1620 39.5998 0.0000 0.0000 0.0000
# 2 69.1620 183.0752 69.8309 0.0000 0.0000 0.0000
# 3 39.5998 69.8309 72.2953 0.0000 0.0000 0.0000
# 4 0.0000 0.0000 0.0000 1.4686 0.0000 0.0000
# 5 0.0000 0.0000 0.0000 0.0000 22.5065 0.0000
# 6 0.0000 0.0000 0.0000 0.0000 0.0000 27.0535
#
#
#
# Elastic Compliance Matrix: (Units=1/GPa)
#
#
# Indices 1 2 3 4 5 6 
#
# 1 0.013594 -0.003634 -0.003936 0.000000 0.000000 0.000000
# 2 -0.003634 0.009620 -0.007302 0.000000 0.000000 0.000000
# 3 -0.003936 -0.007302 0.023041 0.000000 0.000000 0.000000
# 4 0.000000 0.000000 0.000000 0.680910 0.000000 0.000000
# 5 0.000000 0.000000 0.000000 0.000000 0.044432 0.000000
# 6 0.000000 0.000000 0.000000 0.000000 0.000000 0.036964
#
#
# Mechanical properties :
#
#
# Convention : Reuss Voigt Hill
#
# Bulk Modulus (GPa) = 60.56291 79.56337 70.06314
# Shear Modulus (GPa) = 5.92551 22.22521 14.07536
#
# Velocity S-wave (km/s) = 1.81657 3.51814 2.79976
# Velocity P-wave (km/s) = 6.17476 7.79822 7.03349
#
# Compressibility (1/GPa) = 0.01651176
#
# Stress axis : x y z
#
# Youngs Moduli (GPa) = 73.55935 103.94639 43.40134
#
# Poissons Ratio (x) = 0.37779 0.17082
# Poissons Ratio (y) = 0.26735 0.31690
# Poissons Ratio (z) = 0.28952 0.75898
#
# Static dielectric constant tensor:
#      x y z
#    x 3.451670 0.000000 0.000000 
#    y 0.000000 4.758820 0.000000 
#    z 0.000000 0.000000 2.796470 
# 
# 
# High freq. dielectric constant tensor:
#      x y z
#    x 1.708110 0.000000 0.000000 
#    y 0.000000 1.730810 0.000000 
#    z 0.000000 0.000000 1.633740 
# 
# From -- ./inp_files/5711.got.cif
#   From: 2010.03.12/outbox.cif.g09.slc.cpg/sg51_3_cif.got.tgz:5711.got - 2010.04.16 13:43:02.
