data_PCOD8212549
_publ_section_title
;
Structure prediction by ZEFSAII (Michael W. Deem and Ramdas Pophale) SiO2 
 PCOD8212549
Probable space group: P M M A
;
_chemical_formula_sum "Si O2"
_cell_formula_units_Z 64
_cell_length_a 30.952204
_cell_length_b 8.692232
_cell_length_c 12.013696
_cell_angle_alpha 90.000000
_cell_angle_beta 90.000000
_cell_angle_gamma 90.000000
_cell_volume 3232.209680
_symmetry_space_group_name_H-M "P M M A"
_symmetry_group_IT_number 51
_symmetry_cell_setting 'orthorhombic'
loop_
_space_group_symop_operation_xyz
x,y,z
1/2-x,-y,z
1/2+x,-y,-z
-x,y,-z
-x,-y,-z
1/2+x,y,-z
1/2-x,y,z
x,-y,z
loop_
_atom_site_type_symbol
_atom_site_label
_atom_site_fract_x
_atom_site_fract_y
_atom_site_fract_z
Si Si1 0.546798 0.182182 0.971702
Si Si2 0.828232 0.322659 0.747205
Si Si3 0.548608 0.320020 0.513349
Si Si4 0.798519 0.677360 0.502931
Si Si5 0.581202 0.178546 0.734266
Si Si6 0.701995 0.823228 0.963166
Si Si7 0.125303 0.816889 0.881278
Si Si8 0.376271 0.181226 0.630804
O O1 0.556865 0.229031 0.845797
O O2 0.546357 0.000000 0.985055
O O3 0.500000 0.253074 0.000000
O O4 0.583063 0.249422 0.055325
O O5 0.843133 0.500000 0.754663
O O6 0.801836 0.292364 0.634556
O O7 0.868516 0.208320 0.750652
O O8 0.798766 0.279367 0.852018
O O9 0.500000 0.256120 0.500000
O O10 0.550661 0.500000 0.490853
O O11 0.563441 0.285478 0.637559
O O12 0.580229 0.241665 0.425353
O O13 0.750000 0.724074 0.465622
O O14 0.807881 0.500000 0.475809
O O15 0.833366 0.775967 0.436571
O O16 0.573633 0.000000 0.704988
O O17 0.750000 0.809173 0.014828
O O18 0.691112 0.000000 0.932500
O O19 0.668013 0.759559 0.053791
O O20 0.126437 0.751061 0.755886
O O21 0.124312 0.000000 0.878957
O O22 0.379700 0.000000 0.633635
#
# Coordination Sequence:
#
# PCOD8212549 Si02
#       8
#     8   8   8   8   8   8   8   8
#     4   9  18  33  57  87 118 148 181 233 294 342
#     4  11  21  36  59  86 121 156 190 234 295 354
#     4  11  25  43  61  84 122 164 197 237 296 357
#     4  10  22  40  60  82 116 161 198 236 295 358
#     4  11  21  36  64  93 117 148 196 246 290 342
#     4  10  20  36  59  85 115 152 194 240 287 338
#     4   9  19  36  55  82 118 151 189 240 297 346
#     4  11  23  38  62  90 117 152 200 253 298 348
#
# _framework density 19.800695999999999
#
# number of rings (size 3 to 8) (size 9 to 14) (size 15 to 20)
#    0.000    1.750    2.500    1.875    1.750    3.000 
#    0.000    2.500    0.000    1.500    0.000    0.000 
#    0.000    0.000    0.000    0.000    0.000    0.000 
#
# Total GULP energy -793701.101293 kJ/mol
# GULP energy per Si atom -12401.579708 kJ/mol
# Density = 1.975563 g / cm^3
# Si number density = 19.800696 Si / 1000 Ang^3
#
#
#
# Elastic Constant Matrix: (Units=GPa)
#
#
# Indices 1 2 3 4 5 6 
#
# 1 155.7259 21.4870 64.1065 0.0000 0.0000 0.0000
# 2 21.4870 36.4108 25.4198 0.0000 0.0000 0.0000
# 3 64.1065 25.4198 141.0089 0.0000 0.0000 0.0000
# 4 0.0000 0.0000 0.0000 4.2240 0.0000 0.0000
# 5 0.0000 0.0000 0.0000 0.0000 65.0031 0.0000
# 6 0.0000 0.0000 0.0000 0.0000 0.0000 16.5564
#
#
#
# Elastic Compliance Matrix: (Units=1/GPa)
#
#
# Indices 1 2 3 4 5 6 
#
# 1 0.008098 -0.002527 -0.003226 0.000000 0.000000 0.000000
# 2 -0.002527 0.032207 -0.004657 0.000000 0.000000 0.000000
# 3 -0.003226 -0.004657 0.009398 0.000000 0.000000 0.000000
# 4 0.000000 0.000000 0.000000 0.236741 0.000000 0.000000
# 5 0.000000 0.000000 0.000000 0.000000 0.015384 0.000000
# 6 0.000000 0.000000 0.000000 0.000000 0.000000 0.060400
#
#
# Mechanical properties :
#
#
# Convention : Reuss Voigt Hill
#
# Bulk Modulus (GPa) = 34.62259 61.68579 48.15419
# Shear Modulus (GPa) = 12.73315 31.96552 22.34933
#
# Velocity S-wave (km/s) = 2.53862 4.02227 3.36328
# Velocity P-wave (km/s) = 5.11041 7.26585 6.28128
#
# Compressibility (1/GPa) = 0.02888288
#
# Stress axis : x y z
#
# Youngs Moduli (GPa) = 123.48303 31.04929 106.40508
#
# Poissons Ratio (x) = 0.07845 0.34329
# Poissons Ratio (y) = 0.31200 0.49556
# Poissons Ratio (z) = 0.39838 0.14460
#
# Static dielectric constant tensor:
#      x y z
#    x 3.807000 0.000000 0.000000 
#    y 0.000000 3.320880 0.000000 
#    z 0.000000 0.000000 3.829230 
# 
# 
# High freq. dielectric constant tensor:
#      x y z
#    x 1.786000 0.000000 0.000000 
#    y 0.000000 1.745910 0.000000 
#    z 0.000000 0.000000 1.776630 
# 
# From -- ./inp_files/19443.got.cif
#   From: 2010.03.12/outbox.cif.g09.slc.cpg/sg51_10_cif.got.tgz:19443.got - 2010.04.16 13:43:02.
