data_PCOD8212855
_publ_section_title
;
Structure prediction by ZEFSAII (Michael W. Deem and Ramdas Pophale) SiO2 
 PCOD8212855
Probable space group: P M M A
;
_chemical_formula_sum "Si O2"
_cell_formula_units_Z 40
_cell_length_a 28.678324
_cell_length_b 8.952611
_cell_length_c 7.749373
_cell_angle_alpha 90.000000
_cell_angle_beta 90.000000
_cell_angle_gamma 90.000000
_cell_volume 1989.619582
_symmetry_space_group_name_H-M "P M M A"
_symmetry_group_IT_number 51
_symmetry_cell_setting 'orthorhombic'
loop_
_space_group_symop_operation_xyz
x,y,z
1/2-x,-y,z
1/2+x,-y,-z
-x,y,-z
-x,-y,-z
1/2+x,y,-z
1/2-x,y,z
x,-y,z
loop_
_atom_site_type_symbol
_atom_site_label
_atom_site_fract_x
_atom_site_fract_y
_atom_site_fract_z
Si Si1 0.949377 0.676794 0.293473
Si Si2 0.352474 0.675747 0.163441
Si Si3 0.359411 0.823767 0.821104
Si Si4 0.804229 0.672953 0.483840
Si Si5 0.552046 0.676278 0.684045
O O1 0.941052 0.500000 0.273752
O O2 0.912304 0.762474 0.175960
O O3 0.942590 0.734818 0.488898
O O4 0.002003 0.721502 0.234284
O O5 0.351157 0.500000 0.126283
O O6 0.319278 0.718127 0.323096
O O7 0.405022 0.734764 0.202234
O O8 0.334293 0.761141 0.993472
O O9 0.332167 0.770033 0.652910
O O10 0.359259 0.000000 0.825108
O O11 0.750000 0.706673 0.462032
O O12 0.816410 0.500000 0.450364
O O13 0.554504 0.500000 0.670065
#
# Coordination Sequence:
#
# PCOD8212855 Si02
#       5
#     8   8   8   8   8
#     4   9  16  33  59  86 115 153 203 249 286 336
#     4  10  20  38  63  90 118 151 198 251 293 342
#     4  12  25  38  56  88 128 165 192 228 290 360
#     4  10  22  43  70  92 110 142 195 255 303 344
#     4   8  15  30  59  89 113 148 199 253 296 330
#
# _framework density 20.104344999999999
#
# number of rings (size 3 to 8) (size 9 to 14) (size 15 to 20)
#    0.000    2.200    2.000    3.000    0.000    2.800 
#    0.000    9.000    0.000    0.000    0.000    0.000 
#    0.000    0.000    0.000    0.000    0.000    0.000 
#
# Total GULP energy -495920.878994 kJ/mol
# GULP energy per Si atom -12398.021975 kJ/mol
# Density = 2.005859 g / cm^3
# Si number density = 20.104345 Si / 1000 Ang^3
#
#
#
# Elastic Constant Matrix: (Units=GPa)
#
#
# Indices 1 2 3 4 5 6 
#
# 1 78.1078 32.2318 16.0970 0.0000 0.0000 0.0000
# 2 32.2318 81.8911 39.6104 0.0000 0.0000 0.0000
# 3 16.0970 39.6104 80.2371 0.0000 0.0000 0.0000
# 4 0.0000 0.0000 0.0000 11.7997 0.0000 0.0000
# 5 0.0000 0.0000 0.0000 0.0000 13.0415 0.0000
# 6 0.0000 0.0000 0.0000 0.0000 0.0000 4.1815
#
#
#
# Elastic Compliance Matrix: (Units=1/GPa)
#
#
# Indices 1 2 3 4 5 6 
#
# 1 0.015286 -0.005955 -0.000127 0.000000 0.000000 0.000000
# 2 -0.005955 0.018362 -0.007870 0.000000 0.000000 0.000000
# 3 -0.000127 -0.007870 0.016374 0.000000 0.000000 0.000000
# 4 0.000000 0.000000 0.000000 0.084748 0.000000 0.000000
# 5 0.000000 0.000000 0.000000 0.000000 0.076678 0.000000
# 6 0.000000 0.000000 0.000000 0.000000 0.000000 0.239150
#
#
# Mechanical properties :
#
#
# Convention : Reuss Voigt Hill
#
# Bulk Modulus (GPa) = 45.21220 46.23495 45.72358
# Shear Modulus (GPa) = 10.29072 15.95766 13.12419
#
# Velocity S-wave (km/s) = 2.26490 2.82040 2.55777
# Velocity P-wave (km/s) = 5.42008 5.80117 5.61386
#
# Compressibility (1/GPa) = 0.02211792
#
# Stress axis : x y z
#
# Youngs Moduli (GPa) = 65.41740 54.46034 61.07377
#
# Poissons Ratio (x) = 0.32433 0.00774
# Poissons Ratio (y) = 0.38958 0.48065
# Poissons Ratio (z) = 0.00829 0.42860
#
# Static dielectric constant tensor:
#      x y z
#    x 3.978850 0.000000 0.000000 
#    y 0.000000 3.195690 0.000000 
#    z 0.000000 0.000000 3.704930 
# 
# 
# High freq. dielectric constant tensor:
#      x y z
#    x 1.788950 0.000000 0.000000 
#    y 0.000000 1.737520 0.000000 
#    z 0.000000 0.000000 1.789660 
# 
# From -- ./inp_files/12109.got.cif
#   From: 2010.03.12/outbox.cif.g09.slc.cpg/sg51_7_cif.got.tgz:12109.got - 2010.04.16 13:43:02.
