data_PCOD8212193
_publ_section_title
;
Structure prediction by ZEFSAII (Michael W. Deem and Ramdas Pophale) SiO2 
 PCOD8212193
Probable space group: P M M A
;
_chemical_formula_sum "Si O2"
_cell_formula_units_Z 40
_cell_length_a 18.290909
_cell_length_b 8.991289
_cell_length_c 12.795311
_cell_angle_alpha 90.000000
_cell_angle_beta 90.000000
_cell_angle_gamma 90.000000
_cell_volume 2104.302118
_symmetry_space_group_name_H-M "P M M A"
_symmetry_group_IT_number 51
_symmetry_cell_setting 'orthorhombic'
loop_
_space_group_symop_operation_xyz
x,y,z
1/2-x,-y,z
1/2+x,-y,-z
-x,y,-z
-x,-y,-z
1/2+x,y,-z
1/2-x,y,z
x,-y,z
loop_
_atom_site_type_symbol
_atom_site_label
_atom_site_fract_x
_atom_site_fract_y
_atom_site_fract_z
Si Si1 0.074006 0.323876 0.376233
Si Si2 0.832180 0.322707 0.814374
Si Si3 0.090839 0.324007 0.609377
Si Si4 0.916493 0.675337 0.018735
Si Si5 0.833595 0.174388 0.205455
O O1 0.073980 0.500000 0.369892
O O2 0.124465 0.255639 0.284984
O O3 0.105441 0.276373 0.489188
O O4 0.990791 0.270478 0.359794
O O5 0.750000 0.260222 0.811491
O O6 0.832976 0.500000 0.810185
O O7 0.870058 0.266919 0.920252
O O8 0.099995 0.500000 0.624726
O O9 0.149190 0.239732 0.680465
O O10 0.908466 0.500000 0.035211
O O11 0.887582 0.753362 0.122087
O O12 0.000000 0.721041 0.000000
O O13 0.750000 0.213450 0.176928
O O14 0.847143 0.000000 0.207343
#
# Coordination Sequence:
#
# PCOD8212193 Si02
#       5
#     8   8   8   8   8
#     4   8  15  29  50  78 107 131 162 210 262 307
#     4   9  16  26  44  73 104 127 153 199 258 312
#     4   9  17  32  55  78 101 133 174 216 256 305
#     4  10  20  35  57  80 100 129 173 221 266 315
#     4  11  24  38  51  73 109 147 180 218 263 311
#
# _framework density 19.008678
#
# number of rings (size 3 to 8) (size 9 to 14) (size 15 to 20)
#    0.000    2.600    0.000    3.600    0.000    6.800 
#    0.000    4.000    0.000    1.200    0.000    2.800 
#    0.000    0.000    0.000    0.000    0.000    0.000 
#
# Total GULP energy -495985.167143 kJ/mol
# GULP energy per Si atom -12399.629179 kJ/mol
# Density = 1.896541 g / cm^3
# Si number density = 19.008678 Si / 1000 Ang^3
#
#
#
# Elastic Constant Matrix: (Units=GPa)
#
#
# Indices 1 2 3 4 5 6 
#
# 1 98.4640 31.7055 47.3114 0.0000 0.0000 0.0000
# 2 31.7055 35.8637 26.8414 0.0000 0.0000 0.0000
# 3 47.3114 26.8414 117.9633 0.0000 0.0000 0.0000
# 4 0.0000 0.0000 0.0000 1.4219 0.0000 0.0000
# 5 0.0000 0.0000 0.0000 0.0000 34.1790 0.0000
# 6 0.0000 0.0000 0.0000 0.0000 0.0000 16.0185
#
#
#
# Elastic Compliance Matrix: (Units=1/GPa)
#
#
# Indices 1 2 3 4 5 6 
#
# 1 0.015443 -0.010868 -0.003721 0.000000 0.000000 0.000000
# 2 -0.010868 0.041255 -0.005028 0.000000 0.000000 0.000000
# 3 -0.003721 -0.005028 0.011114 0.000000 0.000000 0.000000
# 4 0.000000 0.000000 0.000000 0.703305 0.000000 0.000000
# 5 0.000000 0.000000 0.000000 0.000000 0.029258 0.000000
# 6 0.000000 0.000000 0.000000 0.000000 0.000000 0.062428
#
#
# Mechanical properties :
#
#
# Convention : Reuss Voigt Hill
#
# Bulk Modulus (GPa) = 34.99286 51.55638 43.27462
# Shear Modulus (GPa) = 5.48509 20.08604 12.78556
#
# Velocity S-wave (km/s) = 1.70054 3.25418 2.59630
# Velocity P-wave (km/s) = 4.72278 6.42659 5.63940
#
# Compressibility (1/GPa) = 0.02857726
#
# Stress axis : x y z
#
# Youngs Moduli (GPa) = 64.75263 24.23977 89.97893
#
# Poissons Ratio (x) = 0.26344 0.33481
# Poissons Ratio (y) = 0.70373 0.45244
# Poissons Ratio (z) = 0.24094 0.12188
#
# Static dielectric constant tensor:
#      x y z
#    x 3.673720 0.000000 0.000000 
#    y 0.000000 2.945950 0.000000 
#    z 0.000000 0.000000 3.741360 
# 
# 
# High freq. dielectric constant tensor:
#      x y z
#    x 1.745460 0.000000 0.000000 
#    y 0.000000 1.684000 0.000000 
#    z 0.000000 0.000000 1.756570 
# 
# From -- ./inp_files/17074.got.cif
#   From: 2010.03.12/outbox.cif.g09.slc.cpg/sg51_9_cif.got.tgz:17074.got - 2010.04.16 13:43:02.
