data_PCOD8212712
_publ_section_title
;
Structure prediction by ZEFSAII (Michael W. Deem and Ramdas Pophale) SiO2 
 PCOD8212712
Probable space group: P M M A
;
_chemical_formula_sum "Si O2"
_cell_formula_units_Z 48
_cell_length_a 16.007925
_cell_length_b 9.290567
_cell_length_c 16.833682
_cell_angle_alpha 90.000000
_cell_angle_beta 90.000000
_cell_angle_gamma 90.000000
_cell_volume 2503.550634
_symmetry_space_group_name_H-M "P M M A"
_symmetry_group_IT_number 51
_symmetry_cell_setting 'orthorhombic'
loop_
_space_group_symop_operation_xyz
x,y,z
1/2-x,-y,z
1/2+x,-y,-z
-x,y,-z
-x,-y,-z
1/2+x,y,-z
1/2-x,y,z
x,-y,z
loop_
_atom_site_type_symbol
_atom_site_label
_atom_site_fract_x
_atom_site_fract_y
_atom_site_fract_z
Si Si1 0.844959 0.333472 0.681641
Si Si2 0.087084 0.170346 0.460340
Si Si3 0.401565 0.831309 0.840092
Si Si4 0.750000 0.828955 0.266495
Si Si5 0.347042 0.834822 0.017859
Si Si6 0.567803 0.667176 0.843511
Si Si7 0.750000 0.829083 0.444540
O O1 0.750000 0.282440 0.667782
O O2 0.856542 0.500000 0.659601
O O3 0.906634 0.241439 0.626313
O O4 0.865936 0.306010 0.773602
O O5 0.165892 0.225793 0.512212
O O6 0.000000 0.219571 0.500000
O O7 0.089131 0.000000 0.449380
O O8 0.331670 0.774494 0.779416
O O9 0.483014 0.743103 0.817490
O O10 0.419347 0.000000 0.829341
O O11 0.371813 0.796052 0.928650
O O12 0.750000 0.765692 0.355490
O O13 0.750000 0.000000 0.266799
O O14 0.250000 0.804214 0.030349
O O15 0.399197 0.733634 0.075151
O O16 0.369335 0.000000 0.037236
O O17 0.551046 0.500000 0.858222
O O18 0.750000 0.000000 0.441968
#
# Coordination Sequence:
#
# PCOD8212712 Si02
#       7
#     8   8   8   4   8   8   4
#     4  10  22  41  60  79 111 154 195 233 279 335
#     4  10  21  36  59  91 119 146 185 234 288 345
#     4  10  20  37  60  85 112 147 190 235 283 337
#     4   9  18  34  59  84 111 148 184 229 289 339
#     4  10  20  37  59  85 114 147 191 236 280 333
#     4  11  24  38  55  83 116 152 192 232 282 339
#     4   9  18  34  55  86 121 146 180 233 287 343
#
# _framework density 19.17277
#
# number of rings (size 3 to 8) (size 9 to 14) (size 15 to 20)
#    0.000    2.000    1.667    1.500    2.333    5.333 
#    0.000    0.417    0.000    1.000    0.000    0.000 
#    0.000    0.000    0.000    0.000    0.000    0.000 
#
# Total GULP energy -595365.191956 kJ/mol
# GULP energy per Si atom -12403.441499 kJ/mol
# Density = 1.912913 g / cm^3
# Si number density = 19.172770 Si / 1000 Ang^3
#
#
#
# Elastic Constant Matrix: (Units=GPa)
#
#
# Indices 1 2 3 4 5 6 
#
# 1 108.7410 29.8176 30.9926 0.0000 0.0000 0.0000
# 2 29.8176 46.6611 31.8467 0.0000 0.0000 0.0000
# 3 30.9926 31.8467 93.4403 0.0000 0.0000 0.0000
# 4 0.0000 0.0000 0.0000 23.9037 0.0000 0.0000
# 5 0.0000 0.0000 0.0000 0.0000 32.3210 0.0000
# 6 0.0000 0.0000 0.0000 0.0000 0.0000 19.2269
#
#
#
# Elastic Compliance Matrix: (Units=1/GPa)
#
#
# Indices 1 2 3 4 5 6 
#
# 1 0.011350 -0.006103 -0.001684 0.000000 0.000000 0.000000
# 2 -0.006103 0.031209 -0.008613 0.000000 0.000000 0.000000
# 3 -0.001684 -0.008613 0.014196 0.000000 0.000000 0.000000
# 4 0.000000 0.000000 0.000000 0.041834 0.000000 0.000000
# 5 0.000000 0.000000 0.000000 0.000000 0.030940 0.000000
# 6 0.000000 0.000000 0.000000 0.000000 0.000000 0.052010
#
#
# Mechanical properties :
#
#
# Convention : Reuss Voigt Hill
#
# Bulk Modulus (GPa) = 41.74511 48.23959 44.99235
# Shear Modulus (GPa) = 22.48958 25.50268 23.99613
#
# Velocity S-wave (km/s) = 3.42862 3.65108 3.54160
# Velocity P-wave (km/s) = 6.12326 6.55660 6.34363
#
# Compressibility (1/GPa) = 0.02395490
#
# Stress axis : x y z
#
# Youngs Moduli (GPa) = 88.10744 32.04163 70.44183
#
# Poissons Ratio (x) = 0.19555 0.11865
# Poissons Ratio (y) = 0.53773 0.60669
# Poissons Ratio (z) = 0.14841 0.27596
#
# Static dielectric constant tensor:
#      x y z
#    x 3.739960 0.000000 0.000000 
#    y 0.000000 3.254350 0.000000 
#    z 0.000000 0.000000 3.556890 
# 
# 
# High freq. dielectric constant tensor:
#      x y z
#    x 1.759310 0.000000 0.000000 
#    y 0.000000 1.719230 0.000000 
#    z 0.000000 0.000000 1.755170 
# 
# From -- ./inp_files/29512.got.cif
#   From: 2010.03.12/outbox.cif.g09.slc.cpg/sg51_15_cif.got.tgz:29512.got - 2010.04.16 13:43:02.
