data_PCOD8212603
_publ_section_title
;
Structure prediction by ZEFSAII (Michael W. Deem and Ramdas Pophale) SiO2 
 PCOD8212603
Probable space group: P M M A
;
_chemical_formula_sum "Si O2"
_cell_formula_units_Z 44
_cell_length_a 9.012020
_cell_length_b 7.990374
_cell_length_c 29.734871
_cell_angle_alpha 90.000000
_cell_angle_beta 90.000000
_cell_angle_gamma 90.000000
_cell_volume 2141.190526
_symmetry_space_group_name_H-M "P M M A"
_symmetry_group_IT_number 51
_symmetry_cell_setting 'orthorhombic'
loop_
_space_group_symop_operation_xyz
x,y,z
1/2-x,-y,z
1/2+x,-y,-z
-x,y,-z
-x,-y,-z
1/2+x,y,-z
1/2-x,y,z
x,-y,z
loop_
_atom_site_type_symbol
_atom_site_label
_atom_site_fract_x
_atom_site_fract_y
_atom_site_fract_z
Si Si1 0.582748 0.301716 0.043511
Si Si2 0.921029 0.808957 0.683077
Si Si3 0.423627 0.309143 0.599206
Si Si4 0.928564 0.000000 0.548656
Si Si5 0.414286 0.309791 0.222862
Si Si6 0.578737 0.808395 0.138249
O O1 0.750000 0.234497 0.040519
O O2 0.575119 0.500000 0.043491
O O3 0.507006 0.236157 0.089714
O O4 0.500000 0.227327 0.000000
O O5 0.750000 0.747592 0.680065
O O6 0.978451 0.792981 0.734573
O O7 0.024453 0.697638 0.651049
O O8 0.934683 0.000000 0.667090
O O9 0.250000 0.264225 0.595578
O O10 0.451791 0.500000 0.581565
O O11 0.518519 0.171938 0.572114
O O12 0.000000 0.000000 0.500000
O O13 0.750000 0.000000 0.546828
O O14 0.250000 0.242889 0.210985
O O15 0.410068 0.500000 0.238797
O O16 0.511251 0.298081 0.178316
O O17 0.750000 0.759205 0.135617
O O18 0.550829 0.000000 0.149910
#
# Coordination Sequence:
#
# PCOD8212603 Si02
#       6
#     8   8   8   4   8   8
#     4   9  18  33  52  73  98 130 170 218 272 334
#     4  10  20  36  60  89 121 161 205 252 307 364
#     4  11  24  42  66  98 135 174 218 268 321 381
#     4  12  26  46  72 100 134 176 220 272 327 380
#     4  10  21  36  55  81 113 150 194 241 289 347
#     4  10  21  36  53  75 105 141 181 226 280 340
#
# _framework density 20.549316000000001
#
# number of rings (size 3 to 8) (size 9 to 14) (size 15 to 20)
#    0.000    1.818    0.909    3.000    0.000    6.545 
#    0.000    1.818    0.000    0.000    0.000    0.000 
#    0.000    0.000    0.000    0.000    0.000    0.000 
#
# Total GULP energy -545539.906100 kJ/mol
# GULP energy per Si atom -12398.634230 kJ/mol
# Density = 2.050254 g / cm^3
# Si number density = 20.549316 Si / 1000 Ang^3
#
#
#
# Elastic Constant Matrix: (Units=GPa)
#
#
# Indices 1 2 3 4 5 6 
#
# 1 91.8660 44.6653 56.4581 0.0000 0.0000 0.0000
# 2 44.6653 81.2928 41.2325 0.0000 0.0000 0.0000
# 3 56.4581 41.2325 141.4088 0.0000 0.0000 0.0000
# 4 0.0000 0.0000 0.0000 30.5736 0.0000 0.0000
# 5 0.0000 0.0000 0.0000 0.0000 39.5307 0.0000
# 6 0.0000 0.0000 0.0000 0.0000 0.0000 25.7655
#
#
#
# Elastic Compliance Matrix: (Units=1/GPa)
#
#
# Indices 1 2 3 4 5 6 
#
# 1 0.017288 -0.007039 -0.004850 0.000000 0.000000 0.000000
# 2 -0.007039 0.017302 -0.002235 0.000000 0.000000 0.000000
# 3 -0.004850 -0.002235 0.009660 0.000000 0.000000 0.000000
# 4 0.000000 0.000000 0.000000 0.032708 0.000000 0.000000
# 5 0.000000 0.000000 0.000000 0.000000 0.025297 0.000000
# 6 0.000000 0.000000 0.000000 0.000000 0.000000 0.038812
#
#
# Mechanical properties :
#
#
# Convention : Reuss Voigt Hill
#
# Bulk Modulus (GPa) = 62.48858 66.58660 64.53759
# Shear Modulus (GPa) = 28.62895 30.65472 29.64184
#
# Velocity S-wave (km/s) = 3.73659 3.86653 3.80211
# Velocity P-wave (km/s) = 7.00651 7.23927 7.12384
#
# Compressibility (1/GPa) = 0.01600292
#
# Stress axis : x y z
#
# Youngs Moduli (GPa) = 57.84205 57.79639 103.52279
#
# Poissons Ratio (x) = 0.40682 0.50209
# Poissons Ratio (y) = 0.40715 0.23134
# Poissons Ratio (z) = 0.28054 0.12916
#
# Static dielectric constant tensor:
#      x y z
#    x 3.858420 0.000000 0.000000 
#    y 0.000000 3.666210 0.000000 
#    z 0.000000 0.000000 3.831370 
# 
# 
# High freq. dielectric constant tensor:
#      x y z
#    x 1.786810 0.000000 0.000000 
#    y 0.000000 1.807340 0.000000 
#    z 0.000000 0.000000 1.813860 
# 
# From -- ./inp_files/36826.got.cif
#   From: 2010.03.12/outbox.cif.g09.slc.cpg/sg51_19_cif.got.tgz:36826.got - 2010.04.16 13:43:02.
