data_PCOD8212527
_publ_section_title
;
Structure prediction by ZEFSAII (Michael W. Deem and Ramdas Pophale) SiO2 
 PCOD8212527
Probable space group: P M M A
;
_chemical_formula_sum "Si O2"
_cell_formula_units_Z 48
_cell_length_a 17.818320
_cell_length_b 8.943034
_cell_length_c 15.380439
_cell_angle_alpha 90.000000
_cell_angle_beta 90.000000
_cell_angle_gamma 90.000000
_cell_volume 2450.870518
_symmetry_space_group_name_H-M "P M M A"
_symmetry_group_IT_number 51
_symmetry_cell_setting 'orthorhombic'
loop_
_space_group_symop_operation_xyz
x,y,z
1/2-x,-y,z
1/2+x,-y,-z
-x,y,-z
-x,-y,-z
1/2+x,y,-z
1/2-x,y,z
x,-y,z
loop_
_atom_site_type_symbol
_atom_site_label
_atom_site_fract_x
_atom_site_fract_y
_atom_site_fract_z
Si Si1 0.089838 0.823724 0.672542
Si Si2 0.662958 0.324145 0.163565
Si Si3 0.432482 0.324614 0.349594
Si Si4 0.163980 0.675041 0.183836
Si Si5 0.839150 0.831776 0.988950
Si Si6 0.164087 0.670803 0.516368
O O1 0.113121 0.749979 0.762740
O O2 0.147761 0.776447 0.597831
O O3 0.007762 0.769775 0.645829
O O4 0.091429 0.000000 0.683703
O O5 0.750000 0.282097 0.178439
O O6 0.650306 0.500000 0.165309
O O7 0.632877 0.262423 0.071641
O O8 0.451462 0.500000 0.346927
O O9 0.384634 0.275290 0.266171
O O10 0.385959 0.281680 0.434861
O O11 0.250000 0.721382 0.202002
O O12 0.157932 0.500000 0.165791
O O13 0.130186 0.758339 0.099645
O O14 0.750000 0.828519 0.986210
O O15 0.870215 0.000000 0.996418
O O16 0.250000 0.690264 0.487978
O O17 0.147220 0.500000 0.544004
#
# Coordination Sequence:
#
# PCOD8212527 Si02
#       6
#     8   8   8   8   8   8
#     4  12  25  38  54  80 115 150 182 222 275 332
#     4  10  20  36  59  83 107 141 187 234 276 322
#     4  10  21  38  59  82 111 147 185 226 271 321
#     4   9  17  32  56  84 111 142 184 230 273 320
#     4   9  17  30  51  81 115 147 179 221 274 327
#     4  10  21  39  63  87 109 139 183 230 273 321
#
# _framework density 19.584879000000001
#
# number of rings (size 3 to 8) (size 9 to 14) (size 15 to 20)
#    0.000    2.000    0.000    4.000    0.000   10.667 
#    0.000    0.833    0.000    8.000    0.000    0.000 
#    0.000    0.000    0.000    0.000    0.000    0.000 
#
# Total GULP energy -595400.241515 kJ/mol
# GULP energy per Si atom -12404.171698 kJ/mol
# Density = 1.954030 g / cm^3
# Si number density = 19.584879 Si / 1000 Ang^3
#
#
#
# Elastic Constant Matrix: (Units=GPa)
#
#
# Indices 1 2 3 4 5 6 
#
# 1 59.4521 21.7304 21.9588 0.0000 0.0000 0.0000
# 2 21.7304 78.5243 39.3740 0.0000 0.0000 0.0000
# 3 21.9588 39.3740 122.5273 0.0000 0.0000 0.0000
# 4 0.0000 0.0000 0.0000 7.6834 0.0000 0.0000
# 5 0.0000 0.0000 0.0000 0.0000 1.5207 0.0000
# 6 0.0000 0.0000 0.0000 0.0000 0.0000 18.7788
#
#
#
# Elastic Compliance Matrix: (Units=1/GPa)
#
#
# Indices 1 2 3 4 5 6 
#
# 1 0.019140 -0.004264 -0.002060 0.000000 0.000000 0.000000
# 2 -0.004264 0.016131 -0.004420 0.000000 0.000000 0.000000
# 3 -0.002060 -0.004420 0.009951 0.000000 0.000000 0.000000
# 4 0.000000 0.000000 0.000000 0.130151 0.000000 0.000000
# 5 0.000000 0.000000 0.000000 0.000000 0.657595 0.000000
# 6 0.000000 0.000000 0.000000 0.000000 0.000000 0.053252
#
#
# Mechanical properties :
#
#
# Convention : Reuss Voigt Hill
#
# Bulk Modulus (GPa) = 42.13198 47.40333 44.76766
# Shear Modulus (GPa) = 5.46080 17.42594 11.44337
#
# Velocity S-wave (km/s) = 1.67162 2.98613 2.41984
# Velocity P-wave (km/s) = 5.02842 6.01214 5.54215
#
# Compressibility (1/GPa) = 0.02373494
#
# Stress axis : x y z
#
# Youngs Moduli (GPa) = 52.24785 61.99292 100.49413
#
# Poissons Ratio (x) = 0.26432 0.20702
# Poissons Ratio (y) = 0.22277 0.44414
# Poissons Ratio (z) = 0.10763 0.27398
#
# Static dielectric constant tensor:
#      x y z
#    x 3.425800 0.000000 0.000000 
#    y 0.000000 3.567330 0.000000 
#    z 0.000000 0.000000 3.755530 
# 
# 
# High freq. dielectric constant tensor:
#      x y z
#    x 1.746150 0.000000 0.000000 
#    y 0.000000 1.758280 0.000000 
#    z 0.000000 0.000000 1.780440 
# 
# From -- ./inp_files/24677.got.cif
#   From: 2010.03.12/outbox.cif.g09.slc.cpg/sg51_13_cif.got.tgz:24677.got - 2010.04.16 13:43:02.
