data_PCOD8212197
_publ_section_title
;
Structure prediction by ZEFSAII (Michael W. Deem and Ramdas Pophale) SiO2 
 PCOD8212197
Probable space group: P M M A
;
_chemical_formula_sum "Si O2"
_cell_formula_units_Z 56
_cell_length_a 14.106296
_cell_length_b 9.105828
_cell_length_c 22.454278
_cell_angle_alpha 90.000000
_cell_angle_beta 90.000000
_cell_angle_gamma 90.000000
_cell_volume 2884.240896
_symmetry_space_group_name_H-M "P M M A"
_symmetry_group_IT_number 51
_symmetry_cell_setting 'orthorhombic'
loop_
_space_group_symop_operation_xyz
x,y,z
1/2-x,-y,z
1/2+x,-y,-z
-x,y,-z
-x,-y,-z
1/2+x,y,-z
1/2-x,y,z
x,-y,z
loop_
_atom_site_type_symbol
_atom_site_label
_atom_site_fract_x
_atom_site_fract_y
_atom_site_fract_z
Si Si1 0.640203 0.329135 0.759684
Si Si2 0.356604 0.670603 0.894920
Si Si3 0.037804 0.173373 0.134472
Si Si4 0.358680 0.332993 0.033510
Si Si5 0.858723 0.827520 0.409511
Si Si6 0.476461 0.327411 0.355670
Si Si7 0.859442 0.668822 0.529562
O O1 0.750000 0.296931 0.746331
O O2 0.623776 0.500000 0.773899
O O3 0.607564 0.235647 0.815813
O O4 0.580036 0.277730 0.702760
O O5 0.250000 0.716017 0.875969
O O6 0.373488 0.500000 0.881344
O O7 0.431181 0.764994 0.856718
O O8 0.371632 0.703955 0.964445
O O9 0.076170 0.222352 0.070169
O O10 0.035523 0.000000 0.138756
O O11 0.250000 0.312555 0.052970
O O12 0.391287 0.500000 0.046630
O O13 0.750000 0.784767 0.396264
O O14 0.891610 0.763812 0.473119
O O15 0.922787 0.755973 0.357697
O O16 0.874044 0.000000 0.410327
O O17 0.495019 0.500000 0.355193
O O18 0.416205 0.277948 0.412867
O O19 0.750000 0.693265 0.544782
O O20 0.881403 0.500000 0.513960
#
# Coordination Sequence:
#
# PCOD8212197 Si02
#       7
#     8   8   8   8   8   8   8
#     4  10  22  41  62  81 104 138 181 226 268 315
#     4   9  19  37  60  83 107 140 184 228 268 316
#     4  12  24  35  52  81 115 148 180 218 269 325
#     4   9  18  34  57  83 110 143 183 225 268 316
#     4  10  21  35  51  76 111 147 179 211 255 316
#     4  10  20  35  57  82 104 133 178 227 272 314
#     4   9  17  31  53  81 111 139 170 215 268 317
#
# _framework density 19.415855000000001
#
# number of rings (size 3 to 8) (size 9 to 14) (size 15 to 20)
#    0.000    2.143    0.000    4.286    0.000   10.286 
#    0.000    2.143    0.000    3.429    0.000    0.000 
#    0.000    0.000    0.000    0.000    0.000    0.000 
#
# Total GULP energy -694578.015621 kJ/mol
# GULP energy per Si atom -12403.178850 kJ/mol
# Density = 1.937166 g / cm^3
# Si number density = 19.415855 Si / 1000 Ang^3
#
#
#
# Elastic Constant Matrix: (Units=GPa)
#
#
# Indices 1 2 3 4 5 6 
#
# 1 95.7832 45.6562 36.8637 0.0000 0.0000 0.0000
# 2 45.6562 76.6972 32.0017 0.0000 0.0000 0.0000
# 3 36.8637 32.0017 50.4634 0.0000 0.0000 0.0000
# 4 0.0000 0.0000 0.0000 -0.5085 0.0000 0.0000
# 5 0.0000 0.0000 0.0000 0.0000 35.1963 0.0000
# 6 0.0000 0.0000 0.0000 0.0000 0.0000 22.1949
#
#
#
# Elastic Compliance Matrix: (Units=1/GPa)
#
#
# Indices 1 2 3 4 5 6 
#
# 1 0.016652 -0.006577 -0.007993 0.000000 0.000000 0.000000
# 2 -0.006577 0.020327 -0.008086 0.000000 0.000000 0.000000
# 3 -0.007993 -0.008086 0.030783 0.000000 0.000000 0.000000
# 4 0.000000 0.000000 0.000000 -1.966382 0.000000 0.000000
# 5 0.000000 0.000000 0.000000 0.000000 0.028412 0.000000
# 6 0.000000 0.000000 0.000000 0.000000 0.000000 0.045055
#
#
# Mechanical properties :
#
#
# Convention : Reuss Voigt Hill
#
# Bulk Modulus (GPa) = 44.54456 50.22078 47.38267
# Shear Modulus (GPa) = -2.82110 18.60468 7.89179
#
# Velocity S-wave (km/s) = -1.20671 3.09887 2.01828
# Velocity P-wave (km/s) = 4.58810 6.22302 5.46702
#
# Compressibility (1/GPa) = 0.02244943
#
# Stress axis : x y z
#
# Youngs Moduli (GPa) = 60.05418 49.19448 32.48524
#
# Poissons Ratio (x) = 0.32356 0.25966
# Poissons Ratio (y) = 0.39499 0.26268
# Poissons Ratio (z) = 0.48002 0.39779
#
# Static dielectric constant tensor:
#      x y z
#    x 3.796230 0.000000 0.000000 
#    y 0.000000 3.355360 0.000000 
#    z 0.000000 0.000000 3.395800 
# 
# 
# High freq. dielectric constant tensor:
#      x y z
#    x 1.775440 0.000000 0.000000 
#    y 0.000000 1.738650 0.000000 
#    z 0.000000 0.000000 1.736300 
# 
# From -- ./inp_files/33416.got.cif
#   From: 2010.03.12/outbox.cif.g09.slc.cpg/sg51_17_cif.got.tgz:33416.got - 2010.04.16 13:43:02.
