data_PCOD8212857
_publ_section_title
;
Structure prediction by ZEFSAII (Michael W. Deem and Ramdas Pophale) SiO2 
 PCOD8212857
Probable space group: P M M A
;
_chemical_formula_sum "Si O2"
_cell_formula_units_Z 48
_cell_length_a 16.318698
_cell_length_b 9.061714
_cell_length_c 16.046543
_cell_angle_alpha 90.000000
_cell_angle_beta 90.000000
_cell_angle_gamma 90.000000
_cell_volume 2372.888550
_symmetry_space_group_name_H-M "P M M A"
_symmetry_group_IT_number 51
_symmetry_cell_setting 'orthorhombic'
loop_
_space_group_symop_operation_xyz
x,y,z
1/2-x,-y,z
1/2+x,-y,-z
-x,y,-z
-x,-y,-z
1/2+x,y,-z
1/2-x,y,z
x,-y,z
loop_
_atom_site_type_symbol
_atom_site_label
_atom_site_fract_x
_atom_site_fract_y
_atom_site_fract_z
Si Si1 0.250000 0.325161 0.736661
Si Si2 0.497810 0.328257 0.771516
Si Si3 0.432898 0.828798 0.932753
Si Si4 0.160720 0.670129 0.299898
Si Si5 0.844768 0.168257 0.534640
Si Si6 0.397999 0.174739 0.644089
Si Si7 0.750000 0.169399 0.091122
O O1 0.250000 0.500000 0.728995
O O2 0.327876 0.258682 0.692833
O O3 0.250000 0.281411 0.833053
O O4 0.473304 0.500000 0.764299
O O5 0.450275 0.261374 0.849286
O O6 0.596739 0.306924 0.776411
O O7 0.479136 0.239264 0.686434
O O8 0.336502 0.803393 0.959779
O O9 0.448896 0.000000 0.913984
O O10 0.500000 0.772437 0.000000
O O11 0.250000 0.736291 0.274074
O O12 0.169600 0.500000 0.320679
O O13 0.128092 0.740272 0.385432
O O14 0.750000 0.193535 0.511142
O O15 0.897560 0.214989 0.453765
O O16 0.862809 0.000000 0.557533
O O17 0.388802 0.000000 0.657333
O O18 0.750000 0.000000 0.123023
#
# Coordination Sequence:
#
# PCOD8212857 Si02
#       7
#     4   8   8   8   8   8   4
#     4  12  22  32  54  88 119 152 197 236 281 348
#     4  11  23  38  58  86 117 149 193 245 293 352
#     4  10  22  41  64  90 121 156 193 235 291 355
#     4   9  20  39  58  76 108 155 200 243 296 348
#     4   9  18  33  53  78 109 149 200 246 287 341
#     4  11  21  35  55  82 119 156 192 239 296 348
#     4  10  20  38  64  88 119 160 191 230 291 352
#
# _framework density 20.228511000000001
#
# number of rings (size 3 to 8) (size 9 to 14) (size 15 to 20)
#    0.000    1.833    2.500    1.750    0.000    3.667 
#    1.500    3.333    0.000    0.000    0.000    0.000 
#    0.000    0.000    0.000    0.000    0.000    0.000 
#
# Total GULP energy -594780.321889 kJ/mol
# GULP energy per Si atom -12391.256706 kJ/mol
# Density = 2.018247 g / cm^3
# Si number density = 20.228511 Si / 1000 Ang^3
#
#
#
# Elastic Constant Matrix: (Units=GPa)
#
#
# Indices 1 2 3 4 5 6 
#
# 1 131.6612 32.5059 48.4894 0.0000 0.0000 0.0000
# 2 32.5059 67.7074 17.4880 0.0000 0.0000 0.0000
# 3 48.4894 17.4880 46.6770 0.0000 0.0000 0.0000
# 4 0.0000 0.0000 0.0000 -41.2541 0.0000 0.0000
# 5 0.0000 0.0000 0.0000 0.0000 36.8741 0.0000
# 6 0.0000 0.0000 0.0000 0.0000 0.0000 23.6799
#
#
#
# Elastic Compliance Matrix: (Units=1/GPa)
#
#
# Indices 1 2 3 4 5 6 
#
# 1 0.012833 -0.003009 -0.012203 0.000000 0.000000 0.000000
# 2 -0.003009 0.017057 -0.003265 0.000000 0.000000 0.000000
# 3 -0.012203 -0.003265 0.035324 0.000000 0.000000 0.000000
# 4 0.000000 0.000000 0.000000 -0.024240 0.000000 0.000000
# 5 0.000000 0.000000 0.000000 0.000000 0.027119 0.000000
# 6 0.000000 0.000000 0.000000 0.000000 0.000000 0.042230
#
#
# Mechanical properties :
#
#
# Convention : Reuss Voigt Hill
#
# Bulk Modulus (GPa) = 35.38630 49.22359 42.30494
# Shear Modulus (GPa) = 31.90854 13.69748 22.80301
#
# Velocity S-wave (km/s) = 3.97596 2.60501 3.36113
# Velocity P-wave (km/s) = 6.21361 5.78227 6.00182
#
# Compressibility (1/GPa) = 0.02825953
#
# Stress axis : x y z
#
# Youngs Moduli (GPa) = 77.92709 58.62611 28.30901
#
# Poissons Ratio (x) = 0.17639 0.34547
# Poissons Ratio (y) = 0.23447 0.09243
# Poissons Ratio (z) = 0.95098 0.19142
#
# Static dielectric constant tensor:
#      x y z
#    x 3.954150 0.000000 0.000000 
#    y 0.000000 3.641060 0.000000 
#    z 0.000000 0.000000 3.456540 
# 
# 
# High freq. dielectric constant tensor:
#      x y z
#    x 1.810540 0.000000 0.000000 
#    y 0.000000 1.787210 0.000000 
#    z 0.000000 0.000000 1.758600 
# 
# From -- ./inp_files/25010.got.cif
#   From: 2010.03.12/outbox.cif.g09.slc.cpg/sg51_13_cif.got.tgz:25010.got - 2010.04.16 13:43:02.
