data_PCOD8212434
_publ_section_title
;
Structure prediction by ZEFSAII (Michael W. Deem and Ramdas Pophale) SiO2 
 PCOD8212434
Probable space group: P M M A
;
_chemical_formula_sum "Si O2"
_cell_formula_units_Z 48
_cell_length_a 8.772266
_cell_length_b 29.921959
_cell_length_c 9.578210
_cell_angle_alpha 90.000000
_cell_angle_beta 90.000000
_cell_angle_gamma 90.000000
_cell_volume 2514.120970
_symmetry_space_group_name_H-M "P M M A"
_symmetry_group_IT_number 51
_symmetry_cell_setting 'orthorhombic'
loop_
_space_group_symop_operation_xyz
x,y,z
1/2-x,-y,z
1/2+x,-y,-z
-x,y,-z
-x,-y,-z
1/2+x,y,-z
1/2-x,y,z
x,-y,z
loop_
_atom_site_type_symbol
_atom_site_label
_atom_site_fract_x
_atom_site_fract_y
_atom_site_fract_z
Si Si1 0.430192 0.178108 0.853069
Si Si2 0.072090 0.325968 0.143534
Si Si3 0.428767 0.923897 0.855793
Si Si4 0.069374 0.248975 0.348151
Si Si5 0.430151 0.000000 0.651173
Si Si6 0.568984 0.427853 0.852260
Si Si7 0.568121 0.500000 0.346517
O O1 0.250000 0.185229 0.857901
O O2 0.476640 0.126915 0.822554
O O3 0.502322 0.205944 0.728189
O O4 0.500000 0.194224 0.000000
O O5 0.250000 0.322804 0.121033
O O6 0.017698 0.293898 0.267875
O O7 0.023153 0.376599 0.178284
O O8 0.000000 0.308806 0.000000
O O9 0.250000 0.928337 0.873592
O O10 0.487911 0.955759 0.732014
O O11 0.500000 0.940653 0.000000
O O12 0.250000 0.244403 0.356879
O O13 0.000000 0.252178 0.500000
O O14 0.500000 0.000000 0.500000
O O15 0.250000 0.000000 0.637378
O O16 0.750000 0.435669 0.853580
O O17 0.491644 0.455981 0.730615
O O18 0.500000 0.443463 0.000000
O O19 0.750000 0.500000 0.352055
O O20 0.500000 0.500000 0.500000
#
# Coordination Sequence:
#
# PCOD8212434 Si02
#       7
#     8   8   8   8   4   8   4
#     4  10  20  36  57  82 109 141 180 225 271 323
#     4   9  20  37  59  84 110 141 182 226 271 320
#     4   9  19  35  56  80 106 136 177 222 267 317
#     4  11  23  38  55  80 112 148 184 224 273 326
#     4  10  21  36  52  76 108 142 177 218 266 320
#     4  10  20  38  61  86 113 145 184 227 271 321
#     4  12  25  40  57  82 114 150 186 226 275 328
#
# _framework density 19.092161000000001
#
# number of rings (size 3 to 8) (size 9 to 14) (size 15 to 20)
#    0.000    2.000    0.000    3.250    0.000    6.000 
#    0.000    3.333    0.000    0.000    0.000    0.000 
#    0.000    0.000    0.000    0.000    0.000    0.000 
#
# Total GULP energy -595358.708244 kJ/mol
# GULP energy per Si atom -12403.306422 kJ/mol
# Density = 1.904871 g / cm^3
# Si number density = 19.092161 Si / 1000 Ang^3
#
#
#
# Elastic Constant Matrix: (Units=GPa)
#
#
# Indices 1 2 3 4 5 6 
#
# 1 77.8686 48.0485 63.0064 0.0000 0.0000 0.0000
# 2 48.0485 121.8248 98.8313 0.0000 0.0000 0.0000
# 3 63.0064 98.8313 194.5300 0.0000 0.0000 0.0000
# 4 0.0000 0.0000 0.0000 30.7310 0.0000 0.0000
# 5 0.0000 0.0000 0.0000 0.0000 39.6603 0.0000
# 6 0.0000 0.0000 0.0000 0.0000 0.0000 25.5904
#
#
#
# Elastic Compliance Matrix: (Units=1/GPa)
#
#
# Indices 1 2 3 4 5 6 
#
# 1 0.018563 -0.004157 -0.003900 0.000000 0.000000 0.000000
# 2 -0.004157 0.014895 -0.006221 0.000000 0.000000 0.000000
# 3 -0.003900 -0.006221 0.009564 0.000000 0.000000 0.000000
# 4 0.000000 0.000000 0.000000 0.032540 0.000000 0.000000
# 5 0.000000 0.000000 0.000000 0.000000 0.025214 0.000000
# 6 0.000000 0.000000 0.000000 0.000000 0.000000 0.039077
#
#
# Mechanical properties :
#
#
# Convention : Reuss Voigt Hill
#
# Bulk Modulus (GPa) = 69.12966 90.44398 79.78682
# Shear Modulus (GPa) = 28.86283 31.48550 30.17417
#
# Velocity S-wave (km/s) = 3.89236 4.06536 3.97980
# Velocity P-wave (km/s) = 7.51582 8.33734 7.93722
#
# Compressibility (1/GPa) = 0.01446557
#
# Stress axis : x y z
#
# Youngs Moduli (GPa) = 53.86969 67.13704 104.55434
#
# Poissons Ratio (x) = 0.27911 0.40780
# Poissons Ratio (y) = 0.22395 0.65042
# Poissons Ratio (z) = 0.21011 0.41765
#
# Static dielectric constant tensor:
#      x y z
#    x 3.526000 0.000000 0.000000 
#    y 0.000000 3.851610 0.000000 
#    z 0.000000 0.000000 3.129440 
# 
# 
# High freq. dielectric constant tensor:
#      x y z
#    x 1.747720 0.000000 0.000000 
#    y 0.000000 1.756900 0.000000 
#    z 0.000000 0.000000 1.741500 
# 
# From -- ./inp_files/6106.got.cif
#   From: 2010.03.12/outbox.cif.g09.slc.cpg/sg51_4_cif.got.tgz:6106.got - 2010.04.16 13:43:02.
