data_PCOD8212284
_publ_section_title
;
Structure prediction by ZEFSAII (Michael W. Deem and Ramdas Pophale) SiO2 
 PCOD8212284
Probable space group: P M M A
;
_chemical_formula_sum "Si O2"
_cell_formula_units_Z 52
_cell_length_a 9.310384
_cell_length_b 14.692811
_cell_length_c 20.204020
_cell_angle_alpha 90.000000
_cell_angle_beta 90.000000
_cell_angle_gamma 90.000000
_cell_volume 2763.823310
_symmetry_space_group_name_H-M "P M M A"
_symmetry_group_IT_number 51
_symmetry_cell_setting 'orthorhombic'
loop_
_space_group_symop_operation_xyz
x,y,z
1/2-x,-y,z
1/2+x,-y,-z
-x,y,-z
-x,-y,-z
1/2+x,y,-z
1/2-x,y,z
x,-y,z
loop_
_atom_site_type_symbol
_atom_site_label
_atom_site_fract_x
_atom_site_fract_y
_atom_site_fract_z
Si Si1 0.086588 0.101234 0.307875
Si Si2 0.411871 0.605103 0.777273
Si Si3 0.417967 0.104257 0.065322
Si Si4 0.415312 0.500000 0.433502
Si Si5 0.415780 0.155194 0.568195
Si Si6 0.407087 0.647489 0.627611
Si Si7 0.419658 0.772894 0.187548
O O1 0.250000 0.125965 0.328280
O O2 0.029948 0.173839 0.253899
O O3 0.988557 0.098323 0.373224
O O4 0.081036 0.000000 0.276230
O O5 0.250000 0.605172 0.805457
O O6 0.469243 0.500000 0.775895
O O7 0.414736 0.653267 0.706114
O O8 0.510665 0.672278 0.820696
O O9 0.250000 0.115614 0.052149
O O10 0.470201 0.167192 0.125471
O O11 0.457014 0.000000 0.082665
O O12 0.500000 0.137265 0.000000
O O13 0.250000 0.500000 0.449208
O O14 0.500000 0.500000 0.500000
O O15 0.457618 0.588133 0.392684
O O16 0.500000 0.138086 0.500000
O O17 0.250000 0.125037 0.559215
O O18 0.427548 0.258925 0.590095
O O19 0.250000 0.606004 0.608089
O O20 0.250000 0.760040 0.188405
#
# Coordination Sequence:
#
# PCOD8212284 Si02
#       7
#     8   8   8   4   8   8   8
#     4  10  21  37  57  81 109 142 181 226 278 335
#     4  10  20  36  57  80 110 145 181 226 280 332
#     4   9  18  34  57  88 125 160 190 223 267 320
#     4  12  24  34  50  74 100 132 173 222 281 346
#     4  11  23  38  56  75 100 137 181 230 282 336
#     4  10  20  37  55  73 101 135 174 225 284 339
#     4  10  20  35  58  86 117 149 185 228 274 324
#
# _framework density 18.814516999999999
#
# number of rings (size 3 to 8) (size 9 to 14) (size 15 to 20)
#    0.000    1.846    2.308    2.077    0.000    6.462 
#    0.000    0.000    0.000    3.231    0.000    0.000 
#    0.000    0.000    0.000    0.000    0.000    0.000 
#
# Total GULP energy -644585.416695 kJ/mol
# GULP energy per Si atom -12395.873398 kJ/mol
# Density = 1.877169 g / cm^3
# Si number density = 18.814517 Si / 1000 Ang^3
#
#
#
# Elastic Constant Matrix: (Units=GPa)
#
#
# Indices 1 2 3 4 5 6 
#
# 1 89.4854 43.4843 44.5484 0.0000 0.0000 0.0000
# 2 43.4843 99.3735 46.2026 0.0000 0.0000 0.0000
# 3 44.5484 46.2026 104.4688 0.0000 0.0000 0.0000
# 4 0.0000 0.0000 0.0000 27.1817 0.0000 0.0000
# 5 0.0000 0.0000 0.0000 0.0000 29.6587 0.0000
# 6 0.0000 0.0000 0.0000 0.0000 0.0000 27.6293
#
#
#
# Elastic Compliance Matrix: (Units=1/GPa)
#
#
# Indices 1 2 3 4 5 6 
#
# 1 0.015792 -0.004758 -0.004630 0.000000 0.000000 0.000000
# 2 -0.004758 0.014101 -0.004208 0.000000 0.000000 0.000000
# 3 -0.004630 -0.004208 0.013407 0.000000 0.000000 0.000000
# 4 0.000000 0.000000 0.000000 0.036789 0.000000 0.000000
# 5 0.000000 0.000000 0.000000 0.000000 0.033717 0.000000
# 6 0.000000 0.000000 0.000000 0.000000 0.000000 0.036193
#
#
# Mechanical properties :
#
#
# Convention : Reuss Voigt Hill
#
# Bulk Modulus (GPa) = 62.07303 62.42201 62.24752
# Shear Modulus (GPa) = 27.38814 27.50011 27.44412
#
# Velocity S-wave (km/s) = 3.81949 3.82729 3.82339
# Velocity P-wave (km/s) = 7.24673 7.26502 7.25588
#
# Compressibility (1/GPa) = 0.01611006
#
# Stress axis : x y z
#
# Youngs Moduli (GPa) = 63.32386 70.91589 74.58527
#
# Poissons Ratio (x) = 0.33739 0.34533
# Poissons Ratio (y) = 0.30127 0.31383
# Poissons Ratio (z) = 0.29319 0.29839
#
# Static dielectric constant tensor:
#      x y z
#    x 3.211680 0.000000 0.000000 
#    y 0.000000 3.467880 0.000000 
#    z 0.000000 0.000000 3.317050 
# 
# 
# High freq. dielectric constant tensor:
#      x y z
#    x 1.729260 0.000000 0.000000 
#    y 0.000000 1.734190 0.000000 
#    z 0.000000 0.000000 1.709310 
# 
# From -- ./inp_files/31774.got.cif
#   From: 2010.03.12/outbox.cif.g09.slc.cpg/sg51_16_cif.got.tgz:31774.got - 2010.04.16 13:43:02.
