data_PCOD8212630
_publ_section_title
;
Structure prediction by ZEFSAII (Michael W. Deem and Ramdas Pophale) SiO2 
 PCOD8212630
Probable space group: P M M A
;
_chemical_formula_sum "Si O2"
_cell_formula_units_Z 48
_cell_length_a 14.622375
_cell_length_b 8.924996
_cell_length_c 19.290966
_cell_angle_alpha 90.000000
_cell_angle_beta 90.000000
_cell_angle_gamma 90.000000
_cell_volume 2517.560542
_symmetry_space_group_name_H-M "P M M A"
_symmetry_group_IT_number 51
_symmetry_cell_setting 'orthorhombic'
loop_
_space_group_symop_operation_xyz
x,y,z
1/2-x,-y,z
1/2+x,-y,-z
-x,y,-z
-x,-y,-z
1/2+x,y,-z
1/2-x,y,z
x,-y,z
loop_
_atom_site_type_symbol
_atom_site_label
_atom_site_fract_x
_atom_site_fract_y
_atom_site_fract_z
Si Si1 0.750000 0.176718 0.125651
Si Si2 0.016153 0.324962 0.668650
Si Si3 0.143961 0.829183 0.562103
Si Si4 0.439186 0.177691 0.813076
Si Si5 0.250000 0.329037 0.019078
Si Si6 0.645137 0.172554 0.597781
Si Si7 0.551546 0.326401 0.930510
O O1 0.659561 0.240675 0.162888
O O2 0.750000 0.221286 0.046037
O O3 0.750000 0.000000 0.130036
O O4 0.019561 0.500000 0.683684
O O5 0.086602 0.284464 0.608072
O O6 0.042776 0.237548 0.737156
O O7 0.914343 0.279274 0.646230
O O8 0.250000 0.806954 0.579688
O O9 0.124156 0.791446 0.482249
O O10 0.114360 0.000000 0.578303
O O11 0.517083 0.232632 0.865391
O O12 0.440773 0.000000 0.811585
O O13 0.250000 0.500000 0.992060
O O14 0.339947 0.297019 0.064570
O O15 0.750000 0.206677 0.615301
O O16 0.621402 0.000000 0.613434
O O17 0.529015 0.500000 0.917527
O O18 0.500000 0.270892 0.000000
#
# Coordination Sequence:
#
# PCOD8212630 Si02
#       7
#     4   8   8   8   4   8   8
#     4  10  22  38  60  88 114 145 190 241 290 336
#     4  12  25  38  56  86 122 158 193 237 295 353
#     4   9  19  37  62  89 117 152 195 241 287 342
#     4  11  24  41  60  84 116 155 197 242 288 341
#     4  10  20  36  62  90 118 151 184 229 290 352
#     4   9  19  39  65  88 112 150 199 244 288 343
#     4  10  20  37  61  89 119 151 189 233 286 347
#
# _framework density 19.066075000000001
#
# number of rings (size 3 to 8) (size 9 to 14) (size 15 to 20)
#    0.000    1.833    1.667    3.500    1.167    5.000 
#    1.500    1.667    0.000    0.000    0.000    0.000 
#    0.000    0.000    0.000    0.000    0.000    0.000 
#
# Total GULP energy -595389.598972 kJ/mol
# GULP energy per Si atom -12403.949979 kJ/mol
# Density = 1.902268 g / cm^3
# Si number density = 19.066075 Si / 1000 Ang^3
#
#
#
# Elastic Constant Matrix: (Units=GPa)
#
#
# Indices 1 2 3 4 5 6 
#
# 1 129.4995 32.0955 48.7367 0.0000 0.0000 0.0000
# 2 32.0955 48.3722 22.2988 0.0000 0.0000 0.0000
# 3 48.7367 22.2988 71.2913 0.0000 0.0000 0.0000
# 4 0.0000 0.0000 0.0000 20.0851 0.0000 0.0000
# 5 0.0000 0.0000 0.0000 0.0000 7.7173 0.0000
# 6 0.0000 0.0000 0.0000 0.0000 0.0000 13.8864
#
#
#
# Elastic Compliance Matrix: (Units=1/GPa)
#
#
# Indices 1 2 3 4 5 6 
#
# 1 0.011195 -0.004557 -0.006228 0.000000 0.000000 0.000000
# 2 -0.004557 0.026011 -0.005020 0.000000 0.000000 0.000000
# 3 -0.006228 -0.005020 0.019855 0.000000 0.000000 0.000000
# 4 0.000000 0.000000 0.000000 0.049788 0.000000 0.000000
# 5 0.000000 0.000000 0.000000 0.000000 0.129579 0.000000
# 6 0.000000 0.000000 0.000000 0.000000 0.000000 0.072013
#
#
# Mechanical properties :
#
#
# Convention : Reuss Voigt Hill
#
# Bulk Modulus (GPa) = 39.29265 50.60276 44.94770
# Shear Modulus (GPa) = 14.34571 18.07323 16.20947
#
# Velocity S-wave (km/s) = 2.74601 3.08218 2.91894
# Velocity P-wave (km/s) = 5.54143 6.26616 5.91491
#
# Compressibility (1/GPa) = 0.02545005
#
# Stress axis : x y z
#
# Youngs Moduli (GPa) = 89.32219 38.44507 50.36530
#
# Poissons Ratio (x) = 0.17520 0.31368
# Poissons Ratio (y) = 0.40706 0.25285
# Poissons Ratio (z) = 0.55630 0.19301
#
# Static dielectric constant tensor:
#      x y z
#    x 3.793630 0.000000 0.000000 
#    y 0.000000 3.364390 0.000000 
#    z 0.000000 0.000000 3.395940 
# 
# 
# High freq. dielectric constant tensor:
#      x y z
#    x 1.758440 0.000000 0.000000 
#    y 0.000000 1.732320 0.000000 
#    z 0.000000 0.000000 1.735610 
# 
# From -- ./inp_files/29563.got.cif
#   From: 2010.03.12/outbox.cif.g09.slc.cpg/sg51_15_cif.got.tgz:29563.got - 2010.04.16 13:43:02.
