data_PCOD8212506
_publ_section_title
;
Structure prediction by ZEFSAII (Michael W. Deem and Ramdas Pophale) SiO2 
 PCOD8212506
Probable space group: P M M A
;
_chemical_formula_sum "Si O2"
_cell_formula_units_Z 48
_cell_length_a 28.086918
_cell_length_b 9.040044
_cell_length_c 10.115337
_cell_angle_alpha 90.000000
_cell_angle_beta 90.000000
_cell_angle_gamma 90.000000
_cell_volume 2568.354614
_symmetry_space_group_name_H-M "P M M A"
_symmetry_group_IT_number 51
_symmetry_cell_setting 'orthorhombic'
loop_
_space_group_symop_operation_xyz
x,y,z
1/2-x,-y,z
1/2+x,-y,-z
-x,y,-z
-x,-y,-z
1/2+x,y,-z
1/2-x,y,z
x,-y,z
loop_
_atom_site_type_symbol
_atom_site_label
_atom_site_fract_x
_atom_site_fract_y
_atom_site_fract_z
Si Si1 0.547134 0.172154 0.719090
Si Si2 0.695991 0.829082 0.593089
Si Si3 0.891677 0.329167 0.497499
Si Si4 0.448456 0.670800 0.764186
Si Si5 0.698277 0.824482 0.891812
Si Si6 0.400485 0.172032 0.006304
O O1 0.575457 0.241111 0.598248
O O2 0.495589 0.243182 0.725625
O O3 0.575379 0.201360 0.853437
O O4 0.540860 0.000000 0.691216
O O5 0.750000 0.809661 0.542719
O O6 0.661998 0.732686 0.499909
O O7 0.690727 0.767551 0.742410
O O8 0.680208 0.000000 0.585435
O O9 0.892555 0.500000 0.538256
O O10 0.909732 0.304886 0.349321
O O11 0.461615 0.500000 0.782952
O O12 0.427298 0.730681 0.899977
O O13 0.750000 0.768114 0.945961
O O14 0.654698 0.773187 0.984757
O O15 0.698644 0.000000 0.883927
O O16 0.403918 0.000000 0.966251
#
# Coordination Sequence:
#
# PCOD8212506 Si02
#       6
#     8   8   8   8   8   8
#     4  11  22  38  61  86 108 140 190 241 282 327
#     4   9  17  33  59  87 112 141 183 233 279 325
#     4  11  23  38  56  81 116 153 187 225 276 334
#     4  11  25  40  53  77 115 155 188 225 277 335
#     4   8  14  29  55  84 111 137 171 223 278 323
#     4  10  20  36  58  85 112 142 183 230 280 331
#
# _framework density 18.689008000000001
#
# number of rings (size 3 to 8) (size 9 to 14) (size 15 to 20)
#    0.000    2.000    1.667    3.500    0.000    8.333 
#    0.000    0.833    0.000    3.500    0.000    0.000 
#    0.000    0.000    0.000    0.000    0.000    0.000 
#
# Total GULP energy -595197.842258 kJ/mol
# GULP energy per Si atom -12399.955047 kJ/mol
# Density = 1.864647 g / cm^3
# Si number density = 18.689008 Si / 1000 Ang^3
#
#
#
# Elastic Constant Matrix: (Units=GPa)
#
#
# Indices 1 2 3 4 5 6 
#
# 1 91.5838 32.0568 -1.4308 0.0000 0.0000 0.0000
# 2 32.0568 82.4865 27.9671 0.0000 0.0000 0.0000
# 3 -1.4308 27.9671 25.7341 0.0000 0.0000 0.0000
# 4 0.0000 0.0000 0.0000 30.3671 0.0000 0.0000
# 5 0.0000 0.0000 0.0000 0.0000 88.5109 0.0000
# 6 0.0000 0.0000 0.0000 0.0000 0.0000 8.5652
#
#
#
# Elastic Compliance Matrix: (Units=1/GPa)
#
#
# Indices 1 2 3 4 5 6 
#
# 1 0.014323 -0.009242 0.010840 0.000000 0.000000 0.000000
# 2 -0.009242 0.025160 -0.027857 0.000000 0.000000 0.000000
# 3 0.010840 -0.027857 0.069736 0.000000 0.000000 0.000000
# 4 0.000000 0.000000 0.000000 0.032930 0.000000 0.000000
# 5 0.000000 0.000000 0.000000 0.000000 0.011298 0.000000
# 6 0.000000 0.000000 0.000000 0.000000 0.000000 0.116751
#
#
# Mechanical properties :
#
#
# Convention : Reuss Voigt Hill
#
# Bulk Modulus (GPa) = 17.63618 35.22116 26.42867
# Shear Modulus (GPa) = 14.63636 34.90272 24.76954
#
# Velocity S-wave (km/s) = 2.80152 4.32621 3.64449
# Velocity P-wave (km/s) = 4.46339 6.62130 5.64639
#
# Compressibility (1/GPa) = 0.05670164
#
# Stress axis : x y z
#
# Youngs Moduli (GPa) = 69.81687 39.74616 14.33990
#
# Poissons Ratio (x) = 0.36732 -0.15545
# Poissons Ratio (y) = 0.64523 0.39946
# Poissons Ratio (z) = -0.75682 1.10720
#
# Static dielectric constant tensor:
#      x y z
#    x 4.188480 0.000000 0.000000 
#    y 0.000000 3.368810 0.000000 
#    z 0.000000 0.000000 3.271380 
# 
# 
# High freq. dielectric constant tensor:
#      x y z
#    x 1.746580 0.000000 0.000000 
#    y 0.000000 1.712840 0.000000 
#    z 0.000000 0.000000 1.708350 
# 
# From -- ./inp_files/12778.got.cif
#   From: 2010.03.12/outbox.cif.g09.slc.cpg/sg51_7_cif.got.tgz:12778.got - 2010.04.16 13:43:02.
