data_PCOD8212394
_publ_section_title
;
Structure prediction by ZEFSAII (Michael W. Deem and Ramdas Pophale) SiO2 
 PCOD8212394
Probable space group: P M M A
;
_chemical_formula_sum "Si O2"
_cell_formula_units_Z 64
_cell_length_a 8.772756
_cell_length_b 23.549630
_cell_length_c 15.376018
_cell_angle_alpha 90.000000
_cell_angle_beta 90.000000
_cell_angle_gamma 90.000000
_cell_volume 3176.610866
_symmetry_space_group_name_H-M "P M M A"
_symmetry_group_IT_number 51
_symmetry_cell_setting 'orthorhombic'
loop_
_space_group_symop_operation_xyz
x,y,z
1/2-x,-y,z
1/2+x,-y,-z
-x,y,-z
-x,-y,-z
1/2+x,y,-z
1/2-x,y,z
x,-y,z
loop_
_atom_site_type_symbol
_atom_site_label
_atom_site_fract_x
_atom_site_fract_y
_atom_site_fract_z
Si Si1 0.068444 0.563580 0.235263
Si Si2 0.930483 0.220729 0.906740
Si Si3 0.071903 0.936942 0.261082
Si Si4 0.570538 0.176014 0.266551
Si Si5 0.928995 0.350797 0.909214
Si Si6 0.429193 0.253490 0.410744
Si Si7 0.571308 0.384525 0.587895
Si Si8 0.082638 0.935431 0.918848
O O1 0.250000 0.567380 0.236370
O O2 0.012699 0.500000 0.212850
O O3 0.002858 0.607489 0.164269
O O4 0.005219 0.581050 0.330009
O O5 0.750000 0.210362 0.906894
O O6 0.971334 0.286168 0.885155
O O7 0.008110 0.182074 0.832305
O O8 0.000000 0.204033 0.000000
O O9 0.250000 0.926803 0.276291
O O10 0.977184 0.885936 0.305931
O O11 0.034241 0.932454 0.159894
O O12 0.024292 0.000000 0.296294
O O13 0.750000 0.182884 0.268064
O O14 0.496955 0.223301 0.326855
O O15 0.750000 0.358274 0.917433
O O16 0.000000 0.369694 0.000000
O O17 0.500000 0.228770 0.500000
O O18 0.250000 0.243448 0.412941
O O19 0.474409 0.318999 0.400442
O O20 0.500000 0.409928 0.500000
O O21 0.750000 0.392057 0.580582
O O22 0.250000 0.907749 0.897447
O O23 0.113663 0.000000 0.945613
O O24 0.000000 0.903805 0.000000
#
# Coordination Sequence:
#
# PCOD8212394 Si02
#       8
#     8   8   8   8   8   8   8   8
#     4   9  17  30  49  74 106 146 188 224 265 323
#     4  10  20  36  56  80 111 145 186 234 284 337
#     4  10  21  37  55  75 102 139 180 218 261 316
#     4  12  24  37  57  85 114 145 181 223 275 330
#     4   9  18  33  53  75 101 138 182 230 281 328
#     4  10  20  37  60  86 114 142 179 227 279 333
#     4   9  18  33  54  79 107 141 178 219 269 324
#     4   9  16  27  44  66  93 127 169 215 258 301
#
# _framework density 20.147259999999999
#
# number of rings (size 3 to 8) (size 9 to 14) (size 15 to 20)
#    0.000    2.250    0.000    3.375    0.000    6.250 
#    0.000    3.125    0.000    1.125    0.000    0.000 
#    0.000    0.000    0.000    0.000    0.000    0.000 
#
# Total GULP energy -793438.654410 kJ/mol
# GULP energy per Si atom -12397.478975 kJ/mol
# Density = 2.010140 g / cm^3
# Si number density = 20.147260 Si / 1000 Ang^3
#
#
#
# Elastic Constant Matrix: (Units=GPa)
#
#
# Indices 1 2 3 4 5 6 
#
# 1 63.0190 32.8431 20.3900 0.0000 0.0000 0.0000
# 2 32.8431 100.7791 36.9660 0.0000 0.0000 0.0000
# 3 20.3900 36.9660 81.9186 0.0000 0.0000 0.0000
# 4 0.0000 0.0000 0.0000 2.5000 0.0000 0.0000
# 5 0.0000 0.0000 0.0000 0.0000 33.0233 0.0000
# 6 0.0000 0.0000 0.0000 0.0000 0.0000 18.6700
#
#
#
# Elastic Compliance Matrix: (Units=1/GPa)
#
#
# Indices 1 2 3 4 5 6 
#
# 1 0.019494 -0.005480 -0.002379 0.000000 0.000000 0.000000
# 2 -0.005480 0.013432 -0.004697 0.000000 0.000000 0.000000
# 3 -0.002379 -0.004697 0.014919 0.000000 0.000000 0.000000
# 4 0.000000 0.000000 0.000000 0.400001 0.000000 0.000000
# 5 0.000000 0.000000 0.000000 0.000000 0.030282 0.000000
# 6 0.000000 0.000000 0.000000 0.000000 0.000000 0.053562
#
#
# Mechanical properties :
#
#
# Convention : Reuss Voigt Hill
#
# Bulk Modulus (GPa) = 43.99133 47.34610 45.66872
# Shear Modulus (GPa) = 8.85930 21.20649 15.03289
#
# Velocity S-wave (km/s) = 2.09924 3.24786 2.73454
# Velocity P-wave (km/s) = 5.26859 6.13317 5.71725
#
# Compressibility (1/GPa) = 0.02273175
#
# Stress axis : x y z
#
# Youngs Moduli (GPa) = 51.29743 74.45163 67.02883
#
# Poissons Ratio (x) = 0.40802 0.15947
# Poissons Ratio (y) = 0.28113 0.31483
# Poissons Ratio (z) = 0.12205 0.34970
#
# Static dielectric constant tensor:
#      x y z
#    x 3.639280 0.000000 0.000000 
#    y 0.000000 3.944240 0.000000 
#    z 0.000000 0.000000 3.659360 
# 
# 
# High freq. dielectric constant tensor:
#      x y z
#    x 1.777170 0.000000 0.000000 
#    y 0.000000 1.793370 0.000000 
#    z 0.000000 0.000000 1.768510 
# 
# From -- ./inp_files/22317.got.cif
#   From: 2010.03.12/outbox.cif.g09.slc.cpg/sg51_12_cif.got.tgz:22317.got - 2010.04.16 13:43:02.
