data_PCOD8212795
_publ_section_title
;
Structure prediction by ZEFSAII (Michael W. Deem and Ramdas Pophale) SiO2 
 PCOD8212795
Probable space group: P M M A
;
_chemical_formula_sum "Si O2"
_cell_formula_units_Z 48
_cell_length_a 8.594684
_cell_length_b 9.786253
_cell_length_c 29.057650
_cell_angle_alpha 90.000000
_cell_angle_beta 90.000000
_cell_angle_gamma 90.000000
_cell_volume 2444.031737
_symmetry_space_group_name_H-M "P M M A"
_symmetry_group_IT_number 51
_symmetry_cell_setting 'orthorhombic'
loop_
_space_group_symop_operation_xyz
x,y,z
1/2-x,-y,z
1/2+x,-y,-z
-x,y,-z
-x,-y,-z
1/2+x,y,-z
1/2-x,y,z
x,-y,z
loop_
_atom_site_type_symbol
_atom_site_label
_atom_site_fract_x
_atom_site_fract_y
_atom_site_fract_z
Si Si1 0.932689 0.251249 0.104536
Si Si2 0.069019 0.158262 0.195073
Si Si3 0.067793 0.156081 0.708024
Si Si4 0.565993 0.000000 0.949240
Si Si5 0.567424 0.155625 0.449503
Si Si6 0.932835 0.340126 0.628510
Si Si7 0.931909 0.500000 0.949288
O O1 0.750000 0.258897 0.097237
O O2 0.972146 0.247486 0.158707
O O3 0.004940 0.125080 0.079054
O O4 0.014185 0.375169 0.080541
O O5 0.250000 0.187034 0.187646
O O6 0.021309 0.203153 0.246161
O O7 0.027067 0.000000 0.187401
O O8 0.250000 0.164805 0.717466
O O9 0.023025 0.262637 0.668826
O O10 0.021078 0.000000 0.694213
O O11 0.750000 0.000000 0.951547
O O12 0.500000 0.000000 0.000000
O O13 0.500000 0.173910 0.500000
O O14 0.750000 0.187995 0.449194
O O15 0.479176 0.266163 0.418646
O O16 0.537256 0.000000 0.431951
O O17 0.750000 0.325237 0.636695
O O18 0.981746 0.500000 0.626921
O O19 0.750000 0.500000 0.955479
O O20 0.000000 0.500000 0.000000
#
# Coordination Sequence:
#
# PCOD8212795 Si02
#       7
#     8   8   8   4   8   8   4
#     4  12  24  41  64  92 124 159 201 250 303 361
#     4  10  20  37  63  93 124 157 198 247 303 361
#     4  10  21  38  62  90 119 154 199 249 303 361
#     4  12  24  40  62  92 124 160 202 248 303 358
#     4  10  21  38  62  91 121 157 203 252 303 360
#     4  11  24  40  58  85 122 162 205 251 303 360
#     4  12  26  46  66  88 122 162 204 248 299 364
#
# _framework density 19.639679000000001
#
# number of rings (size 3 to 8) (size 9 to 14) (size 15 to 20)
#    0.000    1.167    0.833    6.000    0.000    6.333 
#    1.500    0.000    0.000    0.000    0.000    0.000 
#    0.000    0.000    0.000    0.000    0.000    0.000 
#
# Total GULP energy -595311.219304 kJ/mol
# GULP energy per Si atom -12402.317069 kJ/mol
# Density = 1.959498 g / cm^3
# Si number density = 19.639679 Si / 1000 Ang^3
#
#
#
# Elastic Constant Matrix: (Units=GPa)
#
#
# Indices 1 2 3 4 5 6 
#
# 1 95.8591 27.9715 21.2264 0.0000 0.0000 0.0000
# 2 27.9715 123.4341 51.8856 0.0000 0.0000 0.0000
# 3 21.2264 51.8856 108.3824 0.0000 0.0000 0.0000
# 4 0.0000 0.0000 0.0000 26.5821 0.0000 0.0000
# 5 0.0000 0.0000 0.0000 0.0000 43.1944 0.0000
# 6 0.0000 0.0000 0.0000 0.0000 0.0000 31.9392
#
#
#
# Elastic Compliance Matrix: (Units=1/GPa)
#
#
# Indices 1 2 3 4 5 6 
#
# 1 0.011301 -0.002041 -0.001236 0.000000 0.000000 0.000000
# 2 -0.002041 0.010511 -0.004632 0.000000 0.000000 0.000000
# 3 -0.001236 -0.004632 0.011686 0.000000 0.000000 0.000000
# 4 0.000000 0.000000 0.000000 0.037619 0.000000 0.000000
# 5 0.000000 0.000000 0.000000 0.000000 0.023151 0.000000
# 6 0.000000 0.000000 0.000000 0.000000 0.000000 0.031309
#
#
# Mechanical properties :
#
#
# Convention : Reuss Voigt Hill
#
# Bulk Modulus (GPa) = 56.56282 58.87138 57.71710
# Shear Modulus (GPa) = 33.94632 35.44927 34.69779
#
# Velocity S-wave (km/s) = 4.16198 4.25312 4.20780
# Velocity P-wave (km/s) = 7.20825 7.35931 7.28417
#
# Compressibility (1/GPa) = 0.01767946
#
# Stress axis : x y z
#
# Youngs Moduli (GPa) = 88.48489 95.13608 85.57073
#
# Poissons Ratio (x) = 0.19421 0.10577
# Poissons Ratio (y) = 0.18064 0.39638
# Poissons Ratio (z) = 0.10937 0.44069
#
# Static dielectric constant tensor:
#      x y z
#    x 3.826270 0.000000 0.000000 
#    y 0.000000 3.653690 0.000000 
#    z 0.000000 0.000000 3.884430 
# 
# 
# High freq. dielectric constant tensor:
#      x y z
#    x 1.784310 0.000000 0.000000 
#    y 0.000000 1.760870 0.000000 
#    z 0.000000 0.000000 1.781540 
# 
# From -- ./inp_files/37199.got.cif
#   From: 2010.03.12/outbox.cif.g09.slc.cpg/sg51_19_cif.got.tgz:37199.got - 2010.04.16 13:43:02.
