data_PCOD8212073
_publ_section_title
;
Structure prediction by ZEFSAII (Michael W. Deem and Ramdas Pophale) SiO2 
 PCOD8212073
Probable space group: P M M A
;
_chemical_formula_sum "Si O2"
_cell_formula_units_Z 64
_cell_length_a 8.896304
_cell_length_b 23.458545
_cell_length_c 15.245226
_cell_angle_alpha 90.000000
_cell_angle_beta 90.000000
_cell_angle_gamma 90.000000
_cell_volume 3181.592496
_symmetry_space_group_name_H-M "P M M A"
_symmetry_group_IT_number 51
_symmetry_cell_setting 'orthorhombic'
loop_
_space_group_symop_operation_xyz
x,y,z
1/2-x,-y,z
1/2+x,-y,-z
-x,y,-z
-x,-y,-z
1/2+x,y,-z
1/2-x,y,z
x,-y,z
loop_
_atom_site_type_symbol
_atom_site_label
_atom_site_fract_x
_atom_site_fract_y
_atom_site_fract_z
Si Si1 0.426662 0.762033 0.089028
Si Si2 0.926726 0.107893 0.910469
Si Si3 0.927627 0.721851 0.407395
Si Si4 0.077375 0.935492 0.741694
Si Si5 0.926482 0.436746 0.238094
Si Si6 0.925907 0.147325 0.409465
Si Si7 0.584821 0.564798 0.580592
Si Si8 0.572183 0.324861 0.765066
O O1 0.250000 0.756201 0.077964
O O2 0.476721 0.826861 0.106499
O O3 0.485201 0.725008 0.170894
O O4 0.500000 0.738462 0.000000
O O5 0.750000 0.101632 0.919572
O O6 0.983105 0.070115 0.830319
O O7 0.000000 0.084828 0.000000
O O8 0.750000 0.711426 0.410328
O O9 0.967346 0.787623 0.386285
O O10 0.000000 0.704413 0.500000
O O11 0.000661 0.683133 0.331413
O O12 0.250000 0.920114 0.762410
O O13 0.011563 0.892968 0.667978
O O14 0.061316 0.000000 0.706934
O O15 0.750000 0.426874 0.227819
O O16 0.971109 0.500000 0.201255
O O17 0.972565 0.432097 0.338761
O O18 0.016217 0.384962 0.191659
O O19 0.750000 0.138684 0.421134
O O20 0.000000 0.127748 0.500000
O O21 0.500000 0.596544 0.500000
O O22 0.750000 0.592825 0.600263
O O23 0.614800 0.500000 0.553238
O O24 0.750000 0.324927 0.756921
#
# Coordination Sequence:
#
# PCOD8212073 Si02
#       8
#     8   8   8   8   8   8   8   8
#     4   9  20  37  59  87 114 139 171 218 272 326
#     4  10  20  36  58  83 111 143 179 219 269 327
#     4  10  20  35  55  80 110 144 183 226 274 326
#     4  10  21  36  53  77 111 149 189 231 273 320
#     4  10  21  36  52  72 100 136 177 215 255 310
#     4   9  19  35  55  78 106 143 185 231 280 325
#     4   9  16  27  44  65  90 123 164 209 253 296
#     4  11  22  36  56  83 112 140 174 219 270 321
#
# _framework density 20.115711999999998
#
# number of rings (size 3 to 8) (size 9 to 14) (size 15 to 20)
#    0.000    2.250    0.000    2.625    0.000    6.000 
#    0.000    2.500    0.000    0.375    0.000    0.000 
#    0.000    0.000    0.000    0.000    0.000    0.000 
#
# Total GULP energy -793526.250573 kJ/mol
# GULP energy per Si atom -12398.847665 kJ/mol
# Density = 2.006993 g / cm^3
# Si number density = 20.115712 Si / 1000 Ang^3
#
#
#
# Elastic Constant Matrix: (Units=GPa)
#
#
# Indices 1 2 3 4 5 6 
#
# 1 67.5464 32.5703 29.1711 0.0000 0.0000 0.0000
# 2 32.5703 91.7520 33.1950 0.0000 0.0000 0.0000
# 3 29.1711 33.1950 78.5560 0.0000 0.0000 0.0000
# 4 0.0000 0.0000 0.0000 12.0352 0.0000 0.0000
# 5 0.0000 0.0000 0.0000 0.0000 31.9983 0.0000
# 6 0.0000 0.0000 0.0000 0.0000 0.0000 27.1778
#
#
#
# Elastic Compliance Matrix: (Units=1/GPa)
#
#
# Indices 1 2 3 4 5 6 
#
# 1 0.019440 -0.005063 -0.005079 0.000000 0.000000 0.000000
# 2 -0.005063 0.014185 -0.004114 0.000000 0.000000 0.000000
# 3 -0.005079 -0.004114 0.016354 0.000000 0.000000 0.000000
# 4 0.000000 0.000000 0.000000 0.083090 0.000000 0.000000
# 5 0.000000 0.000000 0.000000 0.000000 0.031252 0.000000
# 6 0.000000 0.000000 0.000000 0.000000 0.000000 0.036795
#
#
# Mechanical properties :
#
#
# Convention : Reuss Voigt Hill
#
# Bulk Modulus (GPa) = 46.58484 47.52523 47.05504
# Shear Modulus (GPa) = 21.11647 23.77013 22.44330
#
# Velocity S-wave (km/s) = 3.24350 3.44127 3.34385
# Velocity P-wave (km/s) = 6.10211 6.28228 6.19285
#
# Compressibility (1/GPa) = 0.02146621
#
# Stress axis : x y z
#
# Youngs Moduli (GPa) = 51.44146 70.49922 61.14620
#
# Poissons Ratio (x) = 0.35694 0.31058
# Poissons Ratio (y) = 0.26045 0.25154
# Poissons Ratio (z) = 0.26128 0.29002
#
# Static dielectric constant tensor:
#      x y z
#    x 3.675110 0.000000 0.000000 
#    y 0.000000 3.991230 0.000000 
#    z 0.000000 0.000000 3.511900 
# 
# 
# High freq. dielectric constant tensor:
#      x y z
#    x 1.787870 0.000000 0.000000 
#    y 0.000000 1.794420 0.000000 
#    z 0.000000 0.000000 1.760670 
# 
# From -- ./inp_files/22288.got.cif
#   From: 2010.03.12/outbox.cif.g09.slc.cpg/sg51_12_cif.got.tgz:22288.got - 2010.04.16 13:43:02.
