data_PCOD8212731
_publ_section_title
;
Structure prediction by ZEFSAII (Michael W. Deem and Ramdas Pophale) SiO2 
 PCOD8212731
Probable space group: P M M A
;
_chemical_formula_sum "Si O2"
_cell_formula_units_Z 56
_cell_length_a 8.878450
_cell_length_b 15.364838
_cell_length_c 20.247452
_cell_angle_alpha 90.000000
_cell_angle_beta 90.000000
_cell_angle_gamma 90.000000
_cell_volume 2762.075317
_symmetry_space_group_name_H-M "P M M A"
_symmetry_group_IT_number 51
_symmetry_cell_setting 'orthorhombic'
loop_
_space_group_symop_operation_xyz
x,y,z
1/2-x,-y,z
1/2+x,-y,-z
-x,y,-z
-x,-y,-z
1/2+x,y,-z
1/2-x,y,z
x,-y,z
loop_
_atom_site_type_symbol
_atom_site_label
_atom_site_fract_x
_atom_site_fract_y
_atom_site_fract_z
Si Si1 0.072150 0.674524 0.290602
Si Si2 0.077425 0.094378 0.384428
Si Si3 0.077590 0.904455 0.129860
Si Si4 0.574840 0.277557 0.565439
Si Si5 0.073624 0.724618 0.068299
Si Si6 0.426073 0.147879 0.742062
Si Si7 0.076431 0.598283 0.827025
O O1 0.250000 0.661908 0.285165
O O2 0.020299 0.673270 0.367781
O O3 0.025134 0.765112 0.257705
O O4 0.988993 0.600637 0.247909
O O5 0.250000 0.109965 0.361208
O O6 0.030076 0.174908 0.430923
O O7 0.970001 0.090295 0.320963
O O8 0.061397 0.000000 0.420636
O O9 0.250000 0.891322 0.153366
O O10 0.032736 0.826170 0.080613
O O11 0.967279 0.904627 0.192415
O O12 0.058306 0.000000 0.095608
O O13 0.500000 0.318283 0.500000
O O14 0.750000 0.290777 0.556671
O O15 0.250000 0.709119 0.062981
O O16 0.012552 0.664528 0.126740
O O17 0.000000 0.694681 0.000000
O O18 0.250000 0.170320 0.740617
O O19 0.250000 0.626554 0.825863
O O20 0.057302 0.500000 0.853523
#
# Coordination Sequence:
#
# PCOD8212731 Si02
#       7
#     8   8   8   8   8   8   8
#     4  10  20  37  60  85 116 155 196 239 292 355
#     4   9  18  32  47  66 101 148 195 245 300 357
#     4  10  21  37  57  82 116 161 207 249 297 352
#     4   9  19  33  51  77 109 149 196 241 294 355
#     4  11  24  42  65  90 124 167 206 248 298 353
#     4  11  20  30  50  80 112 147 194 250 301 348
#     4  11  24  42  67  99 128 153 190 244 302 360
#
# _framework density 20.274609000000002
#
# number of rings (size 3 to 8) (size 9 to 14) (size 15 to 20)
#    0.000    1.857    1.429    3.857    0.000    7.714 
#    0.000    0.000    0.000    0.429    0.000    0.000 
#    0.000    0.000    0.000    0.000    0.000    0.000 
#
# Total GULP energy -694196.176807 kJ/mol
# GULP energy per Si atom -12396.360300 kJ/mol
# Density = 2.022846 g / cm^3
# Si number density = 20.274609 Si / 1000 Ang^3
#
#
#
# Elastic Constant Matrix: (Units=GPa)
#
#
# Indices 1 2 3 4 5 6 
#
# 1 85.3020 30.8877 49.3095 0.0000 0.0000 0.0000
# 2 30.8877 79.7285 36.2685 0.0000 0.0000 0.0000
# 3 49.3095 36.2685 123.6389 0.0000 0.0000 0.0000
# 4 0.0000 0.0000 0.0000 9.3837 0.0000 0.0000
# 5 0.0000 0.0000 0.0000 0.0000 33.0866 0.0000
# 6 0.0000 0.0000 0.0000 0.0000 0.0000 22.5728
#
#
#
# Elastic Compliance Matrix: (Units=1/GPa)
#
#
# Indices 1 2 3 4 5 6 
#
# 1 0.016199 -0.003851 -0.005331 0.000000 0.000000 0.000000
# 2 -0.003851 0.015389 -0.002979 0.000000 0.000000 0.000000
# 3 -0.005331 -0.002979 0.011088 0.000000 0.000000 0.000000
# 4 0.000000 0.000000 0.000000 0.106568 0.000000 0.000000
# 5 0.000000 0.000000 0.000000 0.000000 0.030224 0.000000
# 6 0.000000 0.000000 0.000000 0.000000 0.000000 0.044301
#
#
# Mechanical properties :
#
#
# Convention : Reuss Voigt Hill
#
# Bulk Modulus (GPa) = 54.47856 57.95565 56.21711
# Shear Modulus (GPa) = 19.66894 24.48886 22.07890
#
# Velocity S-wave (km/s) = 3.11806 3.47920 3.30357
# Velocity P-wave (km/s) = 6.31599 6.69232 6.50688
#
# Compressibility (1/GPa) = 0.01835584
#
# Stress axis : x y z
#
# Youngs Moduli (GPa) = 61.73253 64.98014 90.18856
#
# Poissons Ratio (x) = 0.25021 0.48078
# Poissons Ratio (y) = 0.23771 0.26864
# Poissons Ratio (z) = 0.32909 0.19355
#
# Static dielectric constant tensor:
#      x y z
#    x 3.634180 0.000000 0.000000 
#    y 0.000000 3.597880 0.000000 
#    z 0.000000 0.000000 3.602880 
# 
# 
# High freq. dielectric constant tensor:
#      x y z
#    x 1.791570 0.000000 0.000000 
#    y 0.000000 1.777020 0.000000 
#    z 0.000000 0.000000 1.778630 
# 
# From -- ./inp_files/31920.got.cif
#   From: 2010.03.12/outbox.cif.g09.slc.cpg/sg51_16_cif.got.tgz:31920.got - 2010.04.16 13:43:02.
