data_PCOD8212122
_publ_section_title
;
Structure prediction by ZEFSAII (Michael W. Deem and Ramdas Pophale) SiO2 
 PCOD8212122
Probable space group: P M M A
;
_chemical_formula_sum "Si O2"
_cell_formula_units_Z 56
_cell_length_a 14.071429
_cell_length_b 9.118589
_cell_length_c 22.736777
_cell_angle_alpha 90.000000
_cell_angle_beta 90.000000
_cell_angle_gamma 90.000000
_cell_volume 2917.391729
_symmetry_space_group_name_H-M "P M M A"
_symmetry_group_IT_number 51
_symmetry_cell_setting 'orthorhombic'
loop_
_space_group_symop_operation_xyz
x,y,z
1/2-x,-y,z
1/2+x,-y,-z
-x,y,-z
-x,-y,-z
1/2+x,y,-z
1/2-x,y,z
x,-y,z
loop_
_atom_site_type_symbol
_atom_site_label
_atom_site_fract_x
_atom_site_fract_y
_atom_site_fract_z
Si Si1 0.639661 0.171229 0.742803
Si Si2 0.358984 0.327745 0.909894
Si Si3 0.024450 0.827869 0.142310
Si Si4 0.140294 0.168359 0.028341
Si Si5 0.858699 0.828227 0.403996
Si Si6 0.468974 0.328271 0.359717
Si Si7 0.858021 0.666525 0.523040
O O1 0.750000 0.208652 0.752427
O O2 0.582951 0.221012 0.800661
O O3 0.600490 0.262933 0.688657
O O4 0.624995 0.000000 0.729768
O O5 0.250000 0.285202 0.896569
O O6 0.374329 0.500000 0.910725
O O7 0.423620 0.256280 0.858893
O O8 0.391581 0.264134 0.972789
O O9 0.083564 0.778789 0.085285
O O10 0.004845 0.000000 0.142927
O O11 0.250000 0.191699 0.043520
O O12 0.117824 0.000000 0.012640
O O13 0.750000 0.790252 0.387124
O O14 0.881995 0.773406 0.469542
O O15 0.927191 0.747322 0.357300
O O16 0.878340 0.000000 0.401151
O O17 0.479929 0.500000 0.348447
O O18 0.424884 0.291698 0.423049
O O19 0.750000 0.685983 0.544454
O O20 0.876911 0.500000 0.501691
#
# Coordination Sequence:
#
# PCOD8212122 Si02
#       7
#     8   8   8   8   8   8   8
#     4  10  22  40  60  82 109 140 176 221 269 316
#     4  10  21  35  51  76 110 143 176 217 265 316
#     4  10  20  35  56  80 105 138 180 221 264 315
#     4   9  17  31  53  80 109 140 174 214 262 317
#     4  10  21  36  55  81 111 142 180 226 273 321
#     4  11  22  36  56  81 110 146 185 222 265 320
#     4   9  18  33  53  79 112 146 178 216 266 323
#
# _framework density 19.195229000000001
#
# number of rings (size 3 to 8) (size 9 to 14) (size 15 to 20)
#    0.000    2.143    0.000    3.000    0.000   10.000 
#    0.000    2.143    0.000    3.429    0.000    0.000 
#    0.000    0.000    0.000    0.000    0.000    0.000 
#
# Total GULP energy -694586.769955 kJ/mol
# GULP energy per Si atom -12403.335178 kJ/mol
# Density = 1.915154 g / cm^3
# Si number density = 19.195229 Si / 1000 Ang^3
#
#
#
# Elastic Constant Matrix: (Units=GPa)
#
#
# Indices 1 2 3 4 5 6 
#
# 1 104.1972 52.6620 46.3110 0.0000 0.0000 0.0000
# 2 52.6620 76.2743 41.3157 0.0000 0.0000 0.0000
# 3 46.3110 41.3157 53.0051 0.0000 0.0000 0.0000
# 4 0.0000 0.0000 0.0000 -13.9111 0.0000 0.0000
# 5 0.0000 0.0000 0.0000 0.0000 35.7171 0.0000
# 6 0.0000 0.0000 0.0000 0.0000 0.0000 28.8340
#
#
#
# Elastic Compliance Matrix: (Units=1/GPa)
#
#
# Indices 1 2 3 4 5 6 
#
# 1 0.017389 -0.006536 -0.010098 0.000000 0.000000 0.000000
# 2 -0.006536 0.025148 -0.013891 0.000000 0.000000 0.000000
# 3 -0.010098 -0.013891 0.038517 0.000000 0.000000 0.000000
# 4 0.000000 0.000000 0.000000 -0.071885 0.000000 0.000000
# 5 0.000000 0.000000 0.000000 0.000000 0.027998 0.000000
# 6 0.000000 0.000000 0.000000 0.000000 0.000000 0.034681
#
#
# Mechanical properties :
#
#
# Convention : Reuss Voigt Hill
#
# Bulk Modulus (GPa) = 49.99389 57.11712 53.55550
# Shear Modulus (GPa) = 35.82555 16.34052 26.08304
#
# Velocity S-wave (km/s) = 4.32485 2.92084 3.69023
# Velocity P-wave (km/s) = 7.14427 6.41838 6.79103
#
# Compressibility (1/GPa) = 0.02000244
#
# Stress axis : x y z
#
# Youngs Moduli (GPa) = 57.50912 39.76520 25.96258
#
# Poissons Ratio (x) = 0.25989 0.26218
# Poissons Ratio (y) = 0.37586 0.36066
# Poissons Ratio (z) = 0.58074 0.55240
#
# Static dielectric constant tensor:
#      x y z
#    x 3.778520 0.000000 0.000000 
#    y 0.000000 3.440860 0.000000 
#    z 0.000000 0.000000 3.362010 
# 
# 
# High freq. dielectric constant tensor:
#      x y z
#    x 1.766350 0.000000 0.000000 
#    y 0.000000 1.743070 0.000000 
#    z 0.000000 0.000000 1.725130 
# 
# From -- ./inp_files/33417.got.cif
#   From: 2010.03.12/outbox.cif.g09.slc.cpg/sg51_17_cif.got.tgz:33417.got - 2010.04.16 13:43:02.
