data_PCOD8212591
_publ_section_title
;
Structure prediction by ZEFSAII (Michael W. Deem and Ramdas Pophale) SiO2 
 PCOD8212591
Probable space group: P M M A
;
_chemical_formula_sum "Si O2"
_cell_formula_units_Z 56
_cell_length_a 9.008333
_cell_length_b 20.474154
_cell_length_c 15.452256
_cell_angle_alpha 90.000000
_cell_angle_beta 90.000000
_cell_angle_gamma 90.000000
_cell_volume 2849.983148
_symmetry_space_group_name_H-M "P M M A"
_symmetry_group_IT_number 51
_symmetry_cell_setting 'orthorhombic'
loop_
_space_group_symop_operation_xyz
x,y,z
1/2-x,-y,z
1/2+x,-y,-z
-x,y,-z
-x,-y,-z
1/2+x,y,-z
1/2-x,y,z
x,-y,z
loop_
_atom_site_type_symbol
_atom_site_label
_atom_site_fract_x
_atom_site_fract_y
_atom_site_fract_z
Si Si1 0.917623 0.602929 0.082741
Si Si2 0.925481 0.876373 0.914230
Si Si3 0.579318 0.074633 0.255756
Si Si4 0.072819 0.429110 0.728631
Si Si5 0.925444 0.292176 0.319024
Si Si6 0.418810 0.748293 0.870862
Si Si7 0.574256 0.166964 0.411778
O O1 0.750000 0.578507 0.076983
O O2 0.987470 0.577302 0.172982
O O3 0.928702 0.681107 0.077238
O O4 0.000000 0.572362 0.000000
O O5 0.750000 0.883973 0.920680
O O6 0.982595 0.913102 0.829239
O O7 0.969813 0.800143 0.912504
O O8 0.000000 0.908130 0.000000
O O9 0.750000 0.091575 0.234122
O O10 0.521936 0.119618 0.334448
O O11 0.560654 0.000000 0.285288
O O12 0.250000 0.424629 0.731722
O O13 0.021551 0.500000 0.690630
O O14 0.012051 0.367230 0.671709
O O15 0.750000 0.296017 0.322708
O O16 0.972808 0.262798 0.227156
O O17 0.981762 0.241553 0.392060
O O18 0.250000 0.775728 0.872840
O O19 0.500000 0.142788 0.500000
O O20 0.750000 0.163723 0.422727
#
# Coordination Sequence:
#
# PCOD8212591 Si02
#       7
#     8   8   8   8   8   8   8
#     4   9  17  26  40  63  94 131 172 223 273 317
#     4  12  24  36  55  82 113 149 189 232 276 321
#     4  10  22  42  64  83 110 149 185 222 271 324
#     4   8  14  25  43  68  95 130 178 222 262 314
#     4   8  14  28  51  74 102 139 174 219 271 317
#     4   9  16  31  51  71 100 138 182 229 275 321
#     4  10  20  36  60  88 115 142 177 220 273 332
#
# _framework density 19.649238
#
# number of rings (size 3 to 8) (size 9 to 14) (size 15 to 20)
#    0.000    2.571    1.429    3.429    0.000    3.429 
#    0.000    0.000    0.000    0.429    0.000    0.000 
#    0.000    0.000    0.000    0.000    0.000    0.000 
#
# Total GULP energy -693944.480002 kJ/mol
# GULP energy per Si atom -12391.865714 kJ/mol
# Density = 1.960452 g / cm^3
# Si number density = 19.649238 Si / 1000 Ang^3
#
#
#
# Elastic Constant Matrix: (Units=GPa)
#
#
# Indices 1 2 3 4 5 6 
#
# 1 61.7413 25.2067 36.8541 0.0000 0.0000 0.0000
# 2 25.2067 122.7486 46.1471 0.0000 0.0000 0.0000
# 3 36.8541 46.1471 107.6351 0.0000 0.0000 0.0000
# 4 0.0000 0.0000 0.0000 6.7036 0.0000 0.0000
# 5 0.0000 0.0000 0.0000 0.0000 26.7222 0.0000
# 6 0.0000 0.0000 0.0000 0.0000 0.0000 10.4398
#
#
#
# Elastic Compliance Matrix: (Units=1/GPa)
#
#
# Indices 1 2 3 4 5 6 
#
# 1 0.020720 -0.001893 -0.006283 0.000000 0.000000 0.000000
# 2 -0.001893 0.009885 -0.003590 0.000000 0.000000 0.000000
# 3 -0.006283 -0.003590 0.012981 0.000000 0.000000 0.000000
# 4 0.000000 0.000000 0.000000 0.149173 0.000000 0.000000
# 5 0.000000 0.000000 0.000000 0.000000 0.037422 0.000000
# 6 0.000000 0.000000 0.000000 0.000000 0.000000 0.095788
#
#
# Mechanical properties :
#
#
# Convention : Reuss Voigt Hill
#
# Bulk Modulus (GPa) = 49.86417 56.50453 53.18435
# Shear Modulus (GPa) = 14.03763 21.03424 17.53594
#
# Velocity S-wave (km/s) = 2.67575 3.27538 2.99063
# Velocity P-wave (km/s) = 5.91425 6.56682 6.24906
#
# Compressibility (1/GPa) = 0.02005448
#
# Stress axis : x y z
#
# Youngs Moduli (GPa) = 48.26323 101.16255 77.03527
#
# Poissons Ratio (x) = 0.19148 0.48400
# Poissons Ratio (y) = 0.09135 0.27656
# Poissons Ratio (z) = 0.30323 0.36317
#
# Static dielectric constant tensor:
#      x y z
#    x 3.127650 0.000000 0.000000 
#    y 0.000000 3.945990 0.000000 
#    z 0.000000 0.000000 3.574420 
# 
# 
# High freq. dielectric constant tensor:
#      x y z
#    x 1.718080 0.000000 0.000000 
#    y 0.000000 1.777080 0.000000 
#    z 0.000000 0.000000 1.745570 
# 
# From -- ./inp_files/21865.got.cif
#   From: 2010.03.12/outbox.cif.g09.slc.cpg/sg51_11_cif.got.tgz:21865.got - 2010.04.16 13:43:02.
