data_PCOD8212645
_publ_section_title
;
Structure prediction by ZEFSAII (Michael W. Deem and Ramdas Pophale) SiO2 
 PCOD8212645
Probable space group: P M M A
;
_chemical_formula_sum "Si O2"
_cell_formula_units_Z 52
_cell_length_a 9.132108
_cell_length_b 14.699966
_cell_length_c 20.047133
_cell_angle_alpha 90.000000
_cell_angle_beta 90.000000
_cell_angle_gamma 90.000000
_cell_volume 2691.160755
_symmetry_space_group_name_H-M "P M M A"
_symmetry_group_IT_number 51
_symmetry_cell_setting 'orthorhombic'
loop_
_space_group_symop_operation_xyz
x,y,z
1/2-x,-y,z
1/2+x,-y,-z
-x,y,-z
-x,-y,-z
1/2+x,y,-z
1/2-x,y,z
x,-y,z
loop_
_atom_site_type_symbol
_atom_site_label
_atom_site_fract_x
_atom_site_fract_y
_atom_site_fract_z
Si Si1 0.589968 0.648694 0.630502
Si Si2 0.076182 0.223069 0.819197
Si Si3 0.084437 0.100631 0.695616
Si Si4 0.578817 0.104958 0.930851
Si Si5 0.915981 0.500000 0.432703
Si Si6 0.918218 0.845077 0.569611
Si Si7 0.084700 0.605657 0.218515
O O1 0.750000 0.608864 0.609698
O O2 0.454823 0.587822 0.609416
O O3 0.564776 0.742314 0.593331
O O4 0.583636 0.653148 0.709638
O O5 0.250000 0.219947 0.830192
O O6 0.031121 0.175404 0.749184
O O7 0.995480 0.168026 0.876346
O O8 0.021979 0.328472 0.823744
O O9 0.250000 0.124085 0.674012
O O10 0.987023 0.096407 0.629044
O O11 0.075379 0.000000 0.728501
O O12 0.750000 0.128685 0.937060
O O13 0.555645 0.000000 0.910490
O O14 0.500000 0.126721 0.000000
O O15 0.750000 0.500000 0.451398
O O16 0.000000 0.500000 0.500000
O O17 0.750000 0.873638 0.559875
O O18 0.000000 0.862255 0.500000
O O19 0.250000 0.608144 0.189542
O O20 0.029191 0.500000 0.219583
#
# Coordination Sequence:
#
# PCOD8212645 Si02
#       7
#     8   8   8   8   4   8   8
#     4  10  20  37  56  76 104 138 181 236 297 355
#     4  11  22  37  61  91 126 160 196 243 294 348
#     4  10  22  39  58  82 113 149 191 240 293 349
#     4  10  21  38  63  96 133 170 206 242 285 341
#     4  12  24  34  50  74 102 136 179 230 293 364
#     4  11  23  38  57  77 103 141 187 240 297 357
#     4  10  20  37  60  84 115 153 195 243 294 349
#
# _framework density 19.322517999999999
#
# number of rings (size 3 to 8) (size 9 to 14) (size 15 to 20)
#    0.000    1.538    2.308    3.000    0.000    6.154 
#    0.000    0.000    0.000    0.462    0.000    0.000 
#    0.000    0.000    0.000    0.000    0.000    0.000 
#
# Total GULP energy -644589.516228 kJ/mol
# GULP energy per Si atom -12395.952235 kJ/mol
# Density = 1.927854 g / cm^3
# Si number density = 19.322518 Si / 1000 Ang^3
#
#
#
# Elastic Constant Matrix: (Units=GPa)
#
#
# Indices 1 2 3 4 5 6 
#
# 1 130.2345 55.8152 58.1916 0.0000 0.0000 0.0000
# 2 55.8152 101.5403 45.9167 0.0000 0.0000 0.0000
# 3 58.1916 45.9167 95.5275 0.0000 0.0000 0.0000
# 4 0.0000 0.0000 0.0000 13.7128 0.0000 0.0000
# 5 0.0000 0.0000 0.0000 0.0000 33.1404 0.0000
# 6 0.0000 0.0000 0.0000 0.0000 0.0000 27.5278
#
#
#
# Elastic Compliance Matrix: (Units=1/GPa)
#
#
# Indices 1 2 3 4 5 6 
#
# 1 0.011761 -0.004121 -0.005183 0.000000 0.000000 0.000000
# 2 -0.004121 0.014027 -0.004232 0.000000 0.000000 0.000000
# 3 -0.005183 -0.004232 0.015660 0.000000 0.000000 0.000000
# 4 0.000000 0.000000 0.000000 0.072924 0.000000 0.000000
# 5 0.000000 0.000000 0.000000 0.000000 0.030175 0.000000
# 6 0.000000 0.000000 0.000000 0.000000 0.000000 0.036327
#
#
# Mechanical properties :
#
#
# Convention : Reuss Voigt Hill
#
# Bulk Modulus (GPa) = 69.56448 71.90545 70.73497
# Shear Modulus (GPa) = 23.50309 26.03480 24.76895
#
# Velocity S-wave (km/s) = 3.49142 3.67465 3.58420
# Velocity P-wave (km/s) = 7.23417 7.43627 7.33592
#
# Compressibility (1/GPa) = 0.01437515
#
# Stress axis : x y z
#
# Youngs Moduli (GPa) = 85.03026 71.29015 63.85690
#
# Poissons Ratio (x) = 0.29376 0.33100
# Poissons Ratio (y) = 0.35038 0.27026
# Poissons Ratio (z) = 0.44075 0.30172
#
# Static dielectric constant tensor:
#      x y z
#    x 3.533340 0.000000 0.000000 
#    y 0.000000 3.572040 0.000000 
#    z 0.000000 0.000000 3.374960 
# 
# 
# High freq. dielectric constant tensor:
#      x y z
#    x 1.760310 0.000000 0.000000 
#    y 0.000000 1.756630 0.000000 
#    z 0.000000 0.000000 1.730590 
# 
# From -- ./inp_files/31712.got.cif
#   From: 2010.03.12/outbox.cif.g09.slc.cpg/sg51_16_cif.got.tgz:31712.got - 2010.04.16 13:43:02.
