data_PCOD8212312
_publ_section_title
;
Structure prediction by ZEFSAII (Michael W. Deem and Ramdas Pophale) SiO2 
 PCOD8212312
Probable space group: P M M A
;
_chemical_formula_sum "Si O2"
_cell_formula_units_Z 64
_cell_length_a 31.317306
_cell_length_b 8.705870
_cell_length_c 12.041584
_cell_angle_alpha 90.000000
_cell_angle_beta 90.000000
_cell_angle_gamma 90.000000
_cell_volume 3283.070382
_symmetry_space_group_name_H-M "P M M A"
_symmetry_group_IT_number 51
_symmetry_cell_setting 'orthorhombic'
loop_
_space_group_symop_operation_xyz
x,y,z
1/2-x,-y,z
1/2+x,-y,-z
-x,y,-z
-x,-y,-z
1/2+x,y,-z
1/2-x,y,z
x,-y,z
loop_
_atom_site_type_symbol
_atom_site_label
_atom_site_fract_x
_atom_site_fract_y
_atom_site_fract_z
Si Si1 0.951159 0.318680 0.489988
Si Si2 0.200713 0.174152 0.767726
Si Si3 0.623689 0.180103 0.624871
Si Si4 0.061944 0.819233 0.740740
Si Si5 0.202806 0.182387 0.516059
Si Si6 0.889221 0.179109 0.872284
Si Si7 0.515043 0.181838 0.883469
Si Si8 0.630649 0.322194 0.098783
O O1 0.951486 0.500000 0.496602
O O2 0.920923 0.256312 0.588022
O O3 0.929594 0.265876 0.374740
O O4 0.000000 0.254792 0.500000
O O5 0.250000 0.181385 0.799451
O O6 0.192943 0.231432 0.642125
O O7 0.176884 0.289184 0.850047
O O8 0.183511 0.000000 0.781725
O O9 0.664900 0.249468 0.560645
O O10 0.633225 0.212296 0.754601
O O11 0.618545 0.000000 0.601868
O O12 0.096345 0.777004 0.833871
O O13 0.015823 0.762995 0.784719
O O14 0.064148 0.000000 0.719092
O O15 0.250000 0.245344 0.480367
O O16 0.203933 0.000000 0.507422
O O17 0.937596 0.238011 0.858015
O O18 0.887536 0.000000 0.903922
O O19 0.866993 0.273996 0.969925
O O20 0.512246 0.000000 0.891888
O O21 0.500000 0.255349 0.000000
O O22 0.619031 0.500000 0.108805
#
# Coordination Sequence:
#
# PCOD8212312 Si02
#       8
#     8   8   8   8   8   8   8   8
#     4  11  24  39  54  79 119 155 184 228 289 351
#     4   9  18  35  60  85 109 141 181 227 279 336
#     4  10  20  35  59  85 109 147 195 239 281 332
#     4  11  21  36  60  83 108 142 188 240 280 326
#     4   8  15  31  57  88 114 134 168 225 288 338
#     4  10  20  36  55  78 109 146 195 240 273 325
#     4   9  16  30  52  75 100 138 185 235 280 310
#     4  12  24  36  53  81 115 148 182 224 285 346
#
# _framework density 19.493946999999999
#
# number of rings (size 3 to 8) (size 9 to 14) (size 15 to 20)
#    0.000    2.000    1.250    4.125    0.000    3.750 
#    0.000    2.500    0.000    3.375    0.000    0.000 
#    0.000    0.000    0.000    0.000    0.000    0.000 
#
# Total GULP energy -793579.586515 kJ/mol
# GULP energy per Si atom -12399.681039 kJ/mol
# Density = 1.944958 g / cm^3
# Si number density = 19.493947 Si / 1000 Ang^3
#
#
#
# Elastic Constant Matrix: (Units=GPa)
#
#
# Indices 1 2 3 4 5 6 
#
# 1 109.7677 25.2168 49.9373 0.0000 0.0000 0.0000
# 2 25.2168 47.6892 27.0577 0.0000 0.0000 0.0000
# 3 49.9373 27.0577 110.1750 0.0000 0.0000 0.0000
# 4 0.0000 0.0000 0.0000 15.2954 0.0000 0.0000
# 5 0.0000 0.0000 0.0000 0.0000 34.5066 0.0000
# 6 0.0000 0.0000 0.0000 0.0000 0.0000 18.7503
#
#
#
# Elastic Compliance Matrix: (Units=1/GPa)
#
#
# Indices 1 2 3 4 5 6 
#
# 1 0.012042 -0.003800 -0.004525 0.000000 0.000000 0.000000
# 2 -0.003800 0.025563 -0.004556 0.000000 0.000000 0.000000
# 3 -0.004525 -0.004556 0.012246 0.000000 0.000000 0.000000
# 4 0.000000 0.000000 0.000000 0.065379 0.000000 0.000000
# 5 0.000000 0.000000 0.000000 0.000000 0.028980 0.000000
# 6 0.000000 0.000000 0.000000 0.000000 0.000000 0.053333
#
#
# Mechanical properties :
#
#
# Convention : Reuss Voigt Hill
#
# Bulk Modulus (GPa) = 41.51068 52.45061 46.98065
# Shear Modulus (GPa) = 21.61385 24.73846 23.17616
#
# Velocity S-wave (km/s) = 3.33340 3.56621 3.45177
# Velocity P-wave (km/s) = 6.01297 6.62734 6.32762
#
# Compressibility (1/GPa) = 0.02409019
#
# Stress axis : x y z
#
# Youngs Moduli (GPa) = 83.04569 39.11867 81.65876
#
# Poissons Ratio (x) = 0.14865 0.36948
# Poissons Ratio (y) = 0.31558 0.37201
# Poissons Ratio (z) = 0.37575 0.17821
#
# Static dielectric constant tensor:
#      x y z
#    x 3.772580 0.000000 0.000000 
#    y 0.000000 3.184370 0.000000 
#    z 0.000000 0.000000 3.635170 
# 
# 
# High freq. dielectric constant tensor:
#      x y z
#    x 1.758660 0.000000 0.000000 
#    y 0.000000 1.724760 0.000000 
#    z 0.000000 0.000000 1.763480 
# 
# From -- ./inp_files/19603.got.cif
#   From: 2010.03.12/outbox.cif.g09.slc.cpg/sg51_10_cif.got.tgz:19603.got - 2010.04.16 13:43:02.
