data_PCOD8212871
_publ_section_title
;
Structure prediction by ZEFSAII (Michael W. Deem and Ramdas Pophale) SiO2 
 PCOD8212871
Probable space group: P M M A
;
_chemical_formula_sum "Si O2"
_cell_formula_units_Z 56
_cell_length_a 21.654565
_cell_length_b 9.110125
_cell_length_c 14.233678
_cell_angle_alpha 90.000000
_cell_angle_beta 90.000000
_cell_angle_gamma 90.000000
_cell_volume 2807.960129
_symmetry_space_group_name_H-M "P M M A"
_symmetry_group_IT_number 51
_symmetry_cell_setting 'orthorhombic'
loop_
_space_group_symop_operation_xyz
x,y,z
1/2-x,-y,z
1/2+x,-y,-z
-x,y,-z
-x,-y,-z
1/2+x,y,-z
1/2-x,y,z
x,-y,z
loop_
_atom_site_type_symbol
_atom_site_label
_atom_site_fract_x
_atom_site_fract_y
_atom_site_fract_z
Si Si1 0.580148 0.167449 0.243551
Si Si2 0.181702 0.840603 0.252580
Si Si3 0.937336 0.326565 0.051091
Si Si4 0.678597 0.170201 0.391119
Si Si5 0.642485 0.326979 0.579100
Si Si6 0.178408 0.327508 0.072828
Si Si7 0.023002 0.167161 0.397557
O O1 0.564858 0.270191 0.156969
O O2 0.645416 0.208279 0.292592
O O3 0.529571 0.194977 0.322670
O O4 0.580425 0.000000 0.208264
O O5 0.250000 0.873862 0.217881
O O6 0.189347 0.750708 0.349640
O O7 0.152411 0.745642 0.168548
O O8 0.147588 0.000000 0.265150
O O9 0.940979 0.500000 0.054019
O O10 0.872381 0.275913 0.003858
O O11 0.000000 0.266072 0.000000
O O12 0.750000 0.207426 0.377367
O O13 0.650609 0.267739 0.474085
O O14 0.667068 0.000000 0.417517
O O15 0.652128 0.500000 0.578857
O O16 0.577237 0.280936 0.624724
O O17 0.250000 0.284388 0.045307
O O18 0.174956 0.500000 0.089097
O O19 0.000000 0.208354 0.500000
O O20 0.047233 0.000000 0.394826
#
# Coordination Sequence:
#
# PCOD8212871 Si02
#       7
#     8   8   8   8   8   8   8
#     4  10  22  40  62  89 116 150 196 246 296 349
#     4  10  21  37  58  85 117 154 195 240 291 346
#     4  10  23  41  60  86 121 155 192 244 304 362
#     4  10  21  40  63  86 118 159 201 244 291 346
#     4  12  24  35  55  87 123 158 196 240 289 347
#     4   9  19  38  61  84 114 155 199 244 299 362
#     4  10  20  39  62  83 115 154 194 237 286 345
#
# _framework density 19.943301999999999
#
# number of rings (size 3 to 8) (size 9 to 14) (size 15 to 20)
#    0.000    1.857    1.429    2.143    2.000    5.714 
#    0.000    0.000    0.000    0.000    0.000    0.000 
#    0.000    0.000    0.000    0.000    0.000    0.000 
#
# Total GULP energy -694063.853571 kJ/mol
# GULP energy per Si atom -12393.997385 kJ/mol
# Density = 1.989791 g / cm^3
# Si number density = 19.943302 Si / 1000 Ang^3
#
#
#
# Elastic Constant Matrix: (Units=GPa)
#
#
# Indices 1 2 3 4 5 6 
#
# 1 104.4267 27.2976 33.7782 0.0000 0.0000 0.0000
# 2 27.2976 69.1685 33.5967 0.0000 0.0000 0.0000
# 3 33.7782 33.5967 113.3850 0.0000 0.0000 0.0000
# 4 0.0000 0.0000 0.0000 31.1672 0.0000 0.0000
# 5 0.0000 0.0000 0.0000 0.0000 27.5009 0.0000
# 6 0.0000 0.0000 0.0000 0.0000 0.0000 18.8022
#
#
#
# Elastic Compliance Matrix: (Units=1/GPa)
#
#
# Indices 1 2 3 4 5 6 
#
# 1 0.011196 -0.003269 -0.002367 0.000000 0.000000 0.000000
# 2 -0.003269 0.017843 -0.004313 0.000000 0.000000 0.000000
# 3 -0.002367 -0.004313 0.010803 0.000000 0.000000 0.000000
# 4 0.000000 0.000000 0.000000 0.032085 0.000000 0.000000
# 5 0.000000 0.000000 0.000000 0.000000 0.036362 0.000000
# 6 0.000000 0.000000 0.000000 0.000000 0.000000 0.053185
#
#
# Mechanical properties :
#
#
# Convention : Reuss Voigt Hill
#
# Bulk Modulus (GPa) = 50.14123 52.92501 51.53312
# Shear Modulus (GPa) = 26.59298 28.31456 27.45377
#
# Velocity S-wave (km/s) = 3.65558 3.77205 3.71427
# Velocity P-wave (km/s) = 6.55852 6.75030 6.65510
#
# Compressibility (1/GPa) = 0.01994367
#
# Stress axis : x y z
#
# Youngs Moduli (GPa) = 89.31596 56.04593 92.57060
#
# Poissons Ratio (x) = 0.18322 0.21910
# Poissons Ratio (y) = 0.29198 0.39926
# Poissons Ratio (z) = 0.21139 0.24173
#
# Static dielectric constant tensor:
#      x y z
#    x 3.839580 0.000000 0.000000 
#    y 0.000000 3.656190 0.000000 
#    z 0.000000 0.000000 3.548250 
# 
# 
# High freq. dielectric constant tensor:
#      x y z
#    x 1.786910 0.000000 0.000000 
#    y 0.000000 1.767460 0.000000 
#    z 0.000000 0.000000 1.774420 
# 
# From -- ./inp_files/25706.got.cif
#   From: 2010.03.12/outbox.cif.g09.slc.cpg/sg51_13_cif.got.tgz:25706.got - 2010.04.16 13:43:02.
