data_PCOD8212820
_publ_section_title
;
Structure prediction by ZEFSAII (Michael W. Deem and Ramdas Pophale) SiO2 
 PCOD8212820
Probable space group: P M M A
;
_chemical_formula_sum "Si O2"
_cell_formula_units_Z 48
_cell_length_a 14.011405
_cell_length_b 14.271821
_cell_length_c 10.712338
_cell_angle_alpha 90.000000
_cell_angle_beta 90.000000
_cell_angle_gamma 90.000000
_cell_volume 2142.127635
_symmetry_space_group_name_H-M "P M M A"
_symmetry_group_IT_number 51
_symmetry_cell_setting 'orthorhombic'
loop_
_space_group_symop_operation_xyz
x,y,z
1/2-x,-y,z
1/2+x,-y,-z
-x,y,-z
-x,-y,-z
1/2+x,y,-z
1/2-x,y,z
x,-y,z
loop_
_atom_site_type_symbol
_atom_site_label
_atom_site_fract_x
_atom_site_fract_y
_atom_site_fract_z
Si Si1 0.858140 0.397350 0.430598
Si Si2 0.135697 0.894298 0.697901
Si Si3 0.360471 0.237581 0.920307
Si Si4 0.980552 0.606744 0.185198
Si Si5 0.360653 0.749613 0.194251
Si Si6 0.139951 0.794322 0.454519
O O1 0.750000 0.386533 0.379661
O O2 0.873032 0.500000 0.493608
O O3 0.880045 0.316790 0.530486
O O4 0.928705 0.384808 0.316865
O O5 0.250000 0.891258 0.696813
O O6 0.098297 0.834626 0.816936
O O7 0.090853 0.851835 0.568406
O O8 0.098155 0.000000 0.711732
O O9 0.250000 0.258161 0.894654
O O10 0.417680 0.334996 0.914238
O O11 0.376122 0.197337 0.061331
O O12 0.988146 0.500000 0.138829
O O13 0.085207 0.650809 0.195929
O O14 0.250000 0.724378 0.215035
O O15 0.395001 0.815853 0.311880
O O16 0.250000 0.820617 0.466264
#
# Coordination Sequence:
#
# PCOD8212820 Si02
#       6
#     8   8   8   8   8   8
#     4   9  17  31  54  84 114 146 188 235 281 331
#     4   9  17  33  62  92 113 142 188 237 284 338
#     4  10  20  38  60  85 116 151 190 235 286 338
#     4  11  22  36  58  85 114 152 200 241 278 329
#     4  10  23  38  54  78 117 160 190 228 286 340
#     4   9  17  34  56  82 115 149 184 229 281 334
#
# _framework density 22.407629
#
# number of rings (size 3 to 8) (size 9 to 14) (size 15 to 20)
#    0.000    2.333    1.667    1.000    0.000    4.000 
#    0.000    5.833    0.000    9.000    0.000    0.000 
#    0.000    0.000    0.000    0.000    0.000    0.000 
#
# Total GULP energy -594782.163564 kJ/mol
# GULP energy per Si atom -12391.295074 kJ/mol
# Density = 2.235663 g / cm^3
# Si number density = 22.407629 Si / 1000 Ang^3
#
#
#
# Elastic Constant Matrix: (Units=GPa)
#
#
# Indices 1 2 3 4 5 6 
#
# 1 46.5867 15.0240 34.3464 0.0000 0.0000 0.0000
# 2 15.0240 118.1588 74.8872 0.0000 0.0000 0.0000
# 3 34.3464 74.8872 197.0921 0.0000 0.0000 0.0000
# 4 0.0000 0.0000 0.0000 9.1070 0.0000 0.0000
# 5 0.0000 0.0000 0.0000 0.0000 18.4246 0.0000
# 6 0.0000 0.0000 0.0000 0.0000 0.0000 13.8583
#
#
#
# Elastic Compliance Matrix: (Units=1/GPa)
#
#
# Indices 1 2 3 4 5 6 
#
# 1 0.024656 -0.000542 -0.004091 0.000000 0.000000 0.000000
# 2 -0.000542 0.011160 -0.004146 0.000000 0.000000 0.000000
# 3 -0.004091 -0.004146 0.007362 0.000000 0.000000 0.000000
# 4 0.000000 0.000000 0.000000 0.109806 0.000000 0.000000
# 5 0.000000 0.000000 0.000000 0.000000 0.054275 0.000000
# 6 0.000000 0.000000 0.000000 0.000000 0.000000 0.072159
#
#
# Mechanical properties :
#
#
# Convention : Reuss Voigt Hill
#
# Bulk Modulus (GPa) = 39.03197 67.81697 53.42447
# Shear Modulus (GPa) = 16.36579 24.11665 20.24122
#
# Velocity S-wave (km/s) = 2.70546 3.28421 3.00879
# Velocity P-wave (km/s) = 5.21692 6.68672 5.99702
#
# Compressibility (1/GPa) = 0.02562002
#
# Stress axis : x y z
#
# Youngs Moduli (GPa) = 40.55792 89.60872 135.83619
#
# Poissons Ratio (x) = 0.04861 0.55565
# Poissons Ratio (y) = 0.02200 0.56313
# Poissons Ratio (z) = 0.16591 0.37149
#
# Static dielectric constant tensor:
#      x y z
#    x 3.952530 0.000000 0.000000 
#    y 0.000000 3.906380 0.000000 
#    z 0.000000 0.000000 4.439990 
# 
# 
# High freq. dielectric constant tensor:
#      x y z
#    x 1.880530 0.000000 0.000000 
#    y 0.000000 1.839470 0.000000 
#    z 0.000000 0.000000 1.899150 
# 
# From -- ./inp_files/16413.got.cif
#   From: 2010.03.12/outbox.cif.g09.slc.cpg/sg51_9_cif.got.tgz:16413.got - 2010.04.16 13:43:02.
