data_PCOD8212758
_publ_section_title
;
Structure prediction by ZEFSAII (Michael W. Deem and Ramdas Pophale) SiO2 
 PCOD8212758
Probable space group: P M M A
;
_chemical_formula_sum "Si O2"
_cell_formula_units_Z 32
_cell_length_a 15.665666
_cell_length_b 7.463988
_cell_length_c 13.300175
_cell_angle_alpha 90.000000
_cell_angle_beta 90.000000
_cell_angle_gamma 90.000000
_cell_volume 1555.167425
_symmetry_space_group_name_H-M "P M M A"
_symmetry_group_IT_number 51
_symmetry_cell_setting 'orthorhombic'
loop_
_space_group_symop_operation_xyz
x,y,z
1/2-x,-y,z
1/2+x,-y,-z
-x,y,-z
-x,-y,-z
1/2+x,y,-z
1/2-x,y,z
x,-y,z
loop_
_atom_site_type_symbol
_atom_site_label
_atom_site_fract_x
_atom_site_fract_y
_atom_site_fract_z
Si Si1 0.344354 0.000000 0.873502
Si Si2 0.098918 0.295786 0.734202
Si Si3 0.750000 0.287663 0.631642
Si Si4 0.910165 0.705836 0.760082
Si Si5 0.581536 0.000000 0.927158
Si Si6 0.750000 0.288118 0.408079
O O1 0.392281 0.177078 0.834090
O O2 0.250000 0.000000 0.828889
O O3 0.339991 0.000000 0.994552
O O4 0.121840 0.500000 0.762743
O O5 0.163639 0.223988 0.648501
O O6 0.000055 0.279100 0.699140
O O7 0.750000 0.500000 0.624685
O O8 0.665302 0.220417 0.689078
O O9 0.750000 0.203707 0.519678
O O10 0.893132 0.500000 0.791781
O O11 0.913703 0.821943 0.860740
O O12 0.500000 0.000000 0.000000
O O13 0.750000 0.500000 0.416232
#
# Coordination Sequence:
#
# PCOD8212758 Si02
#       6
#     4   8   4   8   4   4
#     4  12  24  38  58  86 119 151 193 246 294 344
#     4  10  20  37  61  88 118 152 192 240 289 342
#     4   9  20  39  61  88 121 157 194 236 288 350
#     4  10  22  40  60  85 121 156 193 241 289 342
#     4  12  24  40  60  85 116 154 202 241 290 351
#     4   9  18  35  61  90 117 151 196 236 288 350
#
# _framework density 20.576561000000002
#
# number of rings (size 3 to 8) (size 9 to 14) (size 15 to 20)
#    0.000    1.750    3.750    0.000    1.750    2.500 
#    0.000    7.500    0.000    3.000    0.000    0.000 
#    0.000    0.000    0.000    0.000    0.000    0.000 
#
# Total GULP energy -396681.597529 kJ/mol
# GULP energy per Si atom -12396.299923 kJ/mol
# Density = 2.052973 g / cm^3
# Si number density = 20.576561 Si / 1000 Ang^3
#
#
#
# Elastic Constant Matrix: (Units=GPa)
#
#
# Indices 1 2 3 4 5 6 
#
# 1 166.7298 35.3341 76.1877 0.0000 0.0000 0.0000
# 2 35.3341 90.9101 51.7265 0.0000 0.0000 0.0000
# 3 76.1877 51.7265 159.6310 0.0000 0.0000 0.0000
# 4 0.0000 0.0000 0.0000 10.9819 0.0000 0.0000
# 5 0.0000 0.0000 0.0000 0.0000 35.0662 0.0000
# 6 0.0000 0.0000 0.0000 0.0000 0.0000 15.5935
#
#
#
# Elastic Compliance Matrix: (Units=1/GPa)
#
#
# Indices 1 2 3 4 5 6 
#
# 1 0.007762 -0.001114 -0.003343 0.000000 0.000000 0.000000
# 2 -0.001114 0.013646 -0.003890 0.000000 0.000000 0.000000
# 3 -0.003343 -0.003890 0.009121 0.000000 0.000000 0.000000
# 4 0.000000 0.000000 0.000000 0.091059 0.000000 0.000000
# 5 0.000000 0.000000 0.000000 0.000000 0.028518 0.000000
# 6 0.000000 0.000000 0.000000 0.000000 0.000000 0.064129
#
#
# Mechanical properties :
#
#
# Convention : Reuss Voigt Hill
#
# Bulk Modulus (GPa) = 72.29042 82.64082 77.46562
# Shear Modulus (GPa) = 21.22774 29.26316 25.24545
#
# Velocity S-wave (km/s) = 3.21541 3.77524 3.50652
# Velocity P-wave (km/s) = 6.99956 7.69760 7.35686
#
# Compressibility (1/GPa) = 0.01383309
#
# Stress axis : x y z
#
# Youngs Moduli (GPa) = 128.83881 73.27936 109.64130
#
# Poissons Ratio (x) = 0.08166 0.36656
# Poissons Ratio (y) = 0.14358 0.42651
# Poissons Ratio (z) = 0.43075 0.28506
#
# Static dielectric constant tensor:
#      x y z
#    x 4.105320 0.000000 0.000000 
#    y 0.000000 3.608080 0.000000 
#    z 0.000000 0.000000 3.841940 
# 
# 
# High freq. dielectric constant tensor:
#      x y z
#    x 1.824200 0.000000 0.000000 
#    y 0.000000 1.802580 0.000000 
#    z 0.000000 0.000000 1.783190 
# 
# From -- ./inp_files/17027.got.cif
#   From: 2010.03.12/outbox.cif.g09.slc.cpg/sg51_9_cif.got.tgz:17027.got - 2010.04.16 13:43:02.
