data_PCOD8212690
_publ_section_title
;
Structure prediction by ZEFSAII (Michael W. Deem and Ramdas Pophale) SiO2 
 PCOD8212690
Probable space group: P M M A
;
_chemical_formula_sum "Si O2"
_cell_formula_units_Z 48
_cell_length_a 30.898792
_cell_length_b 8.938417
_cell_length_c 9.303056
_cell_angle_alpha 90.000000
_cell_angle_beta 90.000000
_cell_angle_gamma 90.000000
_cell_volume 2569.376501
_symmetry_space_group_name_H-M "P M M A"
_symmetry_group_IT_number 51
_symmetry_cell_setting 'orthorhombic'
loop_
_space_group_symop_operation_xyz
x,y,z
1/2-x,-y,z
1/2+x,-y,-z
-x,y,-z
-x,-y,-z
1/2+x,y,-z
1/2-x,y,z
x,-y,z
loop_
_atom_site_type_symbol
_atom_site_label
_atom_site_fract_x
_atom_site_fract_y
_atom_site_fract_z
Si Si1 0.169179 0.825261 0.336285
Si Si2 0.418723 0.325842 0.334964
Si Si3 0.172800 0.176397 0.664832
Si Si4 0.750000 0.823597 0.856784
Si Si5 0.000596 0.321907 0.837695
Si Si6 0.415911 0.675016 0.666813
Si Si7 0.250000 0.322575 0.835914
O O1 0.125624 0.747610 0.280541
O O2 0.180482 0.777286 0.499138
O O3 0.208192 0.775912 0.234478
O O4 0.160827 0.000000 0.330075
O O5 0.414215 0.500000 0.304437
O O6 0.458748 0.257536 0.245344
O O7 0.427521 0.292071 0.501676
O O8 0.125644 0.230450 0.715686
O O9 0.207625 0.260266 0.759922
O O10 0.177503 0.000000 0.689005
O O11 0.750000 0.000000 0.890966
O O12 0.750000 0.728777 0.000289
O O13 0.999520 0.500000 0.832259
O O14 0.044165 0.265392 0.761066
O O15 0.000000 0.261104 0.000000
O O16 0.406463 0.500000 0.692046
O O17 0.250000 0.500000 0.827594
#
# Coordination Sequence:
#
# PCOD8212690 Si02
#       7
#     8   8   8   4   8   8   4
#     4   9  19  36  58  80 103 136 177 219 263 314
#     4   9  17  30  50  75 102 134 171 214 263 310
#     4  10  20  37  59  81 106 138 175 216 265 315
#     4  10  21  38  56  76 106 142 175 210 260 316
#     4   9  17  29  47  72 102 136 173 214 260 307
#     4   9  17  31  51  75 102 133 173 217 259 307
#     4  12  25  38  54  80 110 140 175 214 258 310
#
# _framework density 18.681576
#
# number of rings (size 3 to 8) (size 9 to 14) (size 15 to 20)
#    0.000    2.500    0.000    2.250    0.000    6.000 
#    0.000    3.333    0.000    5.000    0.000    0.000 
#    0.000    0.000    0.000    0.000    0.000    0.000 
#
# Total GULP energy -595297.746991 kJ/mol
# GULP energy per Si atom -12402.036396 kJ/mol
# Density = 1.863906 g / cm^3
# Si number density = 18.681576 Si / 1000 Ang^3
#
#
#
# Elastic Constant Matrix: (Units=GPa)
#
#
# Indices 1 2 3 4 5 6 
#
# 1 192.1213 58.8822 104.0183 0.0000 0.0000 0.0000
# 2 58.8822 55.3881 44.7826 0.0000 0.0000 0.0000
# 3 104.0183 44.7826 118.8183 0.0000 0.0000 0.0000
# 4 0.0000 0.0000 0.0000 21.3180 0.0000 0.0000
# 5 0.0000 0.0000 0.0000 0.0000 6.4552 0.0000
# 6 0.0000 0.0000 0.0000 0.0000 0.0000 18.3116
#
#
#
# Elastic Compliance Matrix: (Units=1/GPa)
#
#
# Indices 1 2 3 4 5 6 
#
# 1 0.010988 -0.005615 -0.007503 0.000000 0.000000 0.000000
# 2 -0.005615 0.028837 -0.005953 0.000000 0.000000 0.000000
# 3 -0.007503 -0.005953 0.017229 0.000000 0.000000 0.000000
# 4 0.000000 0.000000 0.000000 0.046909 0.000000 0.000000
# 5 0.000000 0.000000 0.000000 0.000000 0.154914 0.000000
# 6 0.000000 0.000000 0.000000 0.000000 0.000000 0.054610
#
#
# Mechanical properties :
#
#
# Convention : Reuss Voigt Hill
#
# Bulk Modulus (GPa) = 52.87909 86.85490 69.86700
# Shear Modulus (GPa) = 13.96908 19.79326 16.88117
#
# Velocity S-wave (km/s) = 2.73746 3.25854 3.00930
# Velocity P-wave (km/s) = 6.19343 7.79427 7.03950
#
# Compressibility (1/GPa) = 0.01891107
#
# Stress axis : x y z
#
# Youngs Moduli (GPa) = 91.00451 34.67803 58.04247
#
# Poissons Ratio (x) = 0.19471 0.43552
# Poissons Ratio (y) = 0.51098 0.34553
# Poissons Ratio (z) = 0.68285 0.20644
#
# Static dielectric constant tensor:
#      x y z
#    x 3.690740 0.000000 0.000000 
#    y 0.000000 3.198390 0.000000 
#    z 0.000000 0.000000 3.506340 
# 
# 
# High freq. dielectric constant tensor:
#      x y z
#    x 1.741550 0.000000 0.000000 
#    y 0.000000 1.701450 0.000000 
#    z 0.000000 0.000000 1.722900 
# 
# From -- ./inp_files/12886.got.cif
#   From: 2010.03.12/outbox.cif.g09.slc.cpg/sg51_7_cif.got.tgz:12886.got - 2010.04.16 13:43:02.
