data_PCOD8212885
_publ_section_title
;
Structure prediction by ZEFSAII (Michael W. Deem and Ramdas Pophale) SiO2 
 PCOD8212885
Probable space group: P M M A
;
_chemical_formula_sum "Si O2"
_cell_formula_units_Z 64
_cell_length_a 17.409944
_cell_length_b 14.272878
_cell_length_c 12.040397
_cell_angle_alpha 90.000000
_cell_angle_beta 90.000000
_cell_angle_gamma 90.000000
_cell_volume 2991.918331
_symmetry_space_group_name_H-M "P M M A"
_symmetry_group_IT_number 51
_symmetry_cell_setting 'orthorhombic'
loop_
_space_group_symop_operation_xyz
x,y,z
1/2-x,-y,z
1/2+x,-y,-z
-x,y,-z
-x,-y,-z
1/2+x,y,-z
1/2-x,y,z
x,-y,z
loop_
_atom_site_type_symbol
_atom_site_label
_atom_site_fract_x
_atom_site_fract_y
_atom_site_fract_z
Si Si1 0.392716 0.893534 0.193307
Si Si2 0.578246 0.108968 0.439331
Si Si3 0.088789 0.605595 0.968242
Si Si4 0.836064 0.787344 0.006283
Si Si5 0.163480 0.609394 0.735374
Si Si6 0.409554 0.608224 0.505797
Si Si7 0.661241 0.225044 0.605117
Si Si8 0.567262 0.894460 0.182271
O O1 0.385092 0.826888 0.298456
O O2 0.478789 0.888116 0.146100
O O3 0.371699 0.000000 0.227945
O O4 0.337729 0.860390 0.094510
O O5 0.500000 0.141020 0.500000
O O6 0.648154 0.167258 0.491648
O O7 0.574683 0.133809 0.310320
O O8 0.593180 0.000000 0.460022
O O9 0.118210 0.500000 0.996482
O O10 0.133539 0.685645 0.037366
O O11 0.107634 0.630696 0.839644
O O12 0.000000 0.613548 0.000000
O O13 0.750000 0.776445 0.048888
O O14 0.885057 0.821644 0.110709
O O15 0.250000 0.652876 0.749501
O O16 0.173095 0.500000 0.721790
O O17 0.121978 0.646385 0.624013
O O18 0.500000 0.624505 0.500000
O O19 0.388427 0.500000 0.484309
O O20 0.369532 0.668952 0.408993
O O21 0.750000 0.227478 0.636714
O O22 0.598177 0.000000 0.162195
#
# Coordination Sequence:
#
# PCOD8212885 Si02
#       8
#     8   8   8   8   8   8   8   8
#     4  11  24  45  68  91 127 178 227 267 321 400
#     4  10  20  39  64  94 129 165 207 266 330 388
#     4  10  22  41  65  93 125 165 217 273 324 388
#     4  12  26  41  63  96 133 172 216 272 337 392
#     4   9  18  36  62  90 124 164 205 262 335 397
#     4  10  23  41  63  94 131 174 224 275 327 391
#     4  12  25  39  63  95 128 171 217 265 327 394
#     4  10  22  41  68  94 123 166 216 269 323 381
#
# _framework density 21.390957
#
# number of rings (size 3 to 8) (size 9 to 14) (size 15 to 20)
#    0.000    1.500    1.250    3.375    1.750    6.500 
#    0.000    3.125    0.000    1.500    0.000    0.000 
#    0.000    0.000    0.000    0.000    0.000    0.000 
#
# Total GULP energy -793602.592819 kJ/mol
# GULP energy per Si atom -12400.040513 kJ/mol
# Density = 2.134227 g / cm^3
# Si number density = 21.390957 Si / 1000 Ang^3
#
#
#
# Elastic Constant Matrix: (Units=GPa)
#
#
# Indices 1 2 3 4 5 6 
#
# 1 118.3724 50.4123 40.7847 0.0000 0.0000 0.0000
# 2 50.4123 123.2543 49.1586 0.0000 0.0000 0.0000
# 3 40.7847 49.1586 92.3629 0.0000 0.0000 0.0000
# 4 0.0000 0.0000 0.0000 30.9048 0.0000 0.0000
# 5 0.0000 0.0000 0.0000 0.0000 28.9283 0.0000
# 6 0.0000 0.0000 0.0000 0.0000 0.0000 6.5683
#
#
#
# Elastic Compliance Matrix: (Units=1/GPa)
#
#
# Indices 1 2 3 4 5 6 
#
# 1 0.010884 -0.003218 -0.003093 0.000000 0.000000 0.000000
# 2 -0.003218 0.011251 -0.004567 0.000000 0.000000 0.000000
# 3 -0.003093 -0.004567 0.014624 0.000000 0.000000 0.000000
# 4 0.000000 0.000000 0.000000 0.032357 0.000000 0.000000
# 5 0.000000 0.000000 0.000000 0.000000 0.034568 0.000000
# 6 0.000000 0.000000 0.000000 0.000000 0.000000 0.152246
#
#
# Mechanical properties :
#
#
# Convention : Reuss Voigt Hill
#
# Bulk Modulus (GPa) = 66.65926 68.30009 67.47967
# Shear Modulus (GPa) = 17.68735 26.18925 21.93830
#
# Velocity S-wave (km/s) = 2.87864 3.50282 3.20595
# Velocity P-wave (km/s) = 6.50221 6.95402 6.73191
#
# Compressibility (1/GPa) = 0.01500167
#
# Stress axis : x y z
#
# Youngs Moduli (GPa) = 91.87626 88.88037 68.38240
#
# Poissons Ratio (x) = 0.28601 0.21154
# Poissons Ratio (y) = 0.29566 0.31232
# Poissons Ratio (z) = 0.28421 0.40594
#
# Static dielectric constant tensor:
#      x y z
#    x 3.845050 0.000000 0.000000 
#    y 0.000000 4.064370 0.000000 
#    z 0.000000 0.000000 3.845740 
# 
# 
# High freq. dielectric constant tensor:
#      x y z
#    x 1.833400 0.000000 0.000000 
#    y 0.000000 1.852940 0.000000 
#    z 0.000000 0.000000 1.831240 
# 
# From -- ./inp_files/17513.got.cif
#   From: 2010.03.12/outbox.cif.g09.slc.cpg/sg51_9_cif.got.tgz:17513.got - 2010.04.16 13:43:02.
