data_PCOD8212771
_publ_section_title
;
Structure prediction by ZEFSAII (Michael W. Deem and Ramdas Pophale) SiO2 
 PCOD8212771
Probable space group: P M M A
;
_chemical_formula_sum "Si O2"
_cell_formula_units_Z 64
_cell_length_a 14.306066
_cell_length_b 18.687689
_cell_length_c 11.645776
_cell_angle_alpha 90.000000
_cell_angle_beta 90.000000
_cell_angle_gamma 90.000000
_cell_volume 3113.466912
_symmetry_space_group_name_H-M "P M M A"
_symmetry_group_IT_number 51
_symmetry_cell_setting 'orthorhombic'
loop_
_space_group_symop_operation_xyz
x,y,z
1/2-x,-y,z
1/2+x,-y,-z
-x,y,-z
-x,-y,-z
1/2+x,y,-z
1/2-x,y,z
x,-y,z
loop_
_atom_site_type_symbol
_atom_site_label
_atom_site_fract_x
_atom_site_fract_y
_atom_site_fract_z
Si Si1 0.361742 0.205453 0.319474
Si Si2 0.854601 0.579803 0.754162
Si Si3 0.644959 0.660849 0.535220
Si Si4 0.859380 0.917436 0.263718
Si Si5 0.981894 0.647456 0.127671
Si Si6 0.511980 0.808576 0.130030
Si Si7 0.639701 0.077720 0.520657
Si Si8 0.139676 0.418478 0.684448
O O1 0.250000 0.211856 0.297597
O O2 0.400480 0.271458 0.397952
O O3 0.413353 0.197767 0.197406
O O4 0.393148 0.135158 0.387778
O O5 0.750000 0.589606 0.802678
O O6 0.892255 0.500000 0.779624
O O7 0.855563 0.591692 0.617416
O O8 0.917662 0.640483 0.811293
O O9 0.750000 0.684483 0.504565
O O10 0.597364 0.634948 0.414978
O O11 0.750000 0.899402 0.250983
O O12 0.916120 0.863752 0.184316
O O13 0.895961 0.903230 0.393134
O O14 0.877943 0.000000 0.228586
O O15 0.944832 0.728734 0.127888
O O16 0.905821 0.599683 0.193303
O O17 0.000000 0.617976 0.000000
O O18 0.500000 0.835579 0.000000
O O19 0.750000 0.074114 0.513771
O O20 0.600182 0.000000 0.558785
O O21 0.250000 0.408327 0.695144
O O22 0.114632 0.500000 0.652293
#
# Coordination Sequence:
#
# PCOD8212771 Si02
#       8
#     8   8   8   8   8   8   8   8
#     4  10  20  37  62  89 122 159 196 245 305 366
#     4  10  20  37  62  86 112 153 201 249 303 361
#     4   9  18  35  59  87 118 151 190 244 309 370
#     4   9  20  41  66  91 123 161 202 251 304 360
#     4  11  25  42  57  82 122 162 205 251 295 354
#     4  11  25  41  59  87 122 164 210 253 297 354
#     4   8  16  33  59  91 122 151 187 235 297 365
#     4  10  22  40  62  89 120 154 197 255 316 368
#
# _framework density 20.555864
#
# number of rings (size 3 to 8) (size 9 to 14) (size 15 to 20)
#    0.000    2.250    1.250    1.500    1.750    5.750 
#    0.000    6.250    0.000    1.500    0.000    0.000 
#    0.000    0.000    0.000    0.000    0.000    0.000 
#
# Total GULP energy -793206.958563 kJ/mol
# GULP energy per Si atom -12393.858728 kJ/mol
# Density = 2.050908 g / cm^3
# Si number density = 20.555864 Si / 1000 Ang^3
#
#
#
# Elastic Constant Matrix: (Units=GPa)
#
#
# Indices 1 2 3 4 5 6 
#
# 1 57.1038 35.1653 36.7198 0.0000 0.0000 0.0000
# 2 35.1653 114.2312 66.3968 0.0000 0.0000 0.0000
# 3 36.7198 66.3968 147.0405 0.0000 0.0000 0.0000
# 4 0.0000 0.0000 0.0000 30.0498 0.0000 0.0000
# 5 0.0000 0.0000 0.0000 0.0000 23.5541 0.0000
# 6 0.0000 0.0000 0.0000 0.0000 0.0000 27.9801
#
#
#
# Elastic Compliance Matrix: (Units=1/GPa)
#
#
# Indices 1 2 3 4 5 6 
#
# 1 0.022813 -0.005032 -0.003425 0.000000 0.000000 0.000000
# 2 -0.005032 0.012980 -0.004604 0.000000 0.000000 0.000000
# 3 -0.003425 -0.004604 0.009735 0.000000 0.000000 0.000000
# 4 0.000000 0.000000 0.000000 0.033278 0.000000 0.000000
# 5 0.000000 0.000000 0.000000 0.000000 0.042455 0.000000
# 6 0.000000 0.000000 0.000000 0.000000 0.000000 0.035740
#
#
# Mechanical properties :
#
#
# Convention : Reuss Voigt Hill
#
# Bulk Modulus (GPa) = 51.53217 66.10437 58.81827
# Shear Modulus (GPa) = 26.37243 28.32305 27.34774
#
# Velocity S-wave (km/s) = 3.58573 3.71598 3.65144
# Velocity P-wave (km/s) = 6.50131 7.11615 6.81567
#
# Compressibility (1/GPa) = 0.01940536
#
# Stress axis : x y z
#
# Youngs Moduli (GPa) = 43.83449 77.04412 102.72038
#
# Poissons Ratio (x) = 0.38771 0.35178
# Poissons Ratio (y) = 0.22059 0.47296
# Poissons Ratio (z) = 0.15012 0.35473
#
# Static dielectric constant tensor:
#      x y z
#    x 3.516690 0.000000 0.000000 
#    y 0.000000 4.331730 0.000000 
#    z 0.000000 0.000000 3.726450 
# 
# 
# High freq. dielectric constant tensor:
#      x y z
#    x 1.794190 0.000000 0.000000 
#    y 0.000000 1.812710 0.000000 
#    z 0.000000 0.000000 1.791940 
# 
# From -- ./inp_files/16811.got.cif
#   From: 2010.03.12/outbox.cif.g09.slc.cpg/sg51_9_cif.got.tgz:16811.got - 2010.04.16 13:43:02.
