data_PCOD8212281
_publ_section_title
;
Structure prediction by ZEFSAII (Michael W. Deem and Ramdas Pophale) SiO2 
 PCOD8212281
Probable space group: P M M A
;
_chemical_formula_sum "Si O2"
_cell_formula_units_Z 48
_cell_length_a 27.887246
_cell_length_b 8.625490
_cell_length_c 10.211713
_cell_angle_alpha 90.000000
_cell_angle_beta 90.000000
_cell_angle_gamma 90.000000
_cell_volume 2456.337306
_symmetry_space_group_name_H-M "P M M A"
_symmetry_group_IT_number 51
_symmetry_cell_setting 'orthorhombic'
loop_
_space_group_symop_operation_xyz
x,y,z
1/2-x,-y,z
1/2+x,-y,-z
-x,y,-z
-x,-y,-z
1/2+x,y,-z
1/2-x,y,z
x,-y,z
loop_
_atom_site_type_symbol
_atom_site_label
_atom_site_fract_x
_atom_site_fract_y
_atom_site_fract_z
Si Si1 0.548843 0.318809 0.644445
Si Si2 0.694785 0.681892 0.979114
Si Si3 0.305922 0.322387 0.501045
Si Si4 0.639074 0.319880 0.237031
Si Si5 0.448748 0.180938 0.635798
Si Si6 0.641738 0.820747 0.736206
O O1 0.538378 0.500000 0.652577
O O2 0.501149 0.227871 0.688280
O O3 0.563746 0.274589 0.496388
O O4 0.591865 0.273897 0.741852
O O5 0.750000 0.726594 0.002541
O O6 0.689238 0.500000 0.953646
O O7 0.675870 0.772052 0.853827
O O8 0.664573 0.736178 0.104699
O O9 0.250000 0.288024 0.499130
O O10 0.317200 0.500000 0.461457
O O11 0.324506 0.284764 0.645577
O O12 0.331253 0.209443 0.399461
O O13 0.625653 0.500000 0.230075
O O14 0.590185 0.223223 0.254214
O O15 0.447702 0.000000 0.603394
O O16 0.628991 0.000000 0.746626
#
# Coordination Sequence:
#
# PCOD8212281 Si02
#       6
#     8   8   8   8   8   8
#     4  11  21  37  61  87 117 156 200 245 292 351
#     4  10  22  41  63  86 117 161 207 247 292 351
#     4  10  20  35  58  86 115 150 196 248 295 348
#     4  10  20  37  61  88 118 156 202 246 291 349
#     4  11  21  35  58  91 126 155 188 239 301 360
#     4  12  24  38  57  86 121 157 197 247 303 355
#
# _framework density 19.54129
#
# number of rings (size 3 to 8) (size 9 to 14) (size 15 to 20)
#    0.000    1.333    1.667    6.500    0.000    5.333 
#    0.000    0.833    0.000    8.000    0.000    0.000 
#    0.000    0.000    0.000    0.000    0.000    0.000 
#
# Total GULP energy -595482.813994 kJ/mol
# GULP energy per Si atom -12405.891958 kJ/mol
# Density = 1.949681 g / cm^3
# Si number density = 19.541290 Si / 1000 Ang^3
#
#
#
# Elastic Constant Matrix: (Units=GPa)
#
#
# Indices 1 2 3 4 5 6 
#
# 1 106.9085 28.7873 28.7160 0.0000 0.0000 0.0000
# 2 28.7873 78.1385 19.1426 0.0000 0.0000 0.0000
# 3 28.7160 19.1426 53.4020 0.0000 0.0000 0.0000
# 4 0.0000 0.0000 0.0000 2.9950 0.0000 0.0000
# 5 0.0000 0.0000 0.0000 0.0000 36.4878 0.0000
# 6 0.0000 0.0000 0.0000 0.0000 0.0000 20.6280
#
#
#
# Elastic Compliance Matrix: (Units=1/GPa)
#
#
# Indices 1 2 3 4 5 6 
#
# 1 0.011538 -0.002994 -0.005131 0.000000 0.000000 0.000000
# 2 -0.002994 0.014807 -0.003698 0.000000 0.000000 0.000000
# 3 -0.005131 -0.003698 0.022811 0.000000 0.000000 0.000000
# 4 0.000000 0.000000 0.000000 0.333893 0.000000 0.000000
# 5 0.000000 0.000000 0.000000 0.000000 0.027406 0.000000
# 6 0.000000 0.000000 0.000000 0.000000 0.000000 0.048478
#
#
# Mechanical properties :
#
#
# Convention : Reuss Voigt Hill
#
# Bulk Modulus (GPa) = 39.20058 43.52674 41.36366
# Shear Modulus (GPa) = 10.18160 22.80903 16.49532
#
# Velocity S-wave (km/s) = 2.28509 3.42017 2.90854
# Velocity P-wave (km/s) = 5.20251 6.15787 5.70024
#
# Compressibility (1/GPa) = 0.02550982
#
# Stress axis : x y z
#
# Youngs Moduli (GPa) = 86.66849 67.53733 43.83912
#
# Poissons Ratio (x) = 0.20219 0.22495
# Poissons Ratio (y) = 0.25946 0.16211
# Poissons Ratio (z) = 0.44472 0.24974
#
# Static dielectric constant tensor:
#      x y z
#    x 3.775280 0.000000 0.000000 
#    y 0.000000 3.530260 0.000000 
#    z 0.000000 0.000000 3.393530 
# 
# 
# High freq. dielectric constant tensor:
#      x y z
#    x 1.780590 0.000000 0.000000 
#    y 0.000000 1.758660 0.000000 
#    z 0.000000 0.000000 1.740030 
# 
# From -- ./inp_files/12739.got.cif
#   From: 2010.03.12/outbox.cif.g09.slc.cpg/sg51_7_cif.got.tgz:12739.got - 2010.04.16 13:43:02.
