data_PCOD8212827
_publ_section_title
;
Structure prediction by ZEFSAII (Michael W. Deem and Ramdas Pophale) SiO2 
 PCOD8212827
Probable space group: P M M A
;
_chemical_formula_sum "Si O2"
_cell_formula_units_Z 32
_cell_length_a 16.801724
_cell_length_b 13.371737
_cell_length_c 7.330187
_cell_angle_alpha 90.000000
_cell_angle_beta 90.000000
_cell_angle_gamma 90.000000
_cell_volume 1646.860172
_symmetry_space_group_name_H-M "P M M A"
_symmetry_group_IT_number 51
_symmetry_cell_setting 'orthorhombic'
loop_
_space_group_symop_operation_xyz
x,y,z
1/2-x,-y,z
1/2+x,-y,-z
-x,y,-z
-x,-y,-z
1/2+x,y,-z
1/2-x,y,z
x,-y,z
loop_
_atom_site_type_symbol
_atom_site_label
_atom_site_fract_x
_atom_site_fract_y
_atom_site_fract_z
Si Si1 0.574924 0.793443 0.109741
Si Si2 0.159686 0.262569 0.229725
Si Si3 0.158711 0.885553 0.554083
Si Si4 0.011733 0.612886 0.287196
O O1 0.600690 0.862547 0.277177
O O2 0.549863 0.683435 0.180621
O O3 0.500000 0.841384 0.000000
O O4 0.648904 0.785276 0.970824
O O5 0.250000 0.298100 0.256022
O O6 0.134494 0.181205 0.381216
O O7 0.102880 0.358228 0.245412
O O8 0.250000 0.864567 0.611119
O O9 0.146365 0.000000 0.496028
O O10 0.996146 0.500000 0.220955
O O11 0.000000 0.624626 0.500000
#
# Coordination Sequence:
#
# PCOD8212827 Si02
#       4
#     8   8   8   8
#     4  10  21  36  59  86 114 147 188 237 287 338
#     4  10  21  37  59  85 114 149 192 234 278 338
#     4  10  21  38  58  81 115 154 190 235 288 337
#     4  10  20  38  61  83 113 152 188 229 284 339
#
# _framework density 19.430914999999999
#
# number of rings (size 3 to 8) (size 9 to 14) (size 15 to 20)
#    0.000    2.000    2.500    0.750    0.000    6.500 
#    0.000   11.250    0.000    2.250    0.000    0.000 
#    0.000    0.000    0.000    0.000    0.000    0.000 
#
# Total GULP energy -396779.266345 kJ/mol
# GULP energy per Si atom -12399.352073 kJ/mol
# Density = 1.938669 g / cm^3
# Si number density = 19.430915 Si / 1000 Ang^3
#
#
#
# Elastic Constant Matrix: (Units=GPa)
#
#
# Indices 1 2 3 4 5 6 
#
# 1 67.7055 27.0930 34.2100 0.0000 0.0000 0.0000
# 2 27.0930 72.8350 31.5385 0.0000 0.0000 0.0000
# 3 34.2100 31.5385 113.3896 0.0000 0.0000 0.0000
# 4 0.0000 0.0000 0.0000 13.7489 0.0000 0.0000
# 5 0.0000 0.0000 0.0000 0.0000 37.1649 0.0000
# 6 0.0000 0.0000 0.0000 0.0000 0.0000 22.1547
#
#
#
# Elastic Compliance Matrix: (Units=1/GPa)
#
#
# Indices 1 2 3 4 5 6 
#
# 1 0.019025 -0.005220 -0.004288 0.000000 0.000000 0.000000
# 2 -0.005220 0.017042 -0.003165 0.000000 0.000000 0.000000
# 3 -0.004288 -0.003165 0.010993 0.000000 0.000000 0.000000
# 4 0.000000 0.000000 0.000000 0.072733 0.000000 0.000000
# 5 0.000000 0.000000 0.000000 0.000000 0.026907 0.000000
# 6 0.000000 0.000000 0.000000 0.000000 0.000000 0.045137
#
#
# Mechanical properties :
#
#
# Convention : Reuss Voigt Hill
#
# Bulk Modulus (GPa) = 46.05373 48.84591 47.44982
# Shear Modulus (GPa) = 22.27936 25.35293 23.81615
#
# Velocity S-wave (km/s) = 3.38981 3.61608 3.50477
# Velocity P-wave (km/s) = 6.25091 6.52898 6.39145
#
# Compressibility (1/GPa) = 0.02171377
#
# Stress axis : x y z
#
# Youngs Moduli (GPa) = 52.56124 58.67836 90.96503
#
# Poissons Ratio (x) = 0.30632 0.39006
# Poissons Ratio (y) = 0.27438 0.28792
# Poissons Ratio (z) = 0.22539 0.18573
#
# Static dielectric constant tensor:
#      x y z
#    x 3.643030 0.000000 0.000000 
#    y 0.000000 3.375370 0.000000 
#    z 0.000000 0.000000 3.799140 
# 
# 
# High freq. dielectric constant tensor:
#      x y z
#    x 1.753780 0.000000 0.000000 
#    y 0.000000 1.737350 0.000000 
#    z 0.000000 0.000000 1.778510 
# 
# From -- ./inp_files/1776.got.cif
#   From: 2010.03.12/outbox.cif.g09.slc.cpg/sg51_1_cif.got.tgz:1776.got - 2010.04.16 13:43:02.
