data_PCOD8212438
_publ_section_title
;
Structure prediction by ZEFSAII (Michael W. Deem and Ramdas Pophale) SiO2 
 PCOD8212438
Probable space group: P M M A
;
_chemical_formula_sum "Si O2"
_cell_formula_units_Z 40
_cell_length_a 8.880872
_cell_length_b 24.548938
_cell_length_c 9.715368
_cell_angle_alpha 90.000000
_cell_angle_beta 90.000000
_cell_angle_gamma 90.000000
_cell_volume 2118.105438
_symmetry_space_group_name_H-M "P M M A"
_symmetry_group_IT_number 51
_symmetry_cell_setting 'orthorhombic'
loop_
_space_group_symop_operation_xyz
x,y,z
1/2-x,-y,z
1/2+x,-y,-z
-x,y,-z
-x,-y,-z
1/2+x,y,-z
1/2-x,y,z
x,-y,z
loop_
_atom_site_type_symbol
_atom_site_label
_atom_site_fract_x
_atom_site_fract_y
_atom_site_fract_z
Si Si1 0.423272 0.438615 0.646309
Si Si2 0.571588 0.142964 0.649558
Si Si3 0.072454 0.358758 0.141917
Si Si4 0.076077 0.064128 0.858229
Si Si5 0.425930 0.235194 0.140882
O O1 0.500000 0.434861 0.500000
O O2 0.250000 0.420794 0.634405
O O3 0.437095 0.500000 0.705105
O O4 0.511429 0.397382 0.741226
O O5 0.500000 0.146996 0.500000
O O6 0.750000 0.136884 0.635928
O O7 0.506876 0.090793 0.728711
O O8 0.523999 0.197182 0.732841
O O9 0.250000 0.364861 0.130852
O O10 0.023358 0.296766 0.175644
O O11 0.000000 0.378294 0.000000
O O12 0.250000 0.081733 0.861428
O O13 0.056873 0.000000 0.839741
O O14 0.000000 0.084081 0.000000
O O15 0.250000 0.231770 0.116003
O O16 0.500000 0.214071 0.000000
#
# Coordination Sequence:
#
# PCOD8212438 Si02
#       5
#     8   8   8   8   8
#     4  10  21  37  56  79 108 143 182 223 270 324
#     4  11  23  38  56  81 113 147 184 225 272 323
#     4  10  20  36  57  82 111 142 180 224 271 321
#     4  10  21  38  60  85 112 144 183 225 270 322
#     4   9  20  37  57  81 108 141 180 223 270 322
#
# _framework density 18.884799999999998
#
# number of rings (size 3 to 8) (size 9 to 14) (size 15 to 20)
#    0.000    2.000    0.000    3.000    0.000    8.000 
#    0.000    2.000    0.000    0.000    0.000    0.000 
#    0.000    0.000    0.000    0.000    0.000    0.000 
#
# Total GULP energy -496139.684667 kJ/mol
# GULP energy per Si atom -12403.492117 kJ/mol
# Density = 1.884182 g / cm^3
# Si number density = 18.884800 Si / 1000 Ang^3
#
#
#
# Elastic Constant Matrix: (Units=GPa)
#
#
# Indices 1 2 3 4 5 6 
#
# 1 104.4445 48.5646 62.0770 0.0000 0.0000 0.0000
# 2 48.5646 81.6070 65.6992 0.0000 0.0000 0.0000
# 3 62.0770 65.6992 144.8368 0.0000 0.0000 0.0000
# 4 0.0000 0.0000 0.0000 50.2695 0.0000 0.0000
# 5 0.0000 0.0000 0.0000 0.0000 41.7561 0.0000
# 6 0.0000 0.0000 0.0000 0.0000 0.0000 28.0736
#
#
#
# Elastic Compliance Matrix: (Units=1/GPa)
#
#
# Indices 1 2 3 4 5 6 
#
# 1 0.014327 -0.005643 -0.003581 0.000000 0.000000 0.000000
# 2 -0.005643 0.021526 -0.007346 0.000000 0.000000 0.000000
# 3 -0.003581 -0.007346 0.011771 0.000000 0.000000 0.000000
# 4 0.000000 0.000000 0.000000 0.019893 0.000000 0.000000
# 5 0.000000 0.000000 0.000000 0.000000 0.023949 0.000000
# 6 0.000000 0.000000 0.000000 0.000000 0.000000 0.035621
#
#
# Mechanical properties :
#
#
# Convention : Reuss Voigt Hill
#
# Bulk Modulus (GPa) = 69.03865 75.95220 72.49543
# Shear Modulus (GPa) = 30.29340 34.32300 32.30820
#
# Velocity S-wave (km/s) = 4.00949 4.26783 4.14067
# Velocity P-wave (km/s) = 7.62048 8.03691 7.83146
#
# Compressibility (1/GPa) = 0.01448464
#
# Stress axis : x y z
#
# Youngs Moduli (GPa) = 69.80048 46.45575 84.95456
#
# Poissons Ratio (x) = 0.26216 0.30419
# Poissons Ratio (y) = 0.39390 0.62405
# Poissons Ratio (z) = 0.24993 0.34125
#
# Static dielectric constant tensor:
#      x y z
#    x 3.602890 0.000000 0.000000 
#    y 0.000000 3.652570 0.000000 
#    z 0.000000 0.000000 3.446080 
# 
# 
# High freq. dielectric constant tensor:
#      x y z
#    x 1.748500 0.000000 0.000000 
#    y 0.000000 1.741430 0.000000 
#    z 0.000000 0.000000 1.733050 
# 
# From -- ./inp_files/5207.got.cif
#   From: 2010.03.12/outbox.cif.g09.slc.cpg/sg51_3_cif.got.tgz:5207.got - 2010.04.16 13:43:02.
