data_PCOD8212695
_publ_section_title
;
Structure prediction by ZEFSAII (Michael W. Deem and Ramdas Pophale) SiO2 
 PCOD8212695
Probable space group: P M M A
;
_chemical_formula_sum "Si O2"
_cell_formula_units_Z 56
_cell_length_a 22.516862
_cell_length_b 9.128712
_cell_length_c 14.451652
_cell_angle_alpha 90.000000
_cell_angle_beta 90.000000
_cell_angle_gamma 90.000000
_cell_volume 2970.536322
_symmetry_space_group_name_H-M "P M M A"
_symmetry_group_IT_number 51
_symmetry_cell_setting 'orthorhombic'
loop_
_space_group_symop_operation_xyz
x,y,z
1/2-x,-y,z
1/2+x,-y,-z
-x,y,-z
-x,-y,-z
1/2+x,y,-z
1/2-x,y,z
x,-y,z
loop_
_atom_site_type_symbol
_atom_site_label
_atom_site_fract_x
_atom_site_fract_y
_atom_site_fract_z
Si Si1 0.017059 0.832390 0.786182
Si Si2 0.036209 0.836667 0.408524
Si Si3 0.250000 0.826255 0.672077
Si Si4 0.598427 0.328156 0.839971
Si Si5 0.250000 0.173981 0.461113
Si Si6 0.816830 0.331984 0.003920
Si Si7 0.854805 0.329947 0.641572
Si Si8 0.349944 0.825776 0.812322
O O1 0.007947 0.815780 0.676996
O O2 0.966085 0.747520 0.842888
O O3 0.082550 0.766330 0.804736
O O4 0.013679 0.000000 0.818891
O O5 0.084586 0.709046 0.410470
O O6 0.000000 0.814470 0.500000
O O7 0.065146 0.000000 0.404637
O O8 0.250000 0.764749 0.566876
O O9 0.309294 0.771308 0.726059
O O10 0.250000 0.000000 0.668691
O O11 0.586691 0.500000 0.841983
O O12 0.636412 0.286078 0.749010
O O13 0.636957 0.274440 0.927061
O O14 0.194267 0.230591 0.404624
O O15 0.250000 0.000000 0.461628
O O16 0.750000 0.317506 0.964050
O O17 0.830901 0.500000 0.029548
O O18 0.821685 0.233854 0.094247
O O19 0.838847 0.500000 0.629418
O O20 0.349407 0.000000 0.815540
#
# Coordination Sequence:
#
# PCOD8212695 Si02
#       8
#     8   8   4   8   4   8   8   8
#     4   9  19  34  55  82 111 142 181 230 276 322
#     4   9  18  33  56  80 107 145 189 229 270 325
#     4   9  20  37  58  79 108 146 187 225 268 329
#     4   9  20  38  59  80 110 149 183 221 276 336
#     4  11  23  37  58  83 110 148 191 227 270 331
#     4  10  21  37  58  82 107 143 187 227 271 327
#     4  10  21  37  56  81 114 146 182 229 278 327
#     4  10  20  37  59  82 110 144 181 226 278 325
#
# _framework density 18.851814999999998
#
# number of rings (size 3 to 8) (size 9 to 14) (size 15 to 20)
#    0.000    2.429    0.714    0.643    3.000    2.571 
#    0.000    4.286    0.000    0.000    0.000    0.000 
#    0.000    0.000    0.000    0.000    0.000    0.000 
#
# Total GULP energy -694300.498340 kJ/mol
# GULP energy per Si atom -12398.223185 kJ/mol
# Density = 1.880891 g / cm^3
# Si number density = 18.851815 Si / 1000 Ang^3
#
#
#
# Elastic Constant Matrix: (Units=GPa)
#
#
# Indices 1 2 3 4 5 6 
#
# 1 133.4710 34.2800 55.8992 0.0000 0.0000 0.0000
# 2 34.2800 39.4442 29.3287 0.0000 0.0000 0.0000
# 3 55.8992 29.3287 77.1819 0.0000 0.0000 0.0000
# 4 0.0000 0.0000 0.0000 26.0638 0.0000 0.0000
# 5 0.0000 0.0000 0.0000 0.0000 -2.1813 0.0000
# 6 0.0000 0.0000 0.0000 0.0000 0.0000 29.9517
#
#
#
# Elastic Compliance Matrix: (Units=1/GPa)
#
#
# Indices 1 2 3 4 5 6 
#
# 1 0.011497 -0.005297 -0.006314 0.000000 0.000000 0.000000
# 2 -0.005297 0.037777 -0.010519 0.000000 0.000000 0.000000
# 3 -0.006314 -0.010519 0.021526 0.000000 0.000000 0.000000
# 4 0.000000 0.000000 0.000000 0.038367 0.000000 0.000000
# 5 0.000000 0.000000 0.000000 0.000000 -0.458441 0.000000
# 6 0.000000 0.000000 0.000000 0.000000 0.000000 0.033387
#
#
# Mechanical properties :
#
#
# Convention : Reuss Voigt Hill
#
# Bulk Modulus (GPa) = 37.67743 54.34589 46.01166
# Shear Modulus (GPa) = -19.02732 19.47277 0.22273
#
# Velocity S-wave (km/s) = -3.18041 3.21742 0.34410
# Velocity P-wave (km/s) = 2.55789 6.53398 4.96164
#
# Compressibility (1/GPa) = 0.02654109
#
# Stress axis : x y z
#
# Youngs Moduli (GPa) = 86.97839 26.47112 46.45478
#
# Poissons Ratio (x) = 0.14022 0.29331
# Poissons Ratio (y) = 0.46074 0.48864
# Poissons Ratio (z) = 0.54918 0.27844
#
# Static dielectric constant tensor:
#      x y z
#    x 1.725630 0.000000 0.000000 
#    y 0.000000 3.367010 0.000000 
#    z 0.000000 0.000000 3.513250 
# 
# 
# High freq. dielectric constant tensor:
#      x y z
#    x 1.741910 0.000000 0.000000 
#    y 0.000000 1.717070 0.000000 
#    z 0.000000 0.000000 1.733510 
# 
# From -- ./inp_files/25806.got.cif
#   From: 2010.03.12/outbox.cif.g09.slc.cpg/sg51_13_cif.got.tgz:25806.got - 2010.04.16 13:43:02.
