data_PCOD8212035
_publ_section_title
;
Structure prediction by ZEFSAII (Michael W. Deem and Ramdas Pophale) SiO2 
 PCOD8212035
Probable space group: P M M A
;
_chemical_formula_sum "Si O2"
_cell_formula_units_Z 36
_cell_length_a 9.210778
_cell_length_b 10.378879
_cell_length_c 19.879244
_cell_angle_alpha 90.000000
_cell_angle_beta 90.000000
_cell_angle_gamma 90.000000
_cell_volume 1900.407029
_symmetry_space_group_name_H-M "P M M A"
_symmetry_group_IT_number 51
_symmetry_cell_setting 'orthorhombic'
loop_
_space_group_symop_operation_xyz
x,y,z
1/2-x,-y,z
1/2+x,-y,-z
-x,y,-z
-x,-y,-z
1/2+x,y,-z
1/2-x,y,z
x,-y,z
loop_
_atom_site_type_symbol
_atom_site_label
_atom_site_fract_x
_atom_site_fract_y
_atom_site_fract_z
Si Si1 0.412662 0.000000 0.433633
Si Si2 0.087146 0.152507 0.063499
Si Si3 0.415402 0.641974 0.695059
Si Si4 0.579660 0.852028 0.197834
Si Si5 0.580250 0.278909 0.571311
O O1 0.500000 0.000000 0.500000
O O2 0.444355 0.865251 0.396185
O O3 0.250000 0.000000 0.459659
O O4 0.250000 0.210201 0.064756
O O5 0.004661 0.191046 0.131311
O O6 0.094498 0.000000 0.056358
O O7 0.000000 0.211127 0.000000
O O8 0.250000 0.674033 0.674811
O O9 0.425792 0.500000 0.729429
O O10 0.473429 0.753371 0.744669
O O11 0.510159 0.630780 0.627273
O O12 0.750000 0.837148 0.183348
O O13 0.542373 0.000000 0.218592
O O14 0.500000 0.297209 0.500000
O O15 0.750000 0.311655 0.561403
#
# Coordination Sequence:
#
# PCOD8212035 Si02
#       5
#     4   8   8   8   8
#     4   8  16  30  48  74 102 126 155 200 255 306
#     4   9  16  27  47  77 110 140 170 210 257 303
#     4  10  22  38  54  75 105 140 175 215 264 314
#     4   9  18  33  53  77 104 137 175 213 255 306
#     4  10  20  35  55  78 103 133 171 216 265 316
#
# _framework density 18.943308999999999
#
# number of rings (size 3 to 8) (size 9 to 14) (size 15 to 20)
#    0.000    2.667    0.000    1.333    1.556    5.333 
#    0.000    0.000    0.000    0.667    0.000    0.000 
#    0.000    0.000    0.000    0.000    0.000    0.000 
#
# Total GULP energy -446068.393583 kJ/mol
# GULP energy per Si atom -12390.788711 kJ/mol
# Density = 1.890019 g / cm^3
# Si number density = 18.943309 Si / 1000 Ang^3
#
#
#
# Elastic Constant Matrix: (Units=GPa)
#
#
# Indices 1 2 3 4 5 6 
#
# 1 94.3246 29.8266 64.2804 0.0000 0.0000 0.0000
# 2 29.8266 79.9736 51.0423 0.0000 0.0000 0.0000
# 3 64.2804 51.0423 132.8948 0.0000 0.0000 0.0000
# 4 0.0000 0.0000 0.0000 10.3657 0.0000 0.0000
# 5 0.0000 0.0000 0.0000 0.0000 34.6241 0.0000
# 6 0.0000 0.0000 0.0000 0.0000 0.0000 12.9681
#
#
#
# Elastic Compliance Matrix: (Units=1/GPa)
#
#
# Indices 1 2 3 4 5 6 
#
# 1 0.015925 -0.001355 -0.007182 0.000000 0.000000 0.000000
# 2 -0.001355 0.016680 -0.005751 0.000000 0.000000 0.000000
# 3 -0.007182 -0.005751 0.013208 0.000000 0.000000 0.000000
# 4 0.000000 0.000000 0.000000 0.096472 0.000000 0.000000
# 5 0.000000 0.000000 0.000000 0.000000 0.028882 0.000000
# 6 0.000000 0.000000 0.000000 0.000000 0.000000 0.077113
#
#
# Mechanical properties :
#
#
# Convention : Reuss Voigt Hill
#
# Bulk Modulus (GPa) = 58.01950 66.38794 62.20372
# Shear Modulus (GPa) = 17.69279 22.39447 20.04363
#
# Velocity S-wave (km/s) = 3.05943 3.44202 3.25635
# Velocity P-wave (km/s) = 6.57074 7.13571 6.85904
#
# Compressibility (1/GPa) = 0.01723558
#
# Stress axis : x y z
#
# Youngs Moduli (GPa) = 62.79527 59.95174 75.71418
#
# Poissons Ratio (x) = 0.08125 0.54379
# Poissons Ratio (y) = 0.08510 0.43543
# Poissons Ratio (z) = 0.45101 0.34478
#
# Static dielectric constant tensor:
#      x y z
#    x 3.535990 0.000000 0.000000 
#    y 0.000000 3.456610 0.000000 
#    z 0.000000 0.000000 3.251320 
# 
# 
# High freq. dielectric constant tensor:
#      x y z
#    x 1.742660 0.000000 0.000000 
#    y 0.000000 1.715420 0.000000 
#    z 0.000000 0.000000 1.718950 
# 
# From -- ./inp_files/31305.got.cif
#   From: 2010.03.12/outbox.cif.g09.slc.cpg/sg51_16_cif.got.tgz:31305.got - 2010.04.16 13:43:02.
