data_PCOD8212485
_publ_section_title
;
Structure prediction by ZEFSAII (Michael W. Deem and Ramdas Pophale) SiO2 
 PCOD8212485
Probable space group: P M M A
;
_chemical_formula_sum "Si O2"
_cell_formula_units_Z 56
_cell_length_a 8.576472
_cell_length_b 23.600844
_cell_length_c 14.517876
_cell_angle_alpha 90.000000
_cell_angle_beta 90.000000
_cell_angle_gamma 90.000000
_cell_volume 2938.591994
_symmetry_space_group_name_H-M "P M M A"
_symmetry_group_IT_number 51
_symmetry_cell_setting 'orthorhombic'
loop_
_space_group_symop_operation_xyz
x,y,z
1/2-x,-y,z
1/2+x,-y,-z
-x,y,-z
-x,-y,-z
1/2+x,y,-z
1/2-x,y,z
x,-y,z
loop_
_atom_site_type_symbol
_atom_site_label
_atom_site_fract_x
_atom_site_fract_y
_atom_site_fract_z
Si Si1 0.565600 0.149873 0.397783
Si Si2 0.932392 0.644491 0.256479
Si Si3 0.065542 0.845367 0.897554
Si Si4 0.067611 0.233013 0.253555
Si Si5 0.934403 0.563436 0.095848
Si Si6 0.065289 0.062909 0.753969
Si Si7 0.930184 0.436806 0.600348
O O1 0.500000 0.145248 0.500000
O O2 0.750000 0.154428 0.402711
O O3 0.503310 0.205287 0.345694
O O4 0.511493 0.094731 0.339343
O O5 0.750000 0.659322 0.249216
O O6 0.994854 0.606760 0.172153
O O7 0.033328 0.700893 0.257916
O O8 0.964526 0.608273 0.346931
O O9 0.250000 0.841952 0.902348
O O10 0.009272 0.902130 0.843885
O O11 0.006124 0.791411 0.840333
O O12 0.000000 0.845519 0.000000
O O13 0.250000 0.221327 0.251897
O O14 0.750000 0.562596 0.093013
O O15 0.998695 0.500000 0.116051
O O16 0.000000 0.586445 0.000000
O O17 0.250000 0.058737 0.755023
O O18 0.990457 0.000000 0.756331
O O19 0.750000 0.417686 0.599645
O O20 0.946624 0.500000 0.643627
O O21 0.000000 0.437809 0.500000
#
# Coordination Sequence:
#
# PCOD8212485 Si02
#       7
#     8   8   8   8   8   8   8
#     4  10  20  36  58  82 111 147 185 224 271 324
#     4  11  22  37  57  81 110 142 180 225 276 330
#     4  10  20  36  58  82 111 148 187 226 273 325
#     4  11  23  39  57  79 108 141 184 233 279 327
#     4   9  19  35  55  79 107 139 173 212 260 315
#     4   8  16  32  54  82 116 149 182 223 268 318
#     4  10  21  37  57  82 111 143 180 222 271 328
#
# _framework density 19.056746
#
# number of rings (size 3 to 8) (size 9 to 14) (size 15 to 20)
#    0.000    2.143    0.000    4.286    0.000    4.286 
#    0.000    5.714    0.000   14.571    0.000    0.000 
#    0.000    0.000    0.000    0.000    0.000    0.000 
#
# Total GULP energy -694401.708380 kJ/mol
# GULP energy per Si atom -12400.030507 kJ/mol
# Density = 1.901337 g / cm^3
# Si number density = 19.056746 Si / 1000 Ang^3
#
#
#
# Elastic Constant Matrix: (Units=GPa)
#
#
# Indices 1 2 3 4 5 6 
#
# 1 71.8222 25.5570 35.2531 0.0000 0.0000 0.0000
# 2 25.5570 130.6560 66.3610 0.0000 0.0000 0.0000
# 3 35.2531 66.3610 148.8919 0.0000 0.0000 0.0000
# 4 0.0000 0.0000 0.0000 24.5431 0.0000 0.0000
# 5 0.0000 0.0000 0.0000 0.0000 34.1394 0.0000
# 6 0.0000 0.0000 0.0000 0.0000 0.0000 26.6562
#
#
#
# Elastic Compliance Matrix: (Units=1/GPa)
#
#
# Indices 1 2 3 4 5 6 
#
# 1 0.015996 -0.001558 -0.003093 0.000000 0.000000 0.000000
# 2 -0.001558 0.010045 -0.004108 0.000000 0.000000 0.000000
# 3 -0.003093 -0.004108 0.009280 0.000000 0.000000 0.000000
# 4 0.000000 0.000000 0.000000 0.040745 0.000000 0.000000
# 5 0.000000 0.000000 0.000000 0.000000 0.029292 0.000000
# 6 0.000000 0.000000 0.000000 0.000000 0.000000 0.037515
#
#
# Mechanical properties :
#
#
# Convention : Reuss Voigt Hill
#
# Bulk Modulus (GPa) = 56.17259 67.30136 61.73697
# Shear Modulus (GPa) = 30.06188 32.01435 31.03812
#
# Velocity S-wave (km/s) = 3.97608 4.10316 4.04012
# Velocity P-wave (km/s) = 7.11473 7.60532 7.36411
#
# Compressibility (1/GPa) = 0.01780228
#
# Stress axis : x y z
#
# Youngs Moduli (GPa) = 62.51648 99.55216 107.76321
#
# Poissons Ratio (x) = 0.15509 0.33331
# Poissons Ratio (y) = 0.09740 0.44271
# Poissons Ratio (z) = 0.19336 0.40898
#
# Static dielectric constant tensor:
#      x y z
#    x 3.819950 0.000000 0.000000 
#    y 0.000000 3.700440 0.000000 
#    z 0.000000 0.000000 3.509670 
# 
# 
# High freq. dielectric constant tensor:
#      x y z
#    x 1.737850 0.000000 0.000000 
#    y 0.000000 1.742800 0.000000 
#    z 0.000000 0.000000 1.746100 
# 
# From -- ./inp_files/21731.got.cif
#   From: 2010.03.12/outbox.cif.g09.slc.cpg/sg51_11_cif.got.tgz:21731.got - 2010.04.16 13:43:02.
