data_PCOD8212617
_publ_section_title
;
Structure prediction by ZEFSAII (Michael W. Deem and Ramdas Pophale) SiO2 
 PCOD8212617
Probable space group: P M M A
;
_chemical_formula_sum "Si O2"
_cell_formula_units_Z 64
_cell_length_a 29.117553
_cell_length_b 8.628337
_cell_length_c 12.479954
_cell_angle_alpha 90.000000
_cell_angle_beta 90.000000
_cell_angle_gamma 90.000000
_cell_volume 3135.414471
_symmetry_space_group_name_H-M "P M M A"
_symmetry_group_IT_number 51
_symmetry_cell_setting 'orthorhombic'
loop_
_space_group_symop_operation_xyz
x,y,z
1/2-x,-y,z
1/2+x,-y,-z
-x,y,-z
-x,-y,-z
1/2+x,y,-z
1/2-x,y,z
x,-y,z
loop_
_atom_site_type_symbol
_atom_site_label
_atom_site_fract_x
_atom_site_fract_y
_atom_site_fract_z
Si Si1 0.472035 0.682601 0.393979
Si Si2 0.300100 0.819224 0.218353
Si Si3 0.697615 0.179969 0.420429
Si Si4 0.498503 0.182513 0.829596
Si Si5 0.658304 0.176478 0.003978
Si Si6 0.129039 0.182018 0.388802
Si Si7 0.563597 0.321125 0.998875
Si Si8 0.196117 0.670592 0.795452
O O1 0.500000 0.735353 0.500000
O O2 0.474848 0.500000 0.378453
O O3 0.496022 0.761223 0.291890
O O4 0.418895 0.730640 0.403273
O O5 0.250000 0.746908 0.249221
O O6 0.343340 0.751893 0.284961
O O7 0.298161 0.000000 0.246278
O O8 0.307034 0.789290 0.092732
O O9 0.750000 0.228973 0.451040
O O10 0.662928 0.221650 0.514550
O O11 0.677566 0.271179 0.318533
O O12 0.696492 0.000000 0.392244
O O13 0.454767 0.262704 0.885935
O O14 0.490919 0.000000 0.829045
O O15 0.542955 0.224115 0.900168
O O16 0.617466 0.298169 0.995345
O O17 0.684197 0.205113 0.114372
O O18 0.640122 0.000000 0.999994
O O19 0.118012 0.000000 0.378842
O O20 0.550663 0.500000 0.983292
O O21 0.250000 0.660261 0.786802
O O22 0.175258 0.500000 0.820494
#
# Coordination Sequence:
#
# PCOD8212617 Si02
#       8
#     8   8   8   8   8   8   8   8
#     4  11  25  43  61  83 116 158 199 244 304 365
#     4   9  18  33  56  87 120 152 186 229 283 342
#     4   9  18  34  57  84 114 149 191 239 292 355
#     4  11  22  40  64  88 115 147 191 240 286 344
#     4  11  21  34  55  84 116 152 195 237 280 336
#     4  10  20  36  61  89 115 146 189 241 294 352
#     4  11  22  38  61  88 119 153 189 234 290 346
#     4  10  21  36  53  75 108 150 192 237 290 342
#
# _framework density 20.411975000000002
#
# number of rings (size 3 to 8) (size 9 to 14) (size 15 to 20)
#    0.000    1.750    0.000    5.625    0.000    6.250 
#    0.000    3.125    0.000    2.625    0.000    0.000 
#    0.000    0.000    0.000    0.000    0.000    0.000 
#
# Total GULP energy -793544.472635 kJ/mol
# GULP energy per Si atom -12399.132385 kJ/mol
# Density = 2.036552 g / cm^3
# Si number density = 20.411975 Si / 1000 Ang^3
#
#
#
# Elastic Constant Matrix: (Units=GPa)
#
#
# Indices 1 2 3 4 5 6 
#
# 1 91.0413 23.5525 35.1146 0.0000 0.0000 0.0000
# 2 23.5525 72.8640 32.7638 0.0000 0.0000 0.0000
# 3 35.1146 32.7638 111.3101 0.0000 0.0000 0.0000
# 4 0.0000 0.0000 0.0000 24.8685 0.0000 0.0000
# 5 0.0000 0.0000 0.0000 0.0000 22.6412 0.0000
# 6 0.0000 0.0000 0.0000 0.0000 0.0000 25.0847
#
#
#
# Elastic Compliance Matrix: (Units=1/GPa)
#
#
# Indices 1 2 3 4 5 6 
#
# 1 0.012953 -0.002708 -0.003289 0.000000 0.000000 0.000000
# 2 -0.002708 0.016384 -0.003968 0.000000 0.000000 0.000000
# 3 -0.003289 -0.003968 0.011190 0.000000 0.000000 0.000000
# 4 0.000000 0.000000 0.000000 0.040211 0.000000 0.000000
# 5 0.000000 0.000000 0.000000 0.000000 0.044167 0.000000
# 6 0.000000 0.000000 0.000000 0.000000 0.000000 0.039865
#
#
# Mechanical properties :
#
#
# Convention : Reuss Voigt Hill
#
# Bulk Modulus (GPa) = 48.55365 50.89747 49.72556
# Shear Modulus (GPa) = 26.10057 26.77118 26.43587
#
# Velocity S-wave (km/s) = 3.57976 3.62545 3.60268
# Velocity P-wave (km/s) = 6.39724 6.52031 6.45907
#
# Compressibility (1/GPa) = 0.02059577
#
# Stress axis : x y z
#
# Youngs Moduli (GPa) = 77.20077 61.03556 89.36871
#
# Poissons Ratio (x) = 0.16528 0.29395
# Poissons Ratio (y) = 0.20906 0.35464
# Poissons Ratio (z) = 0.25393 0.24221
#
# Static dielectric constant tensor:
#      x y z
#    x 3.681350 0.000000 0.000000 
#    y 0.000000 3.800670 0.000000 
#    z 0.000000 0.000000 3.900110 
# 
# 
# High freq. dielectric constant tensor:
#      x y z
#    x 1.797480 0.000000 0.000000 
#    y 0.000000 1.786910 0.000000 
#    z 0.000000 0.000000 1.807690 
# 
# From -- ./inp_files/19572.got.cif
#   From: 2010.03.12/outbox.cif.g09.slc.cpg/sg51_10_cif.got.tgz:19572.got - 2010.04.16 13:43:02.
