data_PCOD8212257
_publ_section_title
;
Structure prediction by ZEFSAII (Michael W. Deem and Ramdas Pophale) SiO2 
 PCOD8212257
Probable space group: P M M A
;
_chemical_formula_sum "Si O2"
_cell_formula_units_Z 56
_cell_length_a 20.636283
_cell_length_b 14.272927
_cell_length_c 9.858551
_cell_angle_alpha 90.000000
_cell_angle_beta 90.000000
_cell_angle_gamma 90.000000
_cell_volume 2903.739197
_symmetry_space_group_name_H-M "P M M A"
_symmetry_group_IT_number 51
_symmetry_cell_setting 'orthorhombic'
loop_
_space_group_symop_operation_xyz
x,y,z
1/2-x,-y,z
1/2+x,-y,-z
-x,y,-z
-x,-y,-z
1/2+x,y,-z
1/2-x,y,z
x,-y,z
loop_
_atom_site_type_symbol
_atom_site_label
_atom_site_fract_x
_atom_site_fract_y
_atom_site_fract_z
Si Si1 0.609391 0.730657 0.227016
Si Si2 0.059213 0.108313 0.406277
Si Si3 0.176839 0.763704 0.496332
Si Si4 0.500610 0.606482 0.347099
Si Si5 0.978084 0.891925 0.148487
Si Si6 0.823401 0.604921 0.010891
Si Si7 0.853628 0.393800 0.708977
O O1 0.659667 0.735266 0.350314
O O2 0.546994 0.669500 0.259288
O O3 0.585819 0.835107 0.191377
O O4 0.640902 0.683351 0.096918
O O5 0.125430 0.162741 0.436398
O O6 0.000000 0.145046 0.500000
O O7 0.038284 0.125129 0.250727
O O8 0.073000 0.000000 0.438263
O O9 0.250000 0.805698 0.493882
O O10 0.176640 0.670143 0.407060
O O11 0.500000 0.645501 0.500000
O O12 0.526344 0.500000 0.346173
O O13 0.430613 0.616588 0.281748
O O14 0.956708 0.000000 0.150841
O O15 0.000000 0.859416 0.000000
O O16 0.750000 0.602342 0.060857
O O17 0.853957 0.500000 0.028525
O O18 0.825739 0.635879 0.854199
O O19 0.833815 0.500000 0.672296
#
# Coordination Sequence:
#
# PCOD8212257 Si02
#       7
#     8   8   8   8   8   8   8
#     4  12  23  36  62  89 124 157 202 249 309 362
#     4  10  21  42  68  92 120 156 198 249 305 363
#     4  12  25  38  60  94 126 161 204 249 301 364
#     4  10  20  35  57  88 122 155 199 254 304 350
#     4  10  23  41  64  93 120 154 200 249 307 371
#     4  10  23  42  59  81 120 167 209 248 299 365
#     4  10  22  40  61  85 121 166 207 251 302 357
#
# _framework density 19.285478999999999
#
# number of rings (size 3 to 8) (size 9 to 14) (size 15 to 20)
#    0.000    1.429    2.857    2.143    4.000    1.714 
#    0.000    2.143    0.000    1.286    0.000    0.000 
#    0.000    0.000    0.000    0.000    0.000    0.000 
#
# Total GULP energy -694576.843453 kJ/mol
# GULP energy per Si atom -12403.157919 kJ/mol
# Density = 1.924158 g / cm^3
# Si number density = 19.285479 Si / 1000 Ang^3
#
#
#
# Elastic Constant Matrix: (Units=GPa)
#
#
# Indices 1 2 3 4 5 6 
#
# 1 114.3921 52.3930 45.7321 0.0000 0.0000 0.0000
# 2 52.3930 92.8568 49.0362 0.0000 0.0000 0.0000
# 3 45.7321 49.0362 114.2753 0.0000 0.0000 0.0000
# 4 0.0000 0.0000 0.0000 29.5524 0.0000 0.0000
# 5 0.0000 0.0000 0.0000 0.0000 24.6868 0.0000
# 6 0.0000 0.0000 0.0000 0.0000 0.0000 18.1186
#
#
#
# Elastic Compliance Matrix: (Units=1/GPa)
#
#
# Indices 1 2 3 4 5 6 
#
# 1 0.012325 -0.005624 -0.002519 0.000000 0.000000 0.000000
# 2 -0.005624 0.016491 -0.004826 0.000000 0.000000 0.000000
# 3 -0.002519 -0.004826 0.011830 0.000000 0.000000 0.000000
# 4 0.000000 0.000000 0.000000 0.033838 0.000000 0.000000
# 5 0.000000 0.000000 0.000000 0.000000 0.040507 0.000000
# 6 0.000000 0.000000 0.000000 0.000000 0.000000 0.055192
#
#
# Mechanical properties :
#
#
# Convention : Reuss Voigt Hill
#
# Bulk Modulus (GPa) = 67.98984 68.42741 68.20863
# Shear Modulus (GPa) = 24.87288 26.09578 25.48433
#
# Velocity S-wave (km/s) = 3.59516 3.68248 3.63909
# Velocity P-wave (km/s) = 7.25014 7.32388 7.28711
#
# Compressibility (1/GPa) = 0.01470808
#
# Stress axis : x y z
#
# Youngs Moduli (GPa) = 81.13808 60.64013 84.53342
#
# Poissons Ratio (x) = 0.34102 0.21295
# Poissons Ratio (y) = 0.45630 0.40793
# Poissons Ratio (z) = 0.20439 0.29263
#
# Static dielectric constant tensor:
#      x y z
#    x 3.559740 0.000000 0.000000 
#    y 0.000000 3.616730 0.000000 
#    z 0.000000 0.000000 3.635940 
# 
# 
# High freq. dielectric constant tensor:
#      x y z
#    x 1.740620 0.000000 0.000000 
#    y 0.000000 1.753400 0.000000 
#    z 0.000000 0.000000 1.759100 
# 
# From -- ./inp_files/10963.got.cif
#   From: 2010.03.12/outbox.cif.g09.slc.cpg/sg51_6_cif.got.tgz:10963.got - 2010.04.16 13:43:02.
