data_PCOD8212144
_publ_section_title
;
Structure prediction by ZEFSAII (Michael W. Deem and Ramdas Pophale) SiO2 
 PCOD8212144
Probable space group: P M M A
;
_chemical_formula_sum "Si O2"
_cell_formula_units_Z 48
_cell_length_a 14.937682
_cell_length_b 9.459768
_cell_length_c 17.084382
_cell_angle_alpha 90.000000
_cell_angle_beta 90.000000
_cell_angle_gamma 90.000000
_cell_volume 2414.142873
_symmetry_space_group_name_H-M "P M M A"
_symmetry_group_IT_number 51
_symmetry_cell_setting 'orthorhombic'
loop_
_space_group_symop_operation_xyz
x,y,z
1/2-x,-y,z
1/2+x,-y,-z
-x,y,-z
-x,-y,-z
1/2+x,y,-z
1/2-x,y,z
x,-y,z
loop_
_atom_site_type_symbol
_atom_site_label
_atom_site_fract_x
_atom_site_fract_y
_atom_site_fract_z
Si Si1 0.606048 0.161288 0.001012
Si Si2 0.750000 0.837976 0.870662
Si Si3 0.647916 0.345122 0.145228
Si Si4 0.750000 0.330783 0.709882
Si Si5 0.103157 0.334078 0.583508
Si Si6 0.149965 0.845811 0.722477
Si Si7 0.398048 0.335574 0.408900
O O1 0.658682 0.192500 0.919950
O O2 0.625796 0.000000 0.026822
O O3 0.500000 0.188678 0.000000
O O4 0.646444 0.269120 0.062420
O O5 0.750000 0.738193 0.795133
O O6 0.750000 0.000000 0.842497
O O7 0.750000 0.368535 0.170414
O O8 0.600818 0.500000 0.140924
O O9 0.599029 0.249021 0.211703
O O10 0.750000 0.500000 0.720812
O O11 0.664119 0.274326 0.660258
O O12 0.126044 0.500000 0.593349
O O13 0.159606 0.237967 0.641369
O O14 0.125399 0.278863 0.496028
O O15 0.000929 0.303579 0.608322
O O16 0.250000 0.873307 0.752849
O O17 0.102264 0.000000 0.713118
O O18 0.379543 0.500000 0.413589
#
# Coordination Sequence:
#
# PCOD8212144 Si02
#       7
#     8   4   8   4   8   8   8
#     4  10  21  38  61  85 111 148 187 227 286 350
#     4  10  22  40  58  81 116 149 184 235 286 337
#     4  10  20  35  56  81 109 141 180 225 275 328
#     4  10  20  36  58  81 110 151 192 227 278 337
#     4   9  17  33  55  79 109 142 184 233 278 325
#     4  10  21  34  50  77 111 144 178 218 272 330
#     4   8  17  33  54  80 108 142 183 231 281 327
#
# _framework density 19.882833999999999
#
# number of rings (size 3 to 8) (size 9 to 14) (size 15 to 20)
#    0.000    2.500    0.833    2.000    1.167    4.000 
#    0.000    6.667    0.000    0.000    0.000    0.000 
#    0.000    0.000    0.000    0.000    0.000    0.000 
#
# Total GULP energy -594750.294777 kJ/mol
# GULP energy per Si atom -12390.631141 kJ/mol
# Density = 1.983758 g / cm^3
# Si number density = 19.882834 Si / 1000 Ang^3
#
#
#
# Elastic Constant Matrix: (Units=GPa)
#
#
# Indices 1 2 3 4 5 6 
#
# 1 78.6166 20.2510 37.5295 0.0000 0.0000 0.0000
# 2 20.2510 121.1194 73.9718 0.0000 0.0000 0.0000
# 3 37.5295 73.9718 143.7949 0.0000 0.0000 0.0000
# 4 0.0000 0.0000 0.0000 13.1735 0.0000 0.0000
# 5 0.0000 0.0000 0.0000 0.0000 15.0215 0.0000
# 6 0.0000 0.0000 0.0000 0.0000 0.0000 16.0218
#
#
#
# Elastic Compliance Matrix: (Units=1/GPa)
#
#
# Indices 1 2 3 4 5 6 
#
# 1 0.014533 -0.000165 -0.003708 0.000000 0.000000 0.000000
# 2 -0.000165 0.012040 -0.006151 0.000000 0.000000 0.000000
# 3 -0.003708 -0.006151 0.011086 0.000000 0.000000 0.000000
# 4 0.000000 0.000000 0.000000 0.075910 0.000000 0.000000
# 5 0.000000 0.000000 0.000000 0.000000 0.066571 0.000000
# 6 0.000000 0.000000 0.000000 0.000000 0.000000 0.062415
#
#
# Mechanical properties :
#
#
# Convention : Reuss Voigt Hill
#
# Bulk Modulus (GPa) = 56.78166 67.44841 62.11504
# Shear Modulus (GPa) = 18.62380 22.96194 20.79287
#
# Velocity S-wave (km/s) = 3.06384 3.40201 3.23734
# Velocity P-wave (km/s) = 6.41376 7.03052 6.72921
#
# Compressibility (1/GPa) = 0.01761132
#
# Stress axis : x y z
#
# Youngs Moduli (GPa) = 68.81091 83.05350 90.20236
#
# Poissons Ratio (x) = 0.01373 0.33446
# Poissons Ratio (y) = 0.01138 0.55481
# Poissons Ratio (z) = 0.25514 0.51084
#
# Static dielectric constant tensor:
#      x y z
#    x 1.459230 0.000000 0.000000 
#    y 0.000000 3.690160 0.000000 
#    z 0.000000 0.000000 3.582860 
# 
# 
# High freq. dielectric constant tensor:
#      x y z
#    x 1.754640 0.000000 0.000000 
#    y 0.000000 1.761360 0.000000 
#    z 0.000000 0.000000 1.778290 
# 
# From -- ./inp_files/29514.got.cif
#   From: 2010.03.12/outbox.cif.g09.slc.cpg/sg51_15_cif.got.tgz:29514.got - 2010.04.16 13:43:02.
