data_PCOD8212586
_publ_section_title
;
Structure prediction by ZEFSAII (Michael W. Deem and Ramdas Pophale) SiO2 
 PCOD8212586
Probable space group: P M M A
;
_chemical_formula_sum "Si O2"
_cell_formula_units_Z 48
_cell_length_a 17.863872
_cell_length_b 8.926356
_cell_length_c 15.629115
_cell_angle_alpha 90.000000
_cell_angle_beta 90.000000
_cell_angle_gamma 90.000000
_cell_volume 2492.207441
_symmetry_space_group_name_H-M "P M M A"
_symmetry_group_IT_number 51
_symmetry_cell_setting 'orthorhombic'
loop_
_space_group_symop_operation_xyz
x,y,z
1/2-x,-y,z
1/2+x,-y,-z
-x,y,-z
-x,-y,-z
1/2+x,y,-z
1/2-x,y,z
x,-y,z
loop_
_atom_site_type_symbol
_atom_site_label
_atom_site_fract_x
_atom_site_fract_y
_atom_site_fract_z
Si Si1 0.525261 0.830669 0.140113
Si Si2 0.536320 0.676054 0.316795
Si Si3 0.617405 0.830451 0.976790
Si Si4 0.750000 0.672026 0.897578
Si Si5 0.336314 0.175701 0.580138
Si Si6 0.609543 0.176457 0.608592
Si Si7 0.750000 0.822605 0.716627
O O1 0.529181 0.714638 0.217114
O O2 0.448561 0.806715 0.090303
O O3 0.529753 0.000000 0.176328
O O4 0.592308 0.800455 0.073964
O O5 0.533676 0.500000 0.328810
O O6 0.615670 0.737092 0.349630
O O7 0.468498 0.745556 0.370568
O O8 0.679034 0.708002 0.955723
O O9 0.648513 0.000000 0.968516
O O10 0.750000 0.500000 0.870006
O O11 0.750000 0.773706 0.813975
O O12 0.250000 0.226093 0.587789
O O13 0.367195 0.218323 0.487096
O O14 0.344292 0.000000 0.597083
O O15 0.675039 0.238211 0.670711
O O16 0.598454 0.000000 0.620400
O O17 0.750000 0.000000 0.709847
#
# Coordination Sequence:
#
# PCOD8212586 Si02
#       7
#     8   8   8   4   8   8   4
#     4   9  19  39  64  86 107 143 196 246 285 327
#     4  12  25  37  55  88 124 158 191 227 286 360
#     4   9  19  38  63  85 109 144 192 244 289 330
#     4  12  24  34  50  85 124 155 184 219 280 355
#     4  10  21  41  65  86 110 148 201 252 293 331
#     4  10  20  38  63  88 113 147 197 250 291 332
#     4  10  20  36  60  87 116 149 192 247 294 333
#
# _framework density 19.260034999999998
#
# number of rings (size 3 to 8) (size 9 to 14) (size 15 to 20)
#    0.000    1.833    0.833    4.750    0.000    9.000 
#    1.500    1.667    0.000    0.000    0.000    0.000 
#    0.000    0.000    0.000    0.000    0.000    0.000 
#
# Total GULP energy -595347.706827 kJ/mol
# GULP energy per Si atom -12403.077226 kJ/mol
# Density = 1.921620 g / cm^3
# Si number density = 19.260035 Si / 1000 Ang^3
#
#
#
# Elastic Constant Matrix: (Units=GPa)
#
#
# Indices 1 2 3 4 5 6 
#
# 1 111.2886 40.2456 45.6442 0.0000 0.0000 0.0000
# 2 40.2456 58.1121 31.5918 0.0000 0.0000 0.0000
# 3 45.6442 31.5918 66.6539 0.0000 0.0000 0.0000
# 4 0.0000 0.0000 0.0000 8.4314 0.0000 0.0000
# 5 0.0000 0.0000 0.0000 0.0000 23.0440 0.0000
# 6 0.0000 0.0000 0.0000 0.0000 0.0000 -0.4521
#
#
#
# Elastic Compliance Matrix: (Units=1/GPa)
#
#
# Indices 1 2 3 4 5 6 
#
# 1 0.013889 -0.005992 -0.006671 0.000000 0.000000 0.000000
# 2 -0.005992 0.025766 -0.008109 0.000000 0.000000 0.000000
# 3 -0.006671 -0.008109 0.023414 0.000000 0.000000 0.000000
# 4 0.000000 0.000000 0.000000 0.118604 0.000000 0.000000
# 5 0.000000 0.000000 0.000000 0.000000 0.043395 0.000000
# 6 0.000000 0.000000 0.000000 0.000000 0.000000 -2.212025
#
#
# Mechanical properties :
#
#
# Convention : Reuss Voigt Hill
#
# Bulk Modulus (GPa) = 46.45657 52.33532 49.39594
# Shear Modulus (GPa) = -2.57966 14.10953 5.76493
#
# Velocity S-wave (km/s) = -1.15857 2.70956 1.73197
# Velocity P-wave (km/s) = 4.73110 6.08448 5.44997
#
# Compressibility (1/GPa) = 0.02152548
#
# Stress axis : x y z
#
# Youngs Moduli (GPa) = 72.00190 38.81040 42.70873
#
# Poissons Ratio (x) = 0.23255 0.28490
# Poissons Ratio (y) = 0.43144 0.34633
# Poissons Ratio (z) = 0.48031 0.31472
#
# Static dielectric constant tensor:
#      x y z
#    x 3.681170 0.000000 0.000000 
#    y 0.000000 3.305490 0.000000 
#    z 0.000000 0.000000 3.511930 
# 
# 
# High freq. dielectric constant tensor:
#      x y z
#    x 1.758690 0.000000 0.000000 
#    y 0.000000 1.730340 0.000000 
#    z 0.000000 0.000000 1.755880 
# 
# From -- ./inp_files/24862.got.cif
#   From: 2010.03.12/outbox.cif.g09.slc.cpg/sg51_13_cif.got.tgz:24862.got - 2010.04.16 13:43:02.
