data_PCOD8212678
_publ_section_title
;
Structure prediction by ZEFSAII (Michael W. Deem and Ramdas Pophale) SiO2 
 PCOD8212678
Probable space group: P M M A
;
_chemical_formula_sum "Si O2"
_cell_formula_units_Z 36
_cell_length_a 8.533147
_cell_length_b 22.855947
_cell_length_c 9.504468
_cell_angle_alpha 90.000000
_cell_angle_beta 90.000000
_cell_angle_gamma 90.000000
_cell_volume 1853.686386
_symmetry_space_group_name_H-M "P M M A"
_symmetry_group_IT_number 51
_symmetry_cell_setting 'orthorhombic'
loop_
_space_group_symop_operation_xyz
x,y,z
1/2-x,-y,z
1/2+x,-y,-z
-x,y,-z
-x,-y,-z
1/2+x,y,-z
1/2-x,y,z
x,-y,z
loop_
_atom_site_type_symbol
_atom_site_label
_atom_site_fract_x
_atom_site_fract_y
_atom_site_fract_z
Si Si1 0.935740 0.500000 0.342011
Si Si2 0.436057 0.296689 0.652741
Si Si3 0.935256 0.935508 0.152401
Si Si4 0.934784 0.835921 0.352076
Si Si5 0.435516 0.394994 0.157372
O O1 0.750000 0.500000 0.349109
O O2 0.000000 0.500000 0.500000
O O3 0.993188 0.556531 0.259140
O O4 0.500000 0.316645 0.500000
O O5 0.250000 0.305724 0.654725
O O6 0.487534 0.230026 0.684896
O O7 0.515472 0.332858 0.777939
O O8 0.750000 0.931458 0.148516
O O9 0.006899 0.883310 0.245449
O O10 0.987475 0.000000 0.207965
O O11 0.000000 0.924085 0.000000
O O12 0.750000 0.839237 0.355421
O O13 0.000000 0.855797 0.500000
O O14 0.250000 0.401529 0.152585
O O15 0.500000 0.401944 0.000000
#
# Coordination Sequence:
#
# PCOD8212678 Si02
#       5
#     4   8   8   8   8
#     4  12  25  44  67  92 120 154 192 230 275 328
#     4  10  20  37  58  82 112 148 188 230 278 333
#     4   9  18  33  51  73 103 139 179 224 274 329
#     4   9  19  34  53  78 108 141 180 226 274 326
#     4  12  25  42  62  88 119 152 189 232 280 329
#
# _framework density 19.420760999999999
#
# number of rings (size 3 to 8) (size 9 to 14) (size 15 to 20)
#    0.000    1.778    0.000    4.667    0.000    3.111 
#    0.000    2.222    0.000    0.000    0.000    0.000 
#    0.000    0.000    0.000    0.000    0.000    0.000 
#
# Total GULP energy -446375.465194 kJ/mol
# GULP energy per Si atom -12399.318478 kJ/mol
# Density = 1.937656 g / cm^3
# Si number density = 19.420761 Si / 1000 Ang^3
#
#
#
# Elastic Constant Matrix: (Units=GPa)
#
#
# Indices 1 2 3 4 5 6 
#
# 1 90.8265 40.0284 53.8024 0.0000 0.0000 0.0000
# 2 40.0284 140.1813 99.3753 0.0000 0.0000 0.0000
# 3 53.8024 99.3753 156.8508 0.0000 0.0000 0.0000
# 4 0.0000 0.0000 0.0000 40.2920 0.0000 0.0000
# 5 0.0000 0.0000 0.0000 0.0000 37.0544 0.0000
# 6 0.0000 0.0000 0.0000 0.0000 0.0000 32.6047
#
#
#
# Elastic Compliance Matrix: (Units=1/GPa)
#
#
# Indices 1 2 3 4 5 6 
#
# 1 0.013905 -0.001070 -0.004092 0.000000 0.000000 0.000000
# 2 -0.001070 0.013032 -0.007890 0.000000 0.000000 0.000000
# 3 -0.004092 -0.007890 0.012778 0.000000 0.000000 0.000000
# 4 0.000000 0.000000 0.000000 0.024819 0.000000 0.000000
# 5 0.000000 0.000000 0.000000 0.000000 0.026987 0.000000
# 6 0.000000 0.000000 0.000000 0.000000 0.000000 0.030670
#
#
# Mechanical properties :
#
#
# Convention : Reuss Voigt Hill
#
# Bulk Modulus (GPa) = 73.46329 86.03008 79.74668
# Shear Modulus (GPa) = 32.71549 34.96704 33.84126
#
# Velocity S-wave (km/s) = 4.10880 4.24783 4.17889
# Velocity P-wave (km/s) = 7.77296 8.27363 8.02720
#
# Compressibility (1/GPa) = 0.01361224
#
# Stress axis : x y z
#
# Youngs Moduli (GPa) = 71.91436 76.73282 78.26061
#
# Poissons Ratio (x) = 0.08209 0.32024
# Poissons Ratio (y) = 0.07694 0.61746
# Poissons Ratio (z) = 0.29427 0.60541
#
# Static dielectric constant tensor:
#      x y z
#    x 3.575270 0.000000 0.000000 
#    y 0.000000 4.066770 0.000000 
#    z 0.000000 0.000000 3.636850 
# 
# 
# High freq. dielectric constant tensor:
#      x y z
#    x 1.760440 0.000000 0.000000 
#    y 0.000000 1.773940 0.000000 
#    z 0.000000 0.000000 1.757750 
# 
# From -- ./inp_files/5043.got.cif
#   From: 2010.03.12/outbox.cif.g09.slc.cpg/sg51_3_cif.got.tgz:5043.got - 2010.04.16 13:43:02.
