data_PCOD8212496
_publ_section_title
;
Structure prediction by ZEFSAII (Michael W. Deem and Ramdas Pophale) SiO2 
 PCOD8212496
Probable space group: P M M A
;
_chemical_formula_sum "Si O2"
_cell_formula_units_Z 56
_cell_length_a 14.181533
_cell_length_b 15.434918
_cell_length_c 12.080216
_cell_angle_alpha 90.000000
_cell_angle_beta 90.000000
_cell_angle_gamma 90.000000
_cell_volume 2644.248132
_symmetry_space_group_name_H-M "P M M A"
_symmetry_group_IT_number 51
_symmetry_cell_setting 'orthorhombic'
loop_
_space_group_symop_operation_xyz
x,y,z
1/2-x,-y,z
1/2+x,-y,-z
-x,y,-z
-x,-y,-z
1/2+x,y,-z
1/2-x,y,z
x,-y,z
loop_
_atom_site_type_symbol
_atom_site_label
_atom_site_fract_x
_atom_site_fract_y
_atom_site_fract_z
Si Si1 0.642078 0.242005 0.452766
Si Si2 0.356850 0.811556 0.306573
Si Si3 0.361986 0.404352 0.680918
Si Si4 0.042351 0.901436 0.683091
Si Si5 0.639429 0.248036 0.929552
Si Si6 0.860842 0.901779 0.088041
Si Si7 0.362237 0.595550 0.930107
O O1 0.750000 0.228983 0.415257
O O2 0.633703 0.248971 0.585419
O O3 0.598683 0.330160 0.401239
O O4 0.583461 0.159341 0.412538
O O5 0.250000 0.848490 0.295105
O O6 0.428998 0.891695 0.312188
O O7 0.384522 0.753134 0.200453
O O8 0.250000 0.406151 0.673933
O O9 0.400527 0.500000 0.646781
O O10 0.394900 0.381595 0.805435
O O11 0.087288 0.874136 0.799672
O O12 0.067622 0.000000 0.652587
O O13 0.750000 0.252088 0.949019
O O14 0.602145 0.160962 0.990389
O O15 0.593850 0.333564 0.985720
O O16 0.750000 0.891578 0.109818
O O17 0.886343 0.000000 0.053152
O O18 0.250000 0.596201 0.934789
O O19 0.399139 0.500000 0.964479
#
# Coordination Sequence:
#
# PCOD8212496 Si02
#       7
#     8   8   8   8   8   8   8
#     4  10  20  36  58  83 112 144 180 225 273 323
#     4  10  23  39  53  73 106 150 192 223 262 325
#     4   8  14  27  52  86 116 141 175 221 272 320
#     4  11  23  38  58  82 107 138 181 233 282 324
#     4   9  17  32  52  75 109 147 177 213 264 319
#     4   9  18  33  55  83 109 133 169 219 272 323
#     4   8  13  23  45  78 109 136 171 215 263 316
#
# _framework density 21.178042999999999
#
# number of rings (size 3 to 8) (size 9 to 14) (size 15 to 20)
#    0.000    2.714    0.000    2.571    0.000    5.714 
#    0.000    5.000    0.000    6.857    0.000    3.000 
#    0.000    0.000    0.000    0.000    0.000    0.000 
#
# Total GULP energy -694216.969401 kJ/mol
# GULP energy per Si atom -12396.731596 kJ/mol
# Density = 2.112984 g / cm^3
# Si number density = 21.178043 Si / 1000 Ang^3
#
#
#
# Elastic Constant Matrix: (Units=GPa)
#
#
# Indices 1 2 3 4 5 6 
#
# 1 58.8600 26.5082 29.6321 0.0000 0.0000 0.0000
# 2 26.5082 155.4280 90.5148 0.0000 0.0000 0.0000
# 3 29.6321 90.5148 156.9123 0.0000 0.0000 0.0000
# 4 0.0000 0.0000 0.0000 -3.6296 0.0000 0.0000
# 5 0.0000 0.0000 0.0000 0.0000 8.7433 0.0000
# 6 0.0000 0.0000 0.0000 0.0000 0.0000 9.6763
#
#
#
# Elastic Compliance Matrix: (Units=1/GPa)
#
#
# Indices 1 2 3 4 5 6 
#
# 1 0.019082 -0.001741 -0.002599 0.000000 0.000000 0.000000
# 2 -0.001741 0.009847 -0.005352 0.000000 0.000000 0.000000
# 3 -0.002599 -0.005352 0.009951 0.000000 0.000000 0.000000
# 4 0.000000 0.000000 0.000000 -0.275514 0.000000 0.000000
# 5 0.000000 0.000000 0.000000 0.000000 0.114373 0.000000
# 6 0.000000 0.000000 0.000000 0.000000 0.000000 0.103345
#
#
# Mechanical properties :
#
#
# Convention : Reuss Voigt Hill
#
# Bulk Modulus (GPa) = 51.29055 73.83450 62.56253
# Shear Modulus (GPa) = 717.69671 17.92769 367.81220
#
# Velocity S-wave (km/s) = 18.42886 2.91266 13.19292
# Velocity P-wave (km/s) = 21.84266 6.80080 16.17641
#
# Compressibility (1/GPa) = 0.01949677
#
# Stress axis : x y z
#
# Youngs Moduli (GPa) = 52.40532 101.55047 100.49218
#
# Poissons Ratio (x) = 0.17676 0.26123
# Poissons Ratio (y) = 0.09122 0.53781
# Poissons Ratio (z) = 0.13623 0.54347
#
# Static dielectric constant tensor:
#      x y z
#    x 3.621760 0.000000 0.000000 
#    y 0.000000 4.027990 0.000000 
#    z 0.000000 0.000000 3.870730 
# 
# 
# High freq. dielectric constant tensor:
#      x y z
#    x 1.813920 0.000000 0.000000 
#    y 0.000000 1.820880 0.000000 
#    z 0.000000 0.000000 1.828710 
# 
# From -- ./inp_files/16600.got.cif
#   From: 2010.03.12/outbox.cif.g09.slc.cpg/sg51_9_cif.got.tgz:16600.got - 2010.04.16 13:43:02.
