data_PCOD8212263
_publ_section_title
;
Structure prediction by ZEFSAII (Michael W. Deem and Ramdas Pophale) SiO2 
 PCOD8212263
Probable space group: P M M A
;
_chemical_formula_sum "Si O2"
_cell_formula_units_Z 64
_cell_length_a 23.705541
_cell_length_b 9.081419
_cell_length_c 14.899005
_cell_angle_alpha 90.000000
_cell_angle_beta 90.000000
_cell_angle_gamma 90.000000
_cell_volume 3207.457058
_symmetry_space_group_name_H-M "P M M A"
_symmetry_group_IT_number 51
_symmetry_cell_setting 'orthorhombic'
loop_
_space_group_symop_operation_xyz
x,y,z
1/2-x,-y,z
1/2+x,-y,-z
-x,y,-z
-x,-y,-z
1/2+x,y,-z
1/2-x,y,z
x,-y,z
loop_
_atom_site_type_symbol
_atom_site_label
_atom_site_fract_x
_atom_site_fract_y
_atom_site_fract_z
Si Si1 0.884946 0.325919 0.145218
Si Si2 0.617885 0.829195 0.816648
Si Si3 0.603152 0.673548 0.641158
Si Si4 0.185737 0.832236 0.710157
Si Si5 0.880062 0.167192 0.459760
Si Si6 0.002394 0.827918 0.895848
Si Si7 0.684771 0.171464 0.991301
Si Si8 0.518745 0.660067 0.398910
O O1 0.887175 0.500000 0.138134
O O2 0.853041 0.279367 0.235272
O O3 0.948359 0.264158 0.151812
O O4 0.852589 0.264261 0.059109
O O5 0.634813 0.739293 0.727445
O O6 0.556815 0.780683 0.852847
O O7 0.618223 0.000000 0.791570
O O8 0.665114 0.792264 0.890545
O O9 0.611927 0.500000 0.636545
O O10 0.628981 0.738679 0.549448
O O11 0.536933 0.716775 0.653185
O O12 0.250000 0.788699 0.728887
O O13 0.174716 0.818335 0.603271
O O14 0.173778 0.000000 0.741723
O O15 0.931586 0.221257 0.396015
O O16 0.892294 0.000000 0.488552
O O17 0.015159 0.000000 0.882889
O O18 0.000000 0.786103 0.000000
O O19 0.750000 0.215329 0.001831
O O20 0.674669 0.000000 0.012796
O O21 0.500000 0.635576 0.500000
O O22 0.538968 0.500000 0.360893
#
# Coordination Sequence:
#
# PCOD8212263 Si02
#       8
#     8   8   8   8   8   8   8   8
#     4  12  25  38  59  91 125 156 193 240 298 364
#     4  10  21  37  60  89 119 154 200 248 289 344
#     4  10  21  36  55  81 118 158 188 227 291 355
#     4  10  23  43  63  84 114 155 203 252 301 354
#     4  10  20  35  58  84 107 141 194 246 289 337
#     4  10  20  39  63  87 120 159 200 245 296 353
#     4  10  21  41  66  87 113 154 201 248 295 342
#     4   8  16  31  49  73 107 144 178 218 276 342
#
# _framework density 19.953500999999999
#
# number of rings (size 3 to 8) (size 9 to 14) (size 15 to 20)
#    0.000    2.000    1.250    3.000    1.750    7.000 
#    0.000    0.625    0.000    3.750    0.000    0.000 
#    0.000    0.000    0.000    0.000    0.000    0.000 
#
# Total GULP energy -793637.150535 kJ/mol
# GULP energy per Si atom -12400.580477 kJ/mol
# Density = 1.990809 g / cm^3
# Si number density = 19.953501 Si / 1000 Ang^3
#
#
#
# Elastic Constant Matrix: (Units=GPa)
#
#
# Indices 1 2 3 4 5 6 
#
# 1 65.2280 29.1187 9.1465 0.0000 0.0000 0.0000
# 2 29.1187 89.7771 35.2781 0.0000 0.0000 0.0000
# 3 9.1465 35.2781 83.1404 0.0000 0.0000 0.0000
# 4 0.0000 0.0000 0.0000 -71.2838 0.0000 0.0000
# 5 0.0000 0.0000 0.0000 0.0000 25.3590 0.0000
# 6 0.0000 0.0000 0.0000 0.0000 0.0000 -9.8139
#
#
#
# Elastic Compliance Matrix: (Units=1/GPa)
#
#
# Indices 1 2 3 4 5 6 
#
# 1 0.017951 -0.006056 0.000595 0.000000 0.000000 0.000000
# 2 -0.006056 0.015411 -0.005873 0.000000 0.000000 0.000000
# 3 0.000595 -0.005873 0.014454 0.000000 0.000000 0.000000
# 4 0.000000 0.000000 0.000000 -0.014028 0.000000 0.000000
# 5 0.000000 0.000000 0.000000 0.000000 0.039434 0.000000
# 6 0.000000 0.000000 0.000000 0.000000 0.000000 -0.101896
#
#
# Mechanical properties :
#
#
# Convention : Reuss Voigt Hill
#
# Bulk Modulus (GPa) = 39.76461 42.80356 41.28408
# Shear Modulus (GPa) = 2104.61646 -0.17426 1052.22110
#
# Velocity S-wave (km/s) = 32.51231 -0.29585 22.98872
# Velocity P-wave (km/s) = 37.80704 4.62402 26.93282
#
# Compressibility (1/GPa) = 0.02514799
#
# Stress axis : x y z
#
# Youngs Moduli (GPa) = 55.70749 64.89014 69.18330
#
# Poissons Ratio (x) = 0.39298 -0.04115
# Poissons Ratio (y) = 0.33737 0.40630
# Poissons Ratio (z) = -0.03314 0.38109
#
# Static dielectric constant tensor:
#      x y z
#    x 3.692880 0.000000 0.000000 
#    y 0.000000 3.550590 0.000000 
#    z 0.000000 0.000000 3.602920 
# 
# 
# High freq. dielectric constant tensor:
#      x y z
#    x 1.764020 0.000000 0.000000 
#    y 0.000000 1.772380 0.000000 
#    z 0.000000 0.000000 1.784090 
# 
# From -- ./inp_files/26332.got.cif
#   From: 2010.03.12/outbox.cif.g09.slc.cpg/sg51_14_cif.got.tgz:26332.got - 2010.04.16 13:43:02.
