data_PCOD8212246
_publ_section_title
;
Structure prediction by ZEFSAII (Michael W. Deem and Ramdas Pophale) SiO2 
 PCOD8212246
Probable space group: P M M A
;
_chemical_formula_sum "Si O2"
_cell_formula_units_Z 64
_cell_length_a 8.935181
_cell_length_b 14.277511
_cell_length_c 25.538111
_cell_angle_alpha 90.000000
_cell_angle_beta 90.000000
_cell_angle_gamma 90.000000
_cell_volume 3257.951600
_symmetry_space_group_name_H-M "P M M A"
_symmetry_group_IT_number 51
_symmetry_cell_setting 'orthorhombic'
loop_
_space_group_symop_operation_xyz
x,y,z
1/2-x,-y,z
1/2+x,-y,-z
-x,y,-z
-x,-y,-z
1/2+x,y,-z
1/2-x,y,z
x,-y,z
loop_
_atom_site_type_symbol
_atom_site_label
_atom_site_fract_x
_atom_site_fract_y
_atom_site_fract_z
Si Si1 0.924431 0.108762 0.343970
Si Si2 0.425882 0.220760 0.552077
Si Si3 0.575458 0.598381 0.055484
Si Si4 0.075426 0.606356 0.400605
Si Si5 0.920905 0.106960 0.850441
Si Si6 0.574125 0.801303 0.056337
Si Si7 0.424294 0.605691 0.710753
Si Si8 0.927352 0.219572 0.749664
O O1 0.750000 0.123114 0.331364
O O2 0.966130 0.152826 0.399950
O O3 0.019842 0.160593 0.300127
O O4 0.968726 0.000000 0.345090
O O5 0.500000 0.176758 0.500000
O O6 0.250000 0.230650 0.544001
O O7 0.494934 0.324201 0.559419
O O8 0.750000 0.600920 0.044970
O O9 0.533932 0.500000 0.086433
O O10 0.530239 0.698148 0.081057
O O11 0.500000 0.593668 0.000000
O O12 0.250000 0.630419 0.396856
O O13 0.048747 0.500000 0.419873
O O14 0.004102 0.622079 0.344097
O O15 0.750000 0.132258 0.863376
O O16 0.981304 0.168354 0.802301
O O17 0.016593 0.123025 0.902566
O O18 0.938724 0.000000 0.833047
O O19 0.750000 0.813758 0.048963
O O20 0.500000 0.818046 0.000000
O O21 0.250000 0.628099 0.703303
O O22 0.449373 0.500000 0.731587
O O23 0.496893 0.677831 0.751668
O O24 0.750000 0.229717 0.747248
#
# Coordination Sequence:
#
# PCOD8212246 Si02
#       8
#     8   8   8   8   8   8   8   8
#     4  10  22  40  61  85 113 148 192 241 294 352
#     4  11  23  38  57  82 116 155 195 243 294 347
#     4   8  14  26  46  74 107 141 178 220 265 317
#     4  10  20  35  57  85 116 151 192 237 286 343
#     4  10  23  42  60  82 114 150 191 241 292 341
#     4  10  20  35  58  86 116 153 194 236 285 341
#     4  10  20  35  58  88 121 156 191 229 280 343
#     4  11  22  38  63  90 117 149 190 240 292 345
#
# _framework density 19.644244
#
# number of rings (size 3 to 8) (size 9 to 14) (size 15 to 20)
#    0.000    2.000    1.250    2.250    0.000    5.250 
#    0.000    0.625    0.000    2.250    0.000    0.000 
#    0.000    0.000    0.000    0.000    0.000    0.000 
#
# Total GULP energy -793361.372531 kJ/mol
# GULP energy per Si atom -12396.271446 kJ/mol
# Density = 1.959953 g / cm^3
# Si number density = 19.644244 Si / 1000 Ang^3
#
#
#
# Elastic Constant Matrix: (Units=GPa)
#
#
# Indices 1 2 3 4 5 6 
#
# 1 85.8661 42.9152 48.3516 0.0000 0.0000 0.0000
# 2 42.9152 110.2586 48.9293 0.0000 0.0000 0.0000
# 3 48.3516 48.9293 103.8921 0.0000 0.0000 0.0000
# 4 0.0000 0.0000 0.0000 30.0594 0.0000 0.0000
# 5 0.0000 0.0000 0.0000 0.0000 29.3085 0.0000
# 6 0.0000 0.0000 0.0000 0.0000 0.0000 27.3634
#
#
#
# Elastic Compliance Matrix: (Units=1/GPa)
#
#
# Indices 1 2 3 4 5 6 
#
# 1 0.017033 -0.003934 -0.006074 0.000000 0.000000 0.000000
# 2 -0.003934 0.012375 -0.003997 0.000000 0.000000 0.000000
# 3 -0.006074 -0.003997 0.014335 0.000000 0.000000 0.000000
# 4 0.000000 0.000000 0.000000 0.033267 0.000000 0.000000
# 5 0.000000 0.000000 0.000000 0.000000 0.034120 0.000000
# 6 0.000000 0.000000 0.000000 0.000000 0.000000 0.036545
#
#
# Mechanical properties :
#
#
# Convention : Reuss Voigt Hill
#
# Bulk Modulus (GPa) = 63.56708 64.48988 64.02848
# Shear Modulus (GPa) = 27.63515 28.00096 27.81805
#
# Velocity S-wave (km/s) = 3.75478 3.77955 3.76718
# Velocity P-wave (km/s) = 7.15732 7.20741 7.18241
#
# Compressibility (1/GPa) = 0.01573141
#
# Stress axis : x y z
#
# Youngs Moduli (GPa) = 58.71076 80.81098 69.76003
#
# Poissons Ratio (x) = 0.31790 0.42374
# Poissons Ratio (y) = 0.23096 0.27884
# Poissons Ratio (z) = 0.35663 0.32301
#
# Static dielectric constant tensor:
#      x y z
#    x 3.602910 0.000000 0.000000 
#    y 0.000000 4.072330 0.000000 
#    z 0.000000 0.000000 3.344530 
# 
# 
# High freq. dielectric constant tensor:
#      x y z
#    x 1.771930 0.000000 0.000000 
#    y 0.000000 1.782980 0.000000 
#    z 0.000000 0.000000 1.740410 
# 
# From -- ./inp_files/34870.got.cif
#   From: 2010.03.12/outbox.cif.g09.slc.cpg/sg51_18_cif.got.tgz:34870.got - 2010.04.16 13:43:02.
