data_PCOD8212850
_publ_section_title
;
Structure prediction by ZEFSAII (Michael W. Deem and Ramdas Pophale) SiO2 
 PCOD8212850
Probable space group: P M M A
;
_chemical_formula_sum "Si O2"
_cell_formula_units_Z 56
_cell_length_a 22.812691
_cell_length_b 13.388447
_cell_length_c 9.113415
_cell_angle_alpha 90.000000
_cell_angle_beta 90.000000
_cell_angle_gamma 90.000000
_cell_volume 2783.478486
_symmetry_space_group_name_H-M "P M M A"
_symmetry_group_IT_number 51
_symmetry_cell_setting 'orthorhombic'
loop_
_space_group_symop_operation_xyz
x,y,z
1/2-x,-y,z
1/2+x,-y,-z
-x,y,-z
-x,-y,-z
1/2+x,y,-z
1/2-x,y,z
x,-y,z
loop_
_atom_site_type_symbol
_atom_site_label
_atom_site_fract_x
_atom_site_fract_y
_atom_site_fract_z
Si Si1 0.412998 0.618426 0.351953
Si Si2 0.817013 0.111868 0.492269
Si Si3 0.898798 0.733234 0.352015
Si Si4 0.510920 0.240375 0.827804
Si Si5 0.879293 0.112011 0.803391
Si Si6 0.817077 0.302915 0.849019
Si Si7 0.186314 0.385748 0.841889
O O1 0.419672 0.500000 0.374661
O O2 0.422930 0.676615 0.504415
O O3 0.460550 0.657289 0.234090
O O4 0.348841 0.648202 0.291659
O O5 0.750000 0.148878 0.515173
O O6 0.851273 0.181083 0.379507
O O7 0.852076 0.115498 0.642968
O O8 0.817146 0.000000 0.428392
O O9 0.951753 0.782328 0.261150
O O10 0.867085 0.653403 0.251429
O O11 0.552853 0.145154 0.798657
O O12 0.500000 0.254914 0.000000
O O13 0.842979 0.193985 0.896311
O O14 0.874248 0.000000 0.870353
O O15 0.750000 0.291487 0.803397
O O16 0.827470 0.374637 0.986197
O O17 0.250000 0.334687 0.807424
O O18 0.191275 0.500000 0.801717
#
# Coordination Sequence:
#
# PCOD8212850 Si02
#       7
#     8   8   8   8   8   8   8
#     4  11  24  39  59  91 122 158 209 262 314 364
#     4  10  21  38  63  95 128 160 198 250 316 380
#     4  12  22  39  65  89 125 162 207 266 307 362
#     4  11  25  43  61  87 122 166 211 255 310 370
#     4  10  21  39  63  91 123 161 204 253 310 366
#     4  10  20  38  62  90 125 165 207 252 307 377
#     4  10  22  39  60  89 126 168 208 251 310 372
#
# _framework density 20.118711999999999
#
# number of rings (size 3 to 8) (size 9 to 14) (size 15 to 20)
#    0.000    1.429    2.857    3.857    0.000    5.143 
#    0.000    3.571    0.000    0.857    0.000    0.000 
#    0.000    0.000    0.000    0.000    0.000    0.000 
#
# Total GULP energy -694316.464679 kJ/mol
# GULP energy per Si atom -12398.508298 kJ/mol
# Density = 2.007292 g / cm^3
# Si number density = 20.118712 Si / 1000 Ang^3
#
#
#
# Elastic Constant Matrix: (Units=GPa)
#
#
# Indices 1 2 3 4 5 6 
#
# 1 133.6796 34.5539 59.5683 0.0000 0.0000 0.0000
# 2 34.5539 86.8397 15.0078 0.0000 0.0000 0.0000
# 3 59.5683 15.0078 88.0613 0.0000 0.0000 0.0000
# 4 0.0000 0.0000 0.0000 23.2292 0.0000 0.0000
# 5 0.0000 0.0000 0.0000 0.0000 30.1508 0.0000
# 6 0.0000 0.0000 0.0000 0.0000 0.0000 25.6461
#
#
#
# Elastic Compliance Matrix: (Units=1/GPa)
#
#
# Indices 1 2 3 4 5 6 
#
# 1 0.011585 -0.003354 -0.007265 0.000000 0.000000 0.000000
# 2 -0.003354 0.012836 0.000081 0.000000 0.000000 0.000000
# 3 -0.007265 0.000081 0.016256 0.000000 0.000000 0.000000
# 4 0.000000 0.000000 0.000000 0.043049 0.000000 0.000000
# 5 0.000000 0.000000 0.000000 0.000000 0.033167 0.000000
# 6 0.000000 0.000000 0.000000 0.000000 0.000000 0.038992
#
#
# Mechanical properties :
#
#
# Convention : Reuss Voigt Hill
#
# Bulk Modulus (GPa) = 51.01613 58.53784 54.77698
# Shear Modulus (GPa) = 27.24882 29.10194 28.17538
#
# Velocity S-wave (km/s) = 3.68421 3.80743 3.74633
# Velocity P-wave (km/s) = 6.59625 6.96334 6.78228
#
# Compressibility (1/GPa) = 0.01960164
#
# Stress axis : x y z
#
# Youngs Moduli (GPa) = 86.32004 77.90562 61.51538
#
# Poissons Ratio (x) = 0.26130 0.44690
# Poissons Ratio (y) = 0.28953 -0.00500
# Poissons Ratio (z) = 0.62710 -0.00633
#
# Static dielectric constant tensor:
#      x y z
#    x 3.895550 0.000000 0.000000 
#    y 0.000000 3.891430 0.000000 
#    z 0.000000 0.000000 3.523470 
# 
# 
# High freq. dielectric constant tensor:
#      x y z
#    x 1.801690 0.000000 0.000000 
#    y 0.000000 1.783200 0.000000 
#    z 0.000000 0.000000 1.774280 
# 
# From -- ./inp_files/10950.got.cif
#   From: 2010.03.12/outbox.cif.g09.slc.cpg/sg51_6_cif.got.tgz:10950.got - 2010.04.16 13:43:02.
