data_PCOD8212727
_publ_section_title
;
Structure prediction by ZEFSAII (Michael W. Deem and Ramdas Pophale) SiO2 
 PCOD8212727
Probable space group: P M M A
;
_chemical_formula_sum "Si O2"
_cell_formula_units_Z 56
_cell_length_a 21.722651
_cell_length_b 9.215643
_cell_length_c 14.498413
_cell_angle_alpha 90.000000
_cell_angle_beta 90.000000
_cell_angle_gamma 90.000000
_cell_volume 2902.411152
_symmetry_space_group_name_H-M "P M M A"
_symmetry_group_IT_number 51
_symmetry_cell_setting 'orthorhombic'
loop_
_space_group_symop_operation_xyz
x,y,z
1/2-x,-y,z
1/2+x,-y,-z
-x,y,-z
-x,-y,-z
1/2+x,y,-z
1/2-x,y,z
x,-y,z
loop_
_atom_site_type_symbol
_atom_site_label
_atom_site_fract_x
_atom_site_fract_y
_atom_site_fract_z
Si Si1 0.040208 0.169233 0.294714
Si Si2 0.077104 0.669104 0.767253
Si Si3 0.250000 0.341117 0.366025
Si Si4 0.868292 0.160713 0.865676
Si Si5 0.178015 0.332029 0.622079
Si Si6 0.250000 0.344157 0.153752
Si Si7 0.059905 0.837271 0.951618
Si Si8 0.638354 0.829459 0.553781
O O1 0.080932 0.220676 0.206507
O O2 0.074526 0.200587 0.391939
O O3 0.977082 0.259039 0.293440
O O4 0.024185 0.000000 0.285722
O O5 0.062169 0.500000 0.777165
O O6 0.143363 0.694565 0.718785
O O7 0.082312 0.738828 0.867881
O O8 0.250000 0.500000 0.417579
O O9 0.250000 0.373656 0.260485
O O10 0.190980 0.246983 0.388220
O O11 0.810161 0.260564 0.873990
O O12 0.849479 0.000000 0.830854
O O13 0.888988 0.155233 0.970766
O O14 0.250000 0.282781 0.628137
O O15 0.174041 0.500000 0.593621
O O16 0.139574 0.238488 0.547983
O O17 0.250000 0.500000 0.102582
O O18 0.044478 0.000000 0.914239
O O19 0.000000 0.768135 0.000000
O O20 0.651536 0.000000 0.547036
#
# Coordination Sequence:
#
# PCOD8212727 Si02
#       8
#     8   8   4   8   8   4   8   8
#     4  10  21  38  60  89 125 158 191 243 300 352
#     4  11  24  40  62  90 119 155 200 248 298 359
#     4  11  21  33  53  84 123 162 193 235 296 354
#     4  10  20  37  60  84 119 162 199 242 299 362
#     4  10  23  44  64  83 117 163 201 242 301 353
#     4  11  23  35  53  86 125 160 197 245 298 354
#     4  10  20  39  65  88 114 154 199 245 303 358
#     4  11  22  36  61  92 117 152 204 247 285 344
#
# _framework density 19.294302999999999
#
# number of rings (size 3 to 8) (size 9 to 14) (size 15 to 20)
#    0.000    1.571    3.571    1.286    0.000    4.857 
#    1.286    2.857    0.000    0.000    0.000    0.000 
#    0.000    0.000    0.000    0.000    0.000    0.000 
#
# Total GULP energy -694256.195987 kJ/mol
# GULP energy per Si atom -12397.432071 kJ/mol
# Density = 1.925039 g / cm^3
# Si number density = 19.294303 Si / 1000 Ang^3
#
#
#
# Elastic Constant Matrix: (Units=GPa)
#
#
# Indices 1 2 3 4 5 6 
#
# 1 95.1855 51.9903 46.2443 0.0000 0.0000 0.0000
# 2 51.9903 101.4438 49.8828 0.0000 0.0000 0.0000
# 3 46.2443 49.8828 112.4761 0.0000 0.0000 0.0000
# 4 0.0000 0.0000 0.0000 30.4452 0.0000 0.0000
# 5 0.0000 0.0000 0.0000 0.0000 31.8094 0.0000
# 6 0.0000 0.0000 0.0000 0.0000 0.0000 17.4878
#
#
#
# Elastic Compliance Matrix: (Units=1/GPa)
#
#
# Indices 1 2 3 4 5 6 
#
# 1 0.015704 -0.006233 -0.003693 0.000000 0.000000 0.000000
# 2 -0.006233 0.015081 -0.004126 0.000000 0.000000 0.000000
# 3 -0.003693 -0.004126 0.012239 0.000000 0.000000 0.000000
# 4 0.000000 0.000000 0.000000 0.032846 0.000000 0.000000
# 5 0.000000 0.000000 0.000000 0.000000 0.031437 0.000000
# 6 0.000000 0.000000 0.000000 0.000000 0.000000 0.057183
#
#
# Mechanical properties :
#
#
# Convention : Reuss Voigt Hill
#
# Bulk Modulus (GPa) = 67.01670 67.26001 67.13836
# Shear Modulus (GPa) = 25.30816 26.68102 25.99459
#
# Velocity S-wave (km/s) = 3.62566 3.72270 3.67450
# Velocity P-wave (km/s) = 7.23440 7.30847 7.27153
#
# Compressibility (1/GPa) = 0.01492165
#
# Stress axis : x y z
#
# Youngs Moduli (GPa) = 63.67803 66.31028 81.70826
#
# Poissons Ratio (x) = 0.41329 0.30171
# Poissons Ratio (y) = 0.39688 0.33710
# Poissons Ratio (z) = 0.23513 0.27357
#
# Static dielectric constant tensor:
#      x y z
#    x 3.535730 0.000000 0.000000 
#    y 0.000000 3.700060 0.000000 
#    z 0.000000 0.000000 3.525630 
# 
# 
# High freq. dielectric constant tensor:
#      x y z
#    x 1.747290 0.000000 0.000000 
#    y 0.000000 1.753570 0.000000 
#    z 0.000000 0.000000 1.750620 
# 
# From -- ./inp_files/25911.got.cif
#   From: 2010.03.12/outbox.cif.g09.slc.cpg/sg51_13_cif.got.tgz:25911.got - 2010.04.16 13:43:02.
