data_PCOD8212962
_publ_section_title
;
Structure prediction by ZEFSAII (Michael W. Deem and Ramdas Pophale) SiO2 
 PCOD8212962
Probable space group: P M M A
;
_chemical_formula_sum "Si O2"
_cell_formula_units_Z 48
_cell_length_a 15.110439
_cell_length_b 9.496313
_cell_length_c 19.085766
_cell_angle_alpha 90.000000
_cell_angle_beta 90.000000
_cell_angle_gamma 90.000000
_cell_volume 2738.682568
_symmetry_space_group_name_H-M "P M M A"
_symmetry_group_IT_number 51
_symmetry_cell_setting 'orthorhombic'
loop_
_space_group_symop_operation_xyz
x,y,z
1/2-x,-y,z
1/2+x,-y,-z
-x,y,-z
-x,-y,-z
1/2+x,y,-z
1/2-x,y,z
x,-y,z
loop_
_atom_site_type_symbol
_atom_site_label
_atom_site_fract_x
_atom_site_fract_y
_atom_site_fract_z
Si Si1 0.647126 0.837370 0.665347
Si Si2 0.152423 0.832367 0.176944
Si Si3 0.492272 0.664639 0.420018
Si Si4 0.499700 0.167008 0.921878
Si Si5 0.148985 0.163179 0.816782
Si Si6 0.350641 0.336711 0.681152
O O1 0.750000 0.815275 0.647241
O O2 0.627326 0.784796 0.744465
O O3 0.589897 0.745394 0.612907
O O4 0.620352 0.000000 0.656613
O O5 0.250000 0.775684 0.156557
O O6 0.082170 0.769719 0.121848
O O7 0.152691 0.000000 0.175237
O O8 0.500000 0.713187 0.500000
O O9 0.471687 0.500000 0.413907
O O10 0.584644 0.703839 0.382325
O O11 0.409170 0.210384 0.883218
O O12 0.509095 0.000000 0.926252
O O13 0.500000 0.232163 0.000000
O O14 0.250000 0.194732 0.837273
O O15 0.119267 0.249519 0.748902
O O16 0.133163 0.000000 0.798799
O O17 0.250000 0.297907 0.659054
O O18 0.358380 0.500000 0.700904
#
# Coordination Sequence:
#
# PCOD8212962 Si02
#       6
#     8   8   8   8   8   8
#     4   9  18  33  52  72  94 124 162 199 235 278
#     4   8  14  25  41  60  83 114 151 187 222 263
#     4  10  21  34  49  72  99 126 155 190 237 287
#     4   9  16  24  37  61  92 122 148 179 225 275
#     4   9  17  29  46  68  91 116 151 194 233 269
#     4   9  18  33  51  69  91 122 159 195 232 280
#
# _framework density 17.526676999999999
#
# number of rings (size 3 to 8) (size 9 to 14) (size 15 to 20)
#    0.000    3.000    0.000    2.000    0.000    4.000 
#    0.000    5.000    0.000    2.500    0.000    0.000 
#    0.000    2.667    0.000    0.000    0.000    0.000 
#
# Total GULP energy -595118.072658 kJ/mol
# GULP energy per Si atom -12398.293180 kJ/mol
# Density = 1.748679 g / cm^3
# Si number density = 17.526677 Si / 1000 Ang^3
#
#
#
# Elastic Constant Matrix: (Units=GPa)
#
#
# Indices 1 2 3 4 5 6 
#
# 1 120.5549 35.5090 97.0760 0.0000 0.0000 0.0000
# 2 35.5090 29.6870 42.1037 0.0000 0.0000 0.0000
# 3 97.0760 42.1037 168.5488 0.0000 0.0000 0.0000
# 4 0.0000 0.0000 0.0000 12.7439 0.0000 0.0000
# 5 0.0000 0.0000 0.0000 0.0000 22.7824 0.0000
# 6 0.0000 0.0000 0.0000 0.0000 0.0000 21.0323
#
#
#
# Elastic Compliance Matrix: (Units=1/GPa)
#
#
# Indices 1 2 3 4 5 6 
#
# 1 0.017232 -0.010122 -0.007397 0.000000 0.000000 0.000000
# 2 -0.010122 0.058111 -0.008687 0.000000 0.000000 0.000000
# 3 -0.007397 -0.008687 0.012363 0.000000 0.000000 0.000000
# 4 0.000000 0.000000 0.000000 0.078469 0.000000 0.000000
# 5 0.000000 0.000000 0.000000 0.000000 0.043894 0.000000
# 6 0.000000 0.000000 0.000000 0.000000 0.000000 0.047546
#
#
# Mechanical properties :
#
#
# Convention : Reuss Voigt Hill
#
# Bulk Modulus (GPa) = 28.33110 74.24088 51.28599
# Shear Modulus (GPa) = 15.53805 20.91851 18.22828
#
# Velocity S-wave (km/s) = 2.98071 3.45849 3.22845
# Velocity P-wave (km/s) = 5.29583 7.64192 6.57437
#
# Compressibility (1/GPa) = 0.03529691
#
# Stress axis : x y z
#
# Youngs Moduli (GPa) = 58.03051 17.20833 80.88620
#
# Poissons Ratio (x) = 0.17418 0.59828
# Poissons Ratio (y) = 0.58736 0.70264
# Poissons Ratio (z) = 0.42923 0.14948
#
# Static dielectric constant tensor:
#      x y z
#    x 3.462600 0.000000 0.000000 
#    y 0.000000 2.882820 0.000000 
#    z 0.000000 0.000000 3.383590 
# 
# 
# High freq. dielectric constant tensor:
#      x y z
#    x 1.692080 0.000000 0.000000 
#    y 0.000000 1.633730 0.000000 
#    z 0.000000 0.000000 1.675210 
# 
# From -- ./inp_files/29441.got.cif
#   From: 2010.03.12/outbox.cif.g09.slc.cpg/sg51_15_cif.got.tgz:29441.got - 2010.04.16 13:43:02.
