data_PCOD8212945
_publ_section_title
;
Structure prediction by ZEFSAII (Michael W. Deem and Ramdas Pophale) SiO2 
 PCOD8212945
Probable space group: P M M A
;
_chemical_formula_sum "Si O2"
_cell_formula_units_Z 56
_cell_length_a 28.181294
_cell_length_b 9.195913
_cell_length_c 13.248490
_cell_angle_alpha 90.000000
_cell_angle_beta 90.000000
_cell_angle_gamma 90.000000
_cell_volume 3433.382323
_symmetry_space_group_name_H-M "P M M A"
_symmetry_group_IT_number 51
_symmetry_cell_setting 'orthorhombic'
loop_
_space_group_symop_operation_xyz
x,y,z
1/2-x,-y,z
1/2+x,-y,-z
-x,y,-z
-x,-y,-z
1/2+x,y,-z
1/2-x,y,z
x,-y,z
loop_
_atom_site_type_symbol
_atom_site_label
_atom_site_fract_x
_atom_site_fract_y
_atom_site_fract_z
Si Si1 0.802779 0.831952 0.020614
Si Si2 0.602353 0.335531 0.312259
Si Si3 0.017953 0.167541 0.612476
Si Si4 0.302579 0.670224 0.773624
Si Si5 0.897416 0.169582 0.919476
Si Si6 0.535852 0.668010 0.785749
Si Si7 0.443756 0.661696 0.904807
O O1 0.750000 0.792662 0.979781
O O2 0.841549 0.794453 0.934809
O O3 0.806296 0.000000 0.050447
O O4 0.814961 0.745098 0.121178
O O5 0.595924 0.500000 0.352942
O O6 0.571748 0.228592 0.382223
O O7 0.658061 0.288275 0.311161
O O8 0.585279 0.324353 0.197773
O O9 0.000000 0.188508 0.500000
O O10 0.983137 0.255428 0.685407
O O11 0.018239 0.000000 0.645746
O O12 0.250000 0.715933 0.734823
O O13 0.305431 0.500000 0.795659
O O14 0.915178 0.257222 0.821165
O O15 0.906364 0.000000 0.901136
O O16 0.926290 0.216268 0.018776
O O17 0.544577 0.500000 0.759211
O O18 0.499186 0.685959 0.878868
O O19 0.436473 0.500000 0.951710
#
# Coordination Sequence:
#
# PCOD8212945 Si02
#       7
#     8   8   8   8   8   8   8
#     4   9  18  30  42  61  92 129 165 196 229 268
#     4   9  17  29  46  69  96 127 158 189 229 276
#     4  10  21  36  53  72  93 116 148 193 239 285
#     4   9  16  27  44  66  93 126 162 194 223 262
#     4  11  20  28  43  66  92 125 160 194 228 265
#     4  10  21  34  48  66  90 121 153 188 229 278
#     4   9  17  29  42  61  91 125 157 186 220 265
#
# _framework density 16.310447
#
# number of rings (size 3 to 8) (size 9 to 14) (size 15 to 20)
#    0.000    2.429    1.429    2.571    0.000    6.857 
#    0.000    0.000    0.000    0.000    0.000    1.000 
#    0.000    1.143    0.000    0.000    0.000    0.000 
#
# Total GULP energy -694233.354648 kJ/mol
# GULP energy per Si atom -12397.024190 kJ/mol
# Density = 1.627332 g / cm^3
# Si number density = 16.310447 Si / 1000 Ang^3
#
#
#
# Elastic Constant Matrix: (Units=GPa)
#
#
# Indices 1 2 3 4 5 6 
#
# 1 119.0448 58.2364 41.4477 0.0000 0.0000 0.0000
# 2 58.2364 96.0938 41.8833 0.0000 0.0000 0.0000
# 3 41.4477 41.8833 46.2365 0.0000 0.0000 0.0000
# 4 0.0000 0.0000 0.0000 17.0605 0.0000 0.0000
# 5 0.0000 0.0000 0.0000 0.0000 16.0773 0.0000
# 6 0.0000 0.0000 0.0000 0.0000 0.0000 24.1288
#
#
#
# Elastic Compliance Matrix: (Units=1/GPa)
#
#
# Indices 1 2 3 4 5 6 
#
# 1 0.013418 -0.004774 -0.007704 0.000000 0.000000 0.000000
# 2 -0.004774 0.018894 -0.012836 0.000000 0.000000 0.000000
# 3 -0.007704 -0.012836 0.040161 0.000000 0.000000 0.000000
# 4 0.000000 0.000000 0.000000 0.058615 0.000000 0.000000
# 5 0.000000 0.000000 0.000000 0.000000 0.062200 0.000000
# 6 0.000000 0.000000 0.000000 0.000000 0.000000 0.041444
#
#
# Mechanical properties :
#
#
# Convention : Reuss Voigt Hill
#
# Bulk Modulus (GPa) = 45.77448 60.50110 53.13779
# Shear Modulus (GPa) = 17.08581 19.44050 18.26316
#
# Velocity S-wave (km/s) = 3.24008 3.45614 3.34985
# Velocity P-wave (km/s) = 6.49022 7.28701 6.90013
#
# Compressibility (1/GPa) = 0.02184623
#
# Stress axis : x y z
#
# Youngs Moduli (GPa) = 74.52810 52.92592 24.89985
#
# Poissons Ratio (x) = 0.25267 0.19182
# Poissons Ratio (y) = 0.35580 0.31961
# Poissons Ratio (z) = 0.57413 0.67935
#
# Static dielectric constant tensor:
#      x y z
#    x 3.540600 0.000000 0.000000 
#    y 0.000000 3.186940 0.000000 
#    z 0.000000 0.000000 2.645650 
# 
# 
# High freq. dielectric constant tensor:
#      x y z
#    x 1.634900 0.000000 0.000000 
#    y 0.000000 1.636500 0.000000 
#    z 0.000000 0.000000 1.576110 
# 
# From -- ./inp_files/26476.got.cif
#   From: 2010.03.12/outbox.cif.g09.slc.cpg/sg51_14_cif.got.tgz:26476.got - 2010.04.16 13:43:02.
