data_PCOD8212343
_publ_section_title
;
Structure prediction by ZEFSAII (Michael W. Deem and Ramdas Pophale) SiO2 
 PCOD8212343
Probable space group: P M M A
;
_chemical_formula_sum "Si O2"
_cell_formula_units_Z 48
_cell_length_a 18.482292
_cell_length_b 7.816577
_cell_length_c 18.585734
_cell_angle_alpha 90.000000
_cell_angle_beta 90.000000
_cell_angle_gamma 90.000000
_cell_volume 2685.048625
_symmetry_space_group_name_H-M "P M M A"
_symmetry_group_IT_number 51
_symmetry_cell_setting 'orthorhombic'
loop_
_space_group_symop_operation_xyz
x,y,z
1/2-x,-y,z
1/2+x,-y,-z
-x,y,-z
-x,-y,-z
1/2+x,y,-z
1/2-x,y,z
x,-y,z
loop_
_atom_site_type_symbol
_atom_site_label
_atom_site_fract_x
_atom_site_fract_y
_atom_site_fract_z
Si Si1 0.167440 0.000000 0.480972
Si Si2 0.934564 0.199764 0.951269
Si Si3 0.169326 0.311121 0.583172
Si Si4 0.461039 0.299725 0.837952
Si Si5 0.526092 0.000000 0.583343
Si Si6 0.537119 0.303653 0.324083
Si Si7 0.830982 0.302833 0.064159
O O1 0.147314 0.168459 0.526039
O O2 0.250000 0.000000 0.453984
O O3 0.113669 0.000000 0.413529
O O4 0.860281 0.282304 0.981630
O O5 0.959966 0.253550 0.871383
O O6 0.923647 0.000000 0.956304
O O7 0.000000 0.269087 0.000000
O O8 0.250000 0.276633 0.610968
O O9 0.161972 0.500000 0.547004
O O10 0.120881 0.300409 0.653938
O O11 0.449508 0.500000 0.836860
O O12 0.465052 0.230484 0.756767
O O13 0.391615 0.218934 0.881663
O O14 0.500000 0.000000 0.500000
O O15 0.504061 0.174393 0.623164
O O16 0.506489 0.500000 0.330395
O O17 0.750000 0.219060 0.071544
O O18 0.822926 0.500000 0.082556
#
# Coordination Sequence:
#
# PCOD8212343 Si02
#       7
#     4   8   8   8   4   8   8
#     4  10  20  36  54  74 102 132 166 212 262 315
#     4   9  17  29  47  70  97 133 172 213 248 291
#     4   9  17  30  49  74 105 138 168 202 254 318
#     4   9  18  32  49  72 102 138 175 211 257 311
#     4  12  22  36  56  82 103 138 179 226 270 320
#     4  10  21  34  52  80 111 141 178 222 267 318
#     4   9  17  30  50  75 104 138 174 211 253 304
#
# _framework density 17.876771999999999
#
# number of rings (size 3 to 8) (size 9 to 14) (size 15 to 20)
#    0.000    2.500    1.667    0.500    1.167    4.000 
#    0.000    3.333    0.000    1.000    0.000    2.333 
#    0.000    0.000    0.000    0.000    0.000    0.000 
#
# Total GULP energy -594643.048783 kJ/mol
# GULP energy per Si atom -12388.396850 kJ/mol
# Density = 1.783608 g / cm^3
# Si number density = 17.876772 Si / 1000 Ang^3
#
#
#
# Elastic Constant Matrix: (Units=GPa)
#
#
# Indices 1 2 3 4 5 6 
#
# 1 91.9031 26.1853 67.8072 0.0000 0.0000 0.0000
# 2 26.1853 69.5384 40.4926 0.0000 0.0000 0.0000
# 3 67.8072 40.4926 110.1885 0.0000 0.0000 0.0000
# 4 0.0000 0.0000 0.0000 22.5476 0.0000 0.0000
# 5 0.0000 0.0000 0.0000 0.0000 23.2284 0.0000
# 6 0.0000 0.0000 0.0000 0.0000 0.0000 10.9150
#
#
#
# Elastic Compliance Matrix: (Units=1/GPa)
#
#
# Indices 1 2 3 4 5 6 
#
# 1 0.019941 -0.000462 -0.012102 0.000000 0.000000 0.000000
# 2 -0.000462 0.018306 -0.006443 0.000000 0.000000 0.000000
# 3 -0.012102 -0.006443 0.018890 0.000000 0.000000 0.000000
# 4 0.000000 0.000000 0.000000 0.044351 0.000000 0.000000
# 5 0.000000 0.000000 0.000000 0.000000 0.043051 0.000000
# 6 0.000000 0.000000 0.000000 0.000000 0.000000 0.091617
#
#
# Mechanical properties :
#
#
# Convention : Reuss Voigt Hill
#
# Bulk Modulus (GPa) = 52.28931 60.06670 56.17800
# Shear Modulus (GPa) = 17.82254 20.48122 19.15188
#
# Velocity S-wave (km/s) = 3.16090 3.38847 3.27666
# Velocity P-wave (km/s) = 6.52956 6.99874 6.76822
#
# Compressibility (1/GPa) = 0.01912437
#
# Stress axis : x y z
#
# Youngs Moduli (GPa) = 50.14695 54.62604 52.93825
#
# Poissons Ratio (x) = 0.02526 0.64063
# Poissons Ratio (y) = 0.02319 0.34107
# Poissons Ratio (z) = 0.60685 0.35194
#
# Static dielectric constant tensor:
#      x y z
#    x 3.491710 0.000000 0.000000 
#    y 0.000000 3.322180 0.000000 
#    z 0.000000 0.000000 3.314990 
# 
# 
# High freq. dielectric constant tensor:
#      x y z
#    x 1.680970 0.000000 0.000000 
#    y 0.000000 1.698220 0.000000 
#    z 0.000000 0.000000 1.662870 
# 
# From -- ./inp_files/24837.got.cif
#   From: 2010.03.12/outbox.cif.g09.slc.cpg/sg51_13_cif.got.tgz:24837.got - 2010.04.16 13:43:02.
