data_PCOD8212473
_publ_section_title
;
Structure prediction by ZEFSAII (Michael W. Deem and Ramdas Pophale) SiO2 
 PCOD8212473
Probable space group: P M M A
;
_chemical_formula_sum "Si O2"
_cell_formula_units_Z 48
_cell_length_a 18.708879
_cell_length_b 7.735520
_cell_length_c 17.426626
_cell_angle_alpha 90.000000
_cell_angle_beta 90.000000
_cell_angle_gamma 90.000000
_cell_volume 2522.031986
_symmetry_space_group_name_H-M "P M M A"
_symmetry_group_IT_number 51
_symmetry_cell_setting 'orthorhombic'
loop_
_space_group_symop_operation_xyz
x,y,z
1/2-x,-y,z
1/2+x,-y,-z
-x,y,-z
-x,-y,-z
1/2+x,y,-z
1/2-x,y,z
x,-y,z
loop_
_atom_site_type_symbol
_atom_site_label
_atom_site_fract_x
_atom_site_fract_y
_atom_site_fract_z
Si Si1 0.403480 0.692254 0.216057
Si Si2 0.832721 0.693613 0.070745
Si Si3 0.327928 0.294568 0.760140
Si Si4 0.466864 0.303125 0.678536
Si Si5 0.164832 0.000000 0.309353
Si Si6 0.065019 0.807109 0.048906
Si Si7 0.529166 0.000000 0.585683
O O1 0.373349 0.500000 0.235237
O O2 0.483943 0.712275 0.246655
O O3 0.410879 0.705862 0.124652
O O4 0.351791 0.832118 0.256681
O O5 0.750000 0.687504 0.052276
O O6 0.865227 0.500000 0.065060
O O7 0.846220 0.775677 0.155019
O O8 0.867813 0.815554 0.007644
O O9 0.250000 0.226019 0.732627
O O10 0.326181 0.500000 0.766759
O O11 0.387834 0.235194 0.700230
O O12 0.465149 0.500000 0.646991
O O13 0.495904 0.177690 0.614361
O O14 0.250000 0.000000 0.331486
O O15 0.114152 0.000000 0.387294
O O16 0.042943 0.000000 0.074271
O O17 0.000000 0.720561 0.000000
O O18 0.500000 0.000000 0.500000
#
# Coordination Sequence:
#
# PCOD8212473 Si02
#       7
#     8   8   8   8   4   8   4
#     4  10  20  36  58  81 106 147 197 239 285 334
#     4   9  18  32  48  67  96 137 182 227 278 328
#     4   8  14  28  50  75 105 141 180 223 270 317
#     4   9  18  34  58  83 109 142 178 218 263 317
#     4  10  22  42  63  85 116 147 182 235 286 333
#     4  11  22  33  47  72 108 148 192 244 292 331
#     4  10  22  40  62  89 116 143 174 211 259 335
#
# _framework density 19.032271999999999
#
# number of rings (size 3 to 8) (size 9 to 14) (size 15 to 20)
#    0.000    2.500    0.833    2.500    0.000    4.333 
#    1.500    1.250    0.000    0.000    0.000    0.000 
#    0.000    0.000    0.000    0.000    0.000    0.000 
#
# Total GULP energy -594701.026825 kJ/mol
# GULP energy per Si atom -12389.604726 kJ/mol
# Density = 1.898895 g / cm^3
# Si number density = 19.032272 Si / 1000 Ang^3
#
#
#
# Elastic Constant Matrix: (Units=GPa)
#
#
# Indices 1 2 3 4 5 6 
#
# 1 117.7398 43.1711 63.7558 0.0000 0.0000 0.0000
# 2 43.1711 86.2565 33.5931 0.0000 0.0000 0.0000
# 3 63.7558 33.5931 96.8883 0.0000 0.0000 0.0000
# 4 0.0000 0.0000 0.0000 21.8360 0.0000 0.0000
# 5 0.0000 0.0000 0.0000 0.0000 21.6566 0.0000
# 6 0.0000 0.0000 0.0000 0.0000 0.0000 10.7348
#
#
#
# Elastic Compliance Matrix: (Units=1/GPa)
#
#
# Indices 1 2 3 4 5 6 
#
# 1 0.014319 -0.004043 -0.008020 0.000000 0.000000 0.000000
# 2 -0.004043 0.014545 -0.002383 0.000000 0.000000 0.000000
# 3 -0.008020 -0.002383 0.016425 0.000000 0.000000 0.000000
# 4 0.000000 0.000000 0.000000 0.045796 0.000000 0.000000
# 5 0.000000 0.000000 0.000000 0.000000 0.046175 0.000000
# 6 0.000000 0.000000 0.000000 0.000000 0.000000 0.093155
#
#
# Mechanical properties :
#
#
# Convention : Reuss Voigt Hill
#
# Bulk Modulus (GPa) = 60.98837 64.65829 62.82333
# Shear Modulus (GPa) = 18.88417 21.53646 20.21031
#
# Velocity S-wave (km/s) = 3.15337 3.36754 3.26221
# Velocity P-wave (km/s) = 6.73592 7.01193 6.87531
#
# Compressibility (1/GPa) = 0.01639657
#
# Stress axis : x y z
#
# Youngs Moduli (GPa) = 69.83849 68.75358 60.88277
#
# Poissons Ratio (x) = 0.27796 0.48831
# Poissons Ratio (y) = 0.28235 0.14506
# Poissons Ratio (z) = 0.56014 0.16381
#
# Static dielectric constant tensor:
#      x y z
#    x 3.695960 0.000000 0.000000 
#    y 0.000000 3.590470 0.000000 
#    z 0.000000 0.000000 3.190820 
# 
# 
# High freq. dielectric constant tensor:
#      x y z
#    x 1.738020 0.000000 0.000000 
#    y 0.000000 1.741720 0.000000 
#    z 0.000000 0.000000 1.704270 
# 
# From -- ./inp_files/24996.got.cif
#   From: 2010.03.12/outbox.cif.g09.slc.cpg/sg51_13_cif.got.tgz:24996.got - 2010.04.16 13:43:02.
