data_PCOD8212164
_publ_section_title
;
Structure prediction by ZEFSAII (Michael W. Deem and Ramdas Pophale) SiO2 
 PCOD8212164
Probable space group: P M M A
;
_chemical_formula_sum "Si O2"
_cell_formula_units_Z 64
_cell_length_a 8.951817
_cell_length_b 23.426077
_cell_length_c 15.490733
_cell_angle_alpha 90.000000
_cell_angle_beta 90.000000
_cell_angle_gamma 90.000000
_cell_volume 3248.498947
_symmetry_space_group_name_H-M "P M M A"
_symmetry_group_IT_number 51
_symmetry_cell_setting 'orthorhombic'
loop_
_space_group_symop_operation_xyz
x,y,z
1/2-x,-y,z
1/2+x,-y,-z
-x,y,-z
-x,-y,-z
1/2+x,y,-z
1/2-x,y,z
x,-y,z
loop_
_atom_site_type_symbol
_atom_site_label
_atom_site_fract_x
_atom_site_fract_y
_atom_site_fract_z
Si Si1 0.571840 0.856591 0.770664
Si Si2 0.585750 0.262367 0.578631
Si Si3 0.426142 0.565701 0.408866
Si Si4 0.089005 0.130982 0.420825
Si Si5 0.922137 0.067138 0.088001
Si Si6 0.423774 0.615534 0.757438
Si Si7 0.915688 0.566654 0.917331
Si Si8 0.578747 0.742479 0.246677
O O1 0.750000 0.856088 0.773332
O O2 0.512929 0.873123 0.674293
O O3 0.506611 0.903346 0.833885
O O4 0.516778 0.793040 0.797916
O O5 0.500000 0.293577 0.500000
O O6 0.750000 0.290507 0.595357
O O7 0.612676 0.196684 0.555222
O O8 0.474356 0.267933 0.656980
O O9 0.500000 0.582456 0.500000
O O10 0.250000 0.576043 0.415434
O O11 0.462822 0.500000 0.385641
O O12 0.492350 0.606019 0.333656
O O13 0.250000 0.100185 0.416904
O O14 0.000000 0.101175 0.500000
O O15 0.750000 0.086054 0.085369
O O16 0.939399 0.000000 0.101512
O O17 0.000000 0.087180 0.000000
O O18 0.250000 0.600950 0.743614
O O19 0.492490 0.575053 0.829787
O O20 0.443331 0.680105 0.795511
O O21 0.750000 0.594223 0.909479
O O22 0.898712 0.500000 0.933096
O O23 0.000000 0.594264 0.000000
O O24 0.750000 0.762279 0.245158
#
# Coordination Sequence:
#
# PCOD8212164 Si02
#       8
#     8   8   8   8   8   8   8   8
#     4  10  20  35  56  82 113 149 187 229 278 328
#     4   9  16  27  44  66  94 132 178 225 270 312
#     4  10  21  37  57  81 110 147 192 241 293 348
#     4   8  15  26  43  70 101 135 176 218 259 304
#     4  10  21  38  62  91 119 147 182 227 278 331
#     4  11  23  37  55  80 111 147 185 228 278 332
#     4  10  21  38  61  86 108 132 167 215 271 328
#     4  10  21  35  50  73 107 146 187 227 271 328
#
# _framework density 19.701409000000002
#
# number of rings (size 3 to 8) (size 9 to 14) (size 15 to 20)
#    0.000    2.250    0.000    3.750    0.000    9.750 
#    0.000    0.625    0.000    3.375    0.000    0.000 
#    0.000    0.000    0.000    0.000    0.000    0.000 
#
# Total GULP energy -793238.711235 kJ/mol
# GULP energy per Si atom -12394.354863 kJ/mol
# Density = 1.965657 g / cm^3
# Si number density = 19.701409 Si / 1000 Ang^3
#
#
#
# Elastic Constant Matrix: (Units=GPa)
#
#
# Indices 1 2 3 4 5 6 
#
# 1 130.1425 31.0058 57.1284 0.0000 0.0000 0.0000
# 2 31.0058 41.1366 29.2487 0.0000 0.0000 0.0000
# 3 57.1284 29.2487 110.5332 0.0000 0.0000 0.0000
# 4 0.0000 0.0000 0.0000 2.7226 0.0000 0.0000
# 5 0.0000 0.0000 0.0000 0.0000 34.4401 0.0000
# 6 0.0000 0.0000 0.0000 0.0000 0.0000 20.1483
#
#
#
# Elastic Compliance Matrix: (Units=1/GPa)
#
#
# Indices 1 2 3 4 5 6 
#
# 1 0.010746 -0.005113 -0.004201 0.000000 0.000000 0.000000
# 2 -0.005113 0.032375 -0.005925 0.000000 0.000000 0.000000
# 3 -0.004201 -0.005925 0.012786 0.000000 0.000000 0.000000
# 4 0.000000 0.000000 0.000000 0.367290 0.000000 0.000000
# 5 0.000000 0.000000 0.000000 0.000000 0.029036 0.000000
# 6 0.000000 0.000000 0.000000 0.000000 0.000000 0.049632
#
#
# Mechanical properties :
#
#
# Convention : Reuss Voigt Hill
#
# Bulk Modulus (GPa) = 39.32239 57.39757 48.35998
# Shear Modulus (GPa) = 9.24525 22.42418 15.83472
#
# Velocity S-wave (km/s) = 2.16861 3.37739 2.83810
# Velocity P-wave (km/s) = 5.12572 6.66378 5.94470
#
# Compressibility (1/GPa) = 0.02543081
#
# Stress axis : x y z
#
# Youngs Moduli (GPa) = 93.05684 30.88791 78.20961
#
# Poissons Ratio (x) = 0.15792 0.32858
# Poissons Ratio (y) = 0.47576 0.46336
# Poissons Ratio (z) = 0.39095 0.18300
#
# Static dielectric constant tensor:
#      x y z
#    x 4.046030 0.000000 0.000000 
#    y 0.000000 3.414770 0.000000 
#    z 0.000000 0.000000 3.487940 
# 
# 
# High freq. dielectric constant tensor:
#      x y z
#    x 1.785820 0.000000 0.000000 
#    y 0.000000 1.738340 0.000000 
#    z 0.000000 0.000000 1.758300 
# 
# From -- ./inp_files/22222.got.cif
#   From: 2010.03.12/outbox.cif.g09.slc.cpg/sg51_12_cif.got.tgz:22222.got - 2010.04.16 13:43:02.
