data_PCOD8212750
_publ_section_title
;
Structure prediction by ZEFSAII (Michael W. Deem and Ramdas Pophale) SiO2 
 PCOD8212750
Probable space group: P M M A
;
_chemical_formula_sum "Si O2"
_cell_formula_units_Z 48
_cell_length_a 15.385104
_cell_length_b 8.877903
_cell_length_c 17.656748
_cell_angle_alpha 90.000000
_cell_angle_beta 90.000000
_cell_angle_gamma 90.000000
_cell_volume 2411.690378
_symmetry_space_group_name_H-M "P M M A"
_symmetry_group_IT_number 51
_symmetry_cell_setting 'orthorhombic'
loop_
_space_group_symop_operation_xyz
x,y,z
1/2-x,-y,z
1/2+x,-y,-z
-x,y,-z
-x,-y,-z
1/2+x,y,-z
1/2-x,y,z
x,-y,z
loop_
_atom_site_type_symbol
_atom_site_label
_atom_site_fract_x
_atom_site_fract_y
_atom_site_fract_z
Si Si1 0.750000 0.678768 0.200881
Si Si2 0.907441 0.672791 0.466419
Si Si3 0.250000 0.322531 0.289266
Si Si4 0.919795 0.325759 0.288547
Si Si5 0.250000 0.176325 0.452322
Si Si6 0.250000 0.322237 0.970251
Si Si7 0.085344 0.174038 0.043353
Si Si8 0.584422 0.174203 0.780934
O O1 0.750000 0.500000 0.202285
O O2 0.664388 0.736961 0.244253
O O3 0.750000 0.743098 0.115352
O O4 0.887212 0.500000 0.488448
O O5 0.904497 0.695300 0.377038
O O6 0.835367 0.779376 0.501745
O O7 0.000000 0.722287 0.500000
O O8 0.250000 0.500000 0.295623
O O9 0.250000 0.257161 0.372536
O O10 0.333950 0.271370 0.243692
O O11 0.938592 0.500000 0.268448
O O12 0.000730 0.224806 0.265390
O O13 0.250000 0.000000 0.438136
O O14 0.250000 0.500000 0.966989
O O15 0.165974 0.269934 0.015292
O O16 0.067755 0.203583 0.131081
O O17 0.105354 0.000000 0.026154
O O18 0.000000 0.230319 0.000000
O O19 0.603594 0.000000 0.763652
#
# Coordination Sequence:
#
# PCOD8212750 Si02
#       8
#     4   8   4   8   4   4   8   8
#     4   9  19  35  55  83 117 153 196 243 290 340
#     4  10  21  38  61  88 118 156 199 238 283 346
#     4  12  25  42  63  85 115 156 199 240 290 354
#     4  10  20  37  61  86 117 158 197 235 285 346
#     4  12  25  40  62  91 122 154 191 242 296 342
#     4  11  22  35  56  85 114 147 194 251 296 336
#     4  10  22  40  60  83 116 158 196 233 288 355
#     4  11  23  39  60  88 120 151 191 244 294 343
#
# _framework density 19.903051999999999
#
# number of rings (size 3 to 8) (size 9 to 14) (size 15 to 20)
#    0.000    1.500    0.000    5.250    0.000    7.333 
#    0.000    1.250    0.000    0.000    0.000    0.000 
#    0.000    0.000    0.000    0.000    0.000    0.000 
#
# Total GULP energy -595498.804465 kJ/mol
# GULP energy per Si atom -12406.225093 kJ/mol
# Density = 1.985775 g / cm^3
# Si number density = 19.903052 Si / 1000 Ang^3
#
#
#
# Elastic Constant Matrix: (Units=GPa)
#
#
# Indices 1 2 3 4 5 6 
#
# 1 134.7437 57.3239 30.0916 0.0000 0.0000 0.0000
# 2 57.3239 105.4646 47.7657 0.0000 0.0000 0.0000
# 3 30.0916 47.7657 79.7146 0.0000 0.0000 0.0000
# 4 0.0000 0.0000 0.0000 23.4256 0.0000 0.0000
# 5 0.0000 0.0000 0.0000 0.0000 41.1487 0.0000
# 6 0.0000 0.0000 0.0000 0.0000 0.0000 57.5522
#
#
#
# Elastic Compliance Matrix: (Units=1/GPa)
#
#
# Indices 1 2 3 4 5 6 
#
# 1 0.009681 -0.004950 -0.000688 0.000000 0.000000 0.000000
# 2 -0.004950 0.015545 -0.007446 0.000000 0.000000 0.000000
# 3 -0.000688 -0.007446 0.017266 0.000000 0.000000 0.000000
# 4 0.000000 0.000000 0.000000 0.042688 0.000000 0.000000
# 5 0.000000 0.000000 0.000000 0.000000 0.024302 0.000000
# 6 0.000000 0.000000 0.000000 0.000000 0.000000 0.017376
#
#
# Mechanical properties :
#
#
# Convention : Reuss Voigt Hill
#
# Bulk Modulus (GPa) = 61.26243 65.58726 63.42485
# Shear Modulus (GPa) = 31.55203 36.74142 34.14672
#
# Velocity S-wave (km/s) = 3.98588 4.30119 4.14654
# Velocity P-wave (km/s) = 7.21320 7.59552 7.40683
#
# Compressibility (1/GPa) = 0.01632322
#
# Stress axis : x y z
#
# Youngs Moduli (GPa) = 103.29251 64.32996 57.91657
#
# Poissons Ratio (x) = 0.31846 0.03986
# Poissons Ratio (y) = 0.51134 0.43124
# Poissons Ratio (z) = 0.07109 0.47899
#
# Static dielectric constant tensor:
#      x y z
#    x 3.611920 0.000000 0.000000 
#    y 0.000000 3.549750 0.000000 
#    z 0.000000 0.000000 3.837520 
# 
# 
# High freq. dielectric constant tensor:
#      x y z
#    x 1.793430 0.000000 0.000000 
#    y 0.000000 1.765760 0.000000 
#    z 0.000000 0.000000 1.795970 
# 
# From -- ./inp_files/29689.got.cif
#   From: 2010.03.12/outbox.cif.g09.slc.cpg/sg51_15_cif.got.tgz:29689.got - 2010.04.16 13:43:02.
