data_PCOD8212707
_publ_section_title
;
Structure prediction by ZEFSAII (Michael W. Deem and Ramdas Pophale) SiO2 
 PCOD8212707
Probable space group: P M M A
;
_chemical_formula_sum "Si O2"
_cell_formula_units_Z 48
_cell_length_a 8.728784
_cell_length_b 30.631265
_cell_length_c 9.352467
_cell_angle_alpha 90.000000
_cell_angle_beta 90.000000
_cell_angle_gamma 90.000000
_cell_volume 2500.603667
_symmetry_space_group_name_H-M "P M M A"
_symmetry_group_IT_number 51
_symmetry_cell_setting 'orthorhombic'
loop_
_space_group_symop_operation_xyz
x,y,z
1/2-x,-y,z
1/2+x,-y,-z
-x,y,-z
-x,-y,-z
1/2+x,y,-z
1/2-x,y,z
x,-y,z
loop_
_atom_site_type_symbol
_atom_site_label
_atom_site_fract_x
_atom_site_fract_y
_atom_site_fract_z
Si Si1 0.430807 0.094018 0.656043
Si Si2 0.928283 0.344742 0.646228
Si Si3 0.431095 0.423016 0.156842
Si Si4 0.568247 0.754143 0.650158
Si Si5 0.567557 0.500000 0.341890
Si Si6 0.567992 0.173943 0.155131
Si Si7 0.429222 0.000000 0.653848
O O1 0.500000 0.100365 0.500000
O O2 0.250000 0.097910 0.640290
O O3 0.493360 0.132059 0.757480
O O4 0.477776 0.046385 0.726251
O O5 0.750000 0.344897 0.617952
O O6 0.971488 0.375344 0.779860
O O7 0.984841 0.295669 0.679115
O O8 0.000000 0.363180 0.500000
O O9 0.250000 0.431682 0.151058
O O10 0.509887 0.457717 0.259073
O O11 0.500000 0.426794 0.000000
O O12 0.500000 0.770809 0.500000
O O13 0.750000 0.759549 0.647968
O O14 0.496482 0.782019 0.776687
O O15 0.750000 0.500000 0.349682
O O16 0.500000 0.500000 0.500000
O O17 0.750000 0.176252 0.149300
O O18 0.500000 0.168965 0.000000
O O19 0.500000 0.000000 0.500000
O O20 0.250000 0.000000 0.633284
#
# Coordination Sequence:
#
# PCOD8212707 Si02
#       7
#     8   8   8   8   4   8   4
#     4   9  18  32  53  77 102 132 171 215 264 317
#     4   9  20  37  59  85 113 144 183 226 272 323
#     4  11  23  40  60  86 118 153 189 229 276 327
#     4  10  20  37  59  84 111 143 182 226 271 322
#     4  12  25  42  63  88 116 150 190 234 279 328
#     4  11  23  37  52  75 106 143 181 223 272 325
#     4   8  14  28  49  74 100 128 164 212 261 312
#
# _framework density 19.195366
#
# number of rings (size 3 to 8) (size 9 to 14) (size 15 to 20)
#    0.000    2.000    0.000    3.500    0.000    6.667 
#    0.000    2.083    0.000    0.000    0.000    0.000 
#    0.000    0.000    0.000    0.000    0.000    0.000 
#
# Total GULP energy -595059.143778 kJ/mol
# GULP energy per Si atom -12397.065495 kJ/mol
# Density = 1.915168 g / cm^3
# Si number density = 19.195366 Si / 1000 Ang^3
#
#
#
# Elastic Constant Matrix: (Units=GPa)
#
#
# Indices 1 2 3 4 5 6 
#
# 1 75.9356 49.4140 50.2821 0.0000 0.0000 0.0000
# 2 49.4140 134.5194 81.7842 0.0000 0.0000 0.0000
# 3 50.2821 81.7842 149.6715 0.0000 0.0000 0.0000
# 4 0.0000 0.0000 0.0000 11.8820 0.0000 0.0000
# 5 0.0000 0.0000 0.0000 0.0000 35.2857 0.0000
# 6 0.0000 0.0000 0.0000 0.0000 0.0000 23.0812
#
#
#
# Elastic Compliance Matrix: (Units=1/GPa)
#
#
# Indices 1 2 3 4 5 6 
#
# 1 0.018627 -0.004549 -0.003772 0.000000 0.000000 0.000000
# 2 -0.004549 0.012243 -0.005162 0.000000 0.000000 0.000000
# 3 -0.003772 -0.005162 0.010769 0.000000 0.000000 0.000000
# 4 0.000000 0.000000 0.000000 0.084161 0.000000 0.000000
# 5 0.000000 0.000000 0.000000 0.000000 0.028340 0.000000
# 6 0.000000 0.000000 0.000000 0.000000 0.000000 0.043325
#
#
# Mechanical properties :
#
#
# Convention : Reuss Voigt Hill
#
# Bulk Modulus (GPa) = 68.14994 80.34300 74.24647
# Shear Modulus (GPa) = 21.80341 25.95955 23.88148
#
# Velocity S-wave (km/s) = 3.37392 3.68147 3.53105
# Velocity P-wave (km/s) = 7.12448 7.74708 7.44229
#
# Compressibility (1/GPa) = 0.01467353
#
# Stress axis : x y z
#
# Youngs Moduli (GPa) = 53.68550 81.67883 92.85970
#
# Poissons Ratio (x) = 0.37157 0.35026
# Poissons Ratio (y) = 0.24422 0.47931
# Poissons Ratio (z) = 0.20250 0.42160
#
# Static dielectric constant tensor:
#      x y z
#    x 3.559050 0.000000 0.000000 
#    y 0.000000 4.232870 0.000000 
#    z 0.000000 0.000000 3.409670 
# 
# 
# High freq. dielectric constant tensor:
#      x y z
#    x 1.752110 0.000000 0.000000 
#    y 0.000000 1.769560 0.000000 
#    z 0.000000 0.000000 1.732700 
# 
# From -- ./inp_files/6220.got.cif
#   From: 2010.03.12/outbox.cif.g09.slc.cpg/sg51_4_cif.got.tgz:6220.got - 2010.04.16 13:43:02.
