data_PCOD8212556
_publ_section_title
;
Structure prediction by ZEFSAII (Michael W. Deem and Ramdas Pophale) SiO2 
 PCOD8212556
Probable space group: P M M A
;
_chemical_formula_sum "Si O2"
_cell_formula_units_Z 48
_cell_length_a 28.052693
_cell_length_b 9.291133
_cell_length_c 9.677130
_cell_angle_alpha 90.000000
_cell_angle_beta 90.000000
_cell_angle_gamma 90.000000
_cell_volume 2522.259760
_symmetry_space_group_name_H-M "P M M A"
_symmetry_group_IT_number 51
_symmetry_cell_setting 'orthorhombic'
loop_
_space_group_symop_operation_xyz
x,y,z
1/2-x,-y,z
1/2+x,-y,-z
-x,y,-z
-x,-y,-z
1/2+x,y,-z
1/2-x,y,z
x,-y,z
loop_
_atom_site_type_symbol
_atom_site_label
_atom_site_fract_x
_atom_site_fract_y
_atom_site_fract_z
Si Si1 0.303902 0.839883 0.702260
Si Si2 0.861250 0.669295 0.509040
Si Si3 0.453686 0.831140 0.590207
Si Si4 0.957554 0.828828 0.094497
Si Si5 0.144795 0.837833 0.989350
Si Si6 0.803910 0.331278 0.778123
O O1 0.250000 0.804888 0.744878
O O2 0.321204 0.718333 0.598194
O O3 0.308053 0.000000 0.635778
O O4 0.336444 0.833659 0.835209
O O5 0.869647 0.500000 0.493926
O O6 0.910475 0.750747 0.484096
O O7 0.840623 0.712087 0.658262
O O8 0.500000 0.796631 0.500000
O O9 0.461074 0.772882 0.746958
O O10 0.441685 0.000000 0.591346
O O11 0.959924 0.000000 0.098590
O O12 0.909089 0.777531 0.019719
O O13 0.000000 0.764970 0.000000
O O14 0.178045 0.739945 0.082120
O O15 0.145601 0.000000 0.048788
O O16 0.750000 0.278201 0.744051
O O17 0.803728 0.500000 0.802435
#
# Coordination Sequence:
#
# PCOD8212556 Si02
#       6
#     8   8   8   8   8   8
#     4  10  20  36  59  86 115 147 189 243 294 343
#     4  11  23  39  59  83 118 157 195 238 289 346
#     4  10  21  38  62  88 115 149 192 239 291 347
#     4   9  18  34  57  87 117 145 181 231 288 344
#     4  10  20  36  60  87 117 147 187 241 291 341
#     4  10  23  41  57  79 116 158 197 236 281 339
#
# _framework density 19.030552
#
# number of rings (size 3 to 8) (size 9 to 14) (size 15 to 20)
#    0.000    2.000    1.667    1.500    2.333    4.333 
#    0.000    0.000    0.000    1.000    0.000    0.000 
#    0.000    0.000    0.000    0.000    0.000    0.000 
#
# Total GULP energy -595211.745876 kJ/mol
# GULP energy per Si atom -12400.244706 kJ/mol
# Density = 1.898724 g / cm^3
# Si number density = 19.030552 Si / 1000 Ang^3
#
#
#
# Elastic Constant Matrix: (Units=GPa)
#
#
# Indices 1 2 3 4 5 6 
#
# 1 115.0504 34.0562 28.8603 0.0000 0.0000 0.0000
# 2 34.0562 34.7536 33.1496 0.0000 0.0000 0.0000
# 3 28.8603 33.1496 79.2536 0.0000 0.0000 0.0000
# 4 0.0000 0.0000 0.0000 39.2655 0.0000 0.0000
# 5 0.0000 0.0000 0.0000 0.0000 33.0148 0.0000
# 6 0.0000 0.0000 0.0000 0.0000 0.0000 15.5984
#
#
#
# Elastic Compliance Matrix: (Units=1/GPa)
#
#
# Indices 1 2 3 4 5 6 
#
# 1 0.012285 -0.012930 0.000935 0.000000 0.000000 0.000000
# 2 -0.012930 0.061483 -0.021008 0.000000 0.000000 0.000000
# 3 0.000935 -0.021008 0.021065 0.000000 0.000000 0.000000
# 4 0.000000 0.000000 0.000000 0.025468 0.000000 0.000000
# 5 0.000000 0.000000 0.000000 0.000000 0.030289 0.000000
# 6 0.000000 0.000000 0.000000 0.000000 0.000000 0.064109
#
#
# Mechanical properties :
#
#
# Convention : Reuss Voigt Hill
#
# Bulk Modulus (GPa) = 34.69142 46.79886 40.74514
# Shear Modulus (GPa) = 17.22277 26.44185 21.83231
#
# Velocity S-wave (km/s) = 3.01160 3.73157 3.39074
# Velocity P-wave (km/s) = 5.51016 6.57350 6.06518
#
# Compressibility (1/GPa) = 0.02882557
#
# Stress axis : x y z
#
# Youngs Moduli (GPa) = 81.40189 16.26470 47.47323
#
# Poissons Ratio (x) = 0.21030 -0.04437
# Poissons Ratio (y) = 1.05250 0.99733
# Poissons Ratio (z) = -0.07608 0.34169
#
# Static dielectric constant tensor:
#      x y z
#    x 3.779730 0.000000 0.000000 
#    y 0.000000 3.284140 0.000000 
#    z 0.000000 0.000000 3.549660 
# 
# 
# High freq. dielectric constant tensor:
#      x y z
#    x 1.760350 0.000000 0.000000 
#    y 0.000000 1.712970 0.000000 
#    z 0.000000 0.000000 1.742670 
# 
# From -- ./inp_files/12793.got.cif
#   From: 2010.03.12/outbox.cif.g09.slc.cpg/sg51_7_cif.got.tgz:12793.got - 2010.04.16 13:43:02.
