data_PCOD8212103
_publ_section_title
;
Structure prediction by ZEFSAII (Michael W. Deem and Ramdas Pophale) SiO2 
 PCOD8212103
Probable space group: P M M A
;
_chemical_formula_sum "Si O2"
_cell_formula_units_Z 56
_cell_length_a 17.954684
_cell_length_b 23.836059
_cell_length_c 7.113895
_cell_angle_alpha 90.000000
_cell_angle_beta 90.000000
_cell_angle_gamma 90.000000
_cell_volume 3044.525869
_symmetry_space_group_name_H-M "P M M A"
_symmetry_group_IT_number 51
_symmetry_cell_setting 'orthorhombic'
loop_
_space_group_symop_operation_xyz
x,y,z
1/2-x,-y,z
1/2+x,-y,-z
-x,y,-z
-x,-y,-z
1/2+x,y,-z
1/2-x,y,z
x,-y,z
loop_
_atom_site_type_symbol
_atom_site_label
_atom_site_fract_x
_atom_site_fract_y
_atom_site_fract_z
Si Si1 0.337813 0.358890 0.268113
Si Si2 0.086102 0.437200 0.983212
Si Si3 0.836836 0.064481 0.731999
Si Si4 0.088285 0.852587 0.994024
Si Si5 0.334669 0.437425 0.598698
Si Si6 0.835946 0.852188 0.405694
Si Si7 0.162689 0.768244 0.268841
O O1 0.250000 0.360261 0.254138
O O2 0.365082 0.392872 0.449418
O O3 0.366784 0.295275 0.280765
O O4 0.368664 0.389154 0.085958
O O5 0.103958 0.500000 0.060843
O O6 0.108597 0.433009 0.768047
O O7 0.000000 0.423289 0.000000
O O8 0.750000 0.072366 0.779446
O O9 0.855342 0.093647 0.533090
O O10 0.860201 0.000000 0.714922
O O11 0.882361 0.091544 0.903252
O O12 0.112847 0.852349 0.777182
O O13 0.119725 0.797900 0.098676
O O14 0.000000 0.851657 0.000000
O O15 0.250000 0.423597 0.663033
O O16 0.337576 0.500000 0.510778
O O17 0.750000 0.853014 0.341890
O O18 0.853704 0.797211 0.530677
O O19 0.250000 0.771977 0.221721
#
# Coordination Sequence:
#
# PCOD8212103 Si02
#       7
#     8   8   8   8   8   8   8
#     4  10  20  35  56  78 100 131 174 224 271 309
#     4  10  21  35  51  75 108 142 172 206 257 322
#     4   9  19  36  57  82 109 138 181 227 257 299
#     4  11  22  35  54  81 113 146 176 212 263 316
#     4   9  18  33  53  76 100 129 170 217 263 314
#     4   9  18  36  58  75 100 141 180 216 263 311
#     4   9  20  37  55  77 102 133 180 227 261 307
#
# _framework density 18.393668999999999
#
# number of rings (size 3 to 8) (size 9 to 14) (size 15 to 20)
#    0.000    2.429    0.000    3.000    0.000    6.857 
#    0.000    8.571    0.000    0.000    0.000    0.000 
#    0.000    0.000    0.000    0.000    0.000    0.000 
#
# Total GULP energy -694432.871756 kJ/mol
# GULP energy per Si atom -12400.586996 kJ/mol
# Density = 1.835180 g / cm^3
# Si number density = 18.393669 Si / 1000 Ang^3
#
#
#
# Elastic Constant Matrix: (Units=GPa)
#
#
# Indices 1 2 3 4 5 6 
#
# 1 51.4472 33.9165 41.9522 0.0000 0.0000 0.0000
# 2 33.9165 158.9433 63.7381 0.0000 0.0000 0.0000
# 3 41.9522 63.7381 111.2339 0.0000 0.0000 0.0000
# 4 0.0000 0.0000 0.0000 18.8587 0.0000 0.0000
# 5 0.0000 0.0000 0.0000 0.0000 6.4251 0.0000
# 6 0.0000 0.0000 0.0000 0.0000 0.0000 11.1966
#
#
#
# Elastic Compliance Matrix: (Units=1/GPa)
#
#
# Indices 1 2 3 4 5 6 
#
# 1 0.028713 -0.002317 -0.009502 0.000000 0.000000 0.000000
# 2 -0.002317 0.008355 -0.003914 0.000000 0.000000 0.000000
# 3 -0.009502 -0.003914 0.014816 0.000000 0.000000 0.000000
# 4 0.000000 0.000000 0.000000 0.053026 0.000000 0.000000
# 5 0.000000 0.000000 0.000000 0.000000 0.155640 0.000000
# 6 0.000000 0.000000 0.000000 0.000000 0.000000 0.089313
#
#
# Mechanical properties :
#
#
# Convention : Reuss Voigt Hill
#
# Bulk Modulus (GPa) = 48.97176 66.75978 57.86577
# Shear Modulus (GPa) = 12.88214 19.43059 16.15636
#
# Velocity S-wave (km/s) = 2.64930 3.25372 2.96694
# Velocity P-wave (km/s) = 6.00337 7.10558 6.57760
#
# Compressibility (1/GPa) = 0.02041993
#
# Stress axis : x y z
#
# Youngs Moduli (GPa) = 34.82791 119.68208 67.49287
#
# Poissons Ratio (x) = 0.27727 0.64129
# Poissons Ratio (y) = 0.08069 0.26417
# Poissons Ratio (z) = 0.33092 0.46844
#
# Static dielectric constant tensor:
#      x y z
#    x 3.214880 0.000000 0.000000 
#    y 0.000000 3.696990 0.000000 
#    z 0.000000 0.000000 3.252600 
# 
# 
# High freq. dielectric constant tensor:
#      x y z
#    x 1.702100 0.000000 0.000000 
#    y 0.000000 1.719370 0.000000 
#    z 0.000000 0.000000 1.712900 
# 
# From -- ./inp_files/2621.got.cif
#   From: 2010.03.12/outbox.cif.g09.slc.cpg/sg51_2_cif.got.tgz:2621.got - 2010.04.16 13:43:02.
