data_PCOD8212005
_publ_section_title
;
Structure prediction by ZEFSAII (Michael W. Deem and Ramdas Pophale) SiO2 
 PCOD8212005
Probable space group: P M M A
;
_chemical_formula_sum "Si O2"
_cell_formula_units_Z 64
_cell_length_a 9.052038
_cell_length_b 18.927046
_cell_length_c 19.466877
_cell_angle_alpha 90.000000
_cell_angle_beta 90.000000
_cell_angle_gamma 90.000000
_cell_volume 3335.227714
_symmetry_space_group_name_H-M "P M M A"
_symmetry_group_IT_number 51
_symmetry_cell_setting 'orthorhombic'
loop_
_space_group_symop_operation_xyz
x,y,z
1/2-x,-y,z
1/2+x,-y,-z
-x,y,-z
-x,-y,-z
1/2+x,y,-z
1/2-x,y,z
x,-y,z
loop_
_atom_site_type_symbol
_atom_site_label
_atom_site_fract_x
_atom_site_fract_y
_atom_site_fract_z
Si Si1 0.076067 0.921549 0.816693
Si Si2 0.574659 0.155968 0.319285
Si Si3 0.585575 0.917276 0.564583
Si Si4 0.919352 0.578579 0.064360
Si Si5 0.576527 0.419310 0.571187
Si Si6 0.420985 0.309480 0.825084
Si Si7 0.425159 0.697943 0.318118
Si Si8 0.576872 0.186416 0.072976
O O1 0.250000 0.929456 0.809135
O O2 0.022922 0.868035 0.756875
O O3 0.035409 0.887919 0.890573
O O4 0.003450 0.000000 0.811103
O O5 0.750000 0.162402 0.325338
O O6 0.513389 0.095735 0.368816
O O7 0.501373 0.229568 0.342087
O O8 0.500000 0.882866 0.500000
O O9 0.750000 0.883596 0.570921
O O10 0.601582 0.000000 0.553787
O O11 0.750000 0.578015 0.043730
O O12 0.983404 0.500000 0.074874
O O13 0.944439 0.617653 0.135551
O O14 0.000000 0.616242 0.000000
O O15 0.500000 0.396924 0.500000
O O16 0.750000 0.413054 0.559206
O O17 0.532624 0.500000 0.591642
O O18 0.525174 0.365935 0.631542
O O19 0.250000 0.295839 0.803753
O O20 0.520777 0.317685 0.758486
O O21 0.476926 0.247615 0.875399
O O22 0.250000 0.707173 0.318627
O O23 0.750000 0.194164 0.059908
O O24 0.500000 0.191933 0.000000
#
# Coordination Sequence:
#
# PCOD8212005 Si02
#       8
#     8   8   8   8   8   8   8   8
#     4   9  18  34  56  79 105 142 186 229 280 341
#     4  11  21  37  59  82 113 152 192 236 288 344
#     4  10  21  37  57  84 117 151 191 237 283 336
#     4   9  18  32  51  76 107 142 181 226 274 333
#     4   9  20  40  63  87 116 150 188 230 276 329
#     4  10  20  36  54  76 109 146 186 228 278 338
#     4  11  23  37  57  85 116 146 185 233 281 333
#     4  10  20  35  54  78 106 140 182 229 281 339
#
# _framework density 19.189094000000001
#
# number of rings (size 3 to 8) (size 9 to 14) (size 15 to 20)
#    0.000    2.125    1.250    1.875    0.000    4.500 
#    0.000    1.250    0.000    1.500    0.000    0.000 
#    0.000    0.000    0.000    0.000    0.000    0.000 
#
# Total GULP energy -793448.681455 kJ/mol
# GULP energy per Si atom -12397.635648 kJ/mol
# Density = 1.914542 g / cm^3
# Si number density = 19.189094 Si / 1000 Ang^3
#
#
#
# Elastic Constant Matrix: (Units=GPa)
#
#
# Indices 1 2 3 4 5 6 
#
# 1 69.6833 38.0428 54.4742 0.0000 0.0000 0.0000
# 2 38.0428 102.4848 54.9954 0.0000 0.0000 0.0000
# 3 54.4742 54.9954 142.1257 0.0000 0.0000 0.0000
# 4 0.0000 0.0000 0.0000 24.5637 0.0000 0.0000
# 5 0.0000 0.0000 0.0000 0.0000 36.0930 0.0000
# 6 0.0000 0.0000 0.0000 0.0000 0.0000 23.9444
#
#
#
# Elastic Compliance Matrix: (Units=1/GPa)
#
#
# Indices 1 2 3 4 5 6 
#
# 1 0.022094 -0.004616 -0.006682 0.000000 0.000000 0.000000
# 2 -0.004616 0.013279 -0.003369 0.000000 0.000000 0.000000
# 3 -0.006682 -0.003369 0.010901 0.000000 0.000000 0.000000
# 4 0.000000 0.000000 0.000000 0.040710 0.000000 0.000000
# 5 0.000000 0.000000 0.000000 0.000000 0.027706 0.000000
# 6 0.000000 0.000000 0.000000 0.000000 0.000000 0.041763
#
#
# Mechanical properties :
#
#
# Convention : Reuss Voigt Hill
#
# Bulk Modulus (GPa) = 59.03235 67.70206 63.36721
# Shear Modulus (GPa) = 26.11853 28.03900 27.07876
#
# Velocity S-wave (km/s) = 3.69333 3.82670 3.76061
# Velocity P-wave (km/s) = 7.00127 7.40831 7.20766
#
# Compressibility (1/GPa) = 0.01693986
#
# Stress axis : x y z
#
# Youngs Moduli (GPa) = 45.26047 75.30786 91.73528
#
# Poissons Ratio (x) = 0.34759 0.61301
# Poissons Ratio (y) = 0.20891 0.30907
# Poissons Ratio (z) = 0.30245 0.25372
#
# Static dielectric constant tensor:
#      x y z
#    x 3.412700 0.000000 0.000000 
#    y 0.000000 3.753970 0.000000 
#    z 0.000000 0.000000 3.536290 
# 
# 
# High freq. dielectric constant tensor:
#      x y z
#    x 1.731980 0.000000 0.000000 
#    y 0.000000 1.750230 0.000000 
#    z 0.000000 0.000000 1.750400 
# 
# From -- ./inp_files/28399.got.cif
#   From: 2010.03.12/outbox.cif.g09.slc.cpg/sg51_15_cif.got.tgz:28399.got - 2010.04.16 13:43:02.
