data_PCOD8212628
_publ_section_title
;
Structure prediction by ZEFSAII (Michael W. Deem and Ramdas Pophale) SiO2 
 PCOD8212628
Probable space group: P M M A
;
_chemical_formula_sum "Si O2"
_cell_formula_units_Z 48
_cell_length_a 14.417242
_cell_length_b 9.047325
_cell_length_c 19.565229
_cell_angle_alpha 90.000000
_cell_angle_beta 90.000000
_cell_angle_gamma 90.000000
_cell_volume 2552.039049
_symmetry_space_group_name_H-M "P M M A"
_symmetry_group_IT_number 51
_symmetry_cell_setting 'orthorhombic'
loop_
_space_group_symop_operation_xyz
x,y,z
1/2-x,-y,z
1/2+x,-y,-z
-x,y,-z
-x,-y,-z
1/2+x,y,-z
1/2-x,y,z
x,-y,z
loop_
_atom_site_type_symbol
_atom_site_label
_atom_site_fract_x
_atom_site_fract_y
_atom_site_fract_z
Si Si1 0.855293 0.669937 0.573744
Si Si2 0.750000 0.174336 0.129106
Si Si3 0.447761 0.329749 0.069629
Si Si4 0.019683 0.672349 0.671426
Si Si5 0.750000 0.669395 0.985415
Si Si6 0.554815 0.174824 0.187175
Si Si7 0.640394 0.831729 0.437871
O O1 0.750000 0.711414 0.593882
O O2 0.863166 0.500000 0.550598
O O3 0.892017 0.767562 0.510745
O O4 0.918627 0.702750 0.639170
O O5 0.659009 0.229336 0.169583
O O6 0.750000 0.000000 0.122841
O O7 0.750000 0.233900 0.052846
O O8 0.465715 0.500000 0.090171
O O9 0.339112 0.295849 0.060844
O O10 0.484893 0.223093 0.128030
O O11 0.500000 0.290200 0.000000
O O12 0.038866 0.500000 0.681521
O O13 0.021209 0.751379 0.743649
O O14 0.098877 0.737166 0.623259
O O15 0.750000 0.500000 0.010022
O O16 0.550896 0.000000 0.195640
O O17 0.750000 0.819345 0.431001
O O18 0.605939 0.000000 0.432353
#
# Coordination Sequence:
#
# PCOD8212628 Si02
#       7
#     8   4   8   8   4   8   8
#     4   9  19  38  61  83 110 146 190 237 283 333
#     4  10  22  38  58  84 114 149 184 227 286 342
#     4  10  20  37  61  88 116 147 190 235 279 335
#     4  11  23  38  58  84 114 151 193 235 282 337
#     4  10  20  36  62  90 114 145 186 237 284 330
#     4  11  24  40  58  83 118 154 188 232 285 341
#     4  10  21  36  57  86 118 150 186 231 283 339
#
# _framework density 18.808489999999999
#
# number of rings (size 3 to 8) (size 9 to 14) (size 15 to 20)
#    0.000    1.833    1.667    2.000    1.167    6.000 
#    1.500    0.000    0.000    0.000    0.000    0.000 
#    0.000    0.000    0.000    0.000    0.000    0.000 
#
# Total GULP energy -595420.463143 kJ/mol
# GULP energy per Si atom -12404.592982 kJ/mol
# Density = 1.876568 g / cm^3
# Si number density = 18.808490 Si / 1000 Ang^3
#
#
#
# Elastic Constant Matrix: (Units=GPa)
#
#
# Indices 1 2 3 4 5 6 
#
# 1 102.6666 44.8545 58.4200 0.0000 0.0000 0.0000
# 2 44.8545 73.8687 63.1598 0.0000 0.0000 0.0000
# 3 58.4200 63.1598 135.4523 0.0000 0.0000 0.0000
# 4 0.0000 0.0000 0.0000 97.5714 0.0000 0.0000
# 5 0.0000 0.0000 0.0000 0.0000 18.3301 0.0000
# 6 0.0000 0.0000 0.0000 0.0000 0.0000 28.0435
#
#
#
# Elastic Compliance Matrix: (Units=1/GPa)
#
#
# Indices 1 2 3 4 5 6 
#
# 1 0.014187 -0.005626 -0.003496 0.000000 0.000000 0.000000
# 2 -0.005626 0.024744 -0.009112 0.000000 0.000000 0.000000
# 3 -0.003496 -0.009112 0.013139 0.000000 0.000000 0.000000
# 4 0.000000 0.000000 0.000000 0.010249 0.000000 0.000000
# 5 0.000000 0.000000 0.000000 0.000000 0.054555 0.000000
# 6 0.000000 0.000000 0.000000 0.000000 0.000000 0.035659
#
#
# Mechanical properties :
#
#
# Convention : Reuss Voigt Hill
#
# Bulk Modulus (GPa) = 64.08466 71.65068 67.86767
# Shear Modulus (GPa) = 25.74650 38.49256 32.11953
#
# Velocity S-wave (km/s) = 3.70385 4.52879 4.13693
# Velocity P-wave (km/s) = 7.24137 8.09470 7.67990
#
# Compressibility (1/GPa) = 0.01560436
#
# Stress axis : x y z
#
# Youngs Moduli (GPa) = 70.48557 40.41321 76.10971
#
# Poissons Ratio (x) = 0.22736 0.26605
# Poissons Ratio (y) = 0.39655 0.69348
# Poissons Ratio (z) = 0.24639 0.36823
#
# Static dielectric constant tensor:
#      x y z
#    x 3.718310 0.000000 0.000000 
#    y 0.000000 3.544280 0.000000 
#    z 0.000000 0.000000 3.425520 
# 
# 
# High freq. dielectric constant tensor:
#      x y z
#    x 1.743380 0.000000 0.000000 
#    y 0.000000 1.735110 0.000000 
#    z 0.000000 0.000000 1.724780 
# 
# From -- ./inp_files/29652.got.cif
#   From: 2010.03.12/outbox.cif.g09.slc.cpg/sg51_15_cif.got.tgz:29652.got - 2010.04.16 13:43:02.
