data_PCOD8212069
_publ_section_title
;
Structure prediction by ZEFSAII (Michael W. Deem and Ramdas Pophale) SiO2 
 PCOD8212069
Probable space group: P M M A
;
_chemical_formula_sum "Si O2"
_cell_formula_units_Z 48
_cell_length_a 8.934526
_cell_length_b 30.015739
_cell_length_c 9.458161
_cell_angle_alpha 90.000000
_cell_angle_beta 90.000000
_cell_angle_gamma 90.000000
_cell_volume 2536.455572
_symmetry_space_group_name_H-M "P M M A"
_symmetry_group_IT_number 51
_symmetry_cell_setting 'orthorhombic'
loop_
_space_group_symop_operation_xyz
x,y,z
1/2-x,-y,z
1/2+x,-y,-z
-x,y,-z
-x,-y,-z
1/2+x,y,-z
1/2-x,y,z
x,-y,z
loop_
_atom_site_type_symbol
_atom_site_label
_atom_site_fract_x
_atom_site_fract_y
_atom_site_fract_z
Si Si1 0.077330 0.754992 0.144026
Si Si2 0.424000 0.177998 0.649237
Si Si3 0.576691 0.921494 0.350551
Si Si4 0.927954 0.417163 0.347131
Si Si5 0.424370 0.651288 0.147944
Si Si6 0.925108 0.500000 0.153043
Si Si7 0.572750 0.000000 0.151812
O O1 0.250000 0.767361 0.132983
O O2 0.052635 0.703253 0.178177
O O3 0.001137 0.784001 0.262116
O O4 0.000000 0.768814 0.000000
O O5 0.500000 0.180445 0.500000
O O6 0.250000 0.189069 0.636113
O O7 0.451554 0.128287 0.710662
O O8 0.500000 0.929758 0.500000
O O9 0.750000 0.929905 0.378934
O O10 0.515556 0.956317 0.235457
O O11 0.750000 0.412963 0.364285
O O12 0.974591 0.457215 0.243338
O O13 0.000000 0.425526 0.500000
O O14 0.994860 0.372571 0.278655
O O15 0.250000 0.638131 0.140747
O O16 0.500000 0.636976 0.000000
O O17 0.750000 0.500000 0.125841
O O18 0.000000 0.500000 0.000000
O O19 0.750000 0.000000 0.133717
O O20 0.500000 0.000000 0.000000
#
# Coordination Sequence:
#
# PCOD8212069 Si02
#       7
#     8   8   8   8   8   4   4
#     4  10  21  37  57  81 110 145 183 225 274 325
#     4  10  20  35  55  80 109 141 180 224 270 322
#     4   9  19  35  55  78 104 137 177 219 263 317
#     4  11  23  39  59  85 116 149 186 229 277 324
#     4  10  21  38  59  83 111 145 186 228 272 326
#     4  10  23  40  60  86 114 148 187 226 271 326
#     4  10  21  36  52  76 108 138 173 216 264 316
#
# _framework density 18.924046000000001
#
# number of rings (size 3 to 8) (size 9 to 14) (size 15 to 20)
#    0.000    2.000    0.000    3.000    0.000    7.333 
#    0.000    1.667    0.000    0.000    0.000    0.000 
#    0.000    0.000    0.000    0.000    0.000    0.000 
#
# Total GULP energy -595286.009208 kJ/mol
# GULP energy per Si atom -12401.791858 kJ/mol
# Density = 1.888097 g / cm^3
# Si number density = 18.924046 Si / 1000 Ang^3
#
#
#
# Elastic Constant Matrix: (Units=GPa)
#
#
# Indices 1 2 3 4 5 6 
#
# 1 106.3907 55.3947 58.9457 0.0000 0.0000 0.0000
# 2 55.3947 88.6113 58.5440 0.0000 0.0000 0.0000
# 3 58.9457 58.5440 112.7102 0.0000 0.0000 0.0000
# 4 0.0000 0.0000 0.0000 29.5852 0.0000 0.0000
# 5 0.0000 0.0000 0.0000 0.0000 42.1320 0.0000
# 6 0.0000 0.0000 0.0000 0.0000 0.0000 31.3819
#
#
#
# Elastic Compliance Matrix: (Units=1/GPa)
#
#
# Indices 1 2 3 4 5 6 
#
# 1 0.015381 -0.006548 -0.004643 0.000000 0.000000 0.000000
# 2 -0.006548 0.019969 -0.006948 0.000000 0.000000 0.000000
# 3 -0.004643 -0.006948 0.014909 0.000000 0.000000 0.000000
# 4 0.000000 0.000000 0.000000 0.033801 0.000000 0.000000
# 5 0.000000 0.000000 0.000000 0.000000 0.023735 0.000000
# 6 0.000000 0.000000 0.000000 0.000000 0.000000 0.031865
#
#
# Mechanical properties :
#
#
# Convention : Reuss Voigt Hill
#
# Bulk Modulus (GPa) = 71.52039 72.60900 72.06470
# Shear Modulus (GPa) = 27.68578 29.60835 28.64707
#
# Velocity S-wave (km/s) = 3.82906 3.95978 3.89497
# Velocity P-wave (km/s) = 7.57789 7.70444 7.64143
#
# Compressibility (1/GPa) = 0.01398203
#
# Stress axis : x y z
#
# Youngs Moduli (GPa) = 65.01525 50.07803 67.07196
#
# Poissons Ratio (x) = 0.32790 0.31141
# Poissons Ratio (y) = 0.42571 0.46600
# Poissons Ratio (z) = 0.30186 0.34793
#
# Static dielectric constant tensor:
#      x y z
#    x 3.580650 0.000000 0.000000 
#    y 0.000000 3.771200 0.000000 
#    z 0.000000 0.000000 3.432690 
# 
# 
# High freq. dielectric constant tensor:
#      x y z
#    x 1.745780 0.000000 0.000000 
#    y 0.000000 1.747790 0.000000 
#    z 0.000000 0.000000 1.735420 
# 
# From -- ./inp_files/6193.got.cif
#   From: 2010.03.12/outbox.cif.g09.slc.cpg/sg51_4_cif.got.tgz:6193.got - 2010.04.16 13:43:02.
