data_PCOD8212812
_publ_section_title
;
Structure prediction by ZEFSAII (Michael W. Deem and Ramdas Pophale) SiO2 
 PCOD8212812
Probable space group: P M M A
;
_chemical_formula_sum "Si O2"
_cell_formula_units_Z 44
_cell_length_a 8.968550
_cell_length_b 16.754569
_cell_length_c 15.204484
_cell_angle_alpha 90.000000
_cell_angle_beta 90.000000
_cell_angle_gamma 90.000000
_cell_volume 2284.689470
_symmetry_space_group_name_H-M "P M M A"
_symmetry_group_IT_number 51
_symmetry_cell_setting 'orthorhombic'
loop_
_space_group_symop_operation_xyz
x,y,z
1/2-x,-y,z
1/2+x,-y,-z
-x,y,-z
-x,-y,-z
1/2+x,y,-z
1/2-x,y,z
x,-y,z
loop_
_atom_site_type_symbol
_atom_site_label
_atom_site_fract_x
_atom_site_fract_y
_atom_site_fract_z
Si Si1 0.070015 0.500000 0.901931
Si Si2 0.574268 0.090997 0.591123
Si Si3 0.088902 0.591178 0.419766
Si Si4 0.425509 0.908925 0.086793
Si Si5 0.926561 0.807649 0.753603
Si Si6 0.572089 0.374326 0.772439
O O1 0.250000 0.500000 0.908052
O O2 0.013662 0.578397 0.849331
O O3 0.000000 0.500000 0.000000
O O4 0.500000 0.115433 0.500000
O O5 0.750000 0.098506 0.580180
O O6 0.512308 0.154296 0.662939
O O7 0.531614 0.000000 0.618477
O O8 0.250000 0.634705 0.414394
O O9 0.111237 0.500000 0.446710
O O10 0.015068 0.595436 0.323215
O O11 0.000000 0.633608 0.500000
O O12 0.250000 0.898912 0.078346
O O13 0.492360 0.860352 0.167925
O O14 0.473388 0.000000 0.100743
O O15 0.500000 0.872829 0.000000
O O16 0.750000 0.813822 0.751714
O O17 0.976860 0.717689 0.773253
O O18 0.750000 0.387716 0.784567
#
# Coordination Sequence:
#
# PCOD8212812 Si02
#       6
#     4   8   8   8   8   8
#     4  12  26  44  65  84 105 138 179 222 276 336
#     4   9  17  31  51  77 111 152 195 231 266 314
#     4   9  17  30  50  75 103 135 168 208 257 307
#     4   9  17  31  51  75 102 133 170 211 257 311
#     4   9  18  32  54  79 105 142 180 219 266 318
#     4  10  20  38  59  81 110 141 180 227 275 324
#
# _framework density 19.258635000000002
#
# number of rings (size 3 to 8) (size 9 to 14) (size 15 to 20)
#    0.000    2.545    0.909    1.364    0.000    4.364 
#    0.000    4.545    0.000    4.364    0.000    0.000 
#    0.000    0.000    0.000    0.000    0.000    0.000 
#
# Total GULP energy -545287.615837 kJ/mol
# GULP energy per Si atom -12392.900360 kJ/mol
# Density = 1.921480 g / cm^3
# Si number density = 19.258635 Si / 1000 Ang^3
#
#
#
# Elastic Constant Matrix: (Units=GPa)
#
#
# Indices 1 2 3 4 5 6 
#
# 1 49.2984 31.4803 52.6380 0.0000 0.0000 0.0000
# 2 31.4803 115.5505 80.9555 0.0000 0.0000 0.0000
# 3 52.6380 80.9555 193.4667 0.0000 0.0000 0.0000
# 4 0.0000 0.0000 0.0000 13.5962 0.0000 0.0000
# 5 0.0000 0.0000 0.0000 0.0000 33.8434 0.0000
# 6 0.0000 0.0000 0.0000 0.0000 0.0000 16.6965
#
#
#
# Elastic Compliance Matrix: (Units=1/GPa)
#
#
# Indices 1 2 3 4 5 6 
#
# 1 0.029514 -0.003416 -0.006601 0.000000 0.000000 0.000000
# 2 -0.003416 0.012639 -0.004359 0.000000 0.000000 0.000000
# 3 -0.006601 -0.004359 0.008789 0.000000 0.000000 0.000000
# 4 0.000000 0.000000 0.000000 0.073550 0.000000 0.000000
# 5 0.000000 0.000000 0.000000 0.000000 0.029548 0.000000
# 6 0.000000 0.000000 0.000000 0.000000 0.000000 0.059893
#
#
# Mechanical properties :
#
#
# Convention : Reuss Voigt Hill
#
# Bulk Modulus (GPa) = 45.06633 76.49592 60.78113
# Shear Modulus (GPa) = 19.99351 25.71000 22.85175
#
# Velocity S-wave (km/s) = 3.22554 3.65771 3.44840
# Velocity P-wave (km/s) = 6.10930 7.59243 6.89088
#
# Compressibility (1/GPa) = 0.02218952
#
# Stress axis : x y z
#
# Youngs Moduli (GPa) = 33.88244 79.11946 113.78070
#
# Poissons Ratio (x) = 0.27030 0.75101
# Poissons Ratio (y) = 0.11575 0.49600
# Poissons Ratio (z) = 0.22364 0.34490
#
# Static dielectric constant tensor:
#      x y z
#    x 3.352500 0.000000 0.000000 
#    y 0.000000 3.581560 0.000000 
#    z 0.000000 0.000000 3.842820 
# 
# 
# High freq. dielectric constant tensor:
#      x y z
#    x 1.714250 0.000000 0.000000 
#    y 0.000000 1.742730 0.000000 
#    z 0.000000 0.000000 1.763690 
# 
# From -- ./inp_files/20927.got.cif
#   From: 2010.03.12/outbox.cif.g09.slc.cpg/sg51_11_cif.got.tgz:20927.got - 2010.04.16 13:43:02.
