data_PCOD8212085
_publ_section_title
;
Structure prediction by ZEFSAII (Michael W. Deem and Ramdas Pophale) SiO2 
 PCOD8212085
Probable space group: P M M A
;
_chemical_formula_sum "Si O2"
_cell_formula_units_Z 48
_cell_length_a 28.829934
_cell_length_b 8.991400
_cell_length_c 9.920184
_cell_angle_alpha 90.000000
_cell_angle_beta 90.000000
_cell_angle_gamma 90.000000
_cell_volume 2571.524665
_symmetry_space_group_name_H-M "P M M A"
_symmetry_group_IT_number 51
_symmetry_cell_setting 'orthorhombic'
loop_
_space_group_symop_operation_xyz
x,y,z
1/2-x,-y,z
1/2+x,-y,-z
-x,y,-z
-x,-y,-z
1/2+x,y,-z
1/2-x,y,z
x,-y,z
loop_
_atom_site_type_symbol
_atom_site_label
_atom_site_fract_x
_atom_site_fract_y
_atom_site_fract_z
Si Si1 0.021026 0.675834 0.361842
Si Si2 0.128416 0.170900 0.986876
Si Si3 0.698649 0.176874 0.234444
Si Si4 0.971996 0.169169 0.127335
Si Si5 0.695802 0.173722 0.536223
Si Si6 0.377996 0.323438 0.272866
O O1 0.022394 0.500000 0.364800
O O2 0.073104 0.736520 0.333542
O O3 0.000000 0.740808 0.500000
O O4 0.984727 0.726640 0.250397
O O5 0.166565 0.238988 0.885042
O O6 0.081828 0.182964 0.901878
O O7 0.138821 0.000000 0.026935
O O8 0.127302 0.267539 0.120772
O O9 0.750000 0.238995 0.206459
O O10 0.682500 0.226080 0.384347
O O11 0.698476 0.000000 0.231771
O O12 0.986787 0.000000 0.160202
O O13 0.000000 0.229994 0.000000
O O14 0.750000 0.206636 0.564728
O O15 0.664668 0.265484 0.639300
O O16 0.685351 0.000000 0.556289
O O17 0.376763 0.500000 0.271717
#
# Coordination Sequence:
#
# PCOD8212085 Si02
#       6
#     8   8   8   8   8   8
#     4  10  23  40  55  76 109 149 188 225 270 329
#     4  10  20  35  56  82 111 142 180 227 276 329
#     4   8  16  33  57  83 107 134 174 221 268 322
#     4  10  20  35  55  81 110 141 180 227 276 322
#     4   9  19  37  60  83 108 141 179 221 272 325
#     4  11  23  37  54  80 112 146 184 225 270 321
#
# _framework density 18.665970999999999
#
# number of rings (size 3 to 8) (size 9 to 14) (size 15 to 20)
#    0.000    2.333    1.667    1.500    2.333    3.000 
#    0.000    2.500    0.000    1.000    0.000    0.000 
#    0.000    0.000    0.000    0.000    0.000    0.000 
#
# Total GULP energy -595133.394915 kJ/mol
# GULP energy per Si atom -12398.612394 kJ/mol
# Density = 1.862349 g / cm^3
# Si number density = 18.665971 Si / 1000 Ang^3
#
#
#
# Elastic Constant Matrix: (Units=GPa)
#
#
# Indices 1 2 3 4 5 6 
#
# 1 102.0894 32.9904 72.8821 0.0000 0.0000 0.0000
# 2 32.9904 32.9183 32.7816 0.0000 0.0000 0.0000
# 3 72.8821 32.7816 139.8401 0.0000 0.0000 0.0000
# 4 0.0000 0.0000 0.0000 25.7617 0.0000 0.0000
# 5 0.0000 0.0000 0.0000 0.0000 38.7374 0.0000
# 6 0.0000 0.0000 0.0000 0.0000 0.0000 30.7184
#
#
#
# Elastic Compliance Matrix: (Units=1/GPa)
#
#
# Indices 1 2 3 4 5 6 
#
# 1 0.018491 -0.011656 -0.006905 0.000000 0.000000 0.000000
# 2 -0.011656 0.046976 -0.004938 0.000000 0.000000 0.000000
# 3 -0.006905 -0.004938 0.011907 0.000000 0.000000 0.000000
# 4 0.000000 0.000000 0.000000 0.038817 0.000000 0.000000
# 5 0.000000 0.000000 0.000000 0.000000 0.025815 0.000000
# 6 0.000000 0.000000 0.000000 0.000000 0.000000 0.032554
#
#
# Mechanical properties :
#
#
# Convention : Reuss Voigt Hill
#
# Bulk Modulus (GPa) = 32.91786 61.35067 47.13426
# Shear Modulus (GPa) = 21.58112 28.12306 24.85209
#
# Velocity S-wave (km/s) = 3.40395 3.88577 3.65281
# Velocity P-wave (km/s) = 5.75523 7.28500 6.56483
#
# Compressibility (1/GPa) = 0.03037865
#
# Stress axis : x y z
#
# Youngs Moduli (GPa) = 54.07913 21.28725 83.98191
#
# Poissons Ratio (x) = 0.24811 0.57990
# Poissons Ratio (y) = 0.63032 0.41468
# Poissons Ratio (z) = 0.37342 0.10511
#
# Static dielectric constant tensor:
#      x y z
#    x 3.675260 0.000000 0.000000 
#    y 0.000000 3.158440 0.000000 
#    z 0.000000 0.000000 2.889370 
# 
# 
# High freq. dielectric constant tensor:
#      x y z
#    x 1.734870 0.000000 0.000000 
#    y 0.000000 1.696250 0.000000 
#    z 0.000000 0.000000 1.735150 
# 
# From -- ./inp_files/12733.got.cif
#   From: 2010.03.12/outbox.cif.g09.slc.cpg/sg51_7_cif.got.tgz:12733.got - 2010.04.16 13:43:02.
