data_PCOD8212265
_publ_section_title
;
Structure prediction by ZEFSAII (Michael W. Deem and Ramdas Pophale) SiO2 
 PCOD8212265
Probable space group: P M M A
;
_chemical_formula_sum "Si O2"
_cell_formula_units_Z 32
_cell_length_a 15.490175
_cell_length_b 11.352788
_cell_length_c 8.040883
_cell_angle_alpha 90.000000
_cell_angle_beta 90.000000
_cell_angle_gamma 90.000000
_cell_volume 1414.042931
_symmetry_space_group_name_H-M "P M M A"
_symmetry_group_IT_number 51
_symmetry_cell_setting 'orthorhombic'
loop_
_space_group_symop_operation_xyz
x,y,z
1/2-x,-y,z
1/2+x,-y,-z
-x,y,-z
-x,-y,-z
1/2+x,y,-z
1/2-x,y,z
x,-y,z
loop_
_atom_site_type_symbol
_atom_site_label
_atom_site_fract_x
_atom_site_fract_y
_atom_site_fract_z
Si Si1 0.902584 0.250572 0.650659
Si Si2 0.351404 0.000000 0.857769
Si Si3 0.910459 0.362577 0.330663
Si Si4 0.352259 0.000000 0.470490
Si Si5 0.400528 0.247779 0.988617
O O1 0.858196 0.325287 0.499245
O O2 0.895321 0.112371 0.615444
O O3 0.857792 0.276888 0.830683
O O4 0.002744 0.285757 0.663756
O O5 0.250000 0.000000 0.885219
O O6 0.375569 0.000000 0.664486
O O7 0.391903 0.111232 0.948736
O O8 0.930827 0.500000 0.331818
O O9 0.858610 0.325530 0.162347
O O10 0.250000 0.000000 0.440581
O O11 0.500000 0.284214 0.000000
#
# Coordination Sequence:
#
# PCOD8212265 Si02
#       5
#     8   4   8   4   8
#     4  10  20  35  58  84 115 147 187 234 287 339
#     4  11  22  39  59  82 119 157 189 237 300 357
#     4  10  21  37  58  86 119 150 187 235 287 338
#     4  11  23  38  59  84 116 156 193 236 291 357
#     4  10  21  36  58  89 117 150 189 240 291 350
#
# _framework density 22.630147999999998
#
# number of rings (size 3 to 8) (size 9 to 14) (size 15 to 20)
#    0.000    1.750    2.500    2.625    0.000   12.500 
#    0.000    0.000    0.000    5.250    0.000   10.500 
#    0.000    0.000    0.000    0.000    0.000    0.000 
#
# Total GULP energy -396466.927176 kJ/mol
# GULP energy per Si atom -12389.591474 kJ/mol
# Density = 2.257864 g / cm^3
# Si number density = 22.630148 Si / 1000 Ang^3
#
#
#
# Elastic Constant Matrix: (Units=GPa)
#
#
# Indices 1 2 3 4 5 6 
#
# 1 22.4154 22.4388 12.9990 0.0000 0.0000 0.0000
# 2 22.4388 161.8124 84.9273 0.0000 0.0000 0.0000
# 3 12.9990 84.9273 284.9877 0.0000 0.0000 0.0000
# 4 0.0000 0.0000 0.0000 22.5058 0.0000 0.0000
# 5 0.0000 0.0000 0.0000 0.0000 1.5039 0.0000
# 6 0.0000 0.0000 0.0000 0.0000 0.0000 -7.6246
#
#
#
# Elastic Compliance Matrix: (Units=1/GPa)
#
#
# Indices 1 2 3 4 5 6 
#
# 1 0.051820 -0.007048 -0.000263 0.000000 0.000000 0.000000
# 2 -0.007048 0.008284 -0.002147 0.000000 0.000000 0.000000
# 3 -0.000263 -0.002147 0.004161 0.000000 0.000000 0.000000
# 4 0.000000 0.000000 0.000000 0.044433 0.000000 0.000000
# 5 0.000000 0.000000 0.000000 0.000000 0.664944 0.000000
# 6 0.000000 0.000000 0.000000 0.000000 0.000000 -0.131154
#
#
# Mechanical properties :
#
#
# Convention : Reuss Voigt Hill
#
# Bulk Modulus (GPa) = 22.05153 78.88288 50.46721
# Shear Modulus (GPa) = 7.39075 26.53369 16.96222
#
# Velocity S-wave (km/s) = 1.80914 3.42788 2.74074
# Velocity P-wave (km/s) = 3.75891 7.11339 5.68901
#
# Compressibility (1/GPa) = 0.04534833
#
# Stress axis : x y z
#
# Youngs Moduli (GPa) = 19.29756 120.70987 240.33614
#
# Poissons Ratio (x) = 0.85073 0.06330
# Poissons Ratio (y) = 0.13600 0.51607
# Poissons Ratio (z) = 0.00508 0.25920
#
# Static dielectric constant tensor:
#      x y z
#    x 3.427550 0.000000 0.000000 
#    y 0.000000 3.828590 0.000000 
#    z 0.000000 0.000000 6.193060 
# 
# 
# High freq. dielectric constant tensor:
#      x y z
#    x 1.827600 0.000000 0.000000 
#    y 0.000000 1.883370 0.000000 
#    z 0.000000 0.000000 1.942490 
# 
# From -- ./inp_files/9184.got.cif
#   From: 2010.03.12/outbox.cif.g09.slc.cpg/sg51_5_cif.got.tgz:9184.got - 2010.04.16 13:43:02.
