data_PCOD8212166
_publ_section_title
;
Structure prediction by ZEFSAII (Michael W. Deem and Ramdas Pophale) SiO2 
 PCOD8212166
Probable space group: P M M A
;
_chemical_formula_sum "Si O2"
_cell_formula_units_Z 64
_cell_length_a 28.228412
_cell_length_b 12.653636
_cell_length_c 9.150341
_cell_angle_alpha 90.000000
_cell_angle_beta 90.000000
_cell_angle_gamma 90.000000
_cell_volume 3268.429063
_symmetry_space_group_name_H-M "P M M A"
_symmetry_group_IT_number 51
_symmetry_cell_setting 'orthorhombic'
loop_
_space_group_symop_operation_xyz
x,y,z
1/2-x,-y,z
1/2+x,-y,-z
-x,y,-z
-x,-y,-z
1/2+x,y,-z
1/2-x,y,z
x,-y,z
loop_
_atom_site_type_symbol
_atom_site_label
_atom_site_fract_x
_atom_site_fract_y
_atom_site_fract_z
Si Si1 0.956165 0.747165 0.591037
Si Si2 0.529098 0.380609 0.866478
Si Si3 0.198038 0.241241 0.280585
Si Si4 0.896796 0.712202 0.042622
Si Si5 0.393417 0.123705 0.192361
Si Si6 0.302724 0.382667 0.550656
Si Si7 0.597001 0.622437 0.341230
Si Si8 0.802236 0.621959 0.990069
O O1 0.980386 0.670507 0.709807
O O2 0.927836 0.837688 0.677255
O O3 0.921695 0.678211 0.488055
O O4 0.000000 0.797170 0.500000
O O5 0.512741 0.500000 0.850088
O O6 0.584034 0.368915 0.917050
O O7 0.500000 0.324773 0.000000
O O8 0.250000 0.186943 0.273471
O O9 0.160058 0.153002 0.236530
O O10 0.187961 0.287926 0.439118
O O11 0.196577 0.344093 0.178440
O O12 0.905874 0.827356 0.968548
O O13 0.841275 0.692471 0.072041
O O14 0.922139 0.688307 0.199014
O O15 0.399233 0.000000 0.176173
O O16 0.250000 0.368882 0.622641
O O17 0.305318 0.500000 0.477799
O O18 0.345463 0.374187 0.666501
O O19 0.579669 0.500000 0.334309
O O20 0.750000 0.643713 0.057407
O O21 0.815800 0.500000 0.004215
#
# Coordination Sequence:
#
# PCOD8212166 Si02
#       8
#     8   8   8   8   8   8   8   8
#     4  11  23  38  58  84 114 144 184 235 287 342
#     4  10  20  35  56  82 113 150 184 220 272 338
#     4   9  16  30  53  81 110 142 181 230 279 328
#     4  10  21  35  53  77 111 149 187 230 272 324
#     4  10  22  41  60  80 105 142 195 246 288 326
#     4   9  17  29  49  81 122 160 186 214 265 337
#     4  11  21  34  55  87 123 156 184 217 273 343
#     4   9  16  26  45  75 110 147 183 216 258 321
#
# _framework density 19.581271999999998
#
# number of rings (size 3 to 8) (size 9 to 14) (size 15 to 20)
#    0.000    2.125    1.250    2.625    0.000    4.500 
#    0.000    1.875    0.000   12.750    0.000    0.000 
#    0.000    0.000    0.000    0.000    0.000    0.000 
#
# Total GULP energy -792862.406261 kJ/mol
# GULP energy per Si atom -12388.475098 kJ/mol
# Density = 1.953670 g / cm^3
# Si number density = 19.581272 Si / 1000 Ang^3
#
#
#
# Elastic Constant Matrix: (Units=GPa)
#
#
# Indices 1 2 3 4 5 6 
#
# 1 74.5985 31.4094 29.5490 0.0000 0.0000 0.0000
# 2 31.4094 118.3046 55.2450 0.0000 0.0000 0.0000
# 3 29.5490 55.2450 113.2685 0.0000 0.0000 0.0000
# 4 0.0000 0.0000 0.0000 20.7502 0.0000 0.0000
# 5 0.0000 0.0000 0.0000 0.0000 22.1172 0.0000
# 6 0.0000 0.0000 0.0000 0.0000 0.0000 14.8519
#
#
#
# Elastic Compliance Matrix: (Units=1/GPa)
#
#
# Indices 1 2 3 4 5 6 
#
# 1 0.015692 -0.002919 -0.002670 0.000000 0.000000 0.000000
# 2 -0.002919 0.011489 -0.004842 0.000000 0.000000 0.000000
# 3 -0.002670 -0.004842 0.011887 0.000000 0.000000 0.000000
# 4 0.000000 0.000000 0.000000 0.048192 0.000000 0.000000
# 5 0.000000 0.000000 0.000000 0.000000 0.045214 0.000000
# 6 0.000000 0.000000 0.000000 0.000000 0.000000 0.067332
#
#
# Mechanical properties :
#
#
# Convention : Reuss Voigt Hill
#
# Bulk Modulus (GPa) = 54.92940 59.84205 57.38573
# Shear Modulus (GPa) = 22.05214 24.20841 23.13027
#
# Velocity S-wave (km/s) = 3.35951 3.51993 3.44065
# Velocity P-wave (km/s) = 6.56973 6.86637 6.71969
#
# Compressibility (1/GPa) = 0.01820519
#
# Stress axis : x y z
#
# Youngs Moduli (GPa) = 63.72760 87.04049 84.12819
#
# Poissons Ratio (x) = 0.25411 0.22460
# Poissons Ratio (y) = 0.18605 0.40734
# Poissons Ratio (z) = 0.17013 0.42144
#
# Static dielectric constant tensor:
#      x y z
#    x 3.951630 0.000000 0.000000 
#    y 0.000000 3.029800 0.000000 
#    z 0.000000 0.000000 3.533040 
# 
# 
# High freq. dielectric constant tensor:
#      x y z
#    x 1.788460 0.000000 0.000000 
#    y 0.000000 1.702920 0.000000 
#    z 0.000000 0.000000 1.763520 
# 
# From -- ./inp_files/13191.got.cif
#   From: 2010.03.12/outbox.cif.g09.slc.cpg/sg51_7_cif.got.tgz:13191.got - 2010.04.16 13:43:02.
