data_PCOD8212805
_publ_section_title
;
Structure prediction by ZEFSAII (Michael W. Deem and Ramdas Pophale) SiO2 
 PCOD8212805
Probable space group: P M M A
;
_chemical_formula_sum "Si O2"
_cell_formula_units_Z 64
_cell_length_a 14.696843
_cell_length_b 22.228938
_cell_length_c 9.789760
_cell_angle_alpha 90.000000
_cell_angle_beta 90.000000
_cell_angle_gamma 90.000000
_cell_volume 3198.267717
_symmetry_space_group_name_H-M "P M M A"
_symmetry_group_IT_number 51
_symmetry_cell_setting 'orthorhombic'
loop_
_space_group_symop_operation_xyz
x,y,z
1/2-x,-y,z
1/2+x,-y,-z
-x,y,-z
-x,-y,-z
1/2+x,y,-z
1/2-x,y,z
x,-y,z
loop_
_atom_site_type_symbol
_atom_site_label
_atom_site_fract_x
_atom_site_fract_y
_atom_site_fract_z
Si Si1 0.358343 0.932410 0.205252
Si Si2 0.351294 0.430724 0.038611
Si Si3 0.145967 0.149427 0.439737
Si Si4 0.017683 0.312603 0.655851
Si Si5 0.853959 0.795253 0.290336
Si Si6 0.151464 0.743073 0.236561
Si Si7 0.397000 0.828957 0.005372
Si Si8 0.523912 0.430347 0.211245
O O1 0.250000 0.930855 0.210520
O O2 0.398860 0.903308 0.346219
O O3 0.389215 0.894883 0.072688
O O4 0.396254 0.000000 0.191511
O O5 0.250000 0.399456 0.055331
O O6 0.332645 0.500000 0.017254
O O7 0.406025 0.408574 0.905614
O O8 0.418344 0.421650 0.167150
O O9 0.250000 0.131088 0.460504
O O10 0.103089 0.160829 0.591012
O O11 0.133876 0.211192 0.359267
O O12 0.093580 0.267999 0.716585
O O13 0.000000 0.296152 0.500000
O O14 0.927817 0.305830 0.751298
O O15 0.045092 0.383185 0.666874
O O16 0.750000 0.780209 0.328922
O O17 0.857482 0.830640 0.147440
O O18 0.250000 0.711470 0.252820
O O19 0.154634 0.778836 0.093748
O O20 0.500000 0.808045 0.000000
O O21 0.540759 0.500000 0.255749
#
# Coordination Sequence:
#
# PCOD8212805 Si02
#       8
#     8   8   8   8   8   8   8   8
#     4   9  18  35  58  84 117 160 201 233 280 349
#     4   8  15  33  59  80 104 143 184 225 276 336
#     4   8  16  33  58  79 104 148 195 235 280 334
#     4  12  24  37  58  83 111 152 197 243 296 352
#     4  11  22  38  58  85 116 148 194 250 302 344
#     4  10  20  38  58  80 110 150 197 239 288 352
#     4  11  21  35  58  87 121 152 189 243 302 350
#     4   9  20  36  55  84 117 146 188 235 287 358
#
# _framework density 20.010833000000002
#
# number of rings (size 3 to 8) (size 9 to 14) (size 15 to 20)
#    0.000    2.250    2.500    2.625    0.000    3.500 
#    0.000    0.625    0.000    3.000    0.000    5.250 
#    0.000    0.000    0.000    0.000    0.000    0.000 
#
# Total GULP energy -792938.745805 kJ/mol
# GULP energy per Si atom -12389.667903 kJ/mol
# Density = 1.996529 g / cm^3
# Si number density = 20.010833 Si / 1000 Ang^3
#
#
#
# Elastic Constant Matrix: (Units=GPa)
#
#
# Indices 1 2 3 4 5 6 
#
# 1 80.3072 24.0045 11.5832 0.0000 0.0000 0.0000
# 2 24.0045 113.3356 54.1662 0.0000 0.0000 0.0000
# 3 11.5832 54.1662 131.4692 0.0000 0.0000 0.0000
# 4 0.0000 0.0000 0.0000 24.0796 0.0000 0.0000
# 5 0.0000 0.0000 0.0000 0.0000 20.8462 0.0000
# 6 0.0000 0.0000 0.0000 0.0000 0.0000 11.7571
#
#
#
# Elastic Compliance Matrix: (Units=1/GPa)
#
#
# Indices 1 2 3 4 5 6 
#
# 1 0.013294 -0.002809 -0.000014 0.000000 0.000000 0.000000
# 2 -0.002809 0.011580 -0.004524 0.000000 0.000000 0.000000
# 3 -0.000014 -0.004524 0.009471 0.000000 0.000000 0.000000
# 4 0.000000 0.000000 0.000000 0.041529 0.000000 0.000000
# 5 0.000000 0.000000 0.000000 0.000000 0.047970 0.000000
# 6 0.000000 0.000000 0.000000 0.000000 0.000000 0.085055
#
#
# Mechanical properties :
#
#
# Convention : Reuss Voigt Hill
#
# Bulk Modulus (GPa) = 50.88465 56.06887 53.47676
# Shear Modulus (GPa) = 21.72554 27.02712 24.37633
#
# Velocity S-wave (km/s) = 3.29855 3.67907 3.49400
# Velocity P-wave (km/s) = 6.32385 6.79172 6.56196
#
# Compressibility (1/GPa) = 0.01965229
#
# Stress axis : x y z
#
# Youngs Moduli (GPa) = 75.22289 86.35371 105.58152
#
# Poissons Ratio (x) = 0.24256 0.00147
# Poissons Ratio (y) = 0.21130 0.47762
# Poissons Ratio (z) = 0.00105 0.39064
#
# Static dielectric constant tensor:
#      x y z
#    x 3.958770 0.000000 0.000000 
#    y 0.000000 3.474030 0.000000 
#    z 0.000000 0.000000 3.694780 
# 
# 
# High freq. dielectric constant tensor:
#      x y z
#    x 1.778790 0.000000 0.000000 
#    y 0.000000 1.758900 0.000000 
#    z 0.000000 0.000000 1.772650 
# 
# From -- ./inp_files/8760.got.cif
#   From: 2010.03.12/outbox.cif.g09.slc.cpg/sg51_5_cif.got.tgz:8760.got - 2010.04.16 13:43:02.
