data_PCOD8212952
_publ_section_title
;
Structure prediction by ZEFSAII (Michael W. Deem and Ramdas Pophale) SiO2 
 PCOD8212952
Probable space group: P M M A
;
_chemical_formula_sum "Si O2"
_cell_formula_units_Z 44
_cell_length_a 9.595677
_cell_length_b 27.157129
_cell_length_c 9.827316
_cell_angle_alpha 90.000000
_cell_angle_beta 90.000000
_cell_angle_gamma 90.000000
_cell_volume 2560.910478
_symmetry_space_group_name_H-M "P M M A"
_symmetry_group_IT_number 51
_symmetry_cell_setting 'orthorhombic'
loop_
_space_group_symop_operation_xyz
x,y,z
1/2-x,-y,z
1/2+x,-y,-z
-x,y,-z
-x,-y,-z
1/2+x,y,-z
1/2-x,y,z
x,-y,z
loop_
_atom_site_type_symbol
_atom_site_label
_atom_site_fract_x
_atom_site_fract_y
_atom_site_fract_z
Si Si1 0.413391 0.500000 0.859466
Si Si2 0.589225 0.760501 0.129575
Si Si3 0.910928 0.943718 0.370160
Si Si4 0.088883 0.690523 0.628110
Si Si5 0.589025 0.127018 0.129930
Si Si6 0.588542 0.577307 0.368454
O O1 0.250000 0.500000 0.897661
O O2 0.452966 0.547320 0.767180
O O3 0.500000 0.500000 0.000000
O O4 0.750000 0.752059 0.092542
O O5 0.540034 0.724746 0.248966
O O6 0.560880 0.816716 0.174096
O O7 0.500000 0.745485 0.000000
O O8 0.750000 0.934919 0.406355
O O9 0.961006 0.908393 0.249953
O O10 0.000000 0.928733 0.500000
O O11 0.938879 0.000000 0.326228
O O12 0.250000 0.698783 0.592557
O O13 0.057719 0.634038 0.666377
O O14 0.000000 0.707663 0.500000
O O15 0.750000 0.118292 0.093773
O O16 0.500000 0.112092 0.000000
O O17 0.500000 0.560049 0.500000
O O18 0.750000 0.567973 0.405028
#
# Coordination Sequence:
#
# PCOD8212952 Si02
#       6
#     4   8   8   8   8   8
#     4  10  21  34  48  70  98 124 153 190 230 272
#     4   9  18  32  48  67  93 123 153 187 227 270
#     4   9  18  32  48  67  92 120 150 186 228 272
#     4   9  18  32  49  70  95 121 152 190 229 270
#     4   9  18  32  48  67  92 121 153 188 226 269
#     4   9  18  33  51  70  93 122 155 190 228 271
#
# _framework density 17.181387999999998
#
# number of rings (size 3 to 8) (size 9 to 14) (size 15 to 20)
#    0.000    2.909    0.000    0.273    0.000    4.000 
#    0.000    0.000    0.000    0.000    0.000    0.000 
#    0.000    0.000    0.000    0.000    0.000    0.000 
#
# Total GULP energy -545642.313550 kJ/mol
# GULP energy per Si atom -12400.961672 kJ/mol
# Density = 1.714228 g / cm^3
# Si number density = 17.181388 Si / 1000 Ang^3
#
#
#
# Elastic Constant Matrix: (Units=GPa)
#
#
# Indices 1 2 3 4 5 6 
#
# 1 64.3334 50.9874 80.1522 0.0000 0.0000 0.0000
# 2 50.9874 100.4390 98.3363 0.0000 0.0000 0.0000
# 3 80.1522 98.3363 172.2631 0.0000 0.0000 0.0000
# 4 0.0000 0.0000 0.0000 35.0831 0.0000 0.0000
# 5 0.0000 0.0000 0.0000 0.0000 39.0345 0.0000
# 6 0.0000 0.0000 0.0000 0.0000 0.0000 22.0622
#
#
#
# Elastic Compliance Matrix: (Units=1/GPa)
#
#
# Indices 1 2 3 4 5 6 
#
# 1 0.037848 -0.004470 -0.015059 0.000000 0.000000 0.000000
# 2 -0.004470 0.023099 -0.011106 0.000000 0.000000 0.000000
# 3 -0.015059 -0.011106 0.019152 0.000000 0.000000 0.000000
# 4 0.000000 0.000000 0.000000 0.028504 0.000000 0.000000
# 5 0.000000 0.000000 0.000000 0.000000 0.025618 0.000000
# 6 0.000000 0.000000 0.000000 0.000000 0.000000 0.045326
#
#
# Mechanical properties :
#
#
# Convention : Reuss Voigt Hill
#
# Bulk Modulus (GPa) = 53.10926 88.44304 70.77615
# Shear Modulus (GPa) = 20.23522 26.40661 23.32091
#
# Velocity S-wave (km/s) = 3.43555 3.92462 3.68820
# Velocity P-wave (km/s) = 6.83486 8.49263 7.70844
#
# Compressibility (1/GPa) = 0.01882911
#
# Stress axis : x y z
#
# Youngs Moduli (GPa) = 26.42146 43.29123 52.21467
#
# Poissons Ratio (x) = 0.19352 0.78628
# Poissons Ratio (y) = 0.11811 0.57992
# Poissons Ratio (z) = 0.39787 0.48081
#
# Static dielectric constant tensor:
#      x y z
#    x 3.192330 0.000000 0.000000 
#    y 0.000000 3.332980 0.000000 
#    z 0.000000 0.000000 3.149020 
# 
# 
# High freq. dielectric constant tensor:
#      x y z
#    x 1.661500 0.000000 0.000000 
#    y 0.000000 1.671220 0.000000 
#    z 0.000000 0.000000 1.656220 
# 
# From -- ./inp_files/5839.got.cif
#   From: 2010.03.12/outbox.cif.g09.slc.cpg/sg51_3_cif.got.tgz:5839.got - 2010.04.16 13:43:02.
