data_PCOD8212459
_publ_section_title
;
Structure prediction by ZEFSAII (Michael W. Deem and Ramdas Pophale) SiO2 
 PCOD8212459
Probable space group: P M M A
;
_chemical_formula_sum "Si O2"
_cell_formula_units_Z 56
_cell_length_a 21.027885
_cell_length_b 8.643406
_cell_length_c 14.799730
_cell_angle_alpha 90.000000
_cell_angle_beta 90.000000
_cell_angle_gamma 90.000000
_cell_volume 2689.888628
_symmetry_space_group_name_H-M "P M M A"
_symmetry_group_IT_number 51
_symmetry_cell_setting 'orthorhombic'
loop_
_space_group_symop_operation_xyz
x,y,z
1/2-x,-y,z
1/2+x,-y,-z
-x,y,-z
-x,-y,-z
1/2+x,y,-z
1/2-x,y,z
x,-y,z
loop_
_atom_site_type_symbol
_atom_site_label
_atom_site_fract_x
_atom_site_fract_y
_atom_site_fract_z
Si Si1 0.069150 0.320117 0.522299
Si Si2 0.611478 0.675156 0.929349
Si Si3 0.460369 0.677842 0.718020
Si Si4 0.750000 0.826179 0.139087
Si Si5 0.912188 0.818906 0.747278
Si Si6 0.677466 0.316077 0.611401
Si Si7 0.250000 0.670136 0.038051
Si Si8 0.114116 0.817451 0.875600
O O1 0.064451 0.500000 0.497861
O O2 0.082730 0.294685 0.629104
O O3 0.129423 0.251529 0.466848
O O4 0.000000 0.243614 0.500000
O O5 0.585521 0.500000 0.923202
O O6 0.578626 0.779835 0.853432
O O7 0.686278 0.682075 0.903273
O O8 0.596572 0.737025 0.029774
O O9 0.458697 0.500000 0.748038
O O10 0.532019 0.729467 0.693423
O O11 0.438412 0.782735 0.801398
O O12 0.818209 0.750695 0.165891
O O13 0.750000 0.000000 0.174305
O O14 0.750000 0.814207 0.030256
O O15 0.845746 0.757332 0.706241
O O16 0.918667 0.000000 0.732644
O O17 0.750000 0.261418 0.591276
O O18 0.675253 0.500000 0.618840
O O19 0.250000 0.500000 0.988364
O O20 0.119657 0.000000 0.893305
#
# Coordination Sequence:
#
# PCOD8212459 Si02
#       8
#     8   8   8   4   8   8   4   8
#     4   9  17  36  65  91 116 151 197 249 299 350
#     4  10  20  36  57  84 116 157 203 248 297 351
#     4  11  22  39  63  88 116 156 204 251 300 356
#     4   8  16  32  54  76 109 154 191 230 289 350
#     4  12  25  39  57  87 123 159 199 243 298 361
#     4  10  21  40  66  93 122 156 196 246 301 358
#     4   8  16  30  52  78 105 140 191 242 285 338
#     4  10  20  37  58  85 121 160 201 248 301 357
#
# _framework density 20.818705000000001
#
# number of rings (size 3 to 8) (size 9 to 14) (size 15 to 20)
#    0.000    2.000    1.429    2.571    1.000    2.000 
#    1.286    5.000    0.000    0.000    0.000    0.000 
#    0.000    0.000    0.000    0.000    0.000    0.000 
#
# Total GULP energy -693903.443159 kJ/mol
# GULP energy per Si atom -12391.132914 kJ/mol
# Density = 2.077132 g / cm^3
# Si number density = 20.818705 Si / 1000 Ang^3
#
#
#
# Elastic Constant Matrix: (Units=GPa)
#
#
# Indices 1 2 3 4 5 6 
#
# 1 105.1218 17.6266 46.9569 0.0000 0.0000 0.0000
# 2 17.6266 58.3533 25.9988 0.0000 0.0000 0.0000
# 3 46.9569 25.9988 102.0600 0.0000 0.0000 0.0000
# 4 0.0000 0.0000 0.0000 15.2894 0.0000 0.0000
# 5 0.0000 0.0000 0.0000 0.0000 31.6740 0.0000
# 6 0.0000 0.0000 0.0000 0.0000 0.0000 21.3843
#
#
#
# Elastic Compliance Matrix: (Units=1/GPa)
#
#
# Indices 1 2 3 4 5 6 
#
# 1 0.012063 -0.001321 -0.005214 0.000000 0.000000 0.000000
# 2 -0.001321 0.019476 -0.004353 0.000000 0.000000 0.000000
# 3 -0.005214 -0.004353 0.013306 0.000000 0.000000 0.000000
# 4 0.000000 0.000000 0.000000 0.065405 0.000000 0.000000
# 5 0.000000 0.000000 0.000000 0.000000 0.031572 0.000000
# 6 0.000000 0.000000 0.000000 0.000000 0.000000 0.046763
#
#
# Mechanical properties :
#
#
# Convention : Reuss Voigt Hill
#
# Bulk Modulus (GPa) = 43.34907 49.63331 46.49119
# Shear Modulus (GPa) = 22.93050 25.33304 24.13177
#
# Velocity S-wave (km/s) = 3.32239 3.49211 3.40831
# Velocity P-wave (km/s) = 5.96532 6.33658 6.15375
#
# Compressibility (1/GPa) = 0.02306855
#
# Stress axis : x y z
#
# Youngs Moduli (GPa) = 82.89695 51.34610 75.15453
#
# Poissons Ratio (x) = 0.06783 0.39183
# Poissons Ratio (y) = 0.10951 0.32718
# Poissons Ratio (z) = 0.43220 0.22353
#
# Static dielectric constant tensor:
#      x y z
#    x 4.084490 0.000000 0.000000 
#    y 0.000000 3.470390 0.000000 
#    z 0.000000 0.000000 3.503790 
# 
# 
# High freq. dielectric constant tensor:
#      x y z
#    x 1.820740 0.000000 0.000000 
#    y 0.000000 1.792400 0.000000 
#    z 0.000000 0.000000 1.800510 
# 
# From -- ./inp_files/25835.got.cif
#   From: 2010.03.12/outbox.cif.g09.slc.cpg/sg51_13_cif.got.tgz:25835.got - 2010.04.16 13:43:02.
