data_PCOD8212083
_publ_section_title
;
Structure prediction by ZEFSAII (Michael W. Deem and Ramdas Pophale) SiO2 
 PCOD8212083
Probable space group: P M M A
;
_chemical_formula_sum "Si O2"
_cell_formula_units_Z 48
_cell_length_a 19.236151
_cell_length_b 9.124916
_cell_length_c 14.958748
_cell_angle_alpha 90.000000
_cell_angle_beta 90.000000
_cell_angle_gamma 90.000000
_cell_volume 2625.683039
_symmetry_space_group_name_H-M "P M M A"
_symmetry_group_IT_number 51
_symmetry_cell_setting 'orthorhombic'
loop_
_space_group_symop_operation_xyz
x,y,z
1/2-x,-y,z
1/2+x,-y,-z
-x,y,-z
-x,-y,-z
1/2+x,y,-z
1/2-x,y,z
x,-y,z
loop_
_atom_site_type_symbol
_atom_site_label
_atom_site_fract_x
_atom_site_fract_y
_atom_site_fract_z
Si Si1 0.670555 0.173042 0.095829
Si Si2 0.056344 0.328564 0.242739
Si Si3 0.573578 0.670362 0.963008
Si Si4 0.587865 0.173419 0.270216
Si Si5 0.331308 0.332191 0.577932
Si Si6 0.173427 0.326493 0.376200
O O1 0.750000 0.225701 0.102432
O O2 0.631056 0.228320 0.184334
O O3 0.665296 0.000000 0.085807
O O4 0.636410 0.244501 0.008929
O O5 0.042269 0.500000 0.258970
O O6 0.079028 0.297800 0.141688
O O7 0.117459 0.265874 0.305872
O O8 0.987917 0.241365 0.267511
O O9 0.581410 0.500000 0.986200
O O10 0.500000 0.729790 0.000000
O O11 0.626311 0.224845 0.359001
O O12 0.581670 0.000000 0.271799
O O13 0.250000 0.313407 0.597282
O O14 0.354167 0.500000 0.594859
O O15 0.348877 0.283763 0.476674
O O16 0.250000 0.260792 0.354182
O O17 0.177986 0.500000 0.368776
#
# Coordination Sequence:
#
# PCOD8212083 Si02
#       6
#     8   8   8   8   8   8
#     4  10  22  38  55  77 106 143 184 221 262 319
#     4  10  20  35  57  81 108 141 178 220 267 321
#     4  10  20  35  55  81 110 138 175 223 272 318
#     4  11  22  35  53  78 111 146 180 218 264 319
#     4   9  18  34  56  79 104 137 178 223 269 316
#     4   8  16  33  56  80 104 135 178 223 267 320
#
# _framework density 18.280957999999998
#
# number of rings (size 3 to 8) (size 9 to 14) (size 15 to 20)
#    0.000    2.333    1.667    2.000    0.000    4.333 
#    0.000    5.833    0.000    1.500    0.000    0.000 
#    0.000    0.000    0.000    0.000    0.000    0.000 
#
# Total GULP energy -595290.909534 kJ/mol
# GULP energy per Si atom -12401.893949 kJ/mol
# Density = 1.823935 g / cm^3
# Si number density = 18.280958 Si / 1000 Ang^3
#
#
#
# Elastic Constant Matrix: (Units=GPa)
#
#
# Indices 1 2 3 4 5 6 
#
# 1 135.9407 40.1254 86.7787 0.0000 0.0000 0.0000
# 2 40.1254 36.2152 41.7987 0.0000 0.0000 0.0000
# 3 86.7787 41.7987 133.7883 0.0000 0.0000 0.0000
# 4 0.0000 0.0000 0.0000 19.3294 0.0000 0.0000
# 5 0.0000 0.0000 0.0000 0.0000 44.0670 0.0000
# 6 0.0000 0.0000 0.0000 0.0000 0.0000 23.7442
#
#
#
# Elastic Compliance Matrix: (Units=1/GPa)
#
#
# Indices 1 2 3 4 5 6 
#
# 1 0.013824 -0.007769 -0.006539 0.000000 0.000000 0.000000
# 2 -0.007769 0.047551 -0.009817 0.000000 0.000000 0.000000
# 3 -0.006539 -0.009817 0.014783 0.000000 0.000000 0.000000
# 4 0.000000 0.000000 0.000000 0.051735 0.000000 0.000000
# 5 0.000000 0.000000 0.000000 0.000000 0.022693 0.000000
# 6 0.000000 0.000000 0.000000 0.000000 0.000000 0.042116
#
#
# Mechanical properties :
#
#
# Convention : Reuss Voigt Hill
#
# Bulk Modulus (GPa) = 35.83256 71.48333 53.65795
# Shear Modulus (GPa) = 19.97978 26.57756 23.27867
#
# Velocity S-wave (km/s) = 3.30953 3.81706 3.57232
# Velocity P-wave (km/s) = 5.85214 7.65598 6.81402
#
# Compressibility (1/GPa) = 0.02790758
#
# Stress axis : x y z
#
# Youngs Moduli (GPa) = 72.34012 21.03008 67.64494
#
# Poissons Ratio (x) = 0.16338 0.44234
# Poissons Ratio (y) = 0.56199 0.66407
# Poissons Ratio (z) = 0.47305 0.20645
#
# Static dielectric constant tensor:
#      x y z
#    x 3.595400 0.000000 0.000000 
#    y 0.000000 3.100120 0.000000 
#    z 0.000000 0.000000 3.540560 
# 
# 
# High freq. dielectric constant tensor:
#      x y z
#    x 1.715330 0.000000 0.000000 
#    y 0.000000 1.683480 0.000000 
#    z 0.000000 0.000000 1.718960 
# 
# From -- ./inp_files/24703.got.cif
#   From: 2010.03.12/outbox.cif.g09.slc.cpg/sg51_13_cif.got.tgz:24703.got - 2010.04.16 13:43:02.
