data_PCOD8212046
_publ_section_title
;
Structure prediction by ZEFSAII (Michael W. Deem and Ramdas Pophale) SiO2 
 PCOD8212046
Probable space group: P M M A
;
_chemical_formula_sum "Si O2"
_cell_formula_units_Z 48
_cell_length_a 13.882544
_cell_length_b 19.166580
_cell_length_c 9.031318
_cell_angle_alpha 90.000000
_cell_angle_beta 90.000000
_cell_angle_gamma 90.000000
_cell_volume 2403.061133
_symmetry_space_group_name_H-M "P M M A"
_symmetry_group_IT_number 51
_symmetry_cell_setting 'orthorhombic'
loop_
_space_group_symop_operation_xyz
x,y,z
1/2-x,-y,z
1/2+x,-y,-z
-x,y,-z
-x,-y,-z
1/2+x,y,-z
1/2-x,y,z
x,-y,z
loop_
_atom_site_type_symbol
_atom_site_label
_atom_site_fract_x
_atom_site_fract_y
_atom_site_fract_z
Si Si1 0.862641 0.079898 0.156213
Si Si2 0.456924 0.581286 0.731894
Si Si3 0.524176 0.814250 0.329032
Si Si4 0.855411 0.418307 0.575163
Si Si5 0.360121 0.814439 0.098258
Si Si6 0.862441 0.294513 0.148643
O O1 0.750000 0.088084 0.190622
O O2 0.919821 0.113859 0.293338
O O3 0.893871 0.000000 0.138204
O O4 0.889201 0.120071 0.004866
O O5 0.453325 0.500000 0.778975
O O6 0.565683 0.607287 0.694788
O O7 0.390319 0.596698 0.590224
O O8 0.412890 0.629209 0.861968
O O9 0.500000 0.809223 0.500000
O O10 0.422964 0.813487 0.244326
O O11 0.590335 0.748990 0.282919
O O12 0.750000 0.383261 0.602806
O O13 0.846702 0.500000 0.596324
O O14 0.250000 0.820008 0.148953
O O15 0.380324 0.743833 0.006678
O O16 0.750000 0.302233 0.182343
#
# Coordination Sequence:
#
# PCOD8212046 Si02
#       6
#     8   8   8   8   8   8
#     4   9  18  36  62  88 116 153 191 226 272 331
#     4   9  17  28  47  76 106 142 191 240 291 349
#     4  11  23  36  57  85 115 149 189 236 283 332
#     4   8  14  25  41  65 105 148 179 221 285 350
#     4   9  20  39  60  82 111 150 190 229 275 336
#     4  10  20  35  55  78 110 149 190 236 286 344
#
# _framework density 19.974522
#
# number of rings (size 3 to 8) (size 9 to 14) (size 15 to 20)
#    0.000    2.667    0.000    5.000    2.333    4.000 
#    0.000    0.833    0.000    6.000    0.000    0.000 
#    0.000    2.667    0.000    0.000    0.000    0.000 
#
# Total GULP energy -595084.762403 kJ/mol
# GULP energy per Si atom -12397.599217 kJ/mol
# Density = 1.992906 g / cm^3
# Si number density = 19.974522 Si / 1000 Ang^3
#
#
#
# Elastic Constant Matrix: (Units=GPa)
#
#
# Indices 1 2 3 4 5 6 
#
# 1 137.1224 46.2570 50.6130 0.0000 0.0000 0.0000
# 2 46.2570 109.5836 29.3115 0.0000 0.0000 0.0000
# 3 50.6130 29.3115 93.2643 0.0000 0.0000 0.0000
# 4 0.0000 0.0000 0.0000 9.0815 0.0000 0.0000
# 5 0.0000 0.0000 0.0000 0.0000 20.5589 0.0000
# 6 0.0000 0.0000 0.0000 0.0000 0.0000 32.4319
#
#
#
# Elastic Compliance Matrix: (Units=1/GPa)
#
#
# Indices 1 2 3 4 5 6 
#
# 1 0.009952 -0.003009 -0.004455 0.000000 0.000000 0.000000
# 2 -0.003009 0.010873 -0.001784 0.000000 0.000000 0.000000
# 3 -0.004455 -0.001784 0.013701 0.000000 0.000000 0.000000
# 4 0.000000 0.000000 0.000000 0.110114 0.000000 0.000000
# 5 0.000000 0.000000 0.000000 0.000000 0.048641 0.000000
# 6 0.000000 0.000000 0.000000 0.000000 0.000000 0.030834
#
#
# Mechanical properties :
#
#
# Convention : Reuss Voigt Hill
#
# Bulk Modulus (GPa) = 62.38786 65.81480 64.10133
# Shear Modulus (GPa) = 20.16496 26.66706 23.41601
#
# Velocity S-wave (km/s) = 3.18076 3.65780 3.42759
# Velocity P-wave (km/s) = 6.69262 7.13164 6.91562
#
# Compressibility (1/GPa) = 0.01602876
#
# Stress axis : x y z
#
# Youngs Moduli (GPa) = 100.47839 91.97123 72.98911
#
# Poissons Ratio (x) = 0.27678 0.32518
# Poissons Ratio (y) = 0.30238 0.13022
# Poissons Ratio (z) = 0.44765 0.16408
#
# Static dielectric constant tensor:
#      x y z
#    x 4.243240 0.000000 0.000000 
#    y 0.000000 3.703300 0.000000 
#    z 0.000000 0.000000 3.171240 
# 
# 
# High freq. dielectric constant tensor:
#      x y z
#    x 1.802790 0.000000 0.000000 
#    y 0.000000 1.772320 0.000000 
#    z 0.000000 0.000000 1.739190 
# 
# From -- ./inp_files/8293.got.cif
#   From: 2010.03.12/outbox.cif.g09.slc.cpg/sg51_5_cif.got.tgz:8293.got - 2010.04.16 13:43:02.
