data_PCOD8212601
_publ_section_title
;
Structure prediction by ZEFSAII (Michael W. Deem and Ramdas Pophale) SiO2 
 PCOD8212601
Probable space group: P M M A
;
_chemical_formula_sum "Si O2"
_cell_formula_units_Z 48
_cell_length_a 16.924833
_cell_length_b 16.471280
_cell_length_c 7.899434
_cell_angle_alpha 90.000000
_cell_angle_beta 90.000000
_cell_angle_gamma 90.000000
_cell_volume 2202.154154
_symmetry_space_group_name_H-M "P M M A"
_symmetry_group_IT_number 51
_symmetry_cell_setting 'orthorhombic'
loop_
_space_group_symop_operation_xyz
x,y,z
1/2-x,-y,z
1/2+x,-y,-z
-x,y,-z
-x,-y,-z
1/2+x,y,-z
1/2-x,y,z
x,-y,z
loop_
_atom_site_type_symbol
_atom_site_label
_atom_site_fract_x
_atom_site_fract_y
_atom_site_fract_z
Si Si1 0.437935 0.851471 0.122464
Si Si2 0.661825 0.000000 0.514715
Si Si3 0.157345 0.703982 0.263307
Si Si4 0.657532 0.701150 0.348564
Si Si5 0.338420 0.000000 0.084553
Si Si6 0.061399 0.855268 0.628439
Si Si7 0.343740 0.409447 0.959133
O O1 0.384085 0.789545 0.226685
O O2 0.501195 0.899110 0.241291
O O3 0.383750 0.918152 0.025310
O O4 0.500000 0.804181 0.000000
O O5 0.665504 0.000000 0.714725
O O6 0.618352 0.080032 0.455105
O O7 0.750000 0.000000 0.438180
O O8 0.250000 0.719461 0.240293
O O9 0.138481 0.675880 0.456257
O O10 0.126593 0.637783 0.127563
O O11 0.750000 0.717019 0.325969
O O12 0.614244 0.783686 0.292509
O O13 0.628363 0.632656 0.216260
O O14 0.250000 0.000000 0.006066
O O15 0.000000 0.812690 0.500000
O O16 0.250000 0.413805 0.962953
O O17 0.379996 0.500000 0.963611
#
# Coordination Sequence:
#
# PCOD8212601 Si02
#       7
#     8   4   8   8   4   8   8
#     4  12  24  38  57  86 117 158 197 245 298 353
#     4  11  22  38  61  87 118 157 201 250 296 343
#     4  10  20  37  60  87 119 156 200 245 297 357
#     4  10  20  36  60  89 119 158 202 245 299 357
#     4  11  22  39  59  82 116 155 201 246 292 347
#     4  12  21  37  59  85 118 153 199 245 289 349
#     4   9  19  36  60  91 122 151 193 251 304 355
#
# _framework density 21.796838999999999
#
# number of rings (size 3 to 8) (size 9 to 14) (size 15 to 20)
#    0.000    1.333    3.333    3.000    0.000    3.333 
#    0.000    6.667    0.000    5.000    0.000    0.000 
#    0.000    0.000    0.000    0.000    0.000    0.000 
#
# Total GULP energy -594734.839160 kJ/mol
# GULP energy per Si atom -12390.309149 kJ/mol
# Density = 2.174723 g / cm^3
# Si number density = 21.796839 Si / 1000 Ang^3
#
#
#
# Elastic Constant Matrix: (Units=GPa)
#
#
# Indices 1 2 3 4 5 6 
#
# 1 91.9573 47.1281 33.4167 0.0000 0.0000 0.0000
# 2 47.1281 138.3088 37.9818 0.0000 0.0000 0.0000
# 3 33.4167 37.9818 90.5825 0.0000 0.0000 0.0000
# 4 0.0000 0.0000 0.0000 153.5693 0.0000 0.0000
# 5 0.0000 0.0000 0.0000 0.0000 27.5962 0.0000
# 6 0.0000 0.0000 0.0000 0.0000 0.0000 -3.5629
#
#
#
# Elastic Compliance Matrix: (Units=1/GPa)
#
#
# Indices 1 2 3 4 5 6 
#
# 1 0.014151 -0.003829 -0.003615 0.000000 0.000000 0.000000
# 2 -0.003829 0.009207 -0.002448 0.000000 0.000000 0.000000
# 3 -0.003615 -0.002448 0.013400 0.000000 0.000000 0.000000
# 4 0.000000 0.000000 0.000000 0.006512 0.000000 0.000000
# 5 0.000000 0.000000 0.000000 0.000000 0.036237 0.000000
# 6 0.000000 0.000000 0.000000 0.000000 0.000000 -0.280667
#
#
# Mechanical properties :
#
#
# Convention : Reuss Voigt Hill
#
# Bulk Modulus (GPa) = 58.91460 61.98909 60.45185
# Shear Modulus (GPa) = -28.45442 49.00867 10.27712
#
# Velocity S-wave (km/s) = -3.61700 4.74691 2.17375
# Velocity P-wave (km/s) = 3.10548 7.65149 5.83907
#
# Compressibility (1/GPa) = 0.01697372
#
# Stress axis : x y z
#
# Youngs Moduli (GPa) = 70.66850 108.61046 74.62887
#
# Poissons Ratio (x) = 0.41588 0.26976
# Poissons Ratio (y) = 0.27060 0.18270
# Poissons Ratio (z) = 0.25545 0.26589
#
# Static dielectric constant tensor:
#      x y z
#    x 4.090490 0.000000 0.000000 
#    y 0.000000 3.864080 0.000000 
#    z 0.000000 0.000000 4.417440 
# 
# 
# High freq. dielectric constant tensor:
#      x y z
#    x 1.858480 0.000000 0.000000 
#    y 0.000000 1.829760 0.000000 
#    z 0.000000 0.000000 1.868200 
# 
# From -- ./inp_files/9670.got.cif
#   From: 2010.03.12/outbox.cif.g09.slc.cpg/sg51_5_cif.got.tgz:9670.got - 2010.04.16 13:43:02.
