data_PCOD8212967
_publ_section_title
;
Structure prediction by ZEFSAII (Michael W. Deem and Ramdas Pophale) SiO2 
 PCOD8212967
Probable space group: P M M A
;
_chemical_formula_sum "Si O2"
_cell_formula_units_Z 48
_cell_length_a 8.927124
_cell_length_b 30.815904
_cell_length_c 9.341304
_cell_angle_alpha 90.000000
_cell_angle_beta 90.000000
_cell_angle_gamma 90.000000
_cell_volume 2569.768407
_symmetry_space_group_name_H-M "P M M A"
_symmetry_group_IT_number 51
_symmetry_cell_setting 'orthorhombic'
loop_
_space_group_symop_operation_xyz
x,y,z
1/2-x,-y,z
1/2+x,-y,-z
-x,y,-z
-x,-y,-z
1/2+x,y,-z
1/2-x,y,z
x,-y,z
loop_
_atom_site_type_symbol
_atom_site_label
_atom_site_fract_x
_atom_site_fract_y
_atom_site_fract_z
Si Si1 0.427267 0.748158 0.345026
Si Si2 0.574222 0.406249 0.345893
Si Si3 0.926729 0.000000 0.651839
Si Si4 0.924072 0.500000 0.349521
Si Si5 0.575728 0.826237 0.854132
Si Si6 0.571402 0.326149 0.155541
Si Si7 0.426499 0.923723 0.146859
O O1 0.500000 0.745829 0.500000
O O2 0.250000 0.739527 0.355337
O O3 0.464446 0.795110 0.277884
O O4 0.504030 0.713005 0.245014
O O5 0.500000 0.398375 0.500000
O O6 0.750000 0.402155 0.372353
O O7 0.531475 0.453859 0.276116
O O8 0.520464 0.370533 0.232940
O O9 0.982673 0.956657 0.731928
O O10 0.000000 0.000000 0.500000
O O11 0.750000 0.000000 0.635440
O O12 0.750000 0.500000 0.378460
O O13 0.000000 0.500000 0.500000
O O14 0.750000 0.825514 0.887049
O O15 0.521580 0.874806 0.813107
O O16 0.500000 0.809489 0.000000
O O17 0.750000 0.321513 0.144659
O O18 0.500000 0.325936 0.000000
O O19 0.250000 0.926616 0.127299
O O20 0.500000 0.939013 0.000000
#
# Coordination Sequence:
#
# PCOD8212967 Si02
#       7
#     8   8   4   4   8   8   8
#     4  11  23  38  56  79 106 138 174 215 260 310
#     4   9  18  32  53  78 104 134 170 211 256 305
#     4  10  21  34  50  74 106 138 171 212 258 304
#     4   8  14  28  49  74 102 132 166 206 251 302
#     4   9  19  35  55  78 105 135 170 211 257 306
#     4  11  23  38  55  77 105 139 176 217 263 311
#     4   9  18  34  54  77 103 134 172 213 254 304
#
# _framework density 18.678726000000001
#
# number of rings (size 3 to 8) (size 9 to 14) (size 15 to 20)
#    0.000    2.333    0.000    2.250    0.000    6.667 
#    0.000    0.417    0.000    0.000    0.000    0.000 
#    0.000    0.000    0.000    0.000    0.000    0.000 
#
# Total GULP energy -594975.581761 kJ/mol
# GULP energy per Si atom -12395.324620 kJ/mol
# Density = 1.863621 g / cm^3
# Si number density = 18.678726 Si / 1000 Ang^3
#
#
#
# Elastic Constant Matrix: (Units=GPa)
#
#
# Indices 1 2 3 4 5 6 
#
# 1 50.0551 48.8839 49.7049 0.0000 0.0000 0.0000
# 2 48.8839 150.4283 94.7076 0.0000 0.0000 0.0000
# 3 49.7049 94.7076 157.8006 0.0000 0.0000 0.0000
# 4 0.0000 0.0000 0.0000 19.3779 0.0000 0.0000
# 5 0.0000 0.0000 0.0000 0.0000 35.3770 0.0000
# 6 0.0000 0.0000 0.0000 0.0000 0.0000 24.4897
#
#
#
# Elastic Compliance Matrix: (Units=1/GPa)
#
#
# Indices 1 2 3 4 5 6 
#
# 1 0.032765 -0.006670 -0.006317 0.000000 0.000000 0.000000
# 2 -0.006670 0.012043 -0.005127 0.000000 0.000000 0.000000
# 3 -0.006317 -0.005127 0.011404 0.000000 0.000000 0.000000
# 4 0.000000 0.000000 0.000000 0.051605 0.000000 0.000000
# 5 0.000000 0.000000 0.000000 0.000000 0.028267 0.000000
# 6 0.000000 0.000000 0.000000 0.000000 0.000000 0.040833
#
#
# Mechanical properties :
#
#
# Convention : Reuss Voigt Hill
#
# Bulk Modulus (GPa) = 50.04138 82.76407 66.40272
# Shear Modulus (GPa) = 22.74712 26.84810 24.79761
#
# Velocity S-wave (km/s) = 3.49350 3.79537 3.64756
# Velocity P-wave (km/s) = 6.56669 7.97571 7.30525
#
# Compressibility (1/GPa) = 0.01998346
#
# Stress axis : x y z
#
# Youngs Moduli (GPa) = 30.52012 83.03491 87.68873
#
# Poissons Ratio (x) = 0.55387 0.55395
# Poissons Ratio (y) = 0.20358 0.44957
# Poissons Ratio (z) = 0.19280 0.42571
#
# Static dielectric constant tensor:
#      x y z
#    x 3.958440 0.000000 0.000000 
#    y 0.000000 4.235540 0.000000 
#    z 0.000000 0.000000 3.239860 
# 
# 
# High freq. dielectric constant tensor:
#      x y z
#    x 1.724620 0.000000 0.000000 
#    y 0.000000 1.749840 0.000000 
#    z 0.000000 0.000000 1.709960 
# 
# From -- ./inp_files/6142.got.cif
#   From: 2010.03.12/outbox.cif.g09.slc.cpg/sg51_4_cif.got.tgz:6142.got - 2010.04.16 13:43:02.
