data_PCOD8212623
_publ_section_title
;
Structure prediction by ZEFSAII (Michael W. Deem and Ramdas Pophale) SiO2 
 PCOD8212623
Probable space group: P M M A
;
_chemical_formula_sum "Si O2"
_cell_formula_units_Z 64
_cell_length_a 30.733607
_cell_length_b 8.728281
_cell_length_c 11.940800
_cell_angle_alpha 90.000000
_cell_angle_beta 90.000000
_cell_angle_gamma 90.000000
_cell_volume 3203.138204
_symmetry_space_group_name_H-M "P M M A"
_symmetry_group_IT_number 51
_symmetry_cell_setting 'orthorhombic'
loop_
_space_group_symop_operation_xyz
x,y,z
1/2-x,-y,z
1/2+x,-y,-z
-x,y,-z
-x,-y,-z
1/2+x,y,-z
1/2-x,y,z
x,-y,z
loop_
_atom_site_type_symbol
_atom_site_label
_atom_site_fract_x
_atom_site_fract_y
_atom_site_fract_z
Si Si1 0.375720 0.319521 0.874034
Si Si2 0.570459 0.178549 0.509283
Si Si3 0.049805 0.674911 0.261971
Si Si4 0.670910 0.820266 0.498746
Si Si5 0.622449 0.179933 0.884278
Si Si6 0.299410 0.179085 0.738460
Si Si7 0.701592 0.817853 0.735027
Si Si8 0.953117 0.676739 0.284409
O O1 0.375349 0.500000 0.877253
O O2 0.329888 0.261586 0.827552
O O3 0.415592 0.260039 0.797733
O O4 0.383125 0.260485 0.998108
O O5 0.551246 0.280203 0.608192
O O6 0.620611 0.222131 0.494465
O O7 0.545744 0.220385 0.395557
O O8 0.563864 0.000000 0.536807
O O9 0.065364 0.500000 0.246384
O O10 0.080347 0.785827 0.190628
O O11 0.999686 0.693799 0.222558
O O12 0.693183 0.753079 0.386593
O O13 0.692014 0.748902 0.611219
O O14 0.679137 0.000000 0.501148
O O15 0.665885 0.244259 0.822749
O O16 0.626123 0.000000 0.903138
O O17 0.250000 0.210193 0.775339
O O18 0.310854 0.000000 0.740340
O O19 0.750000 0.766651 0.773143
O O20 0.697700 0.000000 0.729433
O O21 0.944425 0.500000 0.317286
#
# Coordination Sequence:
#
# PCOD8212623 Si02
#       8
#     8   8   8   8   8   8   8   8
#     4  11  24  42  61  82 113 156 202 247 299 350
#     4  11  20  34  60  92 122 151 190 242 294 346
#     4  11  23  40  61  85 118 157 196 237 292 358
#     4   9  16  30  55  88 120 147 181 231 287 338
#     4  11  23  40  61  88 117 149 198 251 299 348
#     4  10  20  36  61  91 120 153 194 239 290 349
#     4   9  17  32  57  87 117 148 183 228 284 345
#     4  10  23  41  60  84 116 158 200 238 289 360
#
# _framework density 19.980405000000001
#
# number of rings (size 3 to 8) (size 9 to 14) (size 15 to 20)
#    0.000    1.750    2.500    2.250    0.000    5.750 
#    0.000    3.750    0.000    1.125    0.000    0.000 
#    0.000    0.000    0.000    0.000    0.000    0.000 
#
# Total GULP energy -793722.681312 kJ/mol
# GULP energy per Si atom -12401.916895 kJ/mol
# Density = 1.993493 g / cm^3
# Si number density = 19.980405 Si / 1000 Ang^3
#
#
#
# Elastic Constant Matrix: (Units=GPa)
#
#
# Indices 1 2 3 4 5 6 
#
# 1 103.0822 23.0232 42.9777 0.0000 0.0000 0.0000
# 2 23.0232 33.3134 8.5218 0.0000 0.0000 0.0000
# 3 42.9777 8.5218 106.0575 0.0000 0.0000 0.0000
# 4 0.0000 0.0000 0.0000 28.8459 0.0000 0.0000
# 5 0.0000 0.0000 0.0000 0.0000 10.6709 0.0000
# 6 0.0000 0.0000 0.0000 0.0000 0.0000 24.5566
#
#
#
# Elastic Compliance Matrix: (Units=1/GPa)
#
#
# Indices 1 2 3 4 5 6 
#
# 1 0.013527 -0.008113 -0.004829 0.000000 0.000000 0.000000
# 2 -0.008113 0.035514 0.000434 0.000000 0.000000 0.000000
# 3 -0.004829 0.000434 0.011351 0.000000 0.000000 0.000000
# 4 0.000000 0.000000 0.000000 0.034667 0.000000 0.000000
# 5 0.000000 0.000000 0.000000 0.000000 0.093713 0.000000
# 6 0.000000 0.000000 0.000000 0.000000 0.000000 0.040722
#
#
# Mechanical properties :
#
#
# Convention : Reuss Voigt Hill
#
# Bulk Modulus (GPa) = 28.26884 43.49986 35.88435
# Shear Modulus (GPa) = 18.77570 24.01004 21.39287
#
# Velocity S-wave (km/s) = 3.06879 3.47029 3.27569
# Velocity P-wave (km/s) = 5.17065 6.15432 5.68381
#
# Compressibility (1/GPa) = 0.03537464
#
# Stress axis : x y z
#
# Youngs Moduli (GPa) = 73.92883 28.15808 88.09779
#
# Poissons Ratio (x) = 0.22844 0.42547
# Poissons Ratio (y) = 0.59978 -0.03824
# Poissons Ratio (z) = 0.35704 -0.01222
#
# Static dielectric constant tensor:
#      x y z
#    x 3.833660 0.000000 0.000000 
#    y 0.000000 3.341040 0.000000 
#    z 0.000000 0.000000 3.670840 
# 
# 
# High freq. dielectric constant tensor:
#      x y z
#    x 1.795140 0.000000 0.000000 
#    y 0.000000 1.751750 0.000000 
#    z 0.000000 0.000000 1.777750 
# 
# From -- ./inp_files/19610.got.cif
#   From: 2010.03.12/outbox.cif.g09.slc.cpg/sg51_10_cif.got.tgz:19610.got - 2010.04.16 13:43:02.
