data_PCOD8212811
_publ_section_title
;
Structure prediction by ZEFSAII (Michael W. Deem and Ramdas Pophale) SiO2 
 PCOD8212811
Probable space group: P M M A
;
_chemical_formula_sum "Si O2"
_cell_formula_units_Z 52
_cell_length_a 18.380298
_cell_length_b 7.452514
_cell_length_c 19.197117
_cell_angle_alpha 90.000000
_cell_angle_beta 90.000000
_cell_angle_gamma 90.000000
_cell_volume 2629.610109
_symmetry_space_group_name_H-M "P M M A"
_symmetry_group_IT_number 51
_symmetry_cell_setting 'orthorhombic'
loop_
_space_group_symop_operation_xyz
x,y,z
1/2-x,-y,z
1/2+x,-y,-z
-x,y,-z
-x,-y,-z
1/2+x,y,-z
1/2-x,y,z
x,-y,z
loop_
_atom_site_type_symbol
_atom_site_label
_atom_site_fract_x
_atom_site_fract_y
_atom_site_fract_z
Si Si1 0.448562 0.288995 0.649260
Si Si2 0.831557 0.286876 0.457231
Si Si3 0.665227 0.000000 0.977232
Si Si4 0.456494 0.709079 0.806207
Si Si5 0.332463 0.000000 0.292887
Si Si6 0.608916 0.289083 0.606524
Si Si7 0.068241 0.000000 0.158603
Si Si8 0.332613 0.703783 0.913495
O O1 0.438667 0.500000 0.651651
O O2 0.382583 0.206030 0.603845
O O3 0.446022 0.214960 0.727956
O O4 0.524220 0.237030 0.612688
O O5 0.750000 0.209581 0.448464
O O6 0.830674 0.500000 0.453572
O O7 0.864121 0.226578 0.531032
O O8 0.618825 0.000000 0.908122
O O9 0.750000 0.000000 0.957141
O O10 0.643742 0.174571 0.021804
O O11 0.479349 0.500000 0.806580
O O12 0.381212 0.743099 0.846061
O O13 0.519649 0.820751 0.843712
O O14 0.345727 0.180362 0.336712
O O15 0.383396 0.000000 0.226690
O O16 0.250000 0.000000 0.266749
O O17 0.622045 0.500000 0.619956
O O18 0.250000 0.746660 0.890835
O O19 0.341869 0.500000 0.938937
#
# Coordination Sequence:
#
# PCOD8212811 Si02
#       8
#     8   8   4   8   4   8   4   8
#     4   9  17  32  54  80 114 153 189 231 284 338
#     4   9  17  30  53  84 114 148 193 240 287 339
#     4  10  22  41  62  84 115 153 188 232 289 340
#     4  10  21  37  59  87 119 154 191 231 280 336
#     4  12  25  39  59  84 108 144 193 238 283 340
#     4  10  20  38  59  80 110 150 190 238 290 339
#     4  12  24  40  59  83 116 150 189 238 283 339
#     4   9  19  37  61  89 119 152 190 229 274 335
#
# _framework density 19.774794
#
# number of rings (size 3 to 8) (size 9 to 14) (size 15 to 20)
#    0.000    2.154    1.538    1.615    0.000    5.231 
#    0.000    6.923    0.000    2.769    0.000    0.000 
#    0.000    0.000    0.000    0.000    0.000    0.000 
#
# Total GULP energy -644850.347613 kJ/mol
# GULP energy per Si atom -12400.968223 kJ/mol
# Density = 1.972979 g / cm^3
# Si number density = 19.774794 Si / 1000 Ang^3
#
#
#
# Elastic Constant Matrix: (Units=GPa)
#
#
# Indices 1 2 3 4 5 6 
#
# 1 116.8877 43.2948 62.6906 0.0000 0.0000 0.0000
# 2 43.2948 80.9291 42.2121 0.0000 0.0000 0.0000
# 3 62.6906 42.2121 114.5676 0.0000 0.0000 0.0000
# 4 0.0000 0.0000 0.0000 10.4789 0.0000 0.0000
# 5 0.0000 0.0000 0.0000 0.0000 46.8609 0.0000
# 6 0.0000 0.0000 0.0000 0.0000 0.0000 -9.8994
#
#
#
# Elastic Compliance Matrix: (Units=1/GPa)
#
#
# Indices 1 2 3 4 5 6 
#
# 1 0.013099 -0.004047 -0.005676 0.000000 0.000000 0.000000
# 2 -0.004047 0.016546 -0.003882 0.000000 0.000000 0.000000
# 3 -0.005676 -0.003882 0.013265 0.000000 0.000000 0.000000
# 4 0.000000 0.000000 0.000000 0.095430 0.000000 0.000000
# 5 0.000000 0.000000 0.000000 0.000000 0.021340 0.000000
# 6 0.000000 0.000000 0.000000 0.000000 0.000000 -0.101016
#
#
# Mechanical properties :
#
#
# Convention : Reuss Voigt Hill
#
# Bulk Modulus (GPa) = 63.69701 67.64218 65.66959
# Shear Modulus (GPa) = 54.88102 20.43388 37.65745
#
# Velocity S-wave (km/s) = 5.27383 3.21803 4.36858
# Velocity P-wave (km/s) = 8.32859 6.93456 7.66334
#
# Compressibility (1/GPa) = 0.01569932
#
# Stress axis : x y z
#
# Youngs Moduli (GPa) = 76.34452 60.43689 75.38652
#
# Poissons Ratio (x) = 0.24456 0.42793
# Poissons Ratio (y) = 0.30893 0.29266
# Poissons Ratio (z) = 0.43337 0.23463
#
# Static dielectric constant tensor:
#      x y z
#    x 3.767240 0.000000 0.000000 
#    y 0.000000 3.525720 0.000000 
#    z 0.000000 0.000000 3.630230 
# 
# 
# High freq. dielectric constant tensor:
#      x y z
#    x 1.777210 0.000000 0.000000 
#    y 0.000000 1.768370 0.000000 
#    z 0.000000 0.000000 1.766240 
# 
# From -- ./inp_files/30139.got.cif
#   From: 2010.03.12/outbox.cif.g09.slc.cpg/sg51_16_cif.got.tgz:30139.got - 2010.04.16 13:43:02.
