data_PCOD8212704
_publ_section_title
;
Structure prediction by ZEFSAII (Michael W. Deem and Ramdas Pophale) SiO2 
 PCOD8212704
Probable space group: P M M A
;
_chemical_formula_sum "Si O2"
_cell_formula_units_Z 48
_cell_length_a 8.871783
_cell_length_b 29.611757
_cell_length_c 9.577137
_cell_angle_alpha 90.000000
_cell_angle_beta 90.000000
_cell_angle_gamma 90.000000
_cell_volume 2516.000873
_symmetry_space_group_name_H-M "P M M A"
_symmetry_group_IT_number 51
_symmetry_cell_setting 'orthorhombic'
loop_
_space_group_symop_operation_xyz
x,y,z
1/2-x,-y,z
1/2+x,-y,-z
-x,y,-z
-x,-y,-z
1/2+x,y,-z
1/2-x,y,z
x,-y,z
loop_
_atom_site_type_symbol
_atom_site_label
_atom_site_fract_x
_atom_site_fract_y
_atom_site_fract_z
Si Si1 0.428340 0.620485 0.650542
Si Si2 0.075570 0.447035 0.144059
Si Si3 0.426647 0.949222 0.142721
Si Si4 0.574500 0.697723 0.141523
Si Si5 0.428571 0.199152 0.854102
Si Si6 0.928709 0.871063 0.650978
O O1 0.500000 0.624080 0.500000
O O2 0.250000 0.615374 0.638108
O O3 0.493450 0.576836 0.727718
O O4 0.476720 0.665900 0.731877
O O5 0.250000 0.433225 0.139636
O O6 0.053406 0.500000 0.167251
O O7 0.000000 0.431063 0.000000
O O8 0.250000 0.947948 0.118957
O O9 0.475354 0.916650 0.268086
O O10 0.482492 0.000000 0.178435
O O11 0.500000 0.931442 0.000000
O O12 0.750000 0.694439 0.115682
O O13 0.526310 0.748968 0.174945
O O14 0.500000 0.679789 0.000000
O O15 0.250000 0.191528 0.859356
O O16 0.501034 0.171783 0.728002
O O17 0.500000 0.182611 0.000000
O O18 0.750000 0.865024 0.640561
O O19 0.000000 0.874908 0.500000
#
# Coordination Sequence:
#
# PCOD8212704 Si02
#       6
#     8   8   8   8   8   8
#     4  11  23  38  56  81 113 148 185 225 273 325
#     4  10  21  38  60  85 112 144 183 226 272 323
#     4   9  19  36  57  80 106 138 178 223 270 321
#     4   9  20  37  58  83 109 141 181 225 271 322
#     4  10  20  37  59  83 111 143 182 225 271 322
#     4  11  23  37  54  79 111 146 183 224 273 326
#
# _framework density 19.077895999999999
#
# number of rings (size 3 to 8) (size 9 to 14) (size 15 to 20)
#    0.000    2.000    0.000    3.000    0.000    8.333 
#    0.000    1.667    0.000    0.000    0.000    0.000 
#    0.000    0.000    0.000    0.000    0.000    0.000 
#
# Total GULP energy -595404.890563 kJ/mol
# GULP energy per Si atom -12404.268553 kJ/mol
# Density = 1.903447 g / cm^3
# Si number density = 19.077896 Si / 1000 Ang^3
#
#
#
# Elastic Constant Matrix: (Units=GPa)
#
#
# Indices 1 2 3 4 5 6 
#
# 1 89.9889 55.1587 73.9100 0.0000 0.0000 0.0000
# 2 55.1587 96.6624 83.7897 0.0000 0.0000 0.0000
# 3 73.9100 83.7897 188.6059 0.0000 0.0000 0.0000
# 4 0.0000 0.0000 0.0000 27.0269 0.0000 0.0000
# 5 0.0000 0.0000 0.0000 0.0000 40.6185 0.0000
# 6 0.0000 0.0000 0.0000 0.0000 0.0000 24.2382
#
#
#
# Elastic Compliance Matrix: (Units=1/GPa)
#
#
# Indices 1 2 3 4 5 6 
#
# 1 0.018997 -0.007135 -0.004275 0.000000 0.000000 0.000000
# 2 -0.007135 0.019504 -0.005869 0.000000 0.000000 0.000000
# 3 -0.004275 -0.005869 0.009584 0.000000 0.000000 0.000000
# 4 0.000000 0.000000 0.000000 0.037000 0.000000 0.000000
# 5 0.000000 0.000000 0.000000 0.000000 0.024619 0.000000
# 6 0.000000 0.000000 0.000000 0.000000 0.000000 0.041257
#
#
# Mechanical properties :
#
#
# Convention : Reuss Voigt Hill
#
# Bulk Modulus (GPa) = 73.91775 88.99711 81.45743
# Shear Modulus (GPa) = 26.31200 29.20331 27.75766
#
# Velocity S-wave (km/s) = 3.71777 3.91671 3.81854
# Velocity P-wave (km/s) = 7.56693 8.19785 7.88870
#
# Compressibility (1/GPa) = 0.01352855
#
# Stress axis : x y z
#
# Youngs Moduli (GPa) = 52.64117 51.27196 104.33556
#
# Poissons Ratio (x) = 0.36581 0.44600
# Poissons Ratio (y) = 0.37558 0.61233
# Poissons Ratio (z) = 0.22502 0.30091
#
# Static dielectric constant tensor:
#      x y z
#    x 3.563100 0.000000 0.000000 
#    y 0.000000 3.776150 0.000000 
#    z 0.000000 0.000000 3.513050 
# 
# 
# High freq. dielectric constant tensor:
#      x y z
#    x 1.750780 0.000000 0.000000 
#    y 0.000000 1.753600 0.000000 
#    z 0.000000 0.000000 1.740570 
# 
# From -- ./inp_files/6038.got.cif
#   From: 2010.03.12/outbox.cif.g09.slc.cpg/sg51_4_cif.got.tgz:6038.got - 2010.04.16 13:43:02.
