data_PCOD8212319
_publ_section_title
;
Structure prediction by ZEFSAII (Michael W. Deem and Ramdas Pophale) SiO2 
 PCOD8212319
Probable space group: P M M A
;
_chemical_formula_sum "Si O2"
_cell_formula_units_Z 48
_cell_length_a 9.253142
_cell_length_b 18.833820
_cell_length_c 13.797172
_cell_angle_alpha 90.000000
_cell_angle_beta 90.000000
_cell_angle_gamma 90.000000
_cell_volume 2404.460909
_symmetry_space_group_name_H-M "P M M A"
_symmetry_group_IT_number 51
_symmetry_cell_setting 'orthorhombic'
loop_
_space_group_symop_operation_xyz
x,y,z
1/2-x,-y,z
1/2+x,-y,-z
-x,y,-z
-x,-y,-z
1/2+x,y,-z
1/2-x,y,z
x,-y,z
loop_
_atom_site_type_symbol
_atom_site_label
_atom_site_fract_x
_atom_site_fract_y
_atom_site_fract_z
Si Si1 0.750000 0.915670 0.151144
Si Si2 0.084198 0.417838 0.794627
Si Si3 0.971663 0.158465 0.793753
Si Si4 0.914775 0.201892 0.589599
Si Si5 0.420520 0.348325 0.593474
Si Si6 0.922323 0.701005 0.900730
Si Si7 0.250000 0.916492 0.073159
O O1 0.623574 0.878784 0.209217
O O2 0.750000 0.000000 0.164055
O O3 0.750000 0.893489 0.038607
O O4 0.250000 0.398279 0.820328
O O5 0.052631 0.500000 0.812939
O O6 0.051655 0.400468 0.682955
O O7 0.977226 0.375337 0.864992
O O8 0.909777 0.152055 0.684783
O O9 0.971384 0.241199 0.821851
O O10 0.888224 0.114716 0.875002
O O11 0.750000 0.219411 0.558888
O O12 0.000000 0.164088 0.500000
O O13 0.003845 0.272995 0.614572
O O14 0.500000 0.382785 0.500000
O O15 0.250000 0.337964 0.574230
O O16 0.750000 0.700500 0.914033
O O17 0.000000 0.721689 0.000000
O O18 0.250000 0.000000 0.083881
#
# Coordination Sequence:
#
# PCOD8212319 Si02
#       7
#     4   8   8   8   8   8   4
#     4  11  26  42  67 101 136 172 210 251 315 389
#     4  10  23  42  62  87 124 168 211 261 318 373
#     4  12  24  40  67  98 131 169 213 263 313 375
#     4  11  22  38  62  94 126 163 212 265 317 372
#     4  10  20  35  59  88 122 160 203 258 315 374
#     4  12  25  41  64  94 124 163 213 262 314 376
#     4  11  22  44  67  97 136 172 206 255 317 375
#
# _framework density 19.962893999999999
#
# number of rings (size 3 to 8) (size 9 to 14) (size 15 to 20)
#    0.000    1.000    3.333    4.500    4.667    3.000 
#    0.000    0.000    0.000    3.000    0.000    0.000 
#    0.000    0.000    0.000    0.000    0.000    0.000 
#
# Total GULP energy -595133.010038 kJ/mol
# GULP energy per Si atom -12398.604376 kJ/mol
# Density = 1.991746 g / cm^3
# Si number density = 19.962894 Si / 1000 Ang^3
#
#
#
# Elastic Constant Matrix: (Units=GPa)
#
#
# Indices 1 2 3 4 5 6 
#
# 1 150.0713 35.7252 37.8491 0.0000 0.0000 0.0000
# 2 35.7252 68.2380 30.0975 0.0000 0.0000 0.0000
# 3 37.8491 30.0975 110.7470 0.0000 0.0000 0.0000
# 4 0.0000 0.0000 0.0000 36.9708 0.0000 0.0000
# 5 0.0000 0.0000 0.0000 0.0000 37.3758 0.0000
# 6 0.0000 0.0000 0.0000 0.0000 0.0000 35.3864
#
#
#
# Elastic Compliance Matrix: (Units=1/GPa)
#
#
# Indices 1 2 3 4 5 6 
#
# 1 0.007914 -0.003352 -0.001794 0.000000 0.000000 0.000000
# 2 -0.003352 0.018070 -0.003765 0.000000 0.000000 0.000000
# 3 -0.001794 -0.003765 0.010666 0.000000 0.000000 0.000000
# 4 0.000000 0.000000 0.000000 0.027048 0.000000 0.000000
# 5 0.000000 0.000000 0.000000 0.000000 0.026755 0.000000
# 6 0.000000 0.000000 0.000000 0.000000 0.000000 0.028259
#
#
# Mechanical properties :
#
#
# Convention : Reuss Voigt Hill
#
# Bulk Modulus (GPa) = 53.11264 59.59999 56.35632
# Shear Modulus (GPa) = 35.01126 36.97224 35.99175
#
# Velocity S-wave (km/s) = 4.19240 4.30821 4.25070
# Velocity P-wave (km/s) = 7.07802 7.39377 7.23762
#
# Compressibility (1/GPa) = 0.01882791
#
# Stress axis : x y z
#
# Youngs Moduli (GPa) = 126.36072 55.33947 93.75681
#
# Poissons Ratio (x) = 0.18550 0.16817
# Poissons Ratio (y) = 0.42357 0.35302
# Poissons Ratio (z) = 0.22665 0.20837
#
# Static dielectric constant tensor:
#      x y z
#    x 3.758830 0.000000 0.000000 
#    y 0.000000 3.429540 0.000000 
#    z 0.000000 0.000000 3.850210 
# 
# 
# High freq. dielectric constant tensor:
#      x y z
#    x 1.794540 0.000000 0.000000 
#    y 0.000000 1.756770 0.000000 
#    z 0.000000 0.000000 1.791210 
# 
# From -- ./inp_files/21141.got.cif
#   From: 2010.03.12/outbox.cif.g09.slc.cpg/sg51_11_cif.got.tgz:21141.got - 2010.04.16 13:43:02.
