data_PCOD8212709
_publ_section_title
;
Structure prediction by ZEFSAII (Michael W. Deem and Ramdas Pophale) SiO2 
 PCOD8212709
Probable space group: P M M A
;
_chemical_formula_sum "Si O2"
_cell_formula_units_Z 48
_cell_length_a 8.738308
_cell_length_b 30.612699
_cell_length_c 9.169276
_cell_angle_alpha 90.000000
_cell_angle_beta 90.000000
_cell_angle_gamma 90.000000
_cell_volume 2452.810604
_symmetry_space_group_name_H-M "P M M A"
_symmetry_group_IT_number 51
_symmetry_cell_setting 'orthorhombic'
loop_
_space_group_symop_operation_xyz
x,y,z
1/2-x,-y,z
1/2+x,-y,-z
-x,y,-z
-x,-y,-z
1/2+x,y,-z
1/2-x,y,z
x,-y,z
loop_
_atom_site_type_symbol
_atom_site_label
_atom_site_fract_x
_atom_site_fract_y
_atom_site_fract_z
Si Si1 0.932225 0.500000 0.838923
Si Si2 0.931285 0.000000 0.657389
Si Si3 0.068894 0.253643 0.657822
Si Si4 0.569010 0.075145 0.155012
Si Si5 0.931064 0.420608 0.339394
Si Si6 0.929232 0.825973 0.153087
Si Si7 0.929038 0.335330 0.157827
O O1 0.750000 0.500000 0.847880
O O2 0.989320 0.457782 0.754238
O O3 0.000000 0.500000 0.000000
O O4 0.000000 0.000000 0.500000
O O5 0.990773 0.043995 0.729933
O O6 0.750000 0.000000 0.655072
O O7 0.250000 0.255915 0.643242
O O8 0.013250 0.206976 0.721594
O O9 0.008098 0.291343 0.766060
O O10 0.000000 0.260936 0.500000
O O11 0.750000 0.067666 0.152569
O O12 0.524149 0.124795 0.197131
O O13 0.500000 0.062454 0.000000
O O14 0.750000 0.428954 0.346955
O O15 0.972740 0.375130 0.262976
O O16 0.000000 0.420401 0.500000
O O17 0.750000 0.822032 0.131901
O O18 0.000000 0.811805 0.000000
O O19 0.750000 0.332053 0.134061
O O20 0.000000 0.342290 0.000000
#
# Coordination Sequence:
#
# PCOD8212709 Si02
#       7
#     4   4   8   8   8   8   8
#     4  12  25  42  63  88 118 154 194 240 287 340
#     4  12  25  40  57  80 110 146 184 230 283 336
#     4  10  21  37  55  82 115 149 187 229 276 331
#     4  10  20  37  59  84 112 146 186 230 276 331
#     4  11  23  40  61  88 119 154 193 237 287 341
#     4   9  19  35  57  83 112 144 184 228 273 325
#     4  10  22  38  59  85 115 149 190 235 282 334
#
# _framework density 19.569388
#
# number of rings (size 3 to 8) (size 9 to 14) (size 15 to 20)
#    0.000    1.667    0.000    4.500    0.000    5.333 
#    0.000    1.667    0.000    0.000    0.000    0.000 
#    0.000    0.000    0.000    0.000    0.000    0.000 
#
# Total GULP energy -595335.508852 kJ/mol
# GULP energy per Si atom -12402.823101 kJ/mol
# Density = 1.952485 g / cm^3
# Si number density = 19.569388 Si / 1000 Ang^3
#
#
#
# Elastic Constant Matrix: (Units=GPa)
#
#
# Indices 1 2 3 4 5 6 
#
# 1 87.7645 57.9250 65.8709 0.0000 0.0000 0.0000
# 2 57.9250 139.6157 90.3313 0.0000 0.0000 0.0000
# 3 65.8709 90.3313 180.3093 0.0000 0.0000 0.0000
# 4 0.0000 0.0000 0.0000 32.0244 0.0000 0.0000
# 5 0.0000 0.0000 0.0000 0.0000 40.8282 0.0000
# 6 0.0000 0.0000 0.0000 0.0000 0.0000 -12.4808
#
#
#
# Elastic Compliance Matrix: (Units=1/GPa)
#
#
# Indices 1 2 3 4 5 6 
#
# 1 0.017508 -0.004625 -0.004079 0.000000 0.000000 0.000000
# 2 -0.004625 0.011819 -0.004232 0.000000 0.000000 0.000000
# 3 -0.004079 -0.004232 0.009156 0.000000 0.000000 0.000000
# 4 0.000000 0.000000 0.000000 0.031226 0.000000 0.000000
# 5 0.000000 0.000000 0.000000 0.000000 0.024493 0.000000
# 6 0.000000 0.000000 0.000000 0.000000 0.000000 -0.080123
#
#
# Mechanical properties :
#
#
# Convention : Reuss Voigt Hill
#
# Bulk Modulus (GPa) = 79.28737 92.88266 86.08501
# Shear Modulus (GPa) = 113.23907 24.97851 69.10879
#
# Velocity S-wave (km/s) = 7.61518 3.57656 5.94907
# Velocity P-wave (km/s) = 10.85934 8.03878 9.55373
#
# Compressibility (1/GPa) = 0.01261235
#
# Stress axis : x y z
#
# Youngs Moduli (GPa) = 57.11665 84.60877 109.21538
#
# Poissons Ratio (x) = 0.39129 0.44551
# Poissons Ratio (y) = 0.26414 0.46216
# Poissons Ratio (z) = 0.23299 0.35803
#
# Static dielectric constant tensor:
#      x y z
#    x 3.612640 0.000000 0.000000 
#    y 0.000000 4.094100 0.000000 
#    z 0.000000 0.000000 3.729370 
# 
# 
# High freq. dielectric constant tensor:
#      x y z
#    x 1.764540 0.000000 0.000000 
#    y 0.000000 1.783030 0.000000 
#    z 0.000000 0.000000 1.770820 
# 
# From -- ./inp_files/6207.got.cif
#   From: 2010.03.12/outbox.cif.g09.slc.cpg/sg51_4_cif.got.tgz:6207.got - 2010.04.16 13:43:02.
