data_PCOD8212298
_publ_section_title
;
Structure prediction by ZEFSAII (Michael W. Deem and Ramdas Pophale) SiO2 
 PCOD8212298
Probable space group: P M M A
;
_chemical_formula_sum "Si O2"
_cell_formula_units_Z 64
_cell_length_a 8.843473
_cell_length_b 14.306740
_cell_length_c 25.627039
_cell_angle_alpha 90.000000
_cell_angle_beta 90.000000
_cell_angle_gamma 90.000000
_cell_volume 3242.365493
_symmetry_space_group_name_H-M "P M M A"
_symmetry_group_IT_number 51
_symmetry_cell_setting 'orthorhombic'
loop_
_space_group_symop_operation_xyz
x,y,z
1/2-x,-y,z
1/2+x,-y,-z
-x,y,-z
-x,-y,-z
1/2+x,y,-z
1/2-x,y,z
x,-y,z
loop_
_atom_site_type_symbol
_atom_site_label
_atom_site_fract_x
_atom_site_fract_y
_atom_site_fract_z
Si Si1 0.925129 0.795896 0.746333
Si Si2 0.425740 0.394172 0.591540
Si Si3 0.427464 0.597943 0.944122
Si Si4 0.926402 0.106837 0.159559
Si Si5 0.577737 0.603524 0.699910
Si Si6 0.426314 0.109244 0.648362
Si Si7 0.572827 0.800491 0.055658
Si Si8 0.571917 0.215689 0.552592
O O1 0.750000 0.820714 0.737963
O O2 0.953301 0.683938 0.742488
O O3 0.977243 0.826609 0.803309
O O4 0.021650 0.850756 0.703592
O O5 0.250000 0.370920 0.584069
O O6 0.464131 0.500000 0.574209
O O7 0.465921 0.379027 0.651977
O O8 0.523094 0.324084 0.556487
O O9 0.250000 0.599569 0.951599
O O10 0.473188 0.500000 0.913613
O O11 0.477428 0.698209 0.920475
O O12 0.500000 0.592582 0.000000
O O13 0.750000 0.130155 0.167182
O O14 0.976012 0.125229 0.099662
O O15 0.962089 0.000000 0.173521
O O16 0.750000 0.611113 0.678959
O O17 0.549125 0.500000 0.724409
O O18 0.250000 0.130170 0.640966
O O19 0.516748 0.158269 0.602227
O O20 0.462183 0.000000 0.646990
O O21 0.750000 0.804479 0.045661
O O22 0.500000 0.825026 0.000000
O O23 0.500000 0.172462 0.500000
O O24 0.750000 0.208061 0.548738
#
# Coordination Sequence:
#
# PCOD8212298 Si02
#       8
#     8   8   8   8   8   8   8   8
#     4  11  22  37  61  90 116 147 188 237 283 334
#     4  10  20  35  58  88 120 155 196 239 285 344
#     4   8  13  23  42  68  97 129 167 212 262 317
#     4  10  22  39  56  77 110 151 190 234 290 345
#     4   9  18  34  57  85 117 152 186 225 282 345
#     4  11  24  42  64  88 115 150 191 239 297 355
#     4   9  18  33  53  77 106 142 184 228 279 339
#     4  12  25  41  61  86 119 158 198 245 295 346
#
# _framework density 19.738675000000001
#
# number of rings (size 3 to 8) (size 9 to 14) (size 15 to 20)
#    0.000    2.000    1.250    2.625    0.000    5.250 
#    0.000    0.625    0.000    0.750    0.000    3.500 
#    0.000    0.000    0.000    0.000    0.000    0.000 
#
# Total GULP energy -793206.274647 kJ/mol
# GULP energy per Si atom -12393.848041 kJ/mol
# Density = 1.969375 g / cm^3
# Si number density = 19.738675 Si / 1000 Ang^3
#
#
#
# Elastic Constant Matrix: (Units=GPa)
#
#
# Indices 1 2 3 4 5 6 
#
# 1 84.0139 45.2202 35.6565 0.0000 0.0000 0.0000
# 2 45.2202 97.7162 39.8558 0.0000 0.0000 0.0000
# 3 35.6565 39.8558 95.3544 0.0000 0.0000 0.0000
# 4 0.0000 0.0000 0.0000 19.2705 0.0000 0.0000
# 5 0.0000 0.0000 0.0000 0.0000 30.8510 0.0000
# 6 0.0000 0.0000 0.0000 0.0000 0.0000 22.9942
#
#
#
# Elastic Compliance Matrix: (Units=1/GPa)
#
#
# Indices 1 2 3 4 5 6 
#
# 1 0.016852 -0.006303 -0.003667 0.000000 0.000000 0.000000
# 2 -0.006303 0.014694 -0.003785 0.000000 0.000000 0.000000
# 3 -0.003667 -0.003785 0.013440 0.000000 0.000000 0.000000
# 4 0.000000 0.000000 0.000000 0.051893 0.000000 0.000000
# 5 0.000000 0.000000 0.000000 0.000000 0.032414 0.000000
# 6 0.000000 0.000000 0.000000 0.000000 0.000000 0.043489
#
#
# Mechanical properties :
#
#
# Convention : Reuss Voigt Hill
#
# Bulk Modulus (GPa) = 57.21894 57.61662 57.41778
# Shear Modulus (GPa) = 24.25803 25.04659 24.65231
#
# Velocity S-wave (km/s) = 3.50945 3.56604 3.53786
# Velocity P-wave (km/s) = 6.74336 6.79769 6.77058
#
# Compressibility (1/GPa) = 0.01747673
#
# Stress axis : x y z
#
# Youngs Moduli (GPa) = 59.34175 68.05390 74.40209
#
# Poissons Ratio (x) = 0.42892 0.27284
# Poissons Ratio (y) = 0.37401 0.28161
# Poissons Ratio (z) = 0.21761 0.25759
#
# Static dielectric constant tensor:
#      x y z
#    x 3.604320 0.000000 0.000000 
#    y 0.000000 4.215590 0.000000 
#    z 0.000000 0.000000 3.326410 
# 
# 
# High freq. dielectric constant tensor:
#      x y z
#    x 1.770240 0.000000 0.000000 
#    y 0.000000 1.788190 0.000000 
#    z 0.000000 0.000000 1.741440 
# 
# From -- ./inp_files/34823.got.cif
#   From: 2010.03.12/outbox.cif.g09.slc.cpg/sg51_18_cif.got.tgz:34823.got - 2010.04.16 13:43:02.
