data_PCOD8212819
_publ_section_title
;
Structure prediction by ZEFSAII (Michael W. Deem and Ramdas Pophale) SiO2 
 PCOD8212819
Probable space group: P M M A
;
_chemical_formula_sum "Si O2"
_cell_formula_units_Z 48
_cell_length_a 8.845277
_cell_length_b 10.027252
_cell_length_c 27.336247
_cell_angle_alpha 90.000000
_cell_angle_beta 90.000000
_cell_angle_gamma 90.000000
_cell_volume 2424.556212
_symmetry_space_group_name_H-M "P M M A"
_symmetry_group_IT_number 51
_symmetry_cell_setting 'orthorhombic'
loop_
_space_group_symop_operation_xyz
x,y,z
1/2-x,-y,z
1/2+x,-y,-z
-x,y,-z
-x,-y,-z
1/2+x,y,-z
1/2-x,y,z
x,-y,z
loop_
_atom_site_type_symbol
_atom_site_label
_atom_site_fract_x
_atom_site_fract_y
_atom_site_fract_z
Si Si1 0.929207 0.000000 0.698908
Si Si2 0.071357 0.500000 0.731455
Si Si3 0.428727 0.500000 0.621677
Si Si4 0.075768 0.848154 0.124587
Si Si5 0.073856 0.763757 0.234086
Si Si6 0.930322 0.000000 0.587432
Si Si7 0.572586 0.348783 0.050375
Si Si8 0.569665 0.731075 0.449655
O O1 0.990048 0.867440 0.725679
O O2 0.750000 0.000000 0.703062
O O3 0.986558 0.000000 0.643438
O O4 0.250000 0.500000 0.729514
O O5 0.002442 0.500000 0.676350
O O6 0.016970 0.627701 0.761183
O O7 0.250000 0.500000 0.624221
O O8 0.483656 0.631780 0.593306
O O9 0.250000 0.818905 0.112516
O O10 0.042333 0.826863 0.181478
O O11 0.974462 0.747158 0.094117
O O12 0.033350 0.000000 0.110905
O O13 0.250000 0.733787 0.242136
O O14 0.998077 0.126218 0.560329
O O15 0.750000 0.000000 0.583364
O O16 0.750000 0.342117 0.043827
O O17 0.518864 0.500000 0.062164
O O18 0.500000 0.297577 0.000000
O O19 0.500000 0.675383 0.500000
O O20 0.750000 0.740470 0.453689
#
# Coordination Sequence:
#
# PCOD8212819 Si02
#       8
#     4   4   4   8   8   4   8   8
#     4   9  18  36  62  85 112 147 194 244 282 329
#     4  11  23  38  56  84 119 151 188 234 285 346
#     4   9  21  40  60  82 112 149 187 232 289 346
#     4  10  21  38  61  87 117 155 198 241 290 345
#     4  10  20  38  60  85 114 152 195 239 287 338
#     4  11  22  36  57  87 116 149 189 234 283 337
#     4  10  22  40  62  89 121 157 198 244 292 343
#     4  11  22  39  60  83 112 147 187 234 286 343
#
# _framework density 19.797436999999999
#
# number of rings (size 3 to 8) (size 9 to 14) (size 15 to 20)
#    0.000    1.833    0.833    3.000    1.167    2.333 
#    0.000    5.000    0.000    0.000    0.000    0.000 
#    0.000    0.000    0.000    0.000    0.000    0.000 
#
# Total GULP energy -595391.153013 kJ/mol
# GULP energy per Si atom -12403.982354 kJ/mol
# Density = 1.975238 g / cm^3
# Si number density = 19.797437 Si / 1000 Ang^3
#
#
#
# Elastic Constant Matrix: (Units=GPa)
#
#
# Indices 1 2 3 4 5 6 
#
# 1 65.2198 30.2781 30.1161 0.0000 0.0000 0.0000
# 2 30.2781 107.3456 19.4759 0.0000 0.0000 0.0000
# 3 30.1161 19.4759 75.8385 0.0000 0.0000 0.0000
# 4 0.0000 0.0000 0.0000 36.6505 0.0000 0.0000
# 5 0.0000 0.0000 0.0000 0.0000 30.4193 0.0000
# 6 0.0000 0.0000 0.0000 0.0000 0.0000 8.5297
#
#
#
# Elastic Compliance Matrix: (Units=1/GPa)
#
#
# Indices 1 2 3 4 5 6 
#
# 1 0.020706 -0.004561 -0.007051 0.000000 0.000000 0.000000
# 2 -0.004561 0.010776 -0.000956 0.000000 0.000000 0.000000
# 3 -0.007051 -0.000956 0.016232 0.000000 0.000000 0.000000
# 4 0.000000 0.000000 0.000000 0.027285 0.000000 0.000000
# 5 0.000000 0.000000 0.000000 0.000000 0.032874 0.000000
# 6 0.000000 0.000000 0.000000 0.000000 0.000000 0.117238
#
#
# Mechanical properties :
#
#
# Convention : Reuss Voigt Hill
#
# Bulk Modulus (GPa) = 44.29360 45.34936 44.82148
# Shear Modulus (GPa) = 19.39695 26.35549 22.87622
#
# Velocity S-wave (km/s) = 3.13352 3.65260 3.40297
# Velocity P-wave (km/s) = 5.95936 6.38318 6.17491
#
# Compressibility (1/GPa) = 0.02257662
#
# Stress axis : x y z
#
# Youngs Moduli (GPa) = 48.29457 92.80162 61.60843
#
# Poissons Ratio (x) = 0.42328 0.43442
# Poissons Ratio (y) = 0.22028 0.05890
# Poissons Ratio (z) = 0.34054 0.08872
#
# Static dielectric constant tensor:
#      x y z
#    x 3.411790 0.000000 0.000000 
#    y 0.000000 3.684210 0.000000 
#    z 0.000000 0.000000 3.763160 
# 
# 
# High freq. dielectric constant tensor:
#      x y z
#    x 1.756050 0.000000 0.000000 
#    y 0.000000 1.784500 0.000000 
#    z 0.000000 0.000000 1.782340 
# 
# From -- ./inp_files/37251.got.cif
#   From: 2010.03.12/outbox.cif.g09.slc.cpg/sg51_19_cif.got.tgz:37251.got - 2010.04.16 13:43:02.
