data_PCOD8212570
_publ_section_title
;
Structure prediction by ZEFSAII (Michael W. Deem and Ramdas Pophale) SiO2 
 PCOD8212570
Probable space group: P M M A
;
_chemical_formula_sum "Si O2"
_cell_formula_units_Z 64
_cell_length_a 16.693742
_cell_length_b 16.045380
_cell_length_c 11.021165
_cell_angle_alpha 90.000000
_cell_angle_beta 90.000000
_cell_angle_gamma 90.000000
_cell_volume 2952.100977
_symmetry_space_group_name_H-M "P M M A"
_symmetry_group_IT_number 51
_symmetry_cell_setting 'orthorhombic'
loop_
_space_group_symop_operation_xyz
x,y,z
1/2-x,-y,z
1/2+x,-y,-z
-x,y,-z
-x,-y,-z
1/2+x,y,-z
1/2-x,y,z
x,-y,z
loop_
_atom_site_type_symbol
_atom_site_label
_atom_site_fract_x
_atom_site_fract_y
_atom_site_fract_z
Si Si1 0.342431 0.095303 0.442074
Si Si2 0.932509 0.408002 0.410511
Si Si3 0.917493 0.839893 0.317762
Si Si4 0.659729 0.406971 0.633333
Si Si5 0.159594 0.311605 0.779727
Si Si6 0.840165 0.759813 0.968656
Si Si7 0.579764 0.092164 0.066624
Si Si8 0.085230 0.238378 0.283863
O O1 0.250000 0.101827 0.481328
O O2 0.399230 0.113447 0.557118
O O3 0.358217 0.165343 0.339347
O O4 0.361014 0.000000 0.396650
O O5 0.964659 0.500000 0.377950
O O6 0.850046 0.409579 0.487615
O O7 0.910246 0.365935 0.282798
O O8 0.000000 0.365871 0.500000
O O9 0.843851 0.779682 0.282545
O O10 0.933071 0.907125 0.212071
O O11 0.995810 0.781243 0.327420
O O12 0.750000 0.383796 0.667824
O O13 0.637897 0.500000 0.685649
O O14 0.602945 0.333682 0.680203
O O15 0.250000 0.346352 0.762311
O O16 0.139429 0.306379 0.924051
O O17 0.750000 0.745446 0.919848
O O18 0.904139 0.757647 0.860788
O O19 0.845609 0.850930 0.029134
O O20 0.600347 0.000000 0.022523
O O21 0.500000 0.125012 0.000000
#
# Coordination Sequence:
#
# PCOD8212570 Si02
#       8
#     8   8   8   8   8   8   8   8
#     4  11  25  42  61  90 128 169 214 267 331 401
#     4  10  20  36  59  90 124 157 199 255 315 379
#     4  11  22  38  62  87 118 163 210 264 327 389
#     4  10  21  37  59  86 118 160 207 256 314 380
#     4  10  21  37  59  87 121 162 210 258 314 384
#     4  10  22  39  59  88 122 164 214 266 321 387
#     4  10  20  37  59  85 115 155 207 263 320 383
#     4  12  23  40  64  89 126 169 216 272 332 393
#
# _framework density 21.679476000000001
#
# number of rings (size 3 to 8) (size 9 to 14) (size 15 to 20)
#    0.000    1.500    1.250    4.125    0.000    3.500 
#    0.000    0.625    0.000    0.750    0.000    5.250 
#    0.000    0.000    0.000    0.000    0.000    0.000 
#
# Total GULP energy -792895.968053 kJ/mol
# GULP energy per Si atom -12388.999501 kJ/mol
# Density = 2.163013 g / cm^3
# Si number density = 21.679476 Si / 1000 Ang^3
#
#
#
# Elastic Constant Matrix: (Units=GPa)
#
#
# Indices 1 2 3 4 5 6 
#
# 1 102.3451 35.1060 41.6190 0.0000 0.0000 0.0000
# 2 35.1060 107.6821 45.8252 0.0000 0.0000 0.0000
# 3 41.6190 45.8252 122.1704 0.0000 0.0000 0.0000
# 4 0.0000 0.0000 0.0000 26.8181 0.0000 0.0000
# 5 0.0000 0.0000 0.0000 0.0000 28.1155 0.0000
# 6 0.0000 0.0000 0.0000 0.0000 0.0000 27.1531
#
#
#
# Elastic Compliance Matrix: (Units=1/GPa)
#
#
# Indices 1 2 3 4 5 6 
#
# 1 0.011909 -0.002566 -0.003095 0.000000 0.000000 0.000000
# 2 -0.002566 0.011603 -0.003478 0.000000 0.000000 0.000000
# 3 -0.003095 -0.003478 0.010544 0.000000 0.000000 0.000000
# 4 0.000000 0.000000 0.000000 0.037288 0.000000 0.000000
# 5 0.000000 0.000000 0.000000 0.000000 0.035568 0.000000
# 6 0.000000 0.000000 0.000000 0.000000 0.000000 0.036828
#
#
# Mechanical properties :
#
#
# Convention : Reuss Voigt Hill
#
# Bulk Modulus (GPa) = 63.37312 64.14423 63.75868
# Shear Modulus (GPa) = 29.89037 30.39385 30.14211
#
# Velocity S-wave (km/s) = 3.71717 3.74834 3.73279
# Velocity P-wave (km/s) = 6.90785 6.95595 6.93194
#
# Compressibility (1/GPa) = 0.01577956
#
# Stress axis : x y z
#
# Youngs Moduli (GPa) = 83.96729 86.18281 94.83863
#
# Poissons Ratio (x) = 0.22111 0.29350
# Poissons Ratio (y) = 0.21543 0.32987
# Poissons Ratio (z) = 0.25986 0.29977
#
# Static dielectric constant tensor:
#      x y z
#    x 3.866160 0.000000 0.000000 
#    y 0.000000 3.897430 0.000000 
#    z 0.000000 0.000000 3.876140 
# 
# 
# High freq. dielectric constant tensor:
#      x y z
#    x 1.854310 0.000000 0.000000 
#    y 0.000000 1.844820 0.000000 
#    z 0.000000 0.000000 1.840980 
# 
# From -- ./inp_files/17613.got.cif
#   From: 2010.03.12/outbox.cif.g09.slc.cpg/sg51_9_cif.got.tgz:17613.got - 2010.04.16 13:43:02.
