data_PCOD8212280
_publ_section_title
;
Structure prediction by ZEFSAII (Michael W. Deem and Ramdas Pophale) SiO2 
 PCOD8212280
Probable space group: P M M A
;
_chemical_formula_sum "Si O2"
_cell_formula_units_Z 64
_cell_length_a 14.350072
_cell_length_b 8.813327
_cell_length_c 24.309247
_cell_angle_alpha 90.000000
_cell_angle_beta 90.000000
_cell_angle_gamma 90.000000
_cell_volume 3074.436097
_symmetry_space_group_name_H-M "P M M A"
_symmetry_group_IT_number 51
_symmetry_cell_setting 'orthorhombic'
loop_
_space_group_symop_operation_xyz
x,y,z
1/2-x,-y,z
1/2+x,-y,-z
-x,y,-z
-x,-y,-z
1/2+x,y,-z
1/2-x,y,z
x,-y,z
loop_
_atom_site_type_symbol
_atom_site_label
_atom_site_fract_x
_atom_site_fract_y
_atom_site_fract_z
Si Si1 0.851046 0.168596 0.865398
Si Si2 0.141185 0.172813 0.535412
Si Si3 0.540060 0.325777 0.366050
Si Si4 0.354913 0.673986 0.422466
Si Si5 0.022071 0.176729 0.939596
Si Si6 0.042002 0.823480 0.742147
Si Si7 0.353404 0.325195 0.245212
Si Si8 0.642182 0.679097 0.152481
O O1 0.750000 0.167449 0.894394
O O2 0.853136 0.298644 0.819948
O O3 0.925493 0.209659 0.910328
O O4 0.871781 0.000000 0.839737
O O5 0.250000 0.193593 0.546051
O O6 0.115701 0.221443 0.473595
O O7 0.088054 0.279668 0.577513
O O8 0.109052 0.000000 0.543832
O O9 0.561343 0.500000 0.353758
O O10 0.427938 0.298223 0.372783
O O11 0.586691 0.232707 0.315362
O O12 0.250000 0.713275 0.401658
O O13 0.360041 0.500000 0.442392
O O14 0.104072 0.260462 0.906063
O O15 0.049139 0.000000 0.942653
O O16 0.000000 0.243450 0.000000
O O17 0.084105 0.744864 0.796130
O O18 0.933657 0.782767 0.731521
O O19 0.058321 0.000000 0.749851
O O20 0.250000 0.285538 0.269031
O O21 0.378315 0.500000 0.257768
O O22 0.750000 0.728209 0.158264
O O23 0.630861 0.500000 0.153648
#
# Coordination Sequence:
#
# PCOD8212280 Si02
#       8
#     8   8   8   8   8   8   8   8
#     4   9  17  31  53  82 116 153 191 232 282 343
#     4  10  21  37  58  85 118 156 199 249 304 359
#     4  11  23  38  59  87 119 157 201 250 302 359
#     4   9  19  37  60  86 118 157 198 241 295 359
#     4  10  21  37  61  94 128 162 199 244 297 353
#     4  12  25  41  62  88 120 159 202 252 308 365
#     4  10  20  35  58  86 115 150 190 234 288 351
#     4  11  25  45  67  90 120 162 209 255 305 361
#
# _framework density 20.816825000000001
#
# number of rings (size 3 to 8) (size 9 to 14) (size 15 to 20)
#    0.000    1.750    1.250    3.000    0.000    6.750 
#    0.000    2.500    0.000    1.500    0.000    0.000 
#    0.000    0.000    0.000    0.000    0.000    0.000 
#
# Total GULP energy -793345.238058 kJ/mol
# GULP energy per Si atom -12396.019345 kJ/mol
# Density = 2.076945 g / cm^3
# Si number density = 20.816825 Si / 1000 Ang^3
#
#
#
# Elastic Constant Matrix: (Units=GPa)
#
#
# Indices 1 2 3 4 5 6 
#
# 1 74.6655 36.0214 31.0129 0.0000 0.0000 0.0000
# 2 36.0214 82.1599 34.9031 0.0000 0.0000 0.0000
# 3 31.0129 34.9031 95.9654 0.0000 0.0000 0.0000
# 4 0.0000 0.0000 0.0000 32.4640 0.0000 0.0000
# 5 0.0000 0.0000 0.0000 0.0000 15.4398 0.0000
# 6 0.0000 0.0000 0.0000 0.0000 0.0000 28.2214
#
#
#
# Elastic Compliance Matrix: (Units=1/GPa)
#
#
# Indices 1 2 3 4 5 6 
#
# 1 0.017911 -0.006380 -0.003468 0.000000 0.000000 0.000000
# 2 -0.006380 0.016668 -0.004001 0.000000 0.000000 0.000000
# 3 -0.003468 -0.004001 0.012996 0.000000 0.000000 0.000000
# 4 0.000000 0.000000 0.000000 0.030803 0.000000 0.000000
# 5 0.000000 0.000000 0.000000 0.000000 0.064768 0.000000
# 6 0.000000 0.000000 0.000000 0.000000 0.000000 0.035434
#
#
# Mechanical properties :
#
#
# Convention : Reuss Voigt Hill
#
# Bulk Modulus (GPa) = 50.30417 50.74063 50.52240
# Shear Modulus (GPa) = 23.48485 25.28193 24.38339
#
# Velocity S-wave (km/s) = 3.36246 3.48874 3.42618
# Velocity P-wave (km/s) = 6.26837 6.37622 6.32252
#
# Compressibility (1/GPa) = 0.01987907
#
# Stress axis : x y z
#
# Youngs Moduli (GPa) = 55.83067 59.99562 76.94555
#
# Poissons Ratio (x) = 0.38275 0.26685
# Poissons Ratio (y) = 0.35617 0.30782
# Poissons Ratio (z) = 0.19363 0.24001
#
# Static dielectric constant tensor:
#      x y z
#    x 3.991870 0.000000 0.000000 
#    y 0.000000 3.751130 0.000000 
#    z 0.000000 0.000000 3.702510 
# 
# 
# High freq. dielectric constant tensor:
#      x y z
#    x 1.820790 0.000000 0.000000 
#    y 0.000000 1.810740 0.000000 
#    z 0.000000 0.000000 1.810750 
# 
# From -- ./inp_files/35661.got.cif
#   From: 2010.03.12/outbox.cif.g09.slc.cpg/sg51_18_cif.got.tgz:35661.got - 2010.04.16 13:43:02.
