data_PCOD8212404
_publ_section_title
;
Structure prediction by ZEFSAII (Michael W. Deem and Ramdas Pophale) SiO2 
 PCOD8212404
Probable space group: P M M A
;
_chemical_formula_sum "Si O2"
_cell_formula_units_Z 48
_cell_length_a 9.242169
_cell_length_b 16.789444
_cell_length_c 16.277426
_cell_angle_alpha 90.000000
_cell_angle_beta 90.000000
_cell_angle_gamma 90.000000
_cell_volume 2525.782498
_symmetry_space_group_name_H-M "P M M A"
_symmetry_group_IT_number 51
_symmetry_cell_setting 'orthorhombic'
loop_
_space_group_symop_operation_xyz
x,y,z
1/2-x,-y,z
1/2+x,-y,-z
-x,y,-z
-x,-y,-z
1/2+x,y,-z
1/2-x,y,z
x,-y,z
loop_
_atom_site_type_symbol
_atom_site_label
_atom_site_fract_x
_atom_site_fract_y
_atom_site_fract_z
Si Si1 0.418372 0.679303 0.584554
Si Si2 0.578583 0.674441 0.084420
Si Si3 0.908826 0.852904 0.073260
Si Si4 0.417086 0.000000 0.332613
Si Si5 0.407006 0.000000 0.810189
Si Si6 0.581356 0.136363 0.417901
Si Si7 0.578497 0.590893 0.251512
O O1 0.500000 0.654777 0.500000
O O2 0.250000 0.660130 0.569614
O O3 0.442680 0.771956 0.605385
O O4 0.480237 0.633184 0.664784
O O5 0.750000 0.660442 0.073686
O O6 0.535075 0.766242 0.102649
O O7 0.520322 0.628157 0.165728
O O8 0.500000 0.644948 0.000000
O O9 0.750000 0.838986 0.037567
O O10 0.910058 0.917460 0.142998
O O11 0.000000 0.889378 0.000000
O O12 0.439657 0.000000 0.235760
O O13 0.502818 0.919792 0.353658
O O14 0.250000 0.000000 0.360306
O O15 0.250000 0.000000 0.762279
O O16 0.500000 0.113306 0.500000
O O17 0.750000 0.115221 0.425864
O O18 0.750000 0.599398 0.252319
O O19 0.526413 0.500000 0.254808
#
# Coordination Sequence:
#
# PCOD8212404 Si02
#       7
#     8   8   8   4   4   8   8
#     4   9  19  35  58  83 109 143 182 224 270 323
#     4   9  18  33  54  78 107 141 181 224 267 321
#     4   9  18  32  52  74 100 135 177 219 265 317
#     4  12  25  36  49  76 109 140 177 222 267 312
#     4  10  21  34  50  74 103 140 178 218 263 316
#     4  10  20  36  57  77 103 139 179 221 265 317
#     4   9  18  33  55  82 110 144 183 221 267 328
#
# _framework density 19.004010999999998
#
# number of rings (size 3 to 8) (size 9 to 14) (size 15 to 20)
#    0.000    2.500    0.000    1.750    2.333    2.000 
#    0.000    0.833    0.000    1.000    0.000    0.000 
#    0.000    0.000    0.000    0.000    0.000    0.000 
#
# Total GULP energy -594631.786216 kJ/mol
# GULP energy per Si atom -12388.162213 kJ/mol
# Density = 1.896076 g / cm^3
# Si number density = 19.004011 Si / 1000 Ang^3
#
#
#
# Elastic Constant Matrix: (Units=GPa)
#
#
# Indices 1 2 3 4 5 6 
#
# 1 74.8918 37.7873 51.0065 0.0000 0.0000 0.0000
# 2 37.7873 98.1824 65.5940 0.0000 0.0000 0.0000
# 3 51.0065 65.5940 144.8102 0.0000 0.0000 0.0000
# 4 0.0000 0.0000 0.0000 21.0934 0.0000 0.0000
# 5 0.0000 0.0000 0.0000 0.0000 34.2542 0.0000
# 6 0.0000 0.0000 0.0000 0.0000 0.0000 18.6870
#
#
#
# Elastic Compliance Matrix: (Units=1/GPa)
#
#
# Indices 1 2 3 4 5 6 
#
# 1 0.018595 -0.003988 -0.004744 0.000000 0.000000 0.000000
# 2 -0.003988 0.015460 -0.005598 0.000000 0.000000 0.000000
# 3 -0.004744 -0.005598 0.011112 0.000000 0.000000 0.000000
# 4 0.000000 0.000000 0.000000 0.047408 0.000000 0.000000
# 5 0.000000 0.000000 0.000000 0.000000 0.029194 0.000000
# 6 0.000000 0.000000 0.000000 0.000000 0.000000 0.053513
#
#
# Mechanical properties :
#
#
# Convention : Reuss Voigt Hill
#
# Bulk Modulus (GPa) = 60.57467 69.62890 65.10179
# Shear Modulus (GPa) = 23.87273 25.70669 24.78971
#
# Velocity S-wave (km/s) = 3.54813 3.68189 3.61563
# Velocity P-wave (km/s) = 6.98065 7.40228 7.19455
#
# Compressibility (1/GPa) = 0.01650855
#
# Stress axis : x y z
#
# Youngs Moduli (GPa) = 53.77710 64.68336 89.99100
#
# Poissons Ratio (x) = 0.25793 0.42688
# Poissons Ratio (y) = 0.21444 0.50379
# Poissons Ratio (z) = 0.25509 0.36211
#
# Static dielectric constant tensor:
#      x y z
#    x 3.542030 0.000000 0.000000 
#    y 0.000000 3.521490 0.000000 
#    z 0.000000 0.000000 3.612200 
# 
# 
# High freq. dielectric constant tensor:
#      x y z
#    x 1.716520 0.000000 0.000000 
#    y 0.000000 1.744440 0.000000 
#    z 0.000000 0.000000 1.739900 
# 
# From -- ./inp_files/21245.got.cif
#   From: 2010.03.12/outbox.cif.g09.slc.cpg/sg51_11_cif.got.tgz:21245.got - 2010.04.16 13:43:02.
