data_PCOD8212550
_publ_section_title
;
Structure prediction by ZEFSAII (Michael W. Deem and Ramdas Pophale) SiO2 
 PCOD8212550
Probable space group: P M M A
;
_chemical_formula_sum "Si O2"
_cell_formula_units_Z 56
_cell_length_a 8.845366
_cell_length_b 15.385828
_cell_length_c 20.304944
_cell_angle_alpha 90.000000
_cell_angle_beta 90.000000
_cell_angle_gamma 90.000000
_cell_volume 2763.366427
_symmetry_space_group_name_H-M "P M M A"
_symmetry_group_IT_number 51
_symmetry_cell_setting 'orthorhombic'
loop_
_space_group_symop_operation_xyz
x,y,z
1/2-x,-y,z
1/2+x,-y,-z
-x,y,-z
-x,-y,-z
1/2+x,y,-z
1/2-x,y,z
x,-y,z
loop_
_atom_site_type_symbol
_atom_site_label
_atom_site_fract_x
_atom_site_fract_y
_atom_site_fract_z
Si Si1 0.071948 0.638180 0.244314
Si Si2 0.070905 0.233919 0.432034
Si Si3 0.924875 0.222764 0.064919
Si Si4 0.071760 0.816082 0.790338
Si Si5 0.076742 0.406001 0.886264
Si Si6 0.574930 0.596698 0.377087
Si Si7 0.075560 0.097261 0.322096
O O1 0.250000 0.633894 0.256524
O O2 0.018628 0.737243 0.242163
O O3 0.029042 0.589522 0.177380
O O4 0.987651 0.590707 0.303348
O O5 0.250000 0.233810 0.438065
O O6 0.016230 0.166927 0.375552
O O7 0.000000 0.200444 0.500000
O O8 0.016557 0.331944 0.418359
O O9 0.750000 0.210640 0.053622
O O10 0.975198 0.174126 0.132422
O O11 0.972094 0.325100 0.068271
O O12 0.000000 0.181051 0.000000
O O13 0.250000 0.799456 0.785666
O O14 0.020328 0.897461 0.746182
O O15 0.250000 0.390043 0.863468
O O16 0.060555 0.500000 0.922796
O O17 0.750000 0.624065 0.376332
O O18 0.554506 0.500000 0.408330
O O19 0.250000 0.114867 0.305248
O O20 0.052248 0.000000 0.350312
#
# Coordination Sequence:
#
# PCOD8212550 Si02
#       7
#     8   8   8   8   8   8   8
#     4  11  20  31  51  80 112 148 193 246 300 351
#     4  11  24  42  64  90 124 164 201 244 294 350
#     4   9  19  33  50  76 108 148 194 241 293 353
#     4  10  20  36  59  85 116 153 196 241 290 350
#     4   9  18  32  47  67 102 146 192 244 298 351
#     4  11  23  38  58  84 117 159 205 253 300 348
#     4  10  22  41  66  97 127 154 191 241 297 355
#
# _framework density 20.265136999999999
#
# number of rings (size 3 to 8) (size 9 to 14) (size 15 to 20)
#    0.000    1.857    1.429    3.857    0.000    7.714 
#    0.000    0.000    0.000    0.429    0.000    0.000 
#    0.000    0.000    0.000    0.000    0.000    0.000 
#
# Total GULP energy -694186.945717 kJ/mol
# GULP energy per Si atom -12396.195459 kJ/mol
# Density = 2.021901 g / cm^3
# Si number density = 20.265137 Si / 1000 Ang^3
#
#
#
# Elastic Constant Matrix: (Units=GPa)
#
#
# Indices 1 2 3 4 5 6 
#
# 1 72.0457 27.3645 43.5178 0.0000 0.0000 0.0000
# 2 27.3645 83.8688 43.8748 0.0000 0.0000 0.0000
# 3 43.5178 43.8748 132.5331 0.0000 0.0000 0.0000
# 4 0.0000 0.0000 0.0000 6.9619 0.0000 0.0000
# 5 0.0000 0.0000 0.0000 0.0000 34.6514 0.0000
# 6 0.0000 0.0000 0.0000 0.0000 0.0000 23.4660
#
#
#
# Elastic Compliance Matrix: (Units=1/GPa)
#
#
# Indices 1 2 3 4 5 6 
#
# 1 0.018072 -0.003377 -0.004816 0.000000 0.000000 0.000000
# 2 -0.003377 0.015052 -0.003874 0.000000 0.000000 0.000000
# 3 -0.004816 -0.003874 0.010409 0.000000 0.000000 0.000000
# 4 0.000000 0.000000 0.000000 0.143639 0.000000 0.000000
# 5 0.000000 0.000000 0.000000 0.000000 0.028859 0.000000
# 6 0.000000 0.000000 0.000000 0.000000 0.000000 0.042615
#
#
# Mechanical properties :
#
#
# Convention : Reuss Voigt Hill
#
# Bulk Modulus (GPa) = 51.54985 57.55133 54.55059
# Shear Modulus (GPa) = 17.28636 24.59522 20.94079
#
# Velocity S-wave (km/s) = 2.92380 3.48756 3.21805
# Velocity P-wave (km/s) = 6.07380 6.68418 6.38629
#
# Compressibility (1/GPa) = 0.01939870
#
# Stress axis : x y z
#
# Youngs Moduli (GPa) = 55.33506 66.43695 96.06954
#
# Poissons Ratio (x) = 0.22436 0.46267
# Poissons Ratio (y) = 0.18687 0.37218
# Poissons Ratio (z) = 0.26649 0.25738
#
# Static dielectric constant tensor:
#      x y z
#    x 3.599660 0.000000 0.000000 
#    y 0.000000 3.621730 0.000000 
#    z 0.000000 0.000000 3.687850 
# 
# 
# High freq. dielectric constant tensor:
#      x y z
#    x 1.791000 0.000000 0.000000 
#    y 0.000000 1.775080 0.000000 
#    z 0.000000 0.000000 1.784310 
# 
# From -- ./inp_files/31943.got.cif
#   From: 2010.03.12/outbox.cif.g09.slc.cpg/sg51_16_cif.got.tgz:31943.got - 2010.04.16 13:43:02.
