data_PCOD8212391
_publ_section_title
;
Structure prediction by ZEFSAII (Michael W. Deem and Ramdas Pophale) SiO2 
 PCOD8212391
Probable space group: P M M A
;
_chemical_formula_sum "Si O2"
_cell_formula_units_Z 64
_cell_length_a 19.700990
_cell_length_b 8.827108
_cell_length_c 19.891509
_cell_angle_alpha 90.000000
_cell_angle_beta 90.000000
_cell_angle_gamma 90.000000
_cell_volume 3459.188444
_symmetry_space_group_name_H-M "P M M A"
_symmetry_group_IT_number 51
_symmetry_cell_setting 'orthorhombic'
loop_
_space_group_symop_operation_xyz
x,y,z
1/2-x,-y,z
1/2+x,-y,-z
-x,y,-z
-x,-y,-z
1/2+x,y,-z
1/2-x,y,z
x,-y,z
loop_
_atom_site_type_symbol
_atom_site_label
_atom_site_fract_x
_atom_site_fract_y
_atom_site_fract_z
Si Si1 0.414410 0.826640 0.664510
Si Si2 0.672931 0.178292 0.585949
Si Si3 0.539003 0.321365 0.832732
Si Si4 0.071036 0.823001 0.033956
Si Si5 0.826586 0.322453 0.447586
Si Si6 0.328248 0.672512 0.933766
Si Si7 0.394553 0.176125 0.816406
Si Si8 0.932986 0.178146 0.697175
O O1 0.376305 0.720782 0.612388
O O2 0.381489 0.798107 0.737522
O O3 0.493691 0.782800 0.665697
O O4 0.404871 0.000000 0.642191
O O5 0.750000 0.229634 0.602026
O O6 0.646748 0.249850 0.516630
O O7 0.624710 0.234402 0.645970
O O8 0.667371 0.000000 0.577736
O O9 0.527374 0.500000 0.831226
O O10 0.582022 0.272459 0.897819
O O11 0.467892 0.235406 0.837961
O O12 0.578915 0.269379 0.765972
O O13 0.074867 0.000000 0.050758
O O14 0.131095 0.779470 0.983994
O O15 0.000000 0.778307 0.000000
O O16 0.750000 0.265093 0.431845
O O17 0.827996 0.500000 0.457098
O O18 0.250000 0.683436 0.953211
O O19 0.354478 0.500000 0.938716
O O20 0.337941 0.732484 0.857624
O O21 0.391307 0.000000 0.835383
O O22 0.928272 0.000000 0.713106
#
# Coordination Sequence:
#
# PCOD8212391 Si02
#       8
#     8   8   8   8   8   8   8   8
#     4   9  19  34  53  77 107 142 180 223 267 317
#     4   9  18  35  59  81 103 139 184 225 269 325
#     4  11  21  34  57  85 112 142 180 227 278 328
#     4  11  22  37  61  86 109 146 192 233 272 326
#     4  10  21  35  51  74 106 142 180 225 274 326
#     4  11  24  39  56  83 117 149 184 230 282 335
#     4  10  20  36  56  79 108 145 186 225 271 328
#     4   9  19  36  56  81 112 141 178 227 274 326
#
# _framework density 18.501450999999999
#
# number of rings (size 3 to 8) (size 9 to 14) (size 15 to 20)
#    0.000    2.000    1.250    3.375    0.000    6.250 
#    0.000    5.625    0.000    2.250    0.000    0.000 
#    0.000    0.000    0.000    0.000    0.000    0.000 
#
# Total GULP energy -793832.966184 kJ/mol
# GULP energy per Si atom -12403.640097 kJ/mol
# Density = 1.845934 g / cm^3
# Si number density = 18.501451 Si / 1000 Ang^3
#
#
#
# Elastic Constant Matrix: (Units=GPa)
#
#
# Indices 1 2 3 4 5 6 
#
# 1 70.2296 23.5597 51.7540 0.0000 0.0000 0.0000
# 2 23.5597 55.9895 37.3611 0.0000 0.0000 0.0000
# 3 51.7540 37.3611 121.6026 0.0000 0.0000 0.0000
# 4 0.0000 0.0000 0.0000 23.2039 0.0000 0.0000
# 5 0.0000 0.0000 0.0000 0.0000 30.3074 0.0000
# 6 0.0000 0.0000 0.0000 0.0000 0.0000 24.0923
#
#
#
# Elastic Compliance Matrix: (Units=1/GPa)
#
#
# Indices 1 2 3 4 5 6 
#
# 1 0.021329 -0.003670 -0.007950 0.000000 0.000000 0.000000
# 2 -0.003670 0.023098 -0.005535 0.000000 0.000000 0.000000
# 3 -0.007950 -0.005535 0.013307 0.000000 0.000000 0.000000
# 4 0.000000 0.000000 0.000000 0.043096 0.000000 0.000000
# 5 0.000000 0.000000 0.000000 0.000000 0.032995 0.000000
# 6 0.000000 0.000000 0.000000 0.000000 0.000000 0.041507
#
#
# Mechanical properties :
#
#
# Convention : Reuss Voigt Hill
#
# Bulk Modulus (GPa) = 42.68945 52.57460 47.63203
# Shear Modulus (GPa) = 22.99378 24.53050 23.76214
#
# Velocity S-wave (km/s) = 3.52918 3.64520 3.58766
# Velocity P-wave (km/s) = 6.30321 6.79668 6.55459
#
# Compressibility (1/GPa) = 0.02342499
#
# Stress axis : x y z
#
# Youngs Moduli (GPa) = 46.88526 43.29382 75.14581
#
# Poissons Ratio (x) = 0.15889 0.59740
# Poissons Ratio (y) = 0.17207 0.41591
# Poissons Ratio (z) = 0.37273 0.23962
#
# Static dielectric constant tensor:
#      x y z
#    x 3.319890 0.000000 0.000000 
#    y 0.000000 3.381860 0.000000 
#    z 0.000000 0.000000 3.537660 
# 
# 
# High freq. dielectric constant tensor:
#      x y z
#    x 1.699560 0.000000 0.000000 
#    y 0.000000 1.722570 0.000000 
#    z 0.000000 0.000000 1.725660 
# 
# From -- ./inp_files/30624.got.cif
#   From: 2010.03.12/outbox.cif.g09.slc.cpg/sg51_16_cif.got.tgz:30624.got - 2010.04.16 13:43:02.
