data_PCOD8212494
_publ_section_title
;
Structure prediction by ZEFSAII (Michael W. Deem and Ramdas Pophale) SiO2 
 PCOD8212494
Probable space group: P M M A
;
_chemical_formula_sum "Si O2"
_cell_formula_units_Z 36
_cell_length_a 8.952591
_cell_length_b 10.249233
_cell_length_c 19.895769
_cell_angle_alpha 90.000000
_cell_angle_beta 90.000000
_cell_angle_gamma 90.000000
_cell_volume 1825.579878
_symmetry_space_group_name_H-M "P M M A"
_symmetry_group_IT_number 51
_symmetry_cell_setting 'orthorhombic'
loop_
_space_group_symop_operation_xyz
x,y,z
1/2-x,-y,z
1/2+x,-y,-z
-x,y,-z
-x,-y,-z
1/2+x,y,-z
1/2-x,y,z
x,-y,z
loop_
_atom_site_type_symbol
_atom_site_label
_atom_site_fract_x
_atom_site_fract_y
_atom_site_fract_z
Si Si1 0.918066 0.500000 0.068323
Si Si2 0.574559 0.782486 0.073073
Si Si3 0.582730 0.345469 0.565289
Si Si4 0.573394 0.650044 0.297412
Si Si5 0.578230 0.855592 0.799007
O O1 0.750000 0.500000 0.044651
O O2 0.951877 0.363646 0.105560
O O3 0.000000 0.500000 0.000000
O O4 0.750000 0.817213 0.067611
O O5 0.491570 0.872863 0.126483
O O6 0.500000 0.799290 0.000000
O O7 0.500000 0.286180 0.500000
O O8 0.750000 0.287381 0.569478
O O9 0.589787 0.500000 0.558687
O O10 0.492508 0.304677 0.631370
O O11 0.750000 0.663417 0.300524
O O12 0.527672 0.500000 0.280505
O O13 0.511625 0.747919 0.242064
O O14 0.750000 0.811296 0.804041
O O15 0.565566 0.000000 0.765677
#
# Coordination Sequence:
#
# PCOD8212494 Si02
#       5
#     4   8   8   8   8
#     4   8  16  30  50  78 108 134 165 212 269 326
#     4  10  20  36  58  83 111 143 184 232 284 340
#     4   9  16  28  50  82 119 154 189 231 279 328
#     4  10  21  37  59  87 117 150 191 236 283 338
#     4  11  25  42  58  80 112 151 193 236 285 341
#
# _framework density 19.719761999999999
#
# number of rings (size 3 to 8) (size 9 to 14) (size 15 to 20)
#    0.000    2.222    0.000    2.667    1.556    7.111 
#    0.000    0.000    0.000    0.667    0.000    0.000 
#    0.000    0.000    0.000    0.000    0.000    0.000 
#
# Total GULP energy -446105.905784 kJ/mol
# GULP energy per Si atom -12391.830716 kJ/mol
# Density = 1.967488 g / cm^3
# Si number density = 19.719762 Si / 1000 Ang^3
#
#
#
# Elastic Constant Matrix: (Units=GPa)
#
#
# Indices 1 2 3 4 5 6 
#
# 1 132.3615 38.4307 60.8892 0.0000 0.0000 0.0000
# 2 38.4307 69.7926 41.9993 0.0000 0.0000 0.0000
# 3 60.8892 41.9993 125.4417 0.0000 0.0000 0.0000
# 4 0.0000 0.0000 0.0000 7.3650 0.0000 0.0000
# 5 0.0000 0.0000 0.0000 0.0000 40.9562 0.0000
# 6 0.0000 0.0000 0.0000 0.0000 0.0000 18.0514
#
#
#
# Elastic Compliance Matrix: (Units=1/GPa)
#
#
# Indices 1 2 3 4 5 6 
#
# 1 0.010313 -0.003339 -0.003888 0.000000 0.000000 0.000000
# 2 -0.003339 0.019025 -0.004749 0.000000 0.000000 0.000000
# 3 -0.003888 -0.004749 0.011449 0.000000 0.000000 0.000000
# 4 0.000000 0.000000 0.000000 0.135778 0.000000 0.000000
# 5 0.000000 0.000000 0.000000 0.000000 0.024416 0.000000
# 6 0.000000 0.000000 0.000000 0.000000 0.000000 0.055397
#
#
# Mechanical properties :
#
#
# Convention : Reuss Voigt Hill
#
# Bulk Modulus (GPa) = 59.40083 67.80380 63.60232
# Shear Modulus (GPa) = 17.48606 25.69296 21.58951
#
# Velocity S-wave (km/s) = 2.98103 3.61349 3.31239
# Velocity P-wave (km/s) = 6.48356 7.20195 6.85218
#
# Compressibility (1/GPa) = 0.01683478
#
# Stress axis : x y z
#
# Youngs Moduli (GPa) = 96.96369 52.56365 87.34377
#
# Poissons Ratio (x) = 0.17552 0.33959
# Poissons Ratio (y) = 0.32378 0.41478
# Poissons Ratio (z) = 0.37699 0.24962
#
# Static dielectric constant tensor:
#      x y z
#    x 3.738090 0.000000 0.000000 
#    y 0.000000 3.622670 0.000000 
#    z 0.000000 0.000000 3.507320 
# 
# 
# High freq. dielectric constant tensor:
#      x y z
#    x 1.785880 0.000000 0.000000 
#    y 0.000000 1.744790 0.000000 
#    z 0.000000 0.000000 1.761320 
# 
# From -- ./inp_files/26996.got.cif
#   From: 2010.03.12/outbox.cif.g09.slc.cpg/sg51_14_cif.got.tgz:26996.got - 2010.04.16 13:43:02.
