data_PCOD8212916
_publ_section_title
;
Structure prediction by ZEFSAII (Michael W. Deem and Ramdas Pophale) SiO2 
 PCOD8212916
Probable space group: P M M A
;
_chemical_formula_sum "Si O2"
_cell_formula_units_Z 48
_cell_length_a 15.667524
_cell_length_b 9.803677
_cell_length_c 17.239030
_cell_angle_alpha 90.000000
_cell_angle_beta 90.000000
_cell_angle_gamma 90.000000
_cell_volume 2647.903711
_symmetry_space_group_name_H-M "P M M A"
_symmetry_group_IT_number 51
_symmetry_cell_setting 'orthorhombic'
loop_
_space_group_symop_operation_xyz
x,y,z
1/2-x,-y,z
1/2+x,-y,-z
-x,y,-z
-x,-y,-z
1/2+x,y,-z
1/2-x,y,z
x,-y,z
loop_
_atom_site_type_symbol
_atom_site_label
_atom_site_fract_x
_atom_site_fract_y
_atom_site_fract_z
Si Si1 0.845395 0.162582 0.689393
Si Si2 0.599040 0.350430 0.996276
Si Si3 0.500267 0.161393 0.413361
Si Si4 0.349427 0.347979 0.837112
Si Si5 0.150163 0.149967 0.138223
Si Si6 0.651021 0.158699 0.301337
O O1 0.750000 0.217206 0.667132
O O2 0.917622 0.222089 0.631712
O O3 0.871629 0.208575 0.776364
O O4 0.843456 0.000000 0.687260
O O5 0.642356 0.500000 0.983697
O O6 0.631543 0.287028 0.077618
O O7 0.500000 0.371131 0.000000
O O8 0.617938 0.252782 0.925680
O O9 0.500000 0.223451 0.500000
O O10 0.590208 0.200268 0.373056
O O11 0.490259 0.000000 0.416700
O O12 0.250000 0.360100 0.824406
O O13 0.390873 0.500000 0.828345
O O14 0.383977 0.244223 0.772122
O O15 0.250000 0.133723 0.130043
O O16 0.107985 0.000000 0.125898
O O17 0.750000 0.190975 0.322889
O O18 0.640219 0.000000 0.280121
#
# Coordination Sequence:
#
# PCOD8212916 Si02
#       6
#     8   8   8   8   8   8
#     4   8  15  28  45  66  93 125 161 199 238 285
#     4  10  21  33  46  70 100 128 162 202 242 288
#     4   9  17  28  45  70  98 128 158 191 239 293
#     4   9  18  33  50  66  90 128 165 194 233 285
#     4   9  18  32  49  69  93 125 166 205 242 287
#     4   9  18  31  48  73 101 125 156 200 241 280
#
# _framework density 18.127548000000001
#
# number of rings (size 3 to 8) (size 9 to 14) (size 15 to 20)
#    0.000    3.000    0.000    1.500    2.333    2.667 
#    0.000    5.000    0.000    0.500    0.000    0.000 
#    0.000    2.667    0.000    0.000    0.000    0.000 
#
# Total GULP energy -594828.215504 kJ/mol
# GULP energy per Si atom -12392.254490 kJ/mol
# Density = 1.808629 g / cm^3
# Si number density = 18.127548 Si / 1000 Ang^3
#
#
#
# Elastic Constant Matrix: (Units=GPa)
#
#
# Indices 1 2 3 4 5 6 
#
# 1 76.1266 31.4196 82.2053 0.0000 0.0000 0.0000
# 2 31.4196 46.3994 50.2087 0.0000 0.0000 0.0000
# 3 82.2053 50.2087 152.6911 0.0000 0.0000 0.0000
# 4 0.0000 0.0000 0.0000 11.5071 0.0000 0.0000
# 5 0.0000 0.0000 0.0000 0.0000 34.1498 0.0000
# 6 0.0000 0.0000 0.0000 0.0000 0.0000 14.8208
#
#
#
# Elastic Compliance Matrix: (Units=1/GPa)
#
#
# Indices 1 2 3 4 5 6 
#
# 1 0.032026 -0.004702 -0.015696 0.000000 0.000000 0.000000
# 2 -0.004702 0.034147 -0.008697 0.000000 0.000000 0.000000
# 3 -0.015696 -0.008697 0.017859 0.000000 0.000000 0.000000
# 4 0.000000 0.000000 0.000000 0.086903 0.000000 0.000000
# 5 0.000000 0.000000 0.000000 0.000000 0.029283 0.000000
# 6 0.000000 0.000000 0.000000 0.000000 0.000000 0.067473
#
#
# Mechanical properties :
#
#
# Convention : Reuss Voigt Hill
#
# Bulk Modulus (GPa) = 38.69610 66.98715 52.84162
# Shear Modulus (GPa) = 14.94798 19.52113 17.23456
#
# Velocity S-wave (km/s) = 2.87470 3.28514 3.08675
# Velocity P-wave (km/s) = 5.69311 7.17098 6.47435
#
# Compressibility (1/GPa) = 0.02584240
#
# Stress axis : x y z
#
# Youngs Moduli (GPa) = 31.22492 29.28526 55.99373
#
# Poissons Ratio (x) = 0.13770 0.87886
# Poissons Ratio (y) = 0.14682 0.48697
# Poissons Ratio (z) = 0.49010 0.25469
#
# Static dielectric constant tensor:
#      x y z
#    x 3.420310 0.000000 0.000000 
#    y 0.000000 2.906430 0.000000 
#    z 0.000000 0.000000 3.351950 
# 
# 
# High freq. dielectric constant tensor:
#      x y z
#    x 1.704060 0.000000 0.000000 
#    y 0.000000 1.658160 0.000000 
#    z 0.000000 0.000000 1.702540 
# 
# From -- ./inp_files/24003.got.cif
#   From: 2010.03.12/outbox.cif.g09.slc.cpg/sg51_13_cif.got.tgz:24003.got - 2010.04.16 13:43:02.
