data_PCOD8212070
_publ_section_title
;
Structure prediction by ZEFSAII (Michael W. Deem and Ramdas Pophale) SiO2 
 PCOD8212070
Probable space group: P M M A
;
_chemical_formula_sum "Si O2"
_cell_formula_units_Z 48
_cell_length_a 8.635687
_cell_length_b 30.629248
_cell_length_c 9.479008
_cell_angle_alpha 90.000000
_cell_angle_beta 90.000000
_cell_angle_gamma 90.000000
_cell_volume 2507.241208
_symmetry_space_group_name_H-M "P M M A"
_symmetry_group_IT_number 51
_symmetry_cell_setting 'orthorhombic'
loop_
_space_group_symop_operation_xyz
x,y,z
1/2-x,-y,z
1/2+x,-y,-z
-x,y,-z
-x,-y,-z
1/2+x,y,-z
1/2-x,y,z
x,-y,z
loop_
_atom_site_type_symbol
_atom_site_label
_atom_site_fract_x
_atom_site_fract_y
_atom_site_fract_z
Si Si1 0.432411 0.874356 0.845321
Si Si2 0.566179 0.792798 0.344021
Si Si3 0.933147 0.049127 0.350894
Si Si4 0.567293 0.548427 0.350160
Si Si5 0.566131 0.717579 0.845611
Si Si6 0.065729 0.374668 0.848920
O O1 0.250000 0.875334 0.860160
O O2 0.486008 0.834353 0.747895
O O3 0.493669 0.918983 0.772596
O O4 0.500000 0.869092 0.000000
O O5 0.500000 0.798507 0.500000
O O6 0.750000 0.787886 0.350752
O O7 0.493004 0.750652 0.271752
O O8 0.750000 0.051533 0.363077
O O9 0.000000 0.065091 0.500000
O O10 0.989967 0.000000 0.315511
O O11 0.500000 0.560992 0.500000
O O12 0.750000 0.549502 0.359900
O O13 0.510652 0.500000 0.302306
O O14 0.506424 0.585191 0.244706
O O15 0.750000 0.718575 0.854990
O O16 0.508301 0.670295 0.793934
O O17 0.500000 0.729540 0.000000
O O18 0.250000 0.369639 0.852058
O O19 0.000000 0.386166 0.000000
#
# Coordination Sequence:
#
# PCOD8212070 Si02
#       6
#     8   8   8   8   8   8
#     4  10  22  37  55  80 110 144 181 223 269 320
#     4  11  23  39  58  82 110 141 181 225 272 324
#     4   9  18  34  55  80 110 143 180 222 268 318
#     4   9  19  35  54  77 106 140 178 220 265 315
#     4  11  22  38  59  82 110 143 180 222 271 324
#     4  10  20  35  55  80 110 142 179 221 266 318
#
# _framework density 19.144548
#
# number of rings (size 3 to 8) (size 9 to 14) (size 15 to 20)
#    0.000    2.000    0.000    4.500    0.000    6.000 
#    0.000    1.667    0.000    0.000    0.000    0.000 
#    0.000    0.000    0.000    0.000    0.000    0.000 
#
# Total GULP energy -595227.179985 kJ/mol
# GULP energy per Si atom -12400.566250 kJ/mol
# Density = 1.910097 g / cm^3
# Si number density = 19.144548 Si / 1000 Ang^3
#
#
#
# Elastic Constant Matrix: (Units=GPa)
#
#
# Indices 1 2 3 4 5 6 
#
# 1 68.3751 47.7295 47.6262 0.0000 0.0000 0.0000
# 2 47.7295 163.6602 116.6080 0.0000 0.0000 0.0000
# 3 47.6262 116.6080 157.5903 0.0000 0.0000 0.0000
# 4 0.0000 0.0000 0.0000 2.5118 0.0000 0.0000
# 5 0.0000 0.0000 0.0000 0.0000 36.0988 0.0000
# 6 0.0000 0.0000 0.0000 0.0000 0.0000 3.2759
#
#
#
# Elastic Compliance Matrix: (Units=1/GPa)
#
#
# Indices 1 2 3 4 5 6 
#
# 1 0.019243 -0.003106 -0.003517 0.000000 0.000000 0.000000
# 2 -0.003106 0.013425 -0.008995 0.000000 0.000000 0.000000
# 3 -0.003517 -0.008995 0.014064 0.000000 0.000000 0.000000
# 4 0.000000 0.000000 0.000000 0.398117 0.000000 0.000000
# 5 0.000000 0.000000 0.000000 0.000000 0.027702 0.000000
# 6 0.000000 0.000000 0.000000 0.000000 0.000000 0.305257
#
#
# Mechanical properties :
#
#
# Convention : Reuss Voigt Hill
#
# Bulk Modulus (GPa) = 64.53308 90.39477 77.46392
# Shear Modulus (GPa) = 6.14091 20.22143 13.18117
#
# Velocity S-wave (km/s) = 1.79294 3.25353 2.62679
# Velocity P-wave (km/s) = 6.16990 7.83795 7.05341
#
# Compressibility (1/GPa) = 0.01549593
#
# Stress axis : x y z
#
# Youngs Moduli (GPa) = 51.96602 74.48761 71.10111
#
# Poissons Ratio (x) = 0.23135 0.25009
# Poissons Ratio (y) = 0.16140 0.63956
# Poissons Ratio (z) = 0.18279 0.67003
#
# Static dielectric constant tensor:
#      x y z
#    x 3.480450 0.000000 0.000000 
#    y 0.000000 3.936840 0.000000 
#    z 0.000000 0.000000 3.167090 
# 
# 
# High freq. dielectric constant tensor:
#      x y z
#    x 1.745740 0.000000 0.000000 
#    y 0.000000 1.761770 0.000000 
#    z 0.000000 0.000000 1.744280 
# 
# From -- ./inp_files/6071.got.cif
#   From: 2010.03.12/outbox.cif.g09.slc.cpg/sg51_4_cif.got.tgz:6071.got - 2010.04.16 13:43:02.
