data_PCOD8212863
_publ_section_title
;
Structure prediction by ZEFSAII (Michael W. Deem and Ramdas Pophale) SiO2 
 PCOD8212863
Probable space group: P M M A
;
_chemical_formula_sum "Si O2"
_cell_formula_units_Z 64
_cell_length_a 17.136623
_cell_length_b 13.586589
_cell_length_c 12.811074
_cell_angle_alpha 90.000000
_cell_angle_beta 90.000000
_cell_angle_gamma 90.000000
_cell_volume 2982.779986
_symmetry_space_group_name_H-M "P M M A"
_symmetry_group_IT_number 51
_symmetry_cell_setting 'orthorhombic'
loop_
_space_group_symop_operation_xyz
x,y,z
1/2-x,-y,z
1/2+x,-y,-z
-x,y,-z
-x,-y,-z
1/2+x,y,-z
1/2-x,y,z
x,-y,z
loop_
_atom_site_type_symbol
_atom_site_label
_atom_site_fract_x
_atom_site_fract_y
_atom_site_fract_z
Si Si1 0.163338 0.355620 0.758286
Si Si2 0.917535 0.695283 0.450416
Si Si3 0.839911 0.887935 0.944170
Si Si4 0.025151 0.606385 0.883107
Si Si5 0.160130 0.389321 0.358305
Si Si6 0.570761 0.236893 0.776119
Si Si7 0.457585 0.108962 0.651163
Si Si8 0.664707 0.864152 0.179226
O O1 0.250000 0.404376 0.741199
O O2 0.107418 0.362424 0.655241
O O3 0.117847 0.405216 0.856684
O O4 0.179038 0.245119 0.786648
O O5 0.851408 0.666984 0.532525
O O6 0.920910 0.814547 0.433045
O O7 0.000000 0.658120 0.500000
O O8 0.750000 0.856656 0.934386
O O9 0.889618 0.818041 0.871099
O O10 0.852603 0.000000 0.908096
O O11 0.869334 0.873510 0.062359
O O12 0.985879 0.500000 0.856303
O O13 0.002610 0.699426 0.813277
O O14 0.000000 0.633042 0.000000
O O15 0.250000 0.401294 0.336192
O O16 0.122398 0.500000 0.357382
O O17 0.128505 0.318002 0.269125
O O18 0.538129 0.159064 0.691729
O O19 0.397875 0.086611 0.744977
O O20 0.475357 0.000000 0.602344
O O21 0.750000 0.917534 0.184385
#
# Coordination Sequence:
#
# PCOD8212863 Si02
#       8
#     8   8   8   8   8   8   8   8
#     4  10  20  38  64  93 127 167 213 262 319 382
#     4  11  21  42  64  97 123 163 202 267 325 381
#     4  10  21  36  59  91 126 167 211 257 312 373
#     4  11  23  39  61  91 129 169 210 258 317 382
#     4  11  25  45  68  92 118 154 207 266 325 387
#     4  12  22  41  61  88 123 167 207 261 312 378
#     4  11  23  38  61  93 125 168 210 252 309 373
#     4   9  18  36  59  88 127 165 205 256 308 367
#
# _framework density 21.456493999999999
#
# number of rings (size 3 to 8) (size 9 to 14) (size 15 to 20)
#    0.000    1.375    3.750    2.625    0.000    2.500 
#    0.000    1.875    0.000    3.000    0.000    0.000 
#    0.000    0.000    0.000    0.000    0.000    0.000 
#
# Total GULP energy -792854.985436 kJ/mol
# GULP energy per Si atom -12388.359147 kJ/mol
# Density = 2.140766 g / cm^3
# Si number density = 21.456494 Si / 1000 Ang^3
#
#
#
# Elastic Constant Matrix: (Units=GPa)
#
#
# Indices 1 2 3 4 5 6 
#
# 1 104.1236 36.8228 51.7318 0.0000 0.0000 0.0000
# 2 36.8228 98.5480 30.3096 0.0000 0.0000 0.0000
# 3 51.7318 30.3096 98.8656 0.0000 0.0000 0.0000
# 4 0.0000 0.0000 0.0000 -4.7905 0.0000 0.0000
# 5 0.0000 0.0000 0.0000 0.0000 1152.3177 0.0000
# 6 0.0000 0.0000 0.0000 0.0000 0.0000 174.6727
#
#
#
# Elastic Compliance Matrix: (Units=1/GPa)
#
#
# Indices 1 2 3 4 5 6 
#
# 1 0.013864 -0.003256 -0.006256 0.000000 0.000000 0.000000
# 2 -0.003256 0.011968 -0.001965 0.000000 0.000000 0.000000
# 3 -0.006256 -0.001965 0.013991 0.000000 0.000000 0.000000
# 4 0.000000 0.000000 0.000000 -0.208749 0.000000 0.000000
# 5 0.000000 0.000000 0.000000 0.000000 0.000868 0.000000
# 6 0.000000 0.000000 0.000000 0.000000 0.000000 0.005725
#
#
# Mechanical properties :
#
#
# Convention : Reuss Voigt Hill
#
# Bulk Modulus (GPa) = 59.28441 59.91839 59.60140
# Shear Modulus (GPa) = -37.38172 276.61818 119.61823
#
# Velocity S-wave (km/s) = -4.17851 11.36663 7.47464
# Velocity P-wave (km/s) = 2.10003 14.15109 10.11591
#
# Compressibility (1/GPa) = 0.01686784
#
# Stress axis : x y z
#
# Youngs Moduli (GPa) = 72.13121 83.55268 71.47576
#
# Poissons Ratio (x) = 0.27206 0.44715
# Poissons Ratio (y) = 0.23487 0.14048
# Poissons Ratio (z) = 0.45125 0.16422
#
# Static dielectric constant tensor:
#      x y z
#    x 3.855270 0.000000 0.000000 
#    y 0.000000 3.984180 0.000000 
#    z 0.000000 0.000000 3.899080 
# 
# 
# High freq. dielectric constant tensor:
#      x y z
#    x 1.837470 0.000000 0.000000 
#    y 0.000000 1.856330 0.000000 
#    z 0.000000 0.000000 1.833470 
# 
# From -- ./inp_files/17596.got.cif
#   From: 2010.03.12/outbox.cif.g09.slc.cpg/sg51_9_cif.got.tgz:17596.got - 2010.04.16 13:43:02.
