data_PCOD8212278
_publ_section_title
;
Structure prediction by ZEFSAII (Michael W. Deem and Ramdas Pophale) SiO2 
 PCOD8212278
Probable space group: P M M A
;
_chemical_formula_sum "Si O2"
_cell_formula_units_Z 40
_cell_length_a 18.590946
_cell_length_b 8.870499
_cell_length_c 12.491957
_cell_angle_alpha 90.000000
_cell_angle_beta 90.000000
_cell_angle_gamma 90.000000
_cell_volume 2060.060720
_symmetry_space_group_name_H-M "P M M A"
_symmetry_group_IT_number 51
_symmetry_cell_setting 'orthorhombic'
loop_
_space_group_symop_operation_xyz
x,y,z
1/2-x,-y,z
1/2+x,-y,-z
-x,y,-z
-x,-y,-z
1/2+x,y,-z
1/2-x,y,z
x,-y,z
loop_
_atom_site_type_symbol
_atom_site_label
_atom_site_fract_x
_atom_site_fract_y
_atom_site_fract_z
Si Si1 0.928352 0.177132 0.553213
Si Si2 0.569703 0.821346 0.792887
Si Si3 0.080235 0.677683 0.828488
Si Si4 0.166771 0.324521 0.037976
Si Si5 0.332210 0.823270 0.639613
O O1 0.917695 0.241983 0.672533
O O2 0.859417 0.215670 0.480048
O O3 0.000000 0.248636 0.500000
O O4 0.939675 0.000000 0.563255
O O5 0.497264 0.752730 0.841919
O O6 0.563432 0.000000 0.795325
O O7 0.637363 0.769746 0.862394
O O8 0.070341 0.500000 0.822262
O O9 0.127200 0.726998 0.930045
O O10 0.119532 0.732914 0.722240
O O11 0.250000 0.285377 0.023148
O O12 0.153933 0.500000 0.060961
O O13 0.250000 0.770303 0.648825
O O14 0.340971 0.000000 0.663625
#
# Coordination Sequence:
#
# PCOD8212278 Si02
#       5
#     8   8   8   8   8
#     4   9  17  34  57  81 114 150 183 227 287 346
#     4  11  22  37  62  90 115 147 194 243 285 336
#     4  11  22  38  60  84 115 155 195 233 285 348
#     4  10  23  42  59  79 115 158 193 232 289 349
#     4  10  20  35  58  86 114 148 192 242 292 339
#
# _framework density 19.416903000000001
#
# number of rings (size 3 to 8) (size 9 to 14) (size 15 to 20)
#    0.000    1.800    2.000    2.400    0.000    6.400 
#    0.000    5.000    0.000    0.000    0.000    0.000 
#    0.000    0.000    0.000    0.000    0.000    0.000 
#
# Total GULP energy -496127.888689 kJ/mol
# GULP energy per Si atom -12403.197217 kJ/mol
# Density = 1.937271 g / cm^3
# Si number density = 19.416903 Si / 1000 Ang^3
#
#
#
# Elastic Constant Matrix: (Units=GPa)
#
#
# Indices 1 2 3 4 5 6 
#
# 1 78.2225 23.0002 43.1574 0.0000 0.0000 0.0000
# 2 23.0002 47.2476 38.1465 0.0000 0.0000 0.0000
# 3 43.1574 38.1465 140.5917 0.0000 0.0000 0.0000
# 4 0.0000 0.0000 0.0000 7.9951 0.0000 0.0000
# 5 0.0000 0.0000 0.0000 0.0000 35.4892 0.0000
# 6 0.0000 0.0000 0.0000 0.0000 0.0000 30.9435
#
#
#
# Elastic Compliance Matrix: (Units=1/GPa)
#
#
# Indices 1 2 3 4 5 6 
#
# 1 0.016255 -0.004974 -0.003640 0.000000 0.000000 0.000000
# 2 -0.004974 0.028624 -0.006240 0.000000 0.000000 0.000000
# 3 -0.003640 -0.006240 0.009923 0.000000 0.000000 0.000000
# 4 0.000000 0.000000 0.000000 0.125077 0.000000 0.000000
# 5 0.000000 0.000000 0.000000 0.000000 0.028178 0.000000
# 6 0.000000 0.000000 0.000000 0.000000 0.000000 0.032317
#
#
# Mechanical properties :
#
#
# Convention : Reuss Voigt Hill
#
# Bulk Modulus (GPa) = 39.84902 52.74110 46.29506
# Shear Modulus (GPa) = 17.95677 25.66939 21.81308
#
# Velocity S-wave (km/s) = 3.04435 3.63989 3.35536
# Velocity P-wave (km/s) = 5.73802 6.69974 6.23744
#
# Compressibility (1/GPa) = 0.02509472
#
# Stress axis : x y z
#
# Youngs Moduli (GPa) = 61.51974 34.93549 100.77350
#
# Poissons Ratio (x) = 0.17377 0.36684
# Poissons Ratio (y) = 0.30599 0.62880
# Poissons Ratio (z) = 0.22395 0.21799
#
# Static dielectric constant tensor:
#      x y z
#    x 3.624120 0.000000 0.000000 
#    y 0.000000 3.321300 0.000000 
#    z 0.000000 0.000000 3.783990 
# 
# 
# High freq. dielectric constant tensor:
#      x y z
#    x 1.763740 0.000000 0.000000 
#    y 0.000000 1.733670 0.000000 
#    z 0.000000 0.000000 1.770320 
# 
# From -- ./inp_files/17059.got.cif
#   From: 2010.03.12/outbox.cif.g09.slc.cpg/sg51_9_cif.got.tgz:17059.got - 2010.04.16 13:43:02.
