data_PCOD8212599
_publ_section_title
;
Structure prediction by ZEFSAII (Michael W. Deem and Ramdas Pophale) SiO2 
 PCOD8212599
Probable space group: P M M A
;
_chemical_formula_sum "Si O2"
_cell_formula_units_Z 32
_cell_length_a 9.942309
_cell_length_b 9.643019
_cell_length_c 17.460145
_cell_angle_alpha 90.000000
_cell_angle_beta 90.000000
_cell_angle_gamma 90.000000
_cell_volume 1673.971752
_symmetry_space_group_name_H-M "P M M A"
_symmetry_group_IT_number 51
_symmetry_cell_setting 'orthorhombic'
loop_
_space_group_symop_operation_xyz
x,y,z
1/2-x,-y,z
1/2+x,-y,-z
-x,y,-z
-x,-y,-z
1/2+x,y,-z
1/2-x,y,z
x,-y,z
loop_
_atom_site_type_symbol
_atom_site_label
_atom_site_fract_x
_atom_site_fract_y
_atom_site_fract_z
Si Si1 0.590006 0.000000 0.423513
Si Si2 0.750000 0.169065 0.916105
Si Si3 0.597243 0.252510 0.319688
Si Si4 0.482528 0.660742 0.162652
Si Si5 0.396483 0.500000 0.566770
Si Si6 0.750000 0.344658 0.065101
O O1 0.500000 0.000000 0.500000
O O2 0.546832 0.876108 0.368560
O O3 0.750000 0.000000 0.444546
O O4 0.620141 0.232849 0.875535
O O5 0.750000 0.000000 0.913626
O O6 0.750000 0.222514 0.003185
O O7 0.750000 0.234035 0.289747
O O8 0.501143 0.284495 0.248581
O O9 0.583217 0.371779 0.379839
O O10 0.431835 0.500000 0.162445
O O11 0.620814 0.672366 0.117587
O O12 0.250000 0.500000 0.527923
O O13 0.500000 0.500000 0.500000
O O14 0.750000 0.500000 0.027266
#
# Coordination Sequence:
#
# PCOD8212599 Si02
#       6
#     4   4   8   8   4   4
#     4  10  22  40  60  86 125 171 210 252 311 379
#     4  12  28  44  58  96 139 168 205 265 318 377
#     4  10  20  38  63  91 123 164 210 260 308 374
#     4  11  22  42  69  95 128 168 215 263 319 375
#     4  10  20  36  60  88 125 155 204 258 307 363
#     4  10  22  42  74  96 121 168 217 259 316 385
#
# _framework density 19.116212000000001
#
# number of rings (size 3 to 8) (size 9 to 14) (size 15 to 20)
#    0.000    1.500    2.500    2.625    1.750    4.000 
#    4.500    0.000    0.000    0.000    0.000    0.000 
#    0.000    0.000    0.000    0.000    0.000    0.000 
#
# Total GULP energy -396625.257050 kJ/mol
# GULP energy per Si atom -12394.539283 kJ/mol
# Density = 1.907270 g / cm^3
# Si number density = 19.116212 Si / 1000 Ang^3
#
#
#
# Elastic Constant Matrix: (Units=GPa)
#
#
# Indices 1 2 3 4 5 6 
#
# 1 100.2005 55.9532 58.3114 0.0000 0.0000 0.0000
# 2 55.9532 178.9426 65.2733 0.0000 0.0000 0.0000
# 3 58.3114 65.2733 122.4255 0.0000 0.0000 0.0000
# 4 0.0000 0.0000 0.0000 45.9345 0.0000 0.0000
# 5 0.0000 0.0000 0.0000 0.0000 32.1279 0.0000
# 6 0.0000 0.0000 0.0000 0.0000 0.0000 30.7715
#
#
#
# Elastic Compliance Matrix: (Units=1/GPa)
#
#
# Indices 1 2 3 4 5 6 
#
# 1 0.014676 -0.002532 -0.005641 0.000000 0.000000 0.000000
# 2 -0.002532 0.007374 -0.002726 0.000000 0.000000 0.000000
# 3 -0.005641 -0.002726 0.012308 0.000000 0.000000 0.000000
# 4 0.000000 0.000000 0.000000 0.021770 0.000000 0.000000
# 5 0.000000 0.000000 0.000000 0.000000 0.031126 0.000000
# 6 0.000000 0.000000 0.000000 0.000000 0.000000 0.032498
#
#
# Mechanical properties :
#
#
# Convention : Reuss Voigt Hill
#
# Bulk Modulus (GPa) = 79.60137 84.51603 82.05870
# Shear Modulus (GPa) = 34.30872 36.56884 35.43878
#
# Velocity S-wave (km/s) = 4.24104 4.37850 4.31032
# Velocity P-wave (km/s) = 8.10636 8.35879 8.23354
#
# Compressibility (1/GPa) = 0.01256260
#
# Stress axis : x y z
#
# Youngs Moduli (GPa) = 68.13796 135.60565 81.24651
#
# Poissons Ratio (x) = 0.34329 0.45827
# Poissons Ratio (y) = 0.17249 0.22148
# Poissons Ratio (z) = 0.38433 0.36966
#
# Static dielectric constant tensor:
#      x y z
#    x 3.451290 0.000000 0.000000 
#    y 0.000000 3.756720 0.000000 
#    z 0.000000 0.000000 3.519770 
# 
# 
# High freq. dielectric constant tensor:
#      x y z
#    x 1.737570 0.000000 0.000000 
#    y 0.000000 1.757990 0.000000 
#    z 0.000000 0.000000 1.754070 
# 
# From -- ./inp_files/22887.got.cif
#   From: 2010.03.12/outbox.cif.g09.slc.cpg/sg51_12_cif.got.tgz:22887.got - 2010.04.16 13:43:02.
