data_PCOD8212702
_publ_section_title
;
Structure prediction by ZEFSAII (Michael W. Deem and Ramdas Pophale) SiO2 
 PCOD8212702
Probable space group: P M M A
;
_chemical_formula_sum "Si O2"
_cell_formula_units_Z 48
_cell_length_a 8.913402
_cell_length_b 30.649131
_cell_length_c 9.158421
_cell_angle_alpha 90.000000
_cell_angle_beta 90.000000
_cell_angle_gamma 90.000000
_cell_volume 2501.970950
_symmetry_space_group_name_H-M "P M M A"
_symmetry_group_IT_number 51
_symmetry_cell_setting 'orthorhombic'
loop_
_space_group_symop_operation_xyz
x,y,z
1/2-x,-y,z
1/2+x,-y,-z
-x,y,-z
-x,-y,-z
1/2+x,y,-z
1/2-x,y,z
x,-y,z
loop_
_atom_site_type_symbol
_atom_site_label
_atom_site_fract_x
_atom_site_fract_y
_atom_site_fract_z
Si Si1 0.072912 0.500000 0.842036
Si Si2 0.929186 0.000000 0.656649
Si Si3 0.073250 0.251442 0.655357
Si Si4 0.572933 0.073437 0.154303
Si Si5 0.927127 0.416690 0.342144
Si Si6 0.924284 0.827205 0.151456
Si Si7 0.926867 0.333742 0.157250
O O1 0.250000 0.500000 0.863763
O O2 0.018421 0.457831 0.752558
O O3 0.000000 0.500000 0.000000
O O4 0.000000 0.000000 0.500000
O O5 0.988860 0.043659 0.730849
O O6 0.750000 0.000000 0.652214
O O7 0.250000 0.252590 0.632659
O O8 0.018582 0.205143 0.721788
O O9 0.020447 0.289233 0.765352
O O10 0.000000 0.259081 0.500000
O O11 0.750000 0.063221 0.149593
O O12 0.539509 0.123354 0.199172
O O13 0.500000 0.062361 0.000000
O O14 0.750000 0.416992 0.363775
O O15 0.981879 0.373505 0.258185
O O16 0.000000 0.418549 0.500000
O O17 0.750000 0.820377 0.124050
O O18 0.000000 0.814556 0.000000
O O19 0.750000 0.335082 0.135227
O O20 0.000000 0.337559 0.000000
#
# Coordination Sequence:
#
# PCOD8212702 Si02
#       7
#     4   4   8   8   8   8   8
#     4  10  21  36  54  78 108 140 181 224 266 318
#     4  12  25  40  57  80 110 144 180 222 271 320
#     4  10  21  36  53  78 109 141 177 218 263 316
#     4  10  20  37  59  83 110 142 180 221 264 316
#     4  10  21  36  54  79 108 140 178 222 268 320
#     4   9  19  35  56  81 108 138 176 218 261 311
#     4  10  21  36  55  79 107 138 178 222 266 317
#
# _framework density 19.184875000000002
#
# number of rings (size 3 to 8) (size 9 to 14) (size 15 to 20)
#    0.000    2.000    0.000    3.250    0.000    4.000 
#    0.000    1.667    0.000    0.000    0.000    0.000 
#    0.000    0.000    0.000    0.000    0.000    0.000 
#
# Total GULP energy -595329.878595 kJ/mol
# GULP energy per Si atom -12402.705804 kJ/mol
# Density = 1.914121 g / cm^3
# Si number density = 19.184875 Si / 1000 Ang^3
#
#
#
# Elastic Constant Matrix: (Units=GPa)
#
#
# Indices 1 2 3 4 5 6 
#
# 1 64.9533 49.2341 60.6107 0.0000 0.0000 0.0000
# 2 49.2341 148.3544 96.6010 0.0000 0.0000 0.0000
# 3 60.6107 96.6010 182.8594 0.0000 0.0000 0.0000
# 4 0.0000 0.0000 0.0000 29.9469 0.0000 0.0000
# 5 0.0000 0.0000 0.0000 0.0000 41.6783 0.0000
# 6 0.0000 0.0000 0.0000 0.0000 0.0000 12.3986
#
#
#
# Elastic Compliance Matrix: (Units=1/GPa)
#
#
# Indices 1 2 3 4 5 6 
#
# 1 0.023913 -0.004230 -0.005692 0.000000 0.000000 0.000000
# 2 -0.004230 0.011023 -0.004421 0.000000 0.000000 0.000000
# 3 -0.005692 -0.004421 0.009691 0.000000 0.000000 0.000000
# 4 0.000000 0.000000 0.000000 0.033392 0.000000 0.000000
# 5 0.000000 0.000000 0.000000 0.000000 0.023993 0.000000
# 6 0.000000 0.000000 0.000000 0.000000 0.000000 0.080654
#
#
# Mechanical properties :
#
#
# Convention : Reuss Voigt Hill
#
# Bulk Modulus (GPa) = 62.72919 89.89540 76.31229
# Shear Modulus (GPa) = 23.07686 29.45284 26.26485
#
# Velocity S-wave (km/s) = 3.47200 3.92243 3.70407
# Velocity P-wave (km/s) = 6.98865 8.21420 7.62608
#
# Compressibility (1/GPa) = 0.01594154
#
# Stress axis : x y z
#
# Youngs Moduli (GPa) = 41.81822 90.71654 103.18853
#
# Poissons Ratio (x) = 0.38371 0.58732
# Poissons Ratio (y) = 0.17688 0.45624
# Poissons Ratio (z) = 0.23802 0.40109
#
# Static dielectric constant tensor:
#      x y z
#    x 3.443710 0.000000 0.000000 
#    y 0.000000 3.958830 0.000000 
#    z 0.000000 0.000000 3.456500 
# 
# 
# High freq. dielectric constant tensor:
#      x y z
#    x 1.740070 0.000000 0.000000 
#    y 0.000000 1.767040 0.000000 
#    z 0.000000 0.000000 1.752390 
# 
# From -- ./inp_files/6206.got.cif
#   From: 2010.03.12/outbox.cif.g09.slc.cpg/sg51_4_cif.got.tgz:6206.got - 2010.04.16 13:43:02.
