data_PCOD8212432
_publ_section_title
;
Structure prediction by ZEFSAII (Michael W. Deem and Ramdas Pophale) SiO2 
 PCOD8212432
Probable space group: P M M A
;
_chemical_formula_sum "Si O2"
_cell_formula_units_Z 64
_cell_length_a 27.113018
_cell_length_b 9.004494
_cell_length_c 12.968893
_cell_angle_alpha 90.000000
_cell_angle_beta 90.000000
_cell_angle_gamma 90.000000
_cell_volume 3166.212671
_symmetry_space_group_name_H-M "P M M A"
_symmetry_group_IT_number 51
_symmetry_cell_setting 'orthorhombic'
loop_
_space_group_symop_operation_xyz
x,y,z
1/2-x,-y,z
1/2+x,-y,-z
-x,y,-z
-x,-y,-z
1/2+x,y,-z
1/2-x,y,z
x,-y,z
loop_
_atom_site_type_symbol
_atom_site_label
_atom_site_fract_x
_atom_site_fract_y
_atom_site_fract_z
Si Si1 0.148057 0.174726 0.780342
Si Si2 0.053178 0.330648 0.302223
Si Si3 0.191623 0.833341 0.381592
Si Si4 0.558646 0.167714 0.497455
Si Si5 0.191515 0.332099 0.583122
Si Si6 0.693607 0.173371 0.002055
Si Si7 0.851417 0.329937 0.812562
Si Si8 0.557931 0.325243 0.291348
O O1 0.177093 0.245685 0.685719
O O2 0.177688 0.215897 0.882990
O O3 0.093037 0.243635 0.791074
O O4 0.144293 0.000000 0.763429
O O5 0.049205 0.500000 0.342169
O O6 0.077276 0.232481 0.393503
O O7 0.089596 0.315885 0.205240
O O8 0.998521 0.275525 0.270183
O O9 0.250000 0.837807 0.391070
O O10 0.168961 0.750038 0.481978
O O11 0.178682 0.750845 0.276508
O O12 0.169948 0.000000 0.379035
O O13 0.500000 0.174078 0.500000
O O14 0.577189 0.270451 0.403605
O O15 0.577991 0.000000 0.482214
O O16 0.250000 0.333925 0.574434
O O17 0.170676 0.500000 0.587056
O O18 0.750000 0.222253 0.985999
O O19 0.686717 0.000000 0.981053
O O20 0.659216 0.260272 0.923009
O O21 0.834435 0.500000 0.812156
O O22 0.564797 0.500000 0.282037
#
# Coordination Sequence:
#
# PCOD8212432 Si02
#       8
#     8   8   8   8   8   8   8   8
#     4  11  23  39  61  87 116 152 196 244 298 354
#     4   9  20  37  55  80 117 159 197 238 292 349
#     4  10  21  37  57  83 118 157 193 234 291 355
#     4   9  17  30  51  80 113 151 195 240 284 337
#     4  10  21  37  58  86 119 153 191 237 291 354
#     4  10  23  44  66  87 114 150 193 242 298 360
#     4  11  23  38  60  88 117 151 197 246 294 348
#     4  10  20  36  57  81 116 158 198 241 290 347
#
# _framework density 20.213425000000001
#
# number of rings (size 3 to 8) (size 9 to 14) (size 15 to 20)
#    0.000    2.000    0.000    3.000    1.750    7.750 
#    0.000    0.625    0.000    3.750    0.000    0.000 
#    0.000    0.000    0.000    0.000    0.000    0.000 
#
# Total GULP energy -793805.188085 kJ/mol
# GULP energy per Si atom -12403.206064 kJ/mol
# Density = 2.016742 g / cm^3
# Si number density = 20.213425 Si / 1000 Ang^3
#
#
#
# Elastic Constant Matrix: (Units=GPa)
#
#
# Indices 1 2 3 4 5 6 
#
# 1 49.4697 31.2214 25.0615 0.0000 0.0000 0.0000
# 2 31.2214 124.0296 67.9802 0.0000 0.0000 0.0000
# 3 25.0615 67.9802 97.7142 0.0000 0.0000 0.0000
# 4 0.0000 0.0000 0.0000 30.7227 0.0000 0.0000
# 5 0.0000 0.0000 0.0000 0.0000 33.3794 0.0000
# 6 0.0000 0.0000 0.0000 0.0000 0.0000 26.4698
#
#
#
# Elastic Compliance Matrix: (Units=1/GPa)
#
#
# Indices 1 2 3 4 5 6 
#
# 1 0.024652 -0.004429 -0.003241 0.000000 0.000000 0.000000
# 2 -0.004429 0.013827 -0.008484 0.000000 0.000000 0.000000
# 3 -0.003241 -0.008484 0.016968 0.000000 0.000000 0.000000
# 4 0.000000 0.000000 0.000000 0.032549 0.000000 0.000000
# 5 0.000000 0.000000 0.000000 0.000000 0.029959 0.000000
# 6 0.000000 0.000000 0.000000 0.000000 0.000000 0.037779
#
#
# Mechanical properties :
#
#
# Convention : Reuss Voigt Hill
#
# Bulk Modulus (GPa) = 43.21838 57.74887 50.48363
# Shear Modulus (GPa) = 25.54219 27.91107 26.72663
#
# Velocity S-wave (km/s) = 3.55861 3.71997 3.64018
# Velocity P-wave (km/s) = 6.18970 6.86167 6.53433
#
# Compressibility (1/GPa) = 0.02313830
#
# Stress axis : x y z
#
# Youngs Moduli (GPa) = 40.56526 72.31990 58.93591
#
# Poissons Ratio (x) = 0.32029 0.19104
# Poissons Ratio (y) = 0.17966 0.50001
# Poissons Ratio (z) = 0.13149 0.61356
#
# Static dielectric constant tensor:
#      x y z
#    x 3.834130 0.000000 0.000000 
#    y 0.000000 3.892150 0.000000 
#    z 0.000000 0.000000 3.482550 
# 
# 
# High freq. dielectric constant tensor:
#      x y z
#    x 1.805380 0.000000 0.000000 
#    y 0.000000 1.799270 0.000000 
#    z 0.000000 0.000000 1.768200 
# 
# From -- ./inp_files/19593.got.cif
#   From: 2010.03.12/outbox.cif.g09.slc.cpg/sg51_10_cif.got.tgz:19593.got - 2010.04.16 13:43:02.
