data_PCOD8212086
_publ_section_title
;
Structure prediction by ZEFSAII (Michael W. Deem and Ramdas Pophale) SiO2 
 PCOD8212086
Probable space group: P M M A
;
_chemical_formula_sum "Si O2"
_cell_formula_units_Z 40
_cell_length_a 8.540524
_cell_length_b 25.110540
_cell_length_c 9.667475
_cell_angle_alpha 90.000000
_cell_angle_beta 90.000000
_cell_angle_gamma 90.000000
_cell_volume 2073.259325
_symmetry_space_group_name_H-M "P M M A"
_symmetry_group_IT_number 51
_symmetry_cell_setting 'orthorhombic'
loop_
_space_group_symop_operation_xyz
x,y,z
1/2-x,-y,z
1/2+x,-y,-z
-x,y,-z
-x,-y,-z
1/2+x,y,-z
1/2-x,y,z
x,-y,z
loop_
_atom_site_type_symbol
_atom_site_label
_atom_site_fract_x
_atom_site_fract_y
_atom_site_fract_z
Si Si1 0.435822 0.849946 0.149474
Si Si2 0.064839 0.059375 0.352882
Si Si3 0.434966 0.263102 0.848793
Si Si4 0.934613 0.353715 0.654099
Si Si5 0.068130 0.562339 0.852862
O O1 0.250000 0.846136 0.147181
O O2 0.499056 0.897633 0.244700
O O3 0.503143 0.793962 0.203009
O O4 0.500000 0.863691 0.000000
O O5 0.250000 0.060345 0.358285
O O6 0.000000 0.076967 0.500000
O O7 0.004840 0.000000 0.312647
O O8 0.250000 0.261648 0.859379
O O9 0.487343 0.305673 0.736677
O O10 0.500000 0.278034 0.000000
O O11 0.750000 0.345729 0.650007
O O12 0.000000 0.355246 0.500000
O O13 0.976845 0.408842 0.729558
O O14 0.250000 0.577951 0.847936
O O15 0.040629 0.500000 0.831108
O O16 0.000000 0.581221 0.000000
#
# Coordination Sequence:
#
# PCOD8212086 Si02
#       5
#     8   8   8   8   8
#     4  10  20  35  55  81 111 142 182 229 277 328
#     4   9  19  35  54  77 107 143 182 224 271 327
#     4  11  22  39  61  84 112 147 188 231 280 335
#     4  12  25  41  60  85 117 151 190 234 283 335
#     4  10  21  39  63  90 119 153 193 234 278 330
#
# _framework density 19.293292000000001
#
# number of rings (size 3 to 8) (size 9 to 14) (size 15 to 20)
#    0.000    1.600    0.000    6.600    0.000    4.400 
#    0.000    2.000    0.000    0.000    0.000    0.000 
#    0.000    0.000    0.000    0.000    0.000    0.000 
#
# Total GULP energy -496128.266379 kJ/mol
# GULP energy per Si atom -12403.206659 kJ/mol
# Density = 1.924938 g / cm^3
# Si number density = 19.293292 Si / 1000 Ang^3
#
#
#
# Elastic Constant Matrix: (Units=GPa)
#
#
# Indices 1 2 3 4 5 6 
#
# 1 99.6547 34.4515 33.4435 0.0000 0.0000 0.0000
# 2 34.4515 115.6724 78.3289 0.0000 0.0000 0.0000
# 3 33.4435 78.3289 125.0600 0.0000 0.0000 0.0000
# 4 0.0000 0.0000 0.0000 -8.2800 0.0000 0.0000
# 5 0.0000 0.0000 0.0000 0.0000 36.1915 0.0000
# 6 0.0000 0.0000 0.0000 0.0000 0.0000 -16.0107
#
#
#
# Elastic Compliance Matrix: (Units=1/GPa)
#
#
# Indices 1 2 3 4 5 6 
#
# 1 0.011367 -0.002305 -0.001596 0.000000 0.000000 0.000000
# 2 -0.002305 0.015479 -0.009079 0.000000 0.000000 0.000000
# 3 -0.001596 -0.009079 0.014109 0.000000 0.000000 0.000000
# 4 0.000000 0.000000 0.000000 -0.120772 0.000000 0.000000
# 5 0.000000 0.000000 0.000000 0.000000 0.027631 0.000000
# 6 0.000000 0.000000 0.000000 0.000000 0.000000 -0.062458
#
#
# Mechanical properties :
#
#
# Convention : Reuss Voigt Hill
#
# Bulk Modulus (GPa) = 66.68333 70.31499 68.49916
# Shear Modulus (GPa) = -59.74765 15.32437 -22.21164
#
# Velocity S-wave (km/s) = -5.57094 2.82136 -3.39671
# Velocity P-wave (km/s) = 2.59662 6.86570 4.49419
#
# Compressibility (1/GPa) = 0.01499625
#
# Stress axis : x y z
#
# Youngs Moduli (GPa) = 87.97336 64.60203 70.87425
#
# Poissons Ratio (x) = 0.14888 0.11314
# Poissons Ratio (y) = 0.20274 0.64346
# Poissons Ratio (z) = 0.14044 0.58652
#
# Static dielectric constant tensor:
#      x y z
#    x 3.647900 0.000000 0.000000 
#    y 0.000000 3.823390 0.000000 
#    z 0.000000 0.000000 3.553620 
# 
# 
# High freq. dielectric constant tensor:
#      x y z
#    x 1.765150 0.000000 0.000000 
#    y 0.000000 1.764920 0.000000 
#    z 0.000000 0.000000 1.749140 
# 
# From -- ./inp_files/5265.got.cif
#   From: 2010.03.12/outbox.cif.g09.slc.cpg/sg51_3_cif.got.tgz:5265.got - 2010.04.16 13:43:02.
