data_PCOD8212747
_publ_section_title
;
Structure prediction by ZEFSAII (Michael W. Deem and Ramdas Pophale) SiO2 
 PCOD8212747
Probable space group: P M M A
;
_chemical_formula_sum "Si O2"
_cell_formula_units_Z 40
_cell_length_a 18.510997
_cell_length_b 9.203133
_cell_length_c 12.360162
_cell_angle_alpha 90.000000
_cell_angle_beta 90.000000
_cell_angle_gamma 90.000000
_cell_volume 2105.666907
_symmetry_space_group_name_H-M "P M M A"
_symmetry_group_IT_number 51
_symmetry_cell_setting 'orthorhombic'
loop_
_space_group_symop_operation_xyz
x,y,z
1/2-x,-y,z
1/2+x,-y,-z
-x,y,-z
-x,-y,-z
1/2+x,y,-z
1/2-x,y,z
x,-y,z
loop_
_atom_site_type_symbol
_atom_site_label
_atom_site_fract_x
_atom_site_fract_y
_atom_site_fract_z
Si Si1 0.079090 0.330071 0.171475
Si Si2 0.167366 0.329488 0.380657
Si Si3 0.924242 0.829816 0.451635
Si Si4 0.833978 0.332584 0.042858
Si Si5 0.432891 0.171066 0.797968
O O1 0.061019 0.500000 0.177603
O O2 0.120234 0.276261 0.278833
O O3 0.005241 0.243467 0.156463
O O4 0.129323 0.292761 0.070384
O O5 0.250000 0.286479 0.358412
O O6 0.158914 0.500000 0.398385
O O7 0.141052 0.250518 0.488843
O O8 0.921062 0.787188 0.326521
O O9 0.000000 0.774264 0.500000
O O10 0.914739 0.000000 0.471102
O O11 0.750000 0.298707 0.030289
O O12 0.848193 0.500000 0.073467
O O13 0.864662 0.231522 0.137206
O O14 0.439317 0.000000 0.814579
#
# Coordination Sequence:
#
# PCOD8212747 Si02
#       5
#     8   8   8   8   8
#     4  10  20  37  61  86 114 149 189 233 285 341
#     4  10  21  36  58  89 118 145 186 239 288 335
#     4  10  21  39  58  79 113 154 192 230 279 338
#     4  10  22  40  60  83 115 153 190 231 284 344
#     4  11  23  38  59  85 115 150 193 239 281 333
#
# _framework density 18.996357
#
# number of rings (size 3 to 8) (size 9 to 14) (size 15 to 20)
#    0.000    1.800    2.000    1.800    0.000    9.200 
#    0.000    4.000    0.000    3.600    0.000    0.000 
#    0.000    0.000    0.000    0.000    0.000    0.000 
#
# Total GULP energy -496252.831007 kJ/mol
# GULP energy per Si atom -12406.320775 kJ/mol
# Density = 1.895312 g / cm^3
# Si number density = 18.996357 Si / 1000 Ang^3
#
#
#
# Elastic Constant Matrix: (Units=GPa)
#
#
# Indices 1 2 3 4 5 6 
#
# 1 79.2737 33.1553 58.3005 0.0000 0.0000 0.0000
# 2 33.1553 48.9726 53.4457 0.0000 0.0000 0.0000
# 3 58.3005 53.4457 130.7132 0.0000 0.0000 0.0000
# 4 0.0000 0.0000 0.0000 32.6622 0.0000 0.0000
# 5 0.0000 0.0000 0.0000 0.0000 35.4622 0.0000
# 6 0.0000 0.0000 0.0000 0.0000 0.0000 16.2833
#
#
#
# Elastic Compliance Matrix: (Units=1/GPa)
#
#
# Indices 1 2 3 4 5 6 
#
# 1 0.019972 -0.006862 -0.006102 0.000000 0.000000 0.000000
# 2 -0.006862 0.039231 -0.012980 0.000000 0.000000 0.000000
# 3 -0.006102 -0.012980 0.015679 0.000000 0.000000 0.000000
# 4 0.000000 0.000000 0.000000 0.030616 0.000000 0.000000
# 5 0.000000 0.000000 0.000000 0.000000 0.028199 0.000000
# 6 0.000000 0.000000 0.000000 0.000000 0.000000 0.061412
#
#
# Mechanical properties :
#
#
# Convention : Reuss Voigt Hill
#
# Bulk Modulus (GPa) = 43.48978 60.97362 52.23170
# Shear Modulus (GPa) = 19.63372 24.48542 22.05957
#
# Velocity S-wave (km/s) = 3.21838 3.59409 3.41141
# Velocity P-wave (km/s) = 6.06251 7.02784 6.56295
#
# Compressibility (1/GPa) = 0.02299391
#
# Stress axis : x y z
#
# Youngs Moduli (GPa) = 50.06937 25.49007 63.77807
#
# Poissons Ratio (x) = 0.17491 0.38919
# Poissons Ratio (y) = 0.34357 0.82785
# Poissons Ratio (z) = 0.30554 0.33086
#
# Static dielectric constant tensor:
#      x y z
#    x 3.519420 0.000000 0.000000 
#    y 0.000000 3.366740 0.000000 
#    z 0.000000 0.000000 3.597230 
# 
# 
# High freq. dielectric constant tensor:
#      x y z
#    x 1.745460 0.000000 0.000000 
#    y 0.000000 1.730100 0.000000 
#    z 0.000000 0.000000 1.750330 
# 
# From -- ./inp_files/17055.got.cif
#   From: 2010.03.12/outbox.cif.g09.slc.cpg/sg51_9_cif.got.tgz:17055.got - 2010.04.16 13:43:02.
