data_PCOD8212836
_publ_section_title
;
Structure prediction by ZEFSAII (Michael W. Deem and Ramdas Pophale) SiO2 
 PCOD8212836
Probable space group: P M M A
;
_chemical_formula_sum "Si O2"
_cell_formula_units_Z 20
_cell_length_a 17.077271
_cell_length_b 11.235215
_cell_length_c 4.966116
_cell_angle_alpha 90.000000
_cell_angle_beta 90.000000
_cell_angle_gamma 90.000000
_cell_volume 952.832841
_symmetry_space_group_name_H-M "P M M A"
_symmetry_group_IT_number 51
_symmetry_cell_setting 'orthorhombic'
loop_
_space_group_symop_operation_xyz
x,y,z
1/2-x,-y,z
1/2+x,-y,-z
-x,y,-z
-x,-y,-z
1/2+x,y,-z
1/2-x,y,z
x,-y,z
loop_
_atom_site_type_symbol
_atom_site_label
_atom_site_fract_x
_atom_site_fract_y
_atom_site_fract_z
Si Si1 0.839207 0.635114 0.098663
Si Si2 0.556376 0.000000 0.746203
Si Si3 0.411426 0.748601 0.399321
O O1 0.750000 0.655478 0.005357
O O2 0.853332 0.500000 0.195747
O O3 0.856018 0.722599 0.347633
O O4 0.895325 0.658277 0.844279
O O5 0.500000 0.000000 0.500000
O O6 0.608015 0.119972 0.723001
O O7 0.500000 0.000000 0.000000
O O8 0.500000 0.734322 0.500000
#
# Coordination Sequence:
#
# PCOD8212836 Si02
#       3
#     8   4   8
#     4  11  24  41  59  85 125 163 195 245 311 361
#     4  10  20  38  61  88 121 152 187 244 307 346
#     4  11  22  39  64  90 116 155 206 250 293 359
#
# _framework density 20.990037999999998
#
# number of rings (size 3 to 8) (size 9 to 14) (size 15 to 20)
#    0.000    1.200    0.000    8.400    0.000    8.000 
#    0.000    6.000    0.000    0.000    0.000    0.000 
#    0.000    0.000    0.000    0.000    0.000    0.000 
#
# Total GULP energy -247989.651614 kJ/mol
# GULP energy per Si atom -12399.482581 kJ/mol
# Density = 2.094226 g / cm^3
# Si number density = 20.990038 Si / 1000 Ang^3
#
#
#
# Elastic Constant Matrix: (Units=GPa)
#
#
# Indices 1 2 3 4 5 6 
#
# 1 73.0214 67.8134 36.8433 0.0000 0.0000 0.0000
# 2 67.8134 124.2844 53.6011 0.0000 0.0000 0.0000
# 3 36.8433 53.6011 154.8819 0.0000 0.0000 0.0000
# 4 0.0000 0.0000 0.0000 40.8660 0.0000 0.0000
# 5 0.0000 0.0000 0.0000 0.0000 40.3745 0.0000
# 6 0.0000 0.0000 0.0000 0.0000 0.0000 24.1107
#
#
#
# Elastic Compliance Matrix: (Units=1/GPa)
#
#
# Indices 1 2 3 4 5 6 
#
# 1 0.028104 -0.014635 -0.001620 0.000000 0.000000 0.000000
# 2 -0.014635 0.017079 -0.002429 0.000000 0.000000 0.000000
# 3 -0.001620 -0.002429 0.007683 0.000000 0.000000 0.000000
# 4 0.000000 0.000000 0.000000 0.024470 0.000000 0.000000
# 5 0.000000 0.000000 0.000000 0.000000 0.024768 0.000000
# 6 0.000000 0.000000 0.000000 0.000000 0.000000 0.041475
#
#
# Mechanical properties :
#
#
# Convention : Reuss Voigt Hill
#
# Bulk Modulus (GPa) = 64.53425 74.30038 69.41731
# Shear Modulus (GPa) = 26.86512 33.99890 30.43201
#
# Velocity S-wave (km/s) = 3.58145 4.02900 3.81180
# Velocity P-wave (km/s) = 6.92201 7.55768 7.24682
#
# Compressibility (1/GPa) = 0.01549565
#
# Stress axis : x y z
#
# Youngs Moduli (GPa) = 35.58234 58.55032 130.16271
#
# Poissons Ratio (x) = 0.85691 0.21091
# Poissons Ratio (y) = 0.52077 0.31620
# Poissons Ratio (z) = 0.05766 0.14223
#
# Static dielectric constant tensor:
#      x y z
#    x 3.609620 0.000000 0.000000 
#    y 0.000000 -1.395180 0.000000 
#    z 0.000000 0.000000 3.859820 
# 
# 
# High freq. dielectric constant tensor:
#      x y z
#    x 1.799420 0.000000 0.000000 
#    y 0.000000 1.833010 0.000000 
#    z 0.000000 0.000000 1.841750 
# 
# From -- ./inp_files/1085.got.cif
#   From: 2010.03.12/outbox.cif.g09.slc.cpg/sg51_1_cif.got.tgz:1085.got - 2010.04.16 13:43:02.
