data_PCOD8212435
_publ_section_title
;
Structure prediction by ZEFSAII (Michael W. Deem and Ramdas Pophale) SiO2 
 PCOD8212435
Probable space group: P M M A
;
_chemical_formula_sum "Si O2"
_cell_formula_units_Z 48
_cell_length_a 9.015455
_cell_length_b 30.623477
_cell_length_c 9.317254
_cell_angle_alpha 90.000000
_cell_angle_beta 90.000000
_cell_angle_gamma 90.000000
_cell_volume 2572.350147
_symmetry_space_group_name_H-M "P M M A"
_symmetry_group_IT_number 51
_symmetry_cell_setting 'orthorhombic'
loop_
_space_group_symop_operation_xyz
x,y,z
1/2-x,-y,z
1/2+x,-y,-z
-x,y,-z
-x,-y,-z
1/2+x,y,-z
1/2-x,y,z
x,-y,z
loop_
_atom_site_type_symbol
_atom_site_label
_atom_site_fract_x
_atom_site_fract_y
_atom_site_fract_z
Si Si1 0.579130 0.500000 0.351263
Si Si2 0.924659 0.000000 0.650709
Si Si3 0.924916 0.244515 0.348167
Si Si4 0.575385 0.594469 0.345662
Si Si5 0.077100 0.327248 0.848326
Si Si6 0.925113 0.176016 0.849884
Si Si7 0.577815 0.075935 0.855088
O O1 0.750000 0.500000 0.388843
O O2 0.500000 0.500000 0.500000
O O3 0.539237 0.546293 0.274825
O O4 0.978832 0.043727 0.731275
O O5 0.000000 0.000000 0.500000
O O6 0.750000 0.000000 0.630250
O O7 0.750000 0.236511 0.367856
O O8 0.959132 0.285357 0.247004
O O9 0.000000 0.254145 0.500000
O O10 0.000622 0.202205 0.279286
O O11 0.500000 0.600530 0.500000
O O12 0.750000 0.601304 0.369549
O O13 0.513734 0.630230 0.234497
O O14 0.250000 0.332456 0.877550
O O15 0.000000 0.321823 0.000000
O O16 0.750000 0.185731 0.859482
O O17 0.959786 0.125679 0.813794
O O18 0.000000 0.189921 0.000000
O O19 0.750000 0.069583 0.882703
O O20 0.500000 0.061402 0.000000
#
# Coordination Sequence:
#
# PCOD8212435 Si02
#       7
#     4   4   8   8   8   8   8
#     4   8  14  26  47  72 100 130 162 202 249 298
#     4  10  21  36  52  76 108 140 175 216 260 306
#     4  11  23  38  56  79 105 137 174 215 262 312
#     4   9  17  31  51  76 102 131 167 208 252 301
#     4  10  22  37  53  74 102 135 172 211 256 305
#     4  10  20  36  57  82 110 140 174 215 260 310
#     4   9  19  35  56  80 106 137 175 214 255 305
#
# _framework density 18.659977999999999
#
# number of rings (size 3 to 8) (size 9 to 14) (size 15 to 20)
#    0.000    2.333    0.000    2.250    0.000    5.333 
#    0.000    2.083    0.000    0.000    0.000    0.000 
#    0.000    0.000    0.000    0.000    0.000    0.000 
#
# Total GULP energy -595061.484852 kJ/mol
# GULP energy per Si atom -12397.114268 kJ/mol
# Density = 1.861751 g / cm^3
# Si number density = 18.659978 Si / 1000 Ang^3
#
#
#
# Elastic Constant Matrix: (Units=GPa)
#
#
# Indices 1 2 3 4 5 6 
#
# 1 62.3204 52.4243 59.3261 0.0000 0.0000 0.0000
# 2 52.4243 133.3517 82.3777 0.0000 0.0000 0.0000
# 3 59.3261 82.3777 146.0247 0.0000 0.0000 0.0000
# 4 0.0000 0.0000 0.0000 27.1494 0.0000 0.0000
# 5 0.0000 0.0000 0.0000 0.0000 35.3575 0.0000
# 6 0.0000 0.0000 0.0000 0.0000 0.0000 21.1088
#
#
#
# Elastic Compliance Matrix: (Units=1/GPa)
#
#
# Indices 1 2 3 4 5 6 
#
# 1 0.029341 -0.006402 -0.008309 0.000000 0.000000 0.000000
# 2 -0.006402 0.012907 -0.004680 0.000000 0.000000 0.000000
# 3 -0.008309 -0.004680 0.012864 0.000000 0.000000 0.000000
# 4 0.000000 0.000000 0.000000 0.036833 0.000000 0.000000
# 5 0.000000 0.000000 0.000000 0.000000 0.028283 0.000000
# 6 0.000000 0.000000 0.000000 0.000000 0.000000 0.047374
#
#
# Mechanical properties :
#
#
# Convention : Reuss Voigt Hill
#
# Bulk Modulus (GPa) = 61.23758 81.10587 71.17173
# Shear Modulus (GPa) = 23.60406 26.56106 25.08256
#
# Velocity S-wave (km/s) = 3.56048 3.77692 3.67030
# Velocity P-wave (km/s) = 7.05631 7.91073 7.49571
#
# Compressibility (1/GPa) = 0.01632984
#
# Stress axis : x y z
#
# Youngs Moduli (GPa) = 34.08164 77.47701 77.73478
#
# Poissons Ratio (x) = 0.49601 0.64590
# Poissons Ratio (y) = 0.21819 0.36383
# Poissons Ratio (z) = 0.28319 0.36262
#
# Static dielectric constant tensor:
#      x y z
#    x 3.382200 0.000000 0.000000 
#    y 0.000000 3.993490 0.000000 
#    z 0.000000 0.000000 3.231710 
# 
# 
# High freq. dielectric constant tensor:
#      x y z
#    x 1.724150 0.000000 0.000000 
#    y 0.000000 1.746950 0.000000 
#    z 0.000000 0.000000 1.709220 
# 
# From -- ./inp_files/6214.got.cif
#   From: 2010.03.12/outbox.cif.g09.slc.cpg/sg51_4_cif.got.tgz:6214.got - 2010.04.16 13:43:02.
