data_PCOD8212826
_publ_section_title
;
Structure prediction by ZEFSAII (Michael W. Deem and Ramdas Pophale) SiO2 
 PCOD8212826
Probable space group: P M M A
;
_chemical_formula_sum "Si O2"
_cell_formula_units_Z 48
_cell_length_a 9.405261
_cell_length_b 9.434723
_cell_length_c 29.095918
_cell_angle_alpha 90.000000
_cell_angle_beta 90.000000
_cell_angle_gamma 90.000000
_cell_volume 2581.856319
_symmetry_space_group_name_H-M "P M M A"
_symmetry_group_IT_number 51
_symmetry_cell_setting 'orthorhombic'
loop_
_space_group_symop_operation_xyz
x,y,z
1/2-x,-y,z
1/2+x,-y,-z
-x,y,-z
-x,-y,-z
1/2+x,y,-z
1/2-x,y,z
x,-y,z
loop_
_atom_site_type_symbol
_atom_site_label
_atom_site_fract_x
_atom_site_fract_y
_atom_site_fract_z
Si Si1 0.912966 0.834938 0.787008
Si Si2 0.523567 0.340483 0.398862
Si Si3 0.584248 0.664903 0.953678
Si Si4 0.915062 0.166631 0.123017
Si Si5 0.250000 0.654682 0.459923
Si Si6 0.250000 0.167416 0.549929
Si Si7 0.087362 0.336387 0.300641
O O1 0.750000 0.791071 0.799093
O O2 0.969974 0.754084 0.742101
O O3 0.017648 0.791960 0.828107
O O4 0.922326 0.000000 0.776198
O O5 0.587967 0.500000 0.402779
O O6 0.379229 0.331840 0.425980
O O7 0.616295 0.220567 0.421936
O O8 0.504234 0.299941 0.345595
O O9 0.750000 0.709554 0.958718
O O10 0.571769 0.500000 0.941114
O O11 0.508178 0.753810 0.914474
O O12 0.500000 0.700225 0.000000
O O13 0.750000 0.214817 0.121518
O O14 0.928817 0.000000 0.113705
O O15 0.250000 0.500000 0.484668
O O16 0.250000 0.774678 0.498241
O O17 0.250000 0.000000 0.546789
O O18 0.250000 0.296554 0.311295
O O19 0.072343 0.500000 0.287316
#
# Coordination Sequence:
#
# PCOD8212826 Si02
#       7
#     8   8   8   8   4   4   8
#     4   9  18  33  53  77 107 144 182 222 273 329
#     4  10  20  38  61  82 107 142 183 226 272 328
#     4  10  21  37  58  84 114 149 189 236 289 338
#     4  10  21  37  56  80 113 153 193 231 272 327
#     4  10  20  38  64  84 102 140 188 226 271 328
#     4  12  26  38  50  80 118 148 178 222 275 326
#     4   9  17  33  58  85 107 132 177 231 275 323
#
# _framework density 18.591275
#
# number of rings (size 3 to 8) (size 9 to 14) (size 15 to 20)
#    0.000    2.167    0.833    2.250    0.000    6.333 
#    1.500    1.667    0.000    0.000    0.000    0.000 
#    0.000    0.000    0.000    0.000    0.000    0.000 
#
# Total GULP energy -595147.091461 kJ/mol
# GULP energy per Si atom -12398.897739 kJ/mol
# Density = 1.854896 g / cm^3
# Si number density = 18.591275 Si / 1000 Ang^3
#
#
#
# Elastic Constant Matrix: (Units=GPa)
#
#
# Indices 1 2 3 4 5 6 
#
# 1 118.1702 48.3664 66.0058 0.0000 0.0000 0.0000
# 2 48.3664 87.4138 71.3510 0.0000 0.0000 0.0000
# 3 66.0058 71.3510 149.7508 0.0000 0.0000 0.0000
# 4 0.0000 0.0000 0.0000 -75.2304 0.0000 0.0000
# 5 0.0000 0.0000 0.0000 0.0000 67.5650 0.0000
# 6 0.0000 0.0000 0.0000 0.0000 0.0000 25.6338
#
#
#
# Elastic Compliance Matrix: (Units=1/GPa)
#
#
# Indices 1 2 3 4 5 6 
#
# 1 0.011945 -0.003783 -0.003463 0.000000 0.000000 0.000000
# 2 -0.003783 0.019918 -0.007823 0.000000 0.000000 0.000000
# 3 -0.003463 -0.007823 0.011931 0.000000 0.000000 0.000000
# 4 0.000000 0.000000 0.000000 -0.013292 0.000000 0.000000
# 5 0.000000 0.000000 0.000000 0.000000 0.014801 0.000000
# 6 0.000000 0.000000 0.000000 0.000000 0.000000 0.039011
#
#
# Mechanical properties :
#
#
# Convention : Reuss Voigt Hill
#
# Bulk Modulus (GPa) = 73.21876 80.75346 76.98611
# Shear Modulus (GPa) = 42.01581 14.90111 28.45846
#
# Velocity S-wave (km/s) = 4.75908 2.83417 3.91672
# Velocity P-wave (km/s) = 8.34669 7.36482 7.87108
#
# Compressibility (1/GPa) = 0.01365770
#
# Stress axis : x y z
#
# Youngs Moduli (GPa) = 83.71929 50.20486 83.81286
#
# Poissons Ratio (x) = 0.18991 0.29020
# Poissons Ratio (y) = 0.31669 0.65567
# Poissons Ratio (z) = 0.28988 0.39276
#
# Static dielectric constant tensor:
#      x y z
#    x 3.465330 0.000000 0.000000 
#    y 0.000000 3.399050 0.000000 
#    z 0.000000 0.000000 3.541990 
# 
# 
# High freq. dielectric constant tensor:
#      x y z
#    x 1.723790 0.000000 0.000000 
#    y 0.000000 1.712490 0.000000 
#    z 0.000000 0.000000 1.732060 
# 
# From -- ./inp_files/37232.got.cif
#   From: 2010.03.12/outbox.cif.g09.slc.cpg/sg51_19_cif.got.tgz:37232.got - 2010.04.16 13:43:02.
