data_PCOD8212323
_publ_section_title
;
Structure prediction by ZEFSAII (Michael W. Deem and Ramdas Pophale) SiO2 
 PCOD8212323
Probable space group: P M M A
;
_chemical_formula_sum "Si O2"
_cell_formula_units_Z 64
_cell_length_a 8.776896
_cell_length_b 23.451433
_cell_length_c 15.580516
_cell_angle_alpha 90.000000
_cell_angle_beta 90.000000
_cell_angle_gamma 90.000000
_cell_volume 3206.949893
_symmetry_space_group_name_H-M "P M M A"
_symmetry_group_IT_number 51
_symmetry_cell_setting 'orthorhombic'
loop_
_space_group_symop_operation_xyz
x,y,z
1/2-x,-y,z
1/2+x,-y,-z
-x,y,-z
-x,-y,-z
1/2+x,y,-z
1/2-x,y,z
x,-y,z
loop_
_atom_site_type_symbol
_atom_site_label
_atom_site_fract_x
_atom_site_fract_y
_atom_site_fract_z
Si Si1 0.429655 0.435404 0.587834
Si Si2 0.569382 0.361816 0.250079
Si Si3 0.570409 0.168591 0.586116
Si Si4 0.927761 0.064538 0.849088
Si Si5 0.428607 0.761382 0.245555
Si Si6 0.925939 0.064522 0.333347
Si Si7 0.929666 0.564592 0.087934
Si Si8 0.570913 0.173531 0.086631
O O1 0.500000 0.410686 0.500000
O O2 0.250000 0.433790 0.579264
O O3 0.487154 0.500000 0.603905
O O4 0.484286 0.396970 0.666813
O O5 0.750000 0.351112 0.249870
O O6 0.480002 0.303278 0.250987
O O7 0.515848 0.396570 0.166506
O O8 0.500000 0.196613 0.500000
O O9 0.750000 0.161289 0.576642
O O10 0.525471 0.208508 0.665651
O O11 0.491716 0.106736 0.595257
O O12 0.750000 0.078784 0.857496
O O13 0.974811 0.074449 0.751267
O O14 0.022201 0.107231 0.908723
O O15 0.965046 0.000000 0.878203
O O16 0.250000 0.765441 0.228376
O O17 0.513533 0.792193 0.168399
O O18 0.750000 0.078365 0.312522
O O19 0.944360 0.000000 0.367337
O O20 0.750000 0.566169 0.079288
O O21 0.987025 0.500000 0.104406
O O22 0.000000 0.589119 0.000000
O O23 0.750000 0.178836 0.081149
O O24 0.500000 0.200273 0.000000
#
# Coordination Sequence:
#
# PCOD8212323 Si02
#       8
#     8   8   8   8   8   8   8   8
#     4   9  18  34  57  86 120 156 195 241 293 350
#     4  10  21  37  59  84 114 156 199 239 289 350
#     4  11  24  41  63  86 115 154 198 248 302 360
#     4  10  20  36  60  90 124 158 193 238 294 355
#     4  11  25  44  62  85 118 155 200 252 301 352
#     4  10  20  35  59  90 121 154 193 239 295 358
#     4   9  18  34  57  86 119 153 190 233 283 339
#     4  12  25  42  66  90 118 156 199 248 300 358
#
# _framework density 19.956658999999998
#
# number of rings (size 3 to 8) (size 9 to 14) (size 15 to 20)
#    0.000    1.750    1.250    3.000    0.000    7.000 
#    0.000    3.750    0.000    3.750    0.000    0.000 
#    0.000    0.000    0.000    0.000    0.000    0.000 
#
# Total GULP energy -793835.063929 kJ/mol
# GULP energy per Si atom -12403.672874 kJ/mol
# Density = 1.991124 g / cm^3
# Si number density = 19.956659 Si / 1000 Ang^3
#
#
#
# Elastic Constant Matrix: (Units=GPa)
#
#
# Indices 1 2 3 4 5 6 
#
# 1 90.0883 49.0976 63.6563 0.0000 0.0000 0.0000
# 2 49.0976 111.7101 73.7907 0.0000 0.0000 0.0000
# 3 63.6563 73.7907 165.6817 0.0000 0.0000 0.0000
# 4 0.0000 0.0000 0.0000 3.9440 0.0000 0.0000
# 5 0.0000 0.0000 0.0000 0.0000 37.0210 0.0000
# 6 0.0000 0.0000 0.0000 0.0000 0.0000 29.8726
#
#
#
# Elastic Compliance Matrix: (Units=1/GPa)
#
#
# Indices 1 2 3 4 5 6 
#
# 1 0.016619 -0.004373 -0.004438 0.000000 0.000000 0.000000
# 2 -0.004373 0.013834 -0.004481 0.000000 0.000000 0.000000
# 3 -0.004438 -0.004481 0.009736 0.000000 0.000000 0.000000
# 4 0.000000 0.000000 0.000000 0.253551 0.000000 0.000000
# 5 0.000000 0.000000 0.000000 0.000000 0.027012 0.000000
# 6 0.000000 0.000000 0.000000 0.000000 0.000000 0.033476
#
#
# Mechanical properties :
#
#
# Convention : Reuss Voigt Hill
#
# Bulk Modulus (GPa) = 73.49738 82.28547 77.89142
# Shear Modulus (GPa) = 12.97534 26.22988 19.60261
#
# Velocity S-wave (km/s) = 2.55262 3.62932 3.13750
# Velocity P-wave (km/s) = 6.75250 7.67360 7.22774
#
# Compressibility (1/GPa) = 0.01360593
#
# Stress axis : x y z
#
# Youngs Moduli (GPa) = 60.17200 72.28727 102.70756
#
# Poissons Ratio (x) = 0.31611 0.45577
# Poissons Ratio (y) = 0.26313 0.46024
# Poissons Ratio (z) = 0.26702 0.32392
#
# Static dielectric constant tensor:
#      x y z
#    x 3.588720 0.000000 0.000000 
#    y 0.000000 3.755930 0.000000 
#    z 0.000000 0.000000 3.749900 
# 
# 
# High freq. dielectric constant tensor:
#      x y z
#    x 1.780440 0.000000 0.000000 
#    y 0.000000 1.774250 0.000000 
#    z 0.000000 0.000000 1.786830 
# 
# From -- ./inp_files/22362.got.cif
#   From: 2010.03.12/outbox.cif.g09.slc.cpg/sg51_12_cif.got.tgz:22362.got - 2010.04.16 13:43:02.
