data_PCOD8212138
_publ_section_title
;
Structure prediction by ZEFSAII (Michael W. Deem and Ramdas Pophale) SiO2 
 PCOD8212138
Probable space group: P M M A
;
_chemical_formula_sum "Si O2"
_cell_formula_units_Z 48
_cell_length_a 18.474769
_cell_length_b 13.991580
_cell_length_c 10.151185
_cell_angle_alpha 90.000000
_cell_angle_beta 90.000000
_cell_angle_gamma 90.000000
_cell_volume 2623.992078
_symmetry_space_group_name_H-M "P M M A"
_symmetry_group_IT_number 51
_symmetry_cell_setting 'orthorhombic'
loop_
_space_group_symop_operation_xyz
x,y,z
1/2-x,-y,z
1/2+x,-y,-z
-x,y,-z
-x,-y,-z
1/2+x,y,-z
1/2-x,y,z
x,-y,z
loop_
_atom_site_type_symbol
_atom_site_label
_atom_site_fract_x
_atom_site_fract_y
_atom_site_fract_z
Si Si1 0.334214 0.107797 0.917110
Si Si2 0.588278 0.388236 0.739273
Si Si3 0.164235 0.896251 0.619682
Si Si4 0.084446 0.282836 0.996647
Si Si5 0.421632 0.610118 0.735054
Si Si6 0.664178 0.700116 0.497295
O O1 0.250000 0.132290 0.924109
O O2 0.364093 0.120413 0.768220
O O3 0.375590 0.181316 0.012166
O O4 0.349031 0.000000 0.966958
O O5 0.605812 0.500000 0.728515
O O6 0.505135 0.365779 0.702842
O O7 0.639895 0.330024 0.641840
O O8 0.607128 0.353364 0.885925
O O9 0.250000 0.899599 0.625591
O O10 0.138154 0.809792 0.526614
O O11 0.135690 0.000000 0.567231
O O12 0.107947 0.330973 0.859375
O O13 0.000000 0.262487 0.000000
O O14 0.414494 0.500000 0.773461
O O15 0.373251 0.631370 0.608401
O O16 0.750000 0.689578 0.482700
#
# Coordination Sequence:
#
# PCOD8212138 Si02
#       6
#     8   8   8   8   8   8
#     4   9  17  32  55  80 106 138 176 217 266 320
#     4  10  22  38  53  74 110 148 175 212 273 325
#     4   8  15  30  53  78 102 132 170 214 263 311
#     4  10  20  35  56  81 105 139 182 226 261 307
#     4  10  20  36  57  77 101 140 187 224 257 312
#     4  11  21  34  55  82 107 136 178 222 264 315
#
# _framework density 18.292738
#
# number of rings (size 3 to 8) (size 9 to 14) (size 15 to 20)
#    0.000    2.333    1.667    2.500    0.000    5.667 
#    0.000    0.833    0.000    8.000    0.000    0.000 
#    0.000    0.000    0.000    0.000    0.000    0.000 
#
# Total GULP energy -595171.511676 kJ/mol
# GULP energy per Si atom -12399.406493 kJ/mol
# Density = 1.825110 g / cm^3
# Si number density = 18.292738 Si / 1000 Ang^3
#
#
#
# Elastic Constant Matrix: (Units=GPa)
#
#
# Indices 1 2 3 4 5 6 
#
# 1 38.0097 36.2209 25.0332 0.0000 0.0000 0.0000
# 2 36.2209 115.6725 33.1910 0.0000 0.0000 0.0000
# 3 25.0332 33.1910 66.6265 0.0000 0.0000 0.0000
# 4 0.0000 0.0000 0.0000 33.8138 0.0000 0.0000
# 5 0.0000 0.0000 0.0000 0.0000 20.6603 0.0000
# 6 0.0000 0.0000 0.0000 0.0000 0.0000 29.9693
#
#
#
# Elastic Compliance Matrix: (Units=1/GPa)
#
#
# Indices 1 2 3 4 5 6 
#
# 1 0.043641 -0.010455 -0.011189 0.000000 0.000000 0.000000
# 2 -0.010455 0.012592 -0.002345 0.000000 0.000000 0.000000
# 3 -0.011189 -0.002345 0.020381 0.000000 0.000000 0.000000
# 4 0.000000 0.000000 0.000000 0.029574 0.000000 0.000000
# 5 0.000000 0.000000 0.000000 0.000000 0.048402 0.000000
# 6 0.000000 0.000000 0.000000 0.000000 0.000000 0.033367
#
#
# Mechanical properties :
#
#
# Convention : Reuss Voigt Hill
#
# Bulk Modulus (GPa) = 34.91973 45.46653 40.19313
# Shear Modulus (GPa) = 20.36838 25.27957 22.82398
#
# Velocity S-wave (km/s) = 3.34049 3.72149 3.53612
# Velocity P-wave (km/s) = 5.83175 6.58596 6.22030
#
# Compressibility (1/GPa) = 0.02863711
#
# Stress axis : x y z
#
# Youngs Moduli (GPa) = 22.91431 79.41787 49.06565
#
# Poissons Ratio (x) = 0.83031 0.54898
# Poissons Ratio (y) = 0.23957 0.11504
# Poissons Ratio (z) = 0.25638 0.18620
#
# Static dielectric constant tensor:
#      x y z
#    x 3.165790 0.000000 0.000000 
#    y 0.000000 3.659550 0.000000 
#    z 0.000000 0.000000 3.245340 
# 
# 
# High freq. dielectric constant tensor:
#      x y z
#    x 1.686540 0.000000 0.000000 
#    y 0.000000 1.725300 0.000000 
#    z 0.000000 0.000000 1.695000 
# 
# From -- ./inp_files/9620.got.cif
#   From: 2010.03.12/outbox.cif.g09.slc.cpg/sg51_5_cif.got.tgz:9620.got - 2010.04.16 13:43:02.
