data_PCOD8212117
_publ_section_title
;
Structure prediction by ZEFSAII (Michael W. Deem and Ramdas Pophale) SiO2 
 PCOD8212117
Probable space group: P M M A
;
_chemical_formula_sum "Si O2"
_cell_formula_units_Z 40
_cell_length_a 11.149674
_cell_length_b 8.956392
_cell_length_c 20.108074
_cell_angle_alpha 90.000000
_cell_angle_beta 90.000000
_cell_angle_gamma 90.000000
_cell_volume 2008.009382
_symmetry_space_group_name_H-M "P M M A"
_symmetry_group_IT_number 51
_symmetry_cell_setting 'orthorhombic'
loop_
_space_group_symop_operation_xyz
x,y,z
1/2-x,-y,z
1/2+x,-y,-z
-x,y,-z
-x,-y,-z
1/2+x,y,-z
1/2-x,y,z
x,-y,z
loop_
_atom_site_type_symbol
_atom_site_label
_atom_site_fract_x
_atom_site_fract_y
_atom_site_fract_z
Si Si1 0.023439 0.174370 0.424033
Si Si2 0.113651 0.322135 0.956315
Si Si3 0.506839 0.322642 0.179518
Si Si4 0.750000 0.676831 0.789122
Si Si5 0.111364 0.332500 0.683711
Si Si6 0.250000 0.323535 0.361020
O O1 0.136011 0.266308 0.399905
O O2 0.000000 0.216386 0.500000
O O3 0.911238 0.226391 0.379409
O O4 0.046895 0.000000 0.415123
O O5 0.250000 0.267028 0.976999
O O6 0.112949 0.500000 0.959949
O O7 0.087019 0.263000 0.881542
O O8 0.000000 0.261600 0.000000
O O9 0.516779 0.500000 0.180672
O O10 0.368234 0.269986 0.170840
O O11 0.551732 0.260789 0.250402
O O12 0.750000 0.500000 0.783937
O O13 0.750000 0.740718 0.714010
O O14 0.250000 0.340973 0.698256
O O15 0.060159 0.500000 0.670220
O O16 0.250000 0.500000 0.361266
#
# Coordination Sequence:
#
# PCOD8212117 Si02
#       6
#     8   8   8   4   8   4
#     4  11  25  41  56  78 113 150 179 220 285 348
#     4   9  17  26  38  61  97 141 182 221 273 339
#     4   9  16  28  46  69 100 134 176 229 282 327
#     4   9  16  27  49  75  97 128 171 228 280 323
#     4  10  20  35  56  80 103 137 188 238 279 326
#     4  11  21  39  63  85 107 136 187 238 278 329
#
# _framework density 19.920226
#
# number of rings (size 3 to 8) (size 9 to 14) (size 15 to 20)
#    0.000    2.200    2.000    1.500    2.800    4.400 
#    0.000    0.000    0.000    0.000    0.000    0.000 
#    0.000    0.800    0.000    1.800    0.000    3.000 
#
# Total GULP energy -495702.934795 kJ/mol
# GULP energy per Si atom -12392.573370 kJ/mol
# Density = 1.987489 g / cm^3
# Si number density = 19.920226 Si / 1000 Ang^3
#
#
#
# Elastic Constant Matrix: (Units=GPa)
#
#
# Indices 1 2 3 4 5 6 
#
# 1 143.6387 13.7209 53.1034 0.0000 0.0000 0.0000
# 2 13.7209 23.5315 18.7117 0.0000 0.0000 0.0000
# 3 53.1034 18.7117 119.4066 0.0000 0.0000 0.0000
# 4 0.0000 0.0000 0.0000 0.7894 0.0000 0.0000
# 5 0.0000 0.0000 0.0000 0.0000 46.5851 0.0000
# 6 0.0000 0.0000 0.0000 0.0000 0.0000 28.0173
#
#
#
# Elastic Compliance Matrix: (Units=1/GPa)
#
#
# Indices 1 2 3 4 5 6 
#
# 1 0.008431 -0.002210 -0.003403 0.000000 0.000000 0.000000
# 2 -0.002210 0.049125 -0.006715 0.000000 0.000000 0.000000
# 3 -0.003403 -0.006715 0.010941 0.000000 0.000000 0.000000
# 4 0.000000 0.000000 0.000000 1.266820 0.000000 0.000000
# 5 0.000000 0.000000 0.000000 0.000000 0.021466 0.000000
# 6 0.000000 0.000000 0.000000 0.000000 0.000000 0.035692
#
#
# Mechanical properties :
#
#
# Convention : Reuss Voigt Hill
#
# Bulk Modulus (GPa) = 22.81047 50.84989 36.83018
# Shear Modulus (GPa) = 3.49224 28.48106 15.98665
#
# Velocity S-wave (km/s) = 1.32549 3.78531 2.83598
# Velocity P-wave (km/s) = 3.71730 6.68483 5.40857
#
# Compressibility (1/GPa) = 0.04383952
#
# Stress axis : x y z
#
# Youngs Moduli (GPa) = 118.60696 20.35632 91.40255
#
# Poissons Ratio (x) = 0.04499 0.31107
# Poissons Ratio (y) = 0.26211 0.61380
# Poissons Ratio (z) = 0.40365 0.13670
#
# Static dielectric constant tensor:
#      x y z
#    x 3.804640 0.000000 0.000000 
#    y 0.000000 3.055530 0.000000 
#    z 0.000000 0.000000 3.844690 
# 
# 
# High freq. dielectric constant tensor:
#      x y z
#    x 1.798670 0.000000 0.000000 
#    y 0.000000 1.705260 0.000000 
#    z 0.000000 0.000000 1.783230 
# 
# From -- ./inp_files/32839.got.cif
#   From: 2010.03.12/outbox.cif.g09.slc.cpg/sg51_17_cif.got.tgz:32839.got - 2010.04.16 13:43:02.
