data_PCOD8212726
_publ_section_title
;
Structure prediction by ZEFSAII (Michael W. Deem and Ramdas Pophale) SiO2 
 PCOD8212726
Probable space group: P M M A
;
_chemical_formula_sum "Si O2"
_cell_formula_units_Z 48
_cell_length_a 16.212338
_cell_length_b 8.811478
_cell_length_c 17.160726
_cell_angle_alpha 90.000000
_cell_angle_beta 90.000000
_cell_angle_gamma 90.000000
_cell_volume 2451.489671
_symmetry_space_group_name_H-M "P M M A"
_symmetry_group_IT_number 51
_symmetry_cell_setting 'orthorhombic'
loop_
_space_group_symop_operation_xyz
x,y,z
1/2-x,-y,z
1/2+x,-y,-z
-x,y,-z
-x,-y,-z
1/2+x,y,-z
1/2-x,y,z
x,-y,z
loop_
_atom_site_type_symbol
_atom_site_label
_atom_site_fract_x
_atom_site_fract_y
_atom_site_fract_z
Si Si1 0.440088 0.678770 0.839064
Si Si2 0.155823 0.328475 0.993722
Si Si3 0.158281 0.679916 0.688869
Si Si4 0.750000 0.320536 0.742317
Si Si5 0.114032 0.822973 0.152522
Si Si6 0.750000 0.680589 0.565268
Si Si7 0.089102 0.680507 0.527119
O O1 0.459344 0.500000 0.833613
O O2 0.381433 0.734379 0.769531
O O3 0.521516 0.776012 0.830631
O O4 0.399218 0.721684 0.921066
O O5 0.250000 0.318593 0.966311
O O6 0.133470 0.500000 0.019941
O O7 0.139547 0.217245 0.064856
O O8 0.250000 0.749787 0.682394
O O9 0.164506 0.500000 0.687384
O O10 0.103360 0.735271 0.615929
O O11 0.750000 0.500000 0.744861
O O12 0.669011 0.263455 0.785182
O O13 0.750000 0.260653 0.653866
O O14 0.126732 0.000000 0.164594
O O15 0.750000 0.500000 0.560337
O O16 0.833855 0.742487 0.524365
O O17 0.087051 0.500000 0.520892
O O18 0.000000 0.746684 0.500000
#
# Coordination Sequence:
#
# PCOD8212726 Si02
#       7
#     8   8   8   4   8   4   8
#     4  10  21  35  57  87 115 148 191 234 279 333
#     4  10  20  37  60  84 114 152 193 234 279 333
#     4   9  16  29  50  79 118 153 184 228 281 333
#     4  11  23  39  61  84 111 146 190 239 287 337
#     4  12  25  40  57  81 113 150 190 235 290 342
#     4   9  18  31  49  80 117 148 182 227 287 347
#     4   9  16  26  44  75 118 155 178 220 289 350
#
# _framework density 19.579931999999999
#
# number of rings (size 3 to 8) (size 9 to 14) (size 15 to 20)
#    0.000    2.000    1.667    2.750    2.333    4.667 
#    0.000    0.000    0.000    1.500    0.000    3.500 
#    0.000    0.000    0.000    0.000    0.000    0.000 
#
# Total GULP energy -595215.503650 kJ/mol
# GULP energy per Si atom -12400.322993 kJ/mol
# Density = 1.953537 g / cm^3
# Si number density = 19.579932 Si / 1000 Ang^3
#
#
#
# Elastic Constant Matrix: (Units=GPa)
#
#
# Indices 1 2 3 4 5 6 
#
# 1 143.1803 17.5506 55.6092 0.0000 0.0000 0.0000
# 2 17.5506 41.7219 24.2059 0.0000 0.0000 0.0000
# 3 55.6092 24.2059 141.7062 0.0000 0.0000 0.0000
# 4 0.0000 0.0000 0.0000 -1.3141 0.0000 0.0000
# 5 0.0000 0.0000 0.0000 0.0000 48.0836 0.0000
# 6 0.0000 0.0000 0.0000 0.0000 0.0000 -10.0459
#
#
#
# Elastic Compliance Matrix: (Units=1/GPa)
#
#
# Indices 1 2 3 4 5 6 
#
# 1 0.008359 -0.001791 -0.002974 0.000000 0.000000 0.000000
# 2 -0.001791 0.026988 -0.003907 0.000000 0.000000 0.000000
# 3 -0.002974 -0.003907 0.008892 0.000000 0.000000 0.000000
# 4 0.000000 0.000000 0.000000 -0.760967 0.000000 0.000000
# 5 0.000000 0.000000 0.000000 0.000000 0.020797 0.000000
# 6 0.000000 0.000000 0.000000 0.000000 0.000000 -0.099544
#
#
# Mechanical properties :
#
#
# Convention : Reuss Voigt Hill
#
# Bulk Modulus (GPa) = 37.18290 57.92664 47.55477
# Shear Modulus (GPa) = -6.50056 22.62758 8.06351
#
# Velocity S-wave (km/s) = -1.82407 3.40318 2.03155
# Velocity P-wave (km/s) = 3.82037 6.71499 5.46289
#
# Compressibility (1/GPa) = 0.02689408
#
# Stress axis : x y z
#
# Youngs Moduli (GPa) = 119.63307 37.05292 112.46651
#
# Poissons Ratio (x) = 0.06635 0.33452
# Poissons Ratio (y) = 0.21421 0.43946
# Poissons Ratio (z) = 0.35583 0.14478
#
# Static dielectric constant tensor:
#      x y z
#    x 3.845700 0.000000 0.000000 
#    y 0.000000 3.027660 0.000000 
#    z 0.000000 0.000000 3.762830 
# 
# 
# High freq. dielectric constant tensor:
#      x y z
#    x 1.781910 0.000000 0.000000 
#    y 0.000000 1.704180 0.000000 
#    z 0.000000 0.000000 1.776510 
# 
# From -- ./inp_files/29555.got.cif
#   From: 2010.03.12/outbox.cif.g09.slc.cpg/sg51_15_cif.got.tgz:29555.got - 2010.04.16 13:43:02.
