data_PCOD8212119
_publ_section_title
;
Structure prediction by ZEFSAII (Michael W. Deem and Ramdas Pophale) SiO2 
 PCOD8212119
Probable space group: P M M A
;
_chemical_formula_sum "Si O2"
_cell_formula_units_Z 48
_cell_length_a 8.725318
_cell_length_b 30.999428
_cell_length_c 9.284624
_cell_angle_alpha 90.000000
_cell_angle_beta 90.000000
_cell_angle_gamma 90.000000
_cell_volume 2511.303866
_symmetry_space_group_name_H-M "P M M A"
_symmetry_group_IT_number 51
_symmetry_cell_setting 'orthorhombic'
loop_
_space_group_symop_operation_xyz
x,y,z
1/2-x,-y,z
1/2+x,-y,-z
-x,y,-z
-x,-y,-z
1/2+x,y,-z
1/2-x,y,z
x,-y,z
loop_
_atom_site_type_symbol
_atom_site_label
_atom_site_fract_x
_atom_site_fract_y
_atom_site_fract_z
Si Si1 0.568623 0.248100 0.153843
Si Si2 0.931842 0.000000 0.158869
Si Si3 0.068798 0.592958 0.842339
Si Si4 0.428617 0.841833 0.151826
Si Si5 0.929381 0.076260 0.657832
Si Si6 0.568824 0.328028 0.343837
Si Si7 0.929009 0.500000 0.154801
O O1 0.750000 0.245423 0.141137
O O2 0.504673 0.202254 0.208016
O O3 0.514637 0.284649 0.264417
O O4 0.500000 0.260399 0.000000
O O5 0.986873 0.041975 0.242581
O O6 0.750000 0.000000 0.148033
O O7 0.000000 0.000000 0.000000
O O8 0.250000 0.597708 0.857364
O O9 0.002745 0.630237 0.739787
O O10 0.023243 0.545799 0.771672
O O11 0.000000 0.598777 0.000000
O O12 0.250000 0.833988 0.125670
O O13 0.459695 0.877061 0.273905
O O14 0.500000 0.857011 0.000000
O O15 0.750000 0.065157 0.649832
O O16 0.000000 0.075019 0.500000
O O17 0.500000 0.327674 0.500000
O O18 0.750000 0.330322 0.354120
O O19 0.750000 0.500000 0.132596
O O20 0.000000 0.500000 0.000000
#
# Coordination Sequence:
#
# PCOD8212119 Si02
#       7
#     8   4   8   8   8   8   4
#     4  10  20  35  56  80 105 136 176 221 267 316
#     4  12  25  42  65  90 118 152 192 236 279 326
#     4   9  17  31  51  75 100 129 168 211 258 310
#     4  10  21  37  59  85 112 144 182 224 270 321
#     4  11  24  41  61  87 119 154 190 229 277 328
#     4  10  22  36  50  72 103 138 174 213 260 314
#     4   8  14  26  47  72  98 126 160 208 257 304
#
# _framework density 19.113576999999999
#
# number of rings (size 3 to 8) (size 9 to 14) (size 15 to 20)
#    0.000    2.000    0.000    4.500    0.000    6.667 
#    0.000    3.750    0.000    0.000    0.000    0.000 
#    0.000    0.000    0.000    0.000    0.000    0.000 
#
# Total GULP energy -595057.395266 kJ/mol
# GULP energy per Si atom -12397.029068 kJ/mol
# Density = 1.907007 g / cm^3
# Si number density = 19.113577 Si / 1000 Ang^3
#
#
#
# Elastic Constant Matrix: (Units=GPa)
#
#
# Indices 1 2 3 4 5 6 
#
# 1 86.9975 63.6905 52.9645 0.0000 0.0000 0.0000
# 2 63.6905 164.6187 97.7993 0.0000 0.0000 0.0000
# 3 52.9645 97.7993 143.6546 0.0000 0.0000 0.0000
# 4 0.0000 0.0000 0.0000 5.7074 0.0000 0.0000
# 5 0.0000 0.0000 0.0000 0.0000 33.7543 0.0000
# 6 0.0000 0.0000 0.0000 0.0000 0.0000 15.9778
#
#
#
# Elastic Compliance Matrix: (Units=1/GPa)
#
#
# Indices 1 2 3 4 5 6 
#
# 1 0.016756 -0.004723 -0.002962 0.000000 0.000000 0.000000
# 2 -0.004723 0.011531 -0.006109 0.000000 0.000000 0.000000
# 3 -0.002962 -0.006109 0.012213 0.000000 0.000000 0.000000
# 4 0.000000 0.000000 0.000000 0.175211 0.000000 0.000000
# 5 0.000000 0.000000 0.000000 0.000000 0.029626 0.000000
# 6 0.000000 0.000000 0.000000 0.000000 0.000000 0.062587
#
#
# Mechanical properties :
#
#
# Convention : Reuss Voigt Hill
#
# Bulk Modulus (GPa) = 77.45565 91.57549 84.51557
# Shear Modulus (GPa) = 14.71385 23.14233 18.92809
#
# Velocity S-wave (km/s) = 2.77756 3.48340 3.15031
# Velocity P-wave (km/s) = 7.13430 8.01212 7.58592
#
# Compressibility (1/GPa) = 0.01291061
#
# Stress axis : x y z
#
# Youngs Moduli (GPa) = 59.68145 86.72046 81.88320
#
# Poissons Ratio (x) = 0.40955 0.24258
# Poissons Ratio (y) = 0.28186 0.50024
# Poissons Ratio (z) = 0.17681 0.52979
#
# Static dielectric constant tensor:
#      x y z
#    x 3.570250 0.000000 0.000000 
#    y 0.000000 4.149370 0.000000 
#    z 0.000000 0.000000 3.448650 
# 
# 
# High freq. dielectric constant tensor:
#      x y z
#    x 1.748830 0.000000 0.000000 
#    y 0.000000 1.768950 0.000000 
#    z 0.000000 0.000000 1.728100 
# 
# From -- ./inp_files/6115.got.cif
#   From: 2010.03.12/outbox.cif.g09.slc.cpg/sg51_4_cif.got.tgz:6115.got - 2010.04.16 13:43:02.
