data_PCOD8212361
_publ_section_title
;
Structure prediction by ZEFSAII (Michael W. Deem and Ramdas Pophale) SiO2 
 PCOD8212361
Probable space group: P M M A
;
_chemical_formula_sum "Si O2"
_cell_formula_units_Z 56
_cell_length_a 23.802999
_cell_length_b 7.847734
_cell_length_c 15.619027
_cell_angle_alpha 90.000000
_cell_angle_beta 90.000000
_cell_angle_gamma 90.000000
_cell_volume 2917.628067
_symmetry_space_group_name_H-M "P M M A"
_symmetry_group_IT_number 51
_symmetry_cell_setting 'orthorhombic'
loop_
_space_group_symop_operation_xyz
x,y,z
1/2-x,-y,z
1/2+x,-y,-z
-x,y,-z
-x,-y,-z
1/2+x,y,-z
1/2-x,y,z
x,-y,z
loop_
_atom_site_type_symbol
_atom_site_label
_atom_site_fract_x
_atom_site_fract_y
_atom_site_fract_z
Si Si1 0.685138 0.302169 0.282005
Si Si2 0.534535 0.193344 0.806966
Si Si3 0.182281 0.000000 0.401520
Si Si4 0.414938 0.809503 0.018914
Si Si5 0.312877 0.696386 0.111413
Si Si6 0.582774 0.309814 0.167734
Si Si7 0.315722 0.000000 0.594690
Si Si8 0.636581 0.692823 0.707665
O O1 0.750000 0.268506 0.254255
O O2 0.677895 0.500000 0.311045
O O3 0.644230 0.254975 0.202407
O O4 0.665970 0.174511 0.357518
O O5 0.546715 0.265473 0.903468
O O6 0.467918 0.203231 0.788895
O O7 0.570940 0.291723 0.735486
O O8 0.555693 0.000000 0.804135
O O9 0.155274 0.171218 0.362866
O O10 0.250000 0.000000 0.391929
O O11 0.160192 0.000000 0.499076
O O12 0.350989 0.812651 0.051255
O O13 0.434035 0.000000 0.993955
O O14 0.419457 0.697205 0.934563
O O15 0.250000 0.751017 0.090921
O O16 0.324608 0.500000 0.088996
O O17 0.324674 0.730708 0.210763
O O18 0.570353 0.500000 0.197114
O O19 0.250000 0.000000 0.586857
O O20 0.646172 0.500000 0.672892
#
# Coordination Sequence:
#
# PCOD8212361 Si02
#       8
#     8   8   4   8   8   8   4   8
#     4   9  20  39  60  84 114 144 180 229 282 336
#     4  10  20  36  55  78 113 152 190 235 277 321
#     4  11  22  36  59  92 119 142 180 223 269 335
#     4  10  21  33  47  74 108 145 188 235 279 317
#     4   9  18  32  49  70 103 148 187 222 272 327
#     4  11  22  34  55  82 105 143 193 235 277 329
#     4   9  20  38  61  86 113 146 177 215 279 341
#     4  10  20  36  56  82 116 152 187 227 272 323
#
# _framework density 19.193674000000001
#
# number of rings (size 3 to 8) (size 9 to 14) (size 15 to 20)
#    0.000    2.143    0.714    2.143    3.000    5.714 
#    0.000    2.857    0.000    1.714    0.000    3.000 
#    0.000    0.000    0.000    0.000    0.000    0.000 
#
# Total GULP energy -694137.889992 kJ/mol
# GULP energy per Si atom -12395.319464 kJ/mol
# Density = 1.914999 g / cm^3
# Si number density = 19.193674 Si / 1000 Ang^3
#
#
#
# Elastic Constant Matrix: (Units=GPa)
#
#
# Indices 1 2 3 4 5 6 
#
# 1 115.0562 36.6406 46.1580 0.0000 0.0000 0.0000
# 2 36.6406 87.3969 41.1961 0.0000 0.0000 0.0000
# 3 46.1580 41.1961 82.7925 0.0000 0.0000 0.0000
# 4 0.0000 0.0000 0.0000 25.3683 0.0000 0.0000
# 5 0.0000 0.0000 0.0000 0.0000 11.0146 0.0000
# 6 0.0000 0.0000 0.0000 0.0000 0.0000 26.5451
#
#
#
# Elastic Compliance Matrix: (Units=1/GPa)
#
#
# Indices 1 2 3 4 5 6 
#
# 1 0.011557 -0.002362 -0.005268 0.000000 0.000000 0.000000
# 2 -0.002362 0.015431 -0.006361 0.000000 0.000000 0.000000
# 3 -0.005268 -0.006361 0.018181 0.000000 0.000000 0.000000
# 4 0.000000 0.000000 0.000000 0.039419 0.000000 0.000000
# 5 0.000000 0.000000 0.000000 0.000000 0.090789 0.000000
# 6 0.000000 0.000000 0.000000 0.000000 0.000000 0.037672
#
#
# Mechanical properties :
#
#
# Convention : Reuss Voigt Hill
#
# Bulk Modulus (GPa) = 58.18683 59.24833 58.71758
# Shear Modulus (GPa) = 20.26267 23.33565 21.79916
#
# Velocity S-wave (km/s) = 3.25267 3.49061 3.37374
# Velocity P-wave (km/s) = 6.66993 6.86888 6.77014
#
# Compressibility (1/GPa) = 0.01718602
#
# Stress axis : x y z
#
# Youngs Moduli (GPa) = 86.52784 64.80541 55.00392
#
# Poissons Ratio (x) = 0.15308 0.28975
# Poissons Ratio (y) = 0.20439 0.34989
# Poissons Ratio (z) = 0.45582 0.41224
#
# Static dielectric constant tensor:
#      x y z
#    x 3.572890 0.000000 0.000000 
#    y 0.000000 3.599960 0.000000 
#    z 0.000000 0.000000 3.346880 
# 
# 
# High freq. dielectric constant tensor:
#      x y z
#    x 1.749070 0.000000 0.000000 
#    y 0.000000 1.755570 0.000000 
#    z 0.000000 0.000000 1.706690 
# 
# From -- ./inp_files/25843.got.cif
#   From: 2010.03.12/outbox.cif.g09.slc.cpg/sg51_13_cif.got.tgz:25843.got - 2010.04.16 13:43:02.
