data_PCOD8212213
_publ_section_title
;
Structure prediction by ZEFSAII (Michael W. Deem and Ramdas Pophale) SiO2 
 PCOD8212213
Probable space group: P M M A
;
_chemical_formula_sum "Si O2"
_cell_formula_units_Z 48
_cell_length_a 27.621754
_cell_length_b 9.695286
_cell_length_c 9.593416
_cell_angle_alpha 90.000000
_cell_angle_beta 90.000000
_cell_angle_gamma 90.000000
_cell_volume 2569.124526
_symmetry_space_group_name_H-M "P M M A"
_symmetry_group_IT_number 51
_symmetry_cell_setting 'orthorhombic'
loop_
_space_group_symop_operation_xyz
x,y,z
1/2-x,-y,z
1/2+x,-y,-z
-x,y,-z
-x,-y,-z
1/2+x,y,-z
1/2-x,y,z
x,-y,z
loop_
_atom_site_type_symbol
_atom_site_label
_atom_site_fract_x
_atom_site_fract_y
_atom_site_fract_z
Si Si1 0.304619 0.845238 0.811129
Si Si2 0.853876 0.841483 0.469575
Si Si3 0.459668 0.838947 0.611135
Si Si4 0.957454 0.337955 0.107068
Si Si5 0.145777 0.657988 0.016551
Si Si6 0.805411 0.342245 0.698126
O O1 0.250000 0.831154 0.758351
O O2 0.339220 0.801446 0.686295
O O3 0.313671 0.744894 0.938662
O O4 0.316166 0.000000 0.861530
O O5 0.910730 0.809910 0.475261
O O6 0.822420 0.750797 0.572011
O O7 0.841878 0.000000 0.503631
O O8 0.500000 0.794865 0.500000
O O9 0.463743 0.748255 0.750997
O O10 0.463546 0.000000 0.654337
O O11 0.958348 0.500000 0.145132
O O12 0.908087 0.295711 0.027301
O O13 0.000000 0.299750 0.000000
O O14 0.154478 0.500000 0.977012
O O15 0.156151 0.684437 0.178753
O O16 0.750000 0.305042 0.741131
O O17 0.808066 0.500000 0.648983
#
# Coordination Sequence:
#
# PCOD8212213 Si02
#       6
#     8   8   8   8   8   8
#     4  10  20  35  57  83 110 144 187 234 283 335
#     4  10  21  38  58  82 115 149 187 234 282 336
#     4  10  22  40  61  87 116 148 188 234 284 339
#     4  10  22  39  60  88 117 148 188 234 284 339
#     4  10  21  38  58  82 115 150 188 233 281 336
#     4  10  22  38  56  82 115 151 192 235 280 333
#
# _framework density 18.683406000000002
#
# number of rings (size 3 to 8) (size 9 to 14) (size 15 to 20)
#    0.000    2.000    1.667    1.000    2.333    4.667 
#    0.000    0.000    0.000    0.000    0.000    0.000 
#    0.000    0.000    0.000    0.000    0.000    0.000 
#
# Total GULP energy -595217.457678 kJ/mol
# GULP energy per Si atom -12400.363702 kJ/mol
# Density = 1.864088 g / cm^3
# Si number density = 18.683406 Si / 1000 Ang^3
#
#
#
# Elastic Constant Matrix: (Units=GPa)
#
#
# Indices 1 2 3 4 5 6 
#
# 1 85.8733 39.5031 52.1602 0.0000 0.0000 0.0000
# 2 39.5031 70.0208 56.8977 0.0000 0.0000 0.0000
# 3 52.1602 56.8977 72.7908 0.0000 0.0000 0.0000
# 4 0.0000 0.0000 0.0000 53.4375 0.0000 0.0000
# 5 0.0000 0.0000 0.0000 0.0000 36.8721 0.0000
# 6 0.0000 0.0000 0.0000 0.0000 0.0000 28.1449
#
#
#
# Elastic Compliance Matrix: (Units=1/GPa)
#
#
# Indices 1 2 3 4 5 6 
#
# 1 0.020647 0.001025 -0.015596 0.000000 0.000000 0.000000
# 2 0.001025 0.039196 -0.031372 0.000000 0.000000 0.000000
# 3 -0.015596 -0.031372 0.049437 0.000000 0.000000 0.000000
# 4 0.000000 0.000000 0.000000 0.018713 0.000000 0.000000
# 5 0.000000 0.000000 0.000000 0.000000 0.027121 0.000000
# 6 0.000000 0.000000 0.000000 0.000000 0.000000 0.035530
#
#
# Mechanical properties :
#
#
# Convention : Reuss Voigt Hill
#
# Bulk Modulus (GPa) = 57.49781 58.42299 57.96040
# Shear Modulus (GPa) = 17.34133 29.03248 23.18691
#
# Velocity S-wave (km/s) = 3.04989 3.94625 3.52667
# Velocity P-wave (km/s) = 6.57602 7.21815 6.90456
#
# Compressibility (1/GPa) = 0.01739197
#
# Stress axis : x y z
#
# Youngs Moduli (GPa) = 48.43358 25.51293 20.22794
#
# Poissons Ratio (x) = -0.02616 0.31548
# Poissons Ratio (y) = -0.04965 0.63460
# Poissons Ratio (z) = 0.75539 0.80040
#
# Static dielectric constant tensor:
#      x y z
#    x 3.613830 0.000000 0.000000 
#    y 0.000000 3.423220 0.000000 
#    z 0.000000 0.000000 3.306900 
# 
# 
# High freq. dielectric constant tensor:
#      x y z
#    x 1.742130 0.000000 0.000000 
#    y 0.000000 1.723320 0.000000 
#    z 0.000000 0.000000 1.720430 
# 
# From -- ./inp_files/12742.got.cif
#   From: 2010.03.12/outbox.cif.g09.slc.cpg/sg51_7_cif.got.tgz:12742.got - 2010.04.16 13:43:02.
