data_PCOD8212336
_publ_section_title
;
Structure prediction by ZEFSAII (Michael W. Deem and Ramdas Pophale) SiO2 
 PCOD8212336
Probable space group: P M M A
;
_chemical_formula_sum "Si O2"
_cell_formula_units_Z 64
_cell_length_a 8.776999
_cell_length_b 14.257173
_cell_length_c 25.404391
_cell_angle_alpha 90.000000
_cell_angle_beta 90.000000
_cell_angle_gamma 90.000000
_cell_volume 3178.983375
_symmetry_space_group_name_H-M "P M M A"
_symmetry_group_IT_number 51
_symmetry_cell_setting 'orthorhombic'
loop_
_space_group_symop_operation_xyz
x,y,z
1/2-x,-y,z
1/2+x,-y,-z
-x,y,-z
-x,-y,-z
1/2+x,y,-z
1/2-x,y,z
x,-y,z
loop_
_atom_site_type_symbol
_atom_site_label
_atom_site_fract_x
_atom_site_fract_y
_atom_site_fract_z
Si Si1 0.569356 0.697371 0.942149
Si Si2 0.572627 0.894243 0.280157
Si Si3 0.924079 0.391499 0.154011
Si Si4 0.072412 0.291594 0.445013
Si Si5 0.428313 0.713168 0.248630
Si Si6 0.924551 0.895649 0.609526
Si Si7 0.427919 0.098786 0.056599
Si Si8 0.428520 0.391820 0.653241
O O1 0.750000 0.679965 0.944484
O O2 0.490097 0.622187 0.904454
O O3 0.527939 0.801233 0.917312
O O4 0.500000 0.684940 0.000000
O O5 0.750000 0.874136 0.271897
O O6 0.475531 0.822496 0.244843
O O7 0.534125 0.878692 0.341282
O O8 0.529425 0.000000 0.262838
O O9 0.750000 0.356225 0.157025
O O10 0.933969 0.500000 0.169042
O O11 0.028241 0.334828 0.194204
O O12 0.250000 0.310217 0.448608
O O13 0.035002 0.181907 0.434109
O O14 0.000000 0.321614 0.500000
O O15 0.007698 0.357184 0.399592
O O16 0.250000 0.703448 0.258279
O O17 0.515424 0.666219 0.296898
O O18 0.750000 0.883344 0.628815
O O19 0.950440 0.000000 0.585654
O O20 0.250000 0.099560 0.047479
O O21 0.474929 0.000000 0.086684
O O22 0.500000 0.096469 0.000000
O O23 0.250000 0.376178 0.647213
O O24 0.470434 0.500000 0.662543
#
# Coordination Sequence:
#
# PCOD8212336 Si02
#       8
#     8   8   8   8   8   8   8   8
#     4  10  20  36  60  89 122 161 202 246 298 358
#     4  10  20  35  60  92 124 160 199 239 287 347
#     4  11  25  44  64  87 117 155 201 255 308 357
#     4  11  23  38  58  85 119 160 201 250 303 357
#     4  12  24  40  65  94 123 156 193 242 300 361
#     4   9  18  34  56  84 118 156 198 242 292 351
#     4   8  14  26  47  77 112 149 189 231 276 330
#     4  11  24  42  64  88 115 151 197 250 305 363
#
# _framework density 20.132223
#
# number of rings (size 3 to 8) (size 9 to 14) (size 15 to 20)
#    0.000    1.750    1.250    3.375    0.000    6.000 
#    0.000    0.625    0.000    2.250    0.000    0.000 
#    0.000    0.000    0.000    0.000    0.000    0.000 
#
# Total GULP energy -793382.636992 kJ/mol
# GULP energy per Si atom -12396.603703 kJ/mol
# Density = 2.008640 g / cm^3
# Si number density = 20.132223 Si / 1000 Ang^3
#
#
#
# Elastic Constant Matrix: (Units=GPa)
#
#
# Indices 1 2 3 4 5 6 
#
# 1 73.0893 41.3565 20.8231 0.0000 0.0000 0.0000
# 2 41.3565 95.8530 33.6377 0.0000 0.0000 0.0000
# 3 20.8231 33.6377 82.4250 0.0000 0.0000 0.0000
# 4 0.0000 0.0000 0.0000 39.1740 0.0000 0.0000
# 5 0.0000 0.0000 0.0000 0.0000 33.1461 0.0000
# 6 0.0000 0.0000 0.0000 0.0000 0.0000 27.0437
#
#
#
# Elastic Compliance Matrix: (Units=1/GPa)
#
#
# Indices 1 2 3 4 5 6 
#
# 1 0.018288 -0.007317 -0.001634 0.000000 0.000000 0.000000
# 2 -0.007317 0.015104 -0.004315 0.000000 0.000000 0.000000
# 3 -0.001634 -0.004315 0.014306 0.000000 0.000000 0.000000
# 4 0.000000 0.000000 0.000000 0.025527 0.000000 0.000000
# 5 0.000000 0.000000 0.000000 0.000000 0.030169 0.000000
# 6 0.000000 0.000000 0.000000 0.000000 0.000000 0.036977
#
#
# Mechanical properties :
#
#
# Convention : Reuss Voigt Hill
#
# Bulk Modulus (GPa) = 47.24771 49.22246 48.23508
# Shear Modulus (GPa) = 28.74235 30.24275 29.49255
#
# Velocity S-wave (km/s) = 3.78256 3.88004 3.83161
# Velocity P-wave (km/s) = 6.52661 6.67649 6.60198
#
# Compressibility (1/GPa) = 0.02116505
#
# Stress axis : x y z
#
# Youngs Moduli (GPa) = 54.68187 66.20761 69.89985
#
# Poissons Ratio (x) = 0.48444 0.11422
# Poissons Ratio (y) = 0.40010 0.30165
# Poissons Ratio (z) = 0.08935 0.28572
#
# Static dielectric constant tensor:
#      x y z
#    x 3.708960 0.000000 0.000000 
#    y 0.000000 4.231290 0.000000 
#    z 0.000000 0.000000 3.327730 
# 
# 
# High freq. dielectric constant tensor:
#      x y z
#    x 1.795880 0.000000 0.000000 
#    y 0.000000 1.805970 0.000000 
#    z 0.000000 0.000000 1.757480 
# 
# From -- ./inp_files/35027.got.cif
#   From: 2010.03.12/outbox.cif.g09.slc.cpg/sg51_18_cif.got.tgz:35027.got - 2010.04.16 13:43:02.
