data_PCOD8212199
_publ_section_title
;
Structure prediction by ZEFSAII (Michael W. Deem and Ramdas Pophale) SiO2 
 PCOD8212199
Probable space group: P M M A
;
_chemical_formula_sum "Si O2"
_cell_formula_units_Z 40
_cell_length_a 8.936397
_cell_length_b 9.055058
_cell_length_c 25.780757
_cell_angle_alpha 90.000000
_cell_angle_beta 90.000000
_cell_angle_gamma 90.000000
_cell_volume 2086.168367
_symmetry_space_group_name_H-M "P M M A"
_symmetry_group_IT_number 51
_symmetry_cell_setting 'orthorhombic'
loop_
_space_group_symop_operation_xyz
x,y,z
1/2-x,-y,z
1/2+x,-y,-z
-x,y,-z
-x,-y,-z
1/2+x,y,-z
1/2-x,y,z
x,-y,z
loop_
_atom_site_type_symbol
_atom_site_label
_atom_site_fract_x
_atom_site_fract_y
_atom_site_fract_z
Si Si1 0.572084 0.333899 0.153536
Si Si2 0.075671 0.671241 0.351952
Si Si3 0.923210 0.173786 0.256847
Si Si4 0.574363 0.830735 0.446035
Si Si5 0.573891 0.830140 0.052307
O O1 0.750000 0.330922 0.151698
O O2 0.509963 0.500000 0.157275
O O3 0.516385 0.243628 0.203454
O O4 0.508721 0.259430 0.101276
O O5 0.250000 0.700599 0.360947
O O6 0.040505 0.500000 0.342070
O O7 0.022102 0.763411 0.302864
O O8 0.987644 0.723432 0.402374
O O9 0.750000 0.215000 0.266868
O O10 0.945694 0.000000 0.253284
O O11 0.500000 0.784784 0.500000
O O12 0.750000 0.807038 0.451220
O O13 0.535255 0.000000 0.431597
O O14 0.750000 0.809624 0.047192
O O15 0.528998 0.000000 0.060652
O O16 0.500000 0.766752 0.000000
#
# Coordination Sequence:
#
# PCOD8212199 Si02
#       5
#     8   8   8   8   8
#     4   9  17  30  50  75 102 133 170 213 261 313
#     4  11  24  39  55  79 112 147 181 219 266 318
#     4  10  20  35  57  82 105 134 176 222 267 318
#     4  10  21  38  61  87 113 144 183 224 266 314
#     4   9  17  30  48  70  97 130 169 212 257 308
#
# _framework density 19.173908000000001
#
# number of rings (size 3 to 8) (size 9 to 14) (size 15 to 20)
#    0.000    2.200    0.000    3.000    0.000    9.600 
#    0.000    1.000    0.000    3.600    0.000    0.000 
#    0.000    0.000    0.000    0.000    0.000    0.000 
#
# Total GULP energy -496133.900234 kJ/mol
# GULP energy per Si atom -12403.347506 kJ/mol
# Density = 1.913027 g / cm^3
# Si number density = 19.173908 Si / 1000 Ang^3
#
#
#
# Elastic Constant Matrix: (Units=GPa)
#
#
# Indices 1 2 3 4 5 6 
#
# 1 47.7984 30.9322 40.9101 0.0000 0.0000 0.0000
# 2 30.9322 96.1882 63.8552 0.0000 0.0000 0.0000
# 3 40.9101 63.8552 159.2526 0.0000 0.0000 0.0000
# 4 0.0000 0.0000 0.0000 3.4528 0.0000 0.0000
# 5 0.0000 0.0000 0.0000 0.0000 34.7258 0.0000
# 6 0.0000 0.0000 0.0000 0.0000 0.0000 23.3766
#
#
#
# Elastic Compliance Matrix: (Units=1/GPa)
#
#
# Indices 1 2 3 4 5 6 
#
# 1 0.029156 -0.006001 -0.005083 0.000000 0.000000 0.000000
# 2 -0.006001 0.015403 -0.004634 0.000000 0.000000 0.000000
# 3 -0.005083 -0.004634 0.009443 0.000000 0.000000 0.000000
# 4 0.000000 0.000000 0.000000 0.289623 0.000000 0.000000
# 5 0.000000 0.000000 0.000000 0.000000 0.028797 0.000000
# 6 0.000000 0.000000 0.000000 0.000000 0.000000 0.042778
#
#
# Mechanical properties :
#
#
# Convention : Reuss Voigt Hill
#
# Bulk Modulus (GPa) = 44.31879 63.84825 54.08352
# Shear Modulus (GPa) = 11.00936 23.48047 17.24491
#
# Velocity S-wave (km/s) = 2.39881 3.50323 3.00224
# Velocity P-wave (km/s) = 5.55308 7.05233 6.34713
#
# Compressibility (1/GPa) = 0.02256379
#
# Stress axis : x y z
#
# Youngs Moduli (GPa) = 34.29867 64.92371 105.89366
#
# Poissons Ratio (x) = 0.38962 0.53831
# Poissons Ratio (y) = 0.20583 0.49075
# Poissons Ratio (z) = 0.17436 0.30088
#
# Static dielectric constant tensor:
#      x y z
#    x 3.295310 0.000000 0.000000 
#    y 0.000000 3.608430 0.000000 
#    z 0.000000 0.000000 3.960370 
# 
# 
# High freq. dielectric constant tensor:
#      x y z
#    x 1.722490 0.000000 0.000000 
#    y 0.000000 1.750490 0.000000 
#    z 0.000000 0.000000 1.763320 
# 
# From -- ./inp_files/34297.got.cif
#   From: 2010.03.12/outbox.cif.g09.slc.cpg/sg51_18_cif.got.tgz:34297.got - 2010.04.16 13:43:02.
