data_PCOD8212419
_publ_section_title
;
Structure prediction by ZEFSAII (Michael W. Deem and Ramdas Pophale) SiO2 
 PCOD8212419
Probable space group: P M M A
;
_chemical_formula_sum "Si O2"
_cell_formula_units_Z 48
_cell_length_a 28.544633
_cell_length_b 8.932528
_cell_length_c 9.901943
_cell_angle_alpha 90.000000
_cell_angle_beta 90.000000
_cell_angle_gamma 90.000000
_cell_volume 2524.755180
_symmetry_space_group_name_H-M "P M M A"
_symmetry_group_IT_number 51
_symmetry_cell_setting 'orthorhombic'
loop_
_space_group_symop_operation_xyz
x,y,z
1/2-x,-y,z
1/2+x,-y,-z
-x,y,-z
-x,-y,-z
1/2+x,y,-z
1/2-x,y,z
x,-y,z
loop_
_atom_site_type_symbol
_atom_site_label
_atom_site_fract_x
_atom_site_fract_y
_atom_site_fract_z
Si Si1 0.303731 0.674738 0.767141
Si Si2 0.527793 0.824770 0.634945
Si Si3 0.804791 0.825441 0.509696
Si Si4 0.876592 0.321770 0.706600
Si Si5 0.034787 0.833472 0.877076
Si Si6 0.876366 0.323877 0.012603
O O1 0.250000 0.711627 0.798644
O O2 0.311901 0.500000 0.737848
O O3 0.321340 0.764199 0.635780
O O4 0.331948 0.729325 0.899194
O O5 0.500000 0.789411 0.500000
O O6 0.576261 0.735239 0.635417
O O7 0.494084 0.764831 0.752844
O O8 0.539207 0.000000 0.652996
O O9 0.750000 0.792818 0.531356
O O10 0.831855 0.740842 0.628087
O O11 0.816701 0.000000 0.516051
O O12 0.875432 0.500000 0.702085
O O13 0.873767 0.258891 0.860527
O O14 0.077709 0.727336 0.909251
O O15 0.053605 0.000000 0.842098
O O16 0.000000 0.841276 0.000000
O O17 0.877994 0.500000 0.002158
#
# Coordination Sequence:
#
# PCOD8212419 Si02
#       6
#     8   8   8   8   8   8
#     4   9  19  38  61  85 114 147 185 229 280 339
#     4  10  22  39  57  81 114 152 193 237 283 333
#     4  10  22  40  61  85 114 149 189 235 285 337
#     4  11  23  38  58  86 118 153 191 233 284 339
#     4  10  20  36  57  80 110 151 190 229 280 333
#     4  10  22  37  57  86 116 150 188 232 282 335
#
# _framework density 19.011744
#
# number of rings (size 3 to 8) (size 9 to 14) (size 15 to 20)
#    0.000    2.000    1.667    1.000    2.333    4.333 
#    0.000    1.667    0.000    2.000    0.000    0.000 
#    0.000    0.000    0.000    0.000    0.000    0.000 
#
# Total GULP energy -595317.522863 kJ/mol
# GULP energy per Si atom -12402.448393 kJ/mol
# Density = 1.896847 g / cm^3
# Si number density = 19.011744 Si / 1000 Ang^3
#
#
#
# Elastic Constant Matrix: (Units=GPa)
#
#
# Indices 1 2 3 4 5 6 
#
# 1 101.6505 37.8352 65.2743 0.0000 0.0000 0.0000
# 2 37.8352 47.4758 43.6446 0.0000 0.0000 0.0000
# 3 65.2743 43.6446 126.5643 0.0000 0.0000 0.0000
# 4 0.0000 0.0000 0.0000 26.9504 0.0000 0.0000
# 5 0.0000 0.0000 0.0000 0.0000 37.9797 0.0000
# 6 0.0000 0.0000 0.0000 0.0000 0.0000 37.2467
#
#
#
# Elastic Compliance Matrix: (Units=1/GPa)
#
#
# Indices 1 2 3 4 5 6 
#
# 1 0.016463 -0.007781 -0.005807 0.000000 0.000000 0.000000
# 2 -0.007781 0.034518 -0.007890 0.000000 0.000000 0.000000
# 3 -0.005807 -0.007890 0.013617 0.000000 0.000000 0.000000
# 4 0.000000 0.000000 0.000000 0.037105 0.000000 0.000000
# 5 0.000000 0.000000 0.000000 0.000000 0.026330 0.000000
# 6 0.000000 0.000000 0.000000 0.000000 0.000000 0.026848
#
#
# Mechanical properties :
#
#
# Convention : Reuss Voigt Hill
#
# Bulk Modulus (GPa) = 46.20956 63.24433 54.72694
# Shear Modulus (GPa) = 24.38405 29.03111 26.70758
#
# Velocity S-wave (km/s) = 3.58520 3.91194 3.75212
# Velocity P-wave (km/s) = 6.44180 7.33093 6.90070
#
# Compressibility (1/GPa) = 0.02164054
#
# Stress axis : x y z
#
# Youngs Moduli (GPa) = 60.74200 28.97048 73.43751
#
# Poissons Ratio (x) = 0.22543 0.42648
# Poissons Ratio (y) = 0.47265 0.57943
# Poissons Ratio (z) = 0.35275 0.22858
#
# Static dielectric constant tensor:
#      x y z
#    x 3.454640 0.000000 0.000000 
#    y 0.000000 3.444860 0.000000 
#    z 0.000000 0.000000 3.727040 
# 
# 
# High freq. dielectric constant tensor:
#      x y z
#    x 1.742460 0.000000 0.000000 
#    y 0.000000 1.732080 0.000000 
#    z 0.000000 0.000000 1.751550 
# 
# From -- ./inp_files/12750.got.cif
#   From: 2010.03.12/outbox.cif.g09.slc.cpg/sg51_7_cif.got.tgz:12750.got - 2010.04.16 13:43:02.
