data_PCOD8212721
_publ_section_title
;
Structure prediction by ZEFSAII (Michael W. Deem and Ramdas Pophale) SiO2 
 PCOD8212721
Probable space group: P M M A
;
_chemical_formula_sum "Si O2"
_cell_formula_units_Z 64
_cell_length_a 28.355794
_cell_length_b 8.721960
_cell_length_c 12.906660
_cell_angle_alpha 90.000000
_cell_angle_beta 90.000000
_cell_angle_gamma 90.000000
_cell_volume 3192.050642
_symmetry_space_group_name_H-M "P M M A"
_symmetry_group_IT_number 51
_symmetry_cell_setting 'orthorhombic'
loop_
_space_group_symop_operation_xyz
x,y,z
1/2-x,-y,z
1/2+x,-y,-z
-x,y,-z
-x,-y,-z
1/2+x,y,-z
1/2-x,y,z
x,-y,z
loop_
_atom_site_type_symbol
_atom_site_label
_atom_site_fract_x
_atom_site_fract_y
_atom_site_fract_z
Si Si1 0.050485 0.320059 0.535737
Si Si2 0.356148 0.819413 0.473069
Si Si3 0.696969 0.817540 0.729140
Si Si4 0.804238 0.677961 0.334435
Si Si5 0.470334 0.820814 0.094107
Si Si6 0.050169 0.822179 0.754635
Si Si7 0.864549 0.817225 0.921900
Si Si8 0.135228 0.679361 0.864045
O O1 0.052874 0.500000 0.519839
O O2 0.090975 0.245506 0.465755
O O3 0.059426 0.281529 0.655231
O O4 0.000000 0.253465 0.500000
O O5 0.326941 0.753563 0.375727
O O6 0.331386 0.774255 0.579716
O O7 0.359579 0.000000 0.466925
O O8 0.750000 0.752233 0.735308
O O9 0.668100 0.758413 0.828349
O O10 0.697397 0.000000 0.726556
O O11 0.750000 0.728677 0.333071
O O12 0.810256 0.500000 0.362067
O O13 0.825534 0.715614 0.222184
O O14 0.497757 0.789930 0.201667
O O15 0.417499 0.754743 0.100912
O O16 0.466338 0.000000 0.071572
O O17 0.500000 0.744231 0.000000
O O18 0.087749 0.774708 0.841741
O O19 0.056835 0.000000 0.725541
O O20 0.862503 0.000000 0.932654
O O21 0.844946 0.739250 0.026405
O O22 0.123422 0.500000 0.868768
#
# Coordination Sequence:
#
# PCOD8212721 Si02
#       8
#     8   8   8   8   8   8   8   8
#     4  11  25  42  58  84 126 164 192 235 299 364
#     4  11  22  38  64  92 119 153 202 255 300 358
#     4   9  20  38  60  88 120 153 196 257 313 350
#     4  10  22  40  61  84 116 158 197 242 308 370
#     4   9  17  31  53  82 112 145 188 238 285 339
#     4  11  21  36  61  86 115 152 198 245 293 354
#     4  10  20  37  60  83 115 158 203 246 296 353
#     4  11  22  37  57  85 123 158 195 244 301 359
#
# _framework density 20.049807999999999
#
# number of rings (size 3 to 8) (size 9 to 14) (size 15 to 20)
#    0.000    1.750    2.500    1.875    1.750    2.750 
#    0.000    3.125    0.000    1.500    0.000    0.000 
#    0.000    0.000    0.000    0.000    0.000    0.000 
#
# Total GULP energy -793793.771053 kJ/mol
# GULP energy per Si atom -12403.027673 kJ/mol
# Density = 2.000417 g / cm^3
# Si number density = 20.049808 Si / 1000 Ang^3
#
#
#
# Elastic Constant Matrix: (Units=GPa)
#
#
# Indices 1 2 3 4 5 6 
#
# 1 168.1741 34.1579 71.4002 0.0000 0.0000 0.0000
# 2 34.1579 45.6959 25.0372 0.0000 0.0000 0.0000
# 3 71.4002 25.0372 127.3493 0.0000 0.0000 0.0000
# 4 0.0000 0.0000 0.0000 16.8502 0.0000 0.0000
# 5 0.0000 0.0000 0.0000 0.0000 33.9055 0.0000
# 6 0.0000 0.0000 0.0000 0.0000 0.0000 22.2170
#
#
#
# Elastic Compliance Matrix: (Units=1/GPa)
#
#
# Indices 1 2 3 4 5 6 
#
# 1 0.008459 -0.004174 -0.003922 0.000000 0.000000 0.000000
# 2 -0.004174 0.026586 -0.002886 0.000000 0.000000 0.000000
# 3 -0.003922 -0.002886 0.010619 0.000000 0.000000 0.000000
# 4 0.000000 0.000000 0.000000 0.059346 0.000000 0.000000
# 5 0.000000 0.000000 0.000000 0.000000 0.029494 0.000000
# 6 0.000000 0.000000 0.000000 0.000000 0.000000 0.045011
#
#
# Mechanical properties :
#
#
# Convention : Reuss Voigt Hill
#
# Bulk Modulus (GPa) = 42.19761 66.93442 54.56602
# Shear Modulus (GPa) = 23.88008 28.63615 26.25812
#
# Velocity S-wave (km/s) = 3.45489 3.78332 3.62283
# Velocity P-wave (km/s) = 6.08334 7.24853 6.69135
#
# Compressibility (1/GPa) = 0.02369802
#
# Stress axis : x y z
#
# Youngs Moduli (GPa) = 118.21382 37.61435 94.17195
#
# Poissons Ratio (x) = 0.15702 0.36935
# Poissons Ratio (y) = 0.49347 0.27182
# Poissons Ratio (z) = 0.46365 0.10857
#
# Static dielectric constant tensor:
#      x y z
#    x 3.936770 0.000000 0.000000 
#    y 0.000000 3.321150 0.000000 
#    z 0.000000 0.000000 3.668960 
# 
# 
# High freq. dielectric constant tensor:
#      x y z
#    x 1.791950 0.000000 0.000000 
#    y 0.000000 1.754920 0.000000 
#    z 0.000000 0.000000 1.789390 
# 
# From -- ./inp_files/19649.got.cif
#   From: 2010.03.12/outbox.cif.g09.slc.cpg/sg51_10_cif.got.tgz:19649.got - 2010.04.16 13:43:02.
