data_PCOD8212840
_publ_section_title
;
Structure prediction by ZEFSAII (Michael W. Deem and Ramdas Pophale) SiO2 
 PCOD8212840
Probable space group: P M M A
;
_chemical_formula_sum "Si O2"
_cell_formula_units_Z 48
_cell_length_a 16.803443
_cell_length_b 14.784256
_cell_length_c 9.611443
_cell_angle_alpha 90.000000
_cell_angle_beta 90.000000
_cell_angle_gamma 90.000000
_cell_volume 2387.736212
_symmetry_space_group_name_H-M "P M M A"
_symmetry_group_IT_number 51
_symmetry_cell_setting 'orthorhombic'
loop_
_space_group_symop_operation_xyz
x,y,z
1/2-x,-y,z
1/2+x,-y,-z
-x,y,-z
-x,-y,-z
1/2+x,y,-z
1/2-x,y,z
x,-y,z
loop_
_atom_site_type_symbol
_atom_site_label
_atom_site_fract_x
_atom_site_fract_y
_atom_site_fract_z
Si Si1 0.837702 0.758069 0.733128
Si Si2 0.341884 0.727964 0.576493
Si Si3 0.890864 0.397524 0.898826
Si Si4 0.431625 0.099845 0.603749
Si Si5 0.961359 0.101369 0.859831
Si Si6 0.434353 0.602822 0.791328
O O1 0.750000 0.801290 0.715138
O O2 0.866132 0.716640 0.585249
O O3 0.828971 0.673281 0.836847
O O4 0.893664 0.835098 0.796367
O O5 0.250000 0.702828 0.605928
O O6 0.356265 0.833824 0.608080
O O7 0.399061 0.666823 0.671829
O O8 0.868126 0.500000 0.858455
O O9 0.975358 0.371281 0.828880
O O10 0.886671 0.386799 0.064895
O O11 0.500000 0.136750 0.500000
O O12 0.464813 0.094901 0.757675
O O13 0.403518 0.000000 0.553248
O O14 0.926388 0.000000 0.886148
O O15 0.000000 0.142857 0.000000
O O16 0.428546 0.500000 0.736634
#
# Coordination Sequence:
#
# PCOD8212840 Si02
#       6
#     8   8   8   8   8   8
#     4  11  24  38  57  88 123 159 194 238 298 356
#     4  11  24  38  56  88 126 159 192 239 298 355
#     4   9  20  39  62  87 114 151 201 247 289 345
#     4  10  20  38  62  85 113 153 200 242 284 344
#     4  10  22  40  62  87 114 151 198 245 292 347
#     4   9  20  39  63  88 114 152 199 245 293 346
#
# _framework density 20.102723999999998
#
# number of rings (size 3 to 8) (size 9 to 14) (size 15 to 20)
#    0.000    2.000    1.667    2.000    4.667    2.667 
#    0.000    6.667    0.000    3.000    0.000    0.000 
#    0.000    0.000    0.000    0.000    0.000    0.000 
#
# Total GULP energy -594966.983163 kJ/mol
# GULP energy per Si atom -12395.145483 kJ/mol
# Density = 2.005697 g / cm^3
# Si number density = 20.102724 Si / 1000 Ang^3
#
#
#
# Elastic Constant Matrix: (Units=GPa)
#
#
# Indices 1 2 3 4 5 6 
#
# 1 51.6087 30.7921 36.3066 0.0000 0.0000 0.0000
# 2 30.7921 97.2658 40.1920 0.0000 0.0000 0.0000
# 3 36.3066 40.1920 116.7717 0.0000 0.0000 0.0000
# 4 0.0000 0.0000 0.0000 36.8587 0.0000 0.0000
# 5 0.0000 0.0000 0.0000 0.0000 27.4362 0.0000
# 6 0.0000 0.0000 0.0000 0.0000 0.0000 6.1577
#
#
#
# Elastic Compliance Matrix: (Units=1/GPa)
#
#
# Indices 1 2 3 4 5 6 
#
# 1 0.027542 -0.006040 -0.006485 0.000000 0.000000 0.000000
# 2 -0.006040 0.013310 -0.002703 0.000000 0.000000 0.000000
# 3 -0.006485 -0.002703 0.011510 0.000000 0.000000 0.000000
# 4 0.000000 0.000000 0.000000 0.027131 0.000000 0.000000
# 5 0.000000 0.000000 0.000000 0.000000 0.036448 0.000000
# 6 0.000000 0.000000 0.000000 0.000000 0.000000 0.162397
#
#
# Mechanical properties :
#
#
# Convention : Reuss Voigt Hill
#
# Bulk Modulus (GPa) = 45.64676 53.35862 49.50269
# Shear Modulus (GPa) = 15.81796 24.64755 20.23276
#
# Velocity S-wave (km/s) = 2.80814 3.50534 3.17593
# Velocity P-wave (km/s) = 5.76804 6.55621 6.17471
#
# Compressibility (1/GPa) = 0.02190736
#
# Stress axis : x y z
#
# Youngs Moduli (GPa) = 36.30826 75.13016 86.87795
#
# Poissons Ratio (x) = 0.45376 0.56336
# Poissons Ratio (y) = 0.21929 0.23487
# Poissons Ratio (z) = 0.23544 0.20311
#
# Static dielectric constant tensor:
#      x y z
#    x 3.340660 0.000000 0.000000 
#    y 0.000000 3.743100 0.000000 
#    z 0.000000 0.000000 3.754610 
# 
# 
# High freq. dielectric constant tensor:
#      x y z
#    x 1.759060 0.000000 0.000000 
#    y 0.000000 1.790760 0.000000 
#    z 0.000000 0.000000 1.795650 
# 
# From -- ./inp_files/9607.got.cif
#   From: 2010.03.12/outbox.cif.g09.slc.cpg/sg51_5_cif.got.tgz:9607.got - 2010.04.16 13:43:02.
