data_PCOD8212174
_publ_section_title
;
Structure prediction by ZEFSAII (Michael W. Deem and Ramdas Pophale) SiO2 
 PCOD8212174
Probable space group: P M M A
;
_chemical_formula_sum "Si O2"
_cell_formula_units_Z 56
_cell_length_a 16.707459
_cell_length_b 18.148991
_cell_length_c 9.239919
_cell_angle_alpha 90.000000
_cell_angle_beta 90.000000
_cell_angle_gamma 90.000000
_cell_volume 2801.760792
_symmetry_space_group_name_H-M "P M M A"
_symmetry_group_IT_number 51
_symmetry_cell_setting 'orthorhombic'
loop_
_space_group_symop_operation_xyz
x,y,z
1/2-x,-y,z
1/2+x,-y,-z
-x,y,-z
-x,-y,-z
1/2+x,y,-z
1/2-x,y,z
x,-y,z
loop_
_atom_site_type_symbol
_atom_site_label
_atom_site_fract_x
_atom_site_fract_y
_atom_site_fract_z
Si Si1 0.553888 0.841696 0.820082
Si Si2 0.426832 0.417447 0.607796
Si Si3 0.912255 0.082134 0.325489
Si Si4 0.660057 0.655613 0.630833
Si Si5 0.161457 0.916155 0.965857
Si Si6 0.513640 0.325988 0.833818
Si Si7 0.340364 0.179242 0.435918
O O1 0.495408 0.902299 0.754702
O O2 0.588274 0.865306 0.976648
O O3 0.510631 0.762492 0.826165
O O4 0.634330 0.842708 0.725023
O O5 0.500000 0.408942 0.500000
O O6 0.418455 0.500000 0.670926
O O7 0.351292 0.400013 0.504352
O O8 0.440368 0.360970 0.741296
O O9 0.899478 0.141137 0.450951
O O10 0.915581 0.000000 0.392598
O O11 0.841588 0.087642 0.207989
O O12 0.750000 0.646131 0.693657
O O13 0.598316 0.645059 0.765833
O O14 0.648575 0.733595 0.551438
O O15 0.250000 0.888058 0.012212
O O16 0.148416 0.000000 0.019708
O O17 0.500000 0.351701 0.000000
O O18 0.250000 0.152871 0.463412
#
# Coordination Sequence:
#
# PCOD8212174 Si02
#       7
#     8   8   8   8   8   8   8
#     4  11  21  35  54  77 104 138 181 225 269 322
#     4   9  18  34  57  83 111 146 183 216 259 320
#     4  11  22  35  52  75 102 135 178 227 277 327
#     4   9  19  36  57  81 109 143 185 230 271 318
#     4  10  21  36  52  72 102 139 178 223 277 333
#     4  10  20  35  56  83 114 148 185 226 277 334
#     4  10  21  36  53  74 102 135 173 221 274 323
#
# _framework density 19.98743
#
# number of rings (size 3 to 8) (size 9 to 14) (size 15 to 20)
#    0.000    2.000    0.000    3.857    0.000    7.143 
#    0.000    0.714    0.000    0.000    0.000    0.000 
#    0.000    0.000    0.000    0.000    0.000    0.000 
#
# Total GULP energy -694172.739358 kJ/mol
# GULP energy per Si atom -12395.941774 kJ/mol
# Density = 1.994194 g / cm^3
# Si number density = 19.987430 Si / 1000 Ang^3
#
#
#
# Elastic Constant Matrix: (Units=GPa)
#
#
# Indices 1 2 3 4 5 6 
#
# 1 70.9654 25.1936 29.3600 0.0000 0.0000 0.0000
# 2 25.1936 86.0465 39.7869 0.0000 0.0000 0.0000
# 3 29.3600 39.7869 104.3246 0.0000 0.0000 0.0000
# 4 0.0000 0.0000 0.0000 25.6993 0.0000 0.0000
# 5 0.0000 0.0000 0.0000 0.0000 25.8562 0.0000
# 6 0.0000 0.0000 0.0000 0.0000 0.0000 19.4270
#
#
#
# Elastic Compliance Matrix: (Units=1/GPa)
#
#
# Indices 1 2 3 4 5 6 
#
# 1 0.016684 -0.003295 -0.003439 0.000000 0.000000 0.000000
# 2 -0.003295 0.014760 -0.004702 0.000000 0.000000 0.000000
# 3 -0.003439 -0.004702 0.012346 0.000000 0.000000 0.000000
# 4 0.000000 0.000000 0.000000 0.038912 0.000000 0.000000
# 5 0.000000 0.000000 0.000000 0.000000 0.038675 0.000000
# 6 0.000000 0.000000 0.000000 0.000000 0.000000 0.051475
#
#
# Mechanical properties :
#
#
# Convention : Reuss Voigt Hill
#
# Bulk Modulus (GPa) = 47.80221 50.00195 48.90208
# Shear Modulus (GPa) = 24.66739 25.32958 24.99849
#
# Velocity S-wave (km/s) = 3.51685 3.56374 3.54038
# Velocity P-wave (km/s) = 6.36074 6.48110 6.42121
#
# Compressibility (1/GPa) = 0.02091953
#
# Stress axis : x y z
#
# Youngs Moduli (GPa) = 59.93854 67.74845 80.99481
#
# Poissons Ratio (x) = 0.22322 0.27852
# Poissons Ratio (y) = 0.19749 0.38084
# Poissons Ratio (z) = 0.20611 0.31856
#
# Static dielectric constant tensor:
#      x y z
#    x 3.594900 0.000000 0.000000 
#    y 0.000000 3.545490 0.000000 
#    z 0.000000 0.000000 3.622380 
# 
# 
# High freq. dielectric constant tensor:
#      x y z
#    x 1.775970 0.000000 0.000000 
#    y 0.000000 1.768270 0.000000 
#    z 0.000000 0.000000 1.774310 
# 
# From -- ./inp_files/8562.got.cif
#   From: 2010.03.12/outbox.cif.g09.slc.cpg/sg51_5_cif.got.tgz:8562.got - 2010.04.16 13:43:02.
