data_PCOD8212972
_publ_section_title
;
Structure prediction by ZEFSAII (Michael W. Deem and Ramdas Pophale) SiO2 
 PCOD8212972
Probable space group: P M M A
;
_chemical_formula_sum "Si O2"
_cell_formula_units_Z 48
_cell_length_a 8.990518
_cell_length_b 7.658032
_cell_length_c 34.465143
_cell_angle_alpha 90.000000
_cell_angle_beta 90.000000
_cell_angle_gamma 90.000000
_cell_volume 2372.913879
_symmetry_space_group_name_H-M "P M M A"
_symmetry_group_IT_number 51
_symmetry_cell_setting 'orthorhombic'
loop_
_space_group_symop_operation_xyz
x,y,z
1/2-x,-y,z
1/2+x,-y,-z
-x,y,-z
-x,-y,-z
1/2+x,y,-z
1/2-x,y,z
x,-y,z
loop_
_atom_site_type_symbol
_atom_site_label
_atom_site_fract_x
_atom_site_fract_y
_atom_site_fract_z
Si Si1 0.911973 0.301983 0.832142
Si Si2 0.423855 0.293597 0.907601
Si Si3 0.428517 0.000000 0.041963
Si Si4 0.574592 0.697575 0.598141
Si Si5 0.582814 0.705999 0.324681
Si Si6 0.582963 0.800854 0.241244
Si Si7 0.925855 0.000000 0.541457
O O1 0.750000 0.205793 0.832885
O O2 0.883981 0.500000 0.843103
O O3 0.023442 0.228503 0.864848
O O4 0.981092 0.297205 0.789380
O O5 0.250000 0.250540 0.911362
O O6 0.453317 0.500000 0.915124
O O7 0.516497 0.178186 0.937772
O O8 0.250000 0.000000 0.040106
O O9 0.500000 0.000000 0.000000
O O10 0.750000 0.700609 0.601838
O O11 0.517315 0.500000 0.589284
O O12 0.512168 0.770879 0.638744
O O13 0.520534 0.826150 0.564075
O O14 0.750000 0.776587 0.330382
O O15 0.577775 0.500000 0.321992
O O16 0.515574 0.781235 0.284575
O O17 0.750000 0.720690 0.240748
O O18 0.586059 0.000000 0.228423
O O19 0.000000 0.000000 0.500000
O O20 0.750000 0.000000 0.536315
#
# Coordination Sequence:
#
# PCOD8212972 Si02
#       7
#     8   8   4   8   8   8   4
#     4  10  21  37  57  82 113 152 198 245 293 346
#     4  10  22  42  68  95 125 164 208 254 306 364
#     4  12  26  44  68  97 130 165 202 250 305 366
#     4   9  19  36  56  78 107 141 176 217 268 326
#     4   9  18  33  53  77 105 140 184 230 275 325
#     4  10  21  34  50  77 112 150 190 235 283 335
#     4  10  22  38  56  81 108 137 172 214 267 324
#
# _framework density 20.228294999999999
#
# number of rings (size 3 to 8) (size 9 to 14) (size 15 to 20)
#    0.000    2.167    0.000    2.250    2.333    5.000 
#    0.000    1.667    0.000    0.000    0.000    0.000 
#    0.000    0.000    0.000    0.000    0.000    0.000 
#
# Total GULP energy -595051.988315 kJ/mol
# GULP energy per Si atom -12396.916423 kJ/mol
# Density = 2.018225 g / cm^3
# Si number density = 20.228295 Si / 1000 Ang^3
#
#
#
# Elastic Constant Matrix: (Units=GPa)
#
#
# Indices 1 2 3 4 5 6 
#
# 1 103.2052 39.5995 66.7136 0.0000 0.0000 0.0000
# 2 39.5995 76.5937 55.9761 0.0000 0.0000 0.0000
# 3 66.7136 55.9761 171.5604 0.0000 0.0000 0.0000
# 4 0.0000 0.0000 0.0000 32.6795 0.0000 0.0000
# 5 0.0000 0.0000 0.0000 0.0000 39.3174 0.0000
# 6 0.0000 0.0000 0.0000 0.0000 0.0000 22.3756
#
#
#
# Elastic Compliance Matrix: (Units=1/GPa)
#
#
# Indices 1 2 3 4 5 6 
#
# 1 0.013925 -0.004257 -0.004026 0.000000 0.000000 0.000000
# 2 -0.004257 0.018445 -0.004363 0.000000 0.000000 0.000000
# 3 -0.004026 -0.004363 0.008818 0.000000 0.000000 0.000000
# 4 0.000000 0.000000 0.000000 0.030600 0.000000 0.000000
# 5 0.000000 0.000000 0.000000 0.000000 0.025434 0.000000
# 6 0.000000 0.000000 0.000000 0.000000 0.000000 0.044692
#
#
# Mechanical properties :
#
#
# Convention : Reuss Voigt Hill
#
# Bulk Modulus (GPa) = 62.90688 75.10421 69.00555
# Shear Modulus (GPa) = 28.98458 31.47917 30.23187
#
# Velocity S-wave (km/s) = 3.78944 3.94914 3.87011
# Velocity P-wave (km/s) = 7.09312 7.61598 7.35920
#
# Compressibility (1/GPa) = 0.01589651
#
# Stress axis : x y z
#
# Youngs Moduli (GPa) = 71.81101 54.21418 113.40541
#
# Poissons Ratio (x) = 0.23080 0.45658
# Poissons Ratio (y) = 0.30572 0.49477
# Poissons Ratio (z) = 0.28912 0.23653
#
# Static dielectric constant tensor:
#      x y z
#    x 5.846870 0.000000 0.000000 
#    y 0.000000 3.859480 0.000000 
#    z 0.000000 0.000000 3.705360 
# 
# 
# High freq. dielectric constant tensor:
#      x y z
#    x 1.784350 0.000000 0.000000 
#    y 0.000000 1.790760 0.000000 
#    z 0.000000 0.000000 1.790890 
# 
# From -- ./inp_files/37083.got.cif
#   From: 2010.03.12/outbox.cif.g09.slc.cpg/sg51_19_cif.got.tgz:37083.got - 2010.04.16 13:43:02.
