data_PCOD8212670
_publ_section_title
;
Structure prediction by ZEFSAII (Michael W. Deem and Ramdas Pophale) SiO2 
 PCOD8212670
Probable space group: P M M A
;
_chemical_formula_sum "Si O2"
_cell_formula_units_Z 48
_cell_length_a 8.677762
_cell_length_b 30.336686
_cell_length_c 9.523699
_cell_angle_alpha 90.000000
_cell_angle_beta 90.000000
_cell_angle_gamma 90.000000
_cell_volume 2507.157009
_symmetry_space_group_name_H-M "P M M A"
_symmetry_group_IT_number 51
_symmetry_cell_setting 'orthorhombic'
loop_
_space_group_symop_operation_xyz
x,y,z
1/2-x,-y,z
1/2+x,-y,-z
-x,y,-z
-x,-y,-z
1/2+x,y,-z
1/2-x,y,z
x,-y,z
loop_
_atom_site_type_symbol
_atom_site_label
_atom_site_fract_x
_atom_site_fract_y
_atom_site_fract_z
Si Si1 0.932642 0.372854 0.655167
Si Si2 0.067314 0.223081 0.348897
Si Si3 0.569007 0.450600 0.854390
Si Si4 0.431647 0.048696 0.150584
Si Si5 0.431241 0.877131 0.353769
Si Si6 0.933208 0.295762 0.155566
O O1 0.750000 0.365765 0.649670
O O2 0.979164 0.419430 0.725458
O O3 0.000000 0.371654 0.500000
O O4 0.007446 0.335008 0.747706
O O5 0.250000 0.230780 0.351332
O O6 0.021103 0.172706 0.314811
O O7 0.000000 0.237732 0.500000
O O8 0.990558 0.250401 0.223995
O O9 0.750000 0.450665 0.874123
O O10 0.506857 0.500000 0.822625
O O11 0.500000 0.432284 0.000000
O O12 0.250000 0.052908 0.140454
O O13 0.501256 0.087650 0.245396
O O14 0.478331 0.000000 0.208103
O O15 0.500000 0.056801 0.000000
O O16 0.500000 0.891608 0.500000
O O17 0.250000 0.881115 0.363028
O O18 0.750000 0.296480 0.147724
O O19 0.000000 0.300761 0.000000
#
# Coordination Sequence:
#
# PCOD8212670 Si02
#       6
#     8   8   8   8   8   8
#     4  11  23  39  59  84 115 150 188 229 275 325
#     4  10  20  37  58  81 110 143 180 221 270 324
#     4   9  19  36  58  84 114 148 186 228 274 324
#     4   9  18  33  51  73 103 138 176 218 264 314
#     4   9  19  34  53  78 107 139 175 217 263 315
#     4  12  25  41  60  83 111 143 182 226 274 326
#
# _framework density 19.145192000000002
#
# number of rings (size 3 to 8) (size 9 to 14) (size 15 to 20)
#    0.000    2.000    0.000    3.500    0.000    5.333 
#    0.000    1.667    0.000    0.000    0.000    0.000 
#    0.000    0.000    0.000    0.000    0.000    0.000 
#
# Total GULP energy -595192.813795 kJ/mol
# GULP energy per Si atom -12399.850287 kJ/mol
# Density = 1.910162 g / cm^3
# Si number density = 19.145192 Si / 1000 Ang^3
#
#
#
# Elastic Constant Matrix: (Units=GPa)
#
#
# Indices 1 2 3 4 5 6 
#
# 1 71.9162 46.4817 57.5300 0.0000 0.0000 0.0000
# 2 46.4817 134.4729 100.0637 0.0000 0.0000 0.0000
# 3 57.5300 100.0637 165.3305 0.0000 0.0000 0.0000
# 4 0.0000 0.0000 0.0000 35.8939 0.0000 0.0000
# 5 0.0000 0.0000 0.0000 0.0000 37.2569 0.0000
# 6 0.0000 0.0000 0.0000 0.0000 0.0000 31.1993
#
#
#
# Elastic Compliance Matrix: (Units=1/GPa)
#
#
# Indices 1 2 3 4 5 6 
#
# 1 0.019977 -0.003152 -0.005044 0.000000 0.000000 0.000000
# 2 -0.003152 0.014027 -0.007393 0.000000 0.000000 0.000000
# 3 -0.005044 -0.007393 0.012278 0.000000 0.000000 0.000000
# 4 0.000000 0.000000 0.000000 0.027860 0.000000 0.000000
# 5 0.000000 0.000000 0.000000 0.000000 0.026841 0.000000
# 6 0.000000 0.000000 0.000000 0.000000 0.000000 0.032052
#
#
# Mechanical properties :
#
#
# Convention : Reuss Voigt Hill
#
# Bulk Modulus (GPa) = 66.20378 86.65227 76.42802
# Shear Modulus (GPa) = 29.54258 32.04629 30.79444
#
# Velocity S-wave (km/s) = 3.93247 4.09572 4.01492
# Velocity P-wave (km/s) = 7.43465 8.22954 7.84217
#
# Compressibility (1/GPa) = 0.01510488
#
# Stress axis : x y z
#
# Youngs Moduli (GPa) = 50.05721 71.29003 81.44702
#
# Poissons Ratio (x) = 0.22472 0.41079
# Poissons Ratio (y) = 0.15779 0.60213
# Poissons Ratio (z) = 0.25247 0.52704
#
# Static dielectric constant tensor:
#      x y z
#    x 3.520790 0.000000 0.000000 
#    y 0.000000 4.027330 0.000000 
#    z 0.000000 0.000000 3.583010 
# 
# 
# High freq. dielectric constant tensor:
#      x y z
#    x 1.746870 0.000000 0.000000 
#    y 0.000000 1.760630 0.000000 
#    z 0.000000 0.000000 1.745540 
# 
# From -- ./inp_files/6087.got.cif
#   From: 2010.03.12/outbox.cif.g09.slc.cpg/sg51_4_cif.got.tgz:6087.got - 2010.04.16 13:43:02.
