data_PCOD8212523
_publ_section_title
;
Structure prediction by ZEFSAII (Michael W. Deem and Ramdas Pophale) SiO2 
 PCOD8212523
Probable space group: P M M A
;
_chemical_formula_sum "Si O2"
_cell_formula_units_Z 64
_cell_length_a 14.095868
_cell_length_b 9.241090
_cell_length_c 25.718336
_cell_angle_alpha 90.000000
_cell_angle_beta 90.000000
_cell_angle_gamma 90.000000
_cell_volume 3350.100919
_symmetry_space_group_name_H-M "P M M A"
_symmetry_group_IT_number 51
_symmetry_cell_setting 'orthorhombic'
loop_
_space_group_symop_operation_xyz
x,y,z
1/2-x,-y,z
1/2+x,-y,-z
-x,y,-z
-x,-y,-z
1/2+x,y,-z
1/2-x,y,z
x,-y,z
loop_
_atom_site_type_symbol
_atom_site_label
_atom_site_fract_x
_atom_site_fract_y
_atom_site_fract_z
Si Si1 0.397862 0.343418 0.478105
Si Si2 0.144514 0.828971 0.974626
Si Si3 0.355609 0.172167 0.683266
Si Si4 0.045935 0.169375 0.269683
Si Si5 0.543696 0.828432 0.920293
Si Si6 0.144589 0.155025 0.572417
Si Si7 0.859347 0.832951 0.621062
Si Si8 0.360373 0.328704 0.174810
O O1 0.500000 0.370923 0.500000
O O2 0.348221 0.500000 0.469016
O O3 0.344090 0.254723 0.522218
O O4 0.408732 0.257185 0.424637
O O5 0.250000 0.763299 0.962950
O O6 0.065942 0.782018 0.931911
O O7 0.150616 0.000000 0.974270
O O8 0.109604 0.780121 0.031548
O O9 0.250000 0.234112 0.697795
O O10 0.434561 0.216682 0.726227
O O11 0.396348 0.225300 0.626165
O O12 0.353029 0.000000 0.680836
O O13 0.095144 0.204809 0.324139
O O14 0.098619 0.267236 0.228099
O O15 0.056734 0.000000 0.255030
O O16 0.578993 0.741696 0.870904
O O17 0.550924 0.000000 0.910071
O O18 0.250000 0.119337 0.591030
O O19 0.094050 0.000000 0.558518
O O20 0.750000 0.787930 0.622861
O O21 0.872597 0.000000 0.607043
O O22 0.250000 0.285566 0.169410
O O23 0.373928 0.500000 0.173653
#
# Coordination Sequence:
#
# PCOD8212523 Si02
#       8
#     8   8   8   8   8   8   8   8
#     4  11  23  34  45  67  99 132 164 198 242 302
#     4   8  14  27  51  85 120 148 179 223 269 307
#     4   8  15  30  54  82 105 125 158 207 260 311
#     4  10  20  36  59  81 100 129 172 219 262 307
#     4   9  17  31  55  84 111 145 187 225 261 305
#     4   9  17  31  52  74  94 119 153 194 242 298
#     4  10  21  36  54  76  99 126 166 213 259 308
#     4  11  24  39  54  75 106 142 178 220 269 314
#
# _framework density 19.103902000000001
#
# number of rings (size 3 to 8) (size 9 to 14) (size 15 to 20)
#    0.000    2.500    0.000    4.125    0.000    6.500 
#    0.000    2.500    0.000    6.000    0.000    0.000 
#    0.000    0.000    0.000    0.000    0.000    0.000 
#
# Total GULP energy -792880.404514 kJ/mol
# GULP energy per Si atom -12388.756321 kJ/mol
# Density = 1.906042 g / cm^3
# Si number density = 19.103902 Si / 1000 Ang^3
#
#
#
# Elastic Constant Matrix: (Units=GPa)
#
#
# Indices 1 2 3 4 5 6 
#
# 1 121.4381 40.6804 67.3687 0.0000 0.0000 0.0000
# 2 40.6804 64.6656 43.5113 0.0000 0.0000 0.0000
# 3 67.3687 43.5113 94.4590 0.0000 0.0000 0.0000
# 4 0.0000 0.0000 0.0000 -5.1039 0.0000 0.0000
# 5 0.0000 0.0000 0.0000 0.0000 30.2326 0.0000
# 6 0.0000 0.0000 0.0000 0.0000 0.0000 9.1535
#
#
#
# Elastic Compliance Matrix: (Units=1/GPa)
#
#
# Indices 1 2 3 4 5 6 
#
# 1 0.014024 -0.003032 -0.008606 0.000000 0.000000 0.000000
# 2 -0.003032 0.023066 -0.008462 0.000000 0.000000 0.000000
# 3 -0.008606 -0.008462 0.020622 0.000000 0.000000 0.000000
# 4 0.000000 0.000000 0.000000 -0.195930 0.000000 0.000000
# 5 0.000000 0.000000 0.000000 0.000000 0.033077 0.000000
# 6 0.000000 0.000000 0.000000 0.000000 0.000000 0.109247
#
#
# Mechanical properties :
#
#
# Convention : Reuss Voigt Hill
#
# Bulk Modulus (GPa) = 57.10322 64.85371 60.97847
# Shear Modulus (GPa) = 99.71276 15.45662 57.58469
#
# Velocity S-wave (km/s) = 7.23245 2.84752 5.49621
# Velocity P-wave (km/s) = 9.98500 6.69573 8.50097
#
# Compressibility (1/GPa) = 0.01751215
#
# Stress axis : x y z
#
# Youngs Moduli (GPa) = 71.30442 43.35439 48.49149
#
# Poissons Ratio (x) = 0.13146 0.41729
# Poissons Ratio (y) = 0.21621 0.41035
# Poissons Ratio (z) = 0.61361 0.36688
#
# Static dielectric constant tensor:
#      x y z
#    x 4.003520 0.000000 0.000000 
#    y 0.000000 3.317730 0.000000 
#    z 0.000000 0.000000 3.433280 
# 
# 
# High freq. dielectric constant tensor:
#      x y z
#    x 1.761310 0.000000 0.000000 
#    y 0.000000 1.706410 0.000000 
#    z 0.000000 0.000000 1.730370 
# 
# From -- ./inp_files/35611.got.cif
#   From: 2010.03.12/outbox.cif.g09.slc.cpg/sg51_18_cif.got.tgz:35611.got - 2010.04.16 13:43:02.
