data_PCOD8212818
_publ_section_title
;
Structure prediction by ZEFSAII (Michael W. Deem and Ramdas Pophale) SiO2 
 PCOD8212818
Probable space group: P M M A
;
_chemical_formula_sum "Si O2"
_cell_formula_units_Z 48
_cell_length_a 18.820308
_cell_length_b 17.865323
_cell_length_c 7.460156
_cell_angle_alpha 90.000000
_cell_angle_beta 90.000000
_cell_angle_gamma 90.000000
_cell_volume 2508.334827
_symmetry_space_group_name_H-M "P M M A"
_symmetry_group_IT_number 51
_symmetry_cell_setting 'orthorhombic'
loop_
_space_group_symop_operation_xyz
x,y,z
1/2-x,-y,z
1/2+x,-y,-z
-x,y,-z
-x,-y,-z
1/2+x,y,-z
1/2-x,y,z
x,-y,z
loop_
_atom_site_type_symbol
_atom_site_label
_atom_site_fract_x
_atom_site_fract_y
_atom_site_fract_z
Si Si1 0.331914 0.823462 0.175128
Si Si2 0.168976 0.085982 0.827593
Si Si3 0.667862 0.651099 0.779790
Si Si4 0.925196 0.413638 0.076792
Si Si5 0.079131 0.329248 0.561042
Si Si6 0.081548 0.155787 0.519847
O O1 0.250000 0.840472 0.221809
O O2 0.345484 0.735375 0.152915
O O3 0.380274 0.857154 0.330942
O O4 0.355774 0.863035 0.992811
O O5 0.250000 0.105555 0.773287
O O6 0.117980 0.101406 0.661597
O O7 0.161869 0.000000 0.885804
O O8 0.750000 0.631276 0.760694
O O9 0.632775 0.637990 0.586215
O O10 0.634344 0.595702 0.925148
O O11 0.931576 0.500000 0.131909
O O12 0.902736 0.367145 0.250822
O O13 0.000000 0.383243 0.000000
O O14 0.089674 0.240873 0.585921
O O15 0.000000 0.349579 0.500000
O O16 0.000000 0.132223 0.500000
#
# Coordination Sequence:
#
# PCOD8212818 Si02
#       6
#     8   8   8   8   8   8
#     4   9  19  37  59  81 108 146 190 232 278 330
#     4  10  21  37  57  81 111 150 191 229 276 338
#     4  10  21  38  60  85 113 147 192 244 288 332
#     4  11  23  37  58  85 116 154 190 230 283 345
#     4  10  20  38  60  85 113 149 195 236 282 345
#     4  10  21  35  56  86 114 145 183 235 284 331
#
# _framework density 19.136201
#
# number of rings (size 3 to 8) (size 9 to 14) (size 15 to 20)
#    0.000    2.000    1.667    1.500    0.000    4.333 
#    0.000    2.500    0.000    0.000    0.000    0.000 
#    0.000    0.000    0.000    0.000    0.000    0.000 
#
# Total GULP energy -595498.560947 kJ/mol
# GULP energy per Si atom -12406.220020 kJ/mol
# Density = 1.909265 g / cm^3
# Si number density = 19.136201 Si / 1000 Ang^3
#
#
#
# Elastic Constant Matrix: (Units=GPa)
#
#
# Indices 1 2 3 4 5 6 
#
# 1 111.3110 23.3949 59.6633 0.0000 0.0000 0.0000
# 2 23.3949 49.1344 40.1435 0.0000 0.0000 0.0000
# 3 59.6633 40.1435 123.1133 0.0000 0.0000 0.0000
# 4 0.0000 0.0000 0.0000 15.7174 0.0000 0.0000
# 5 0.0000 0.0000 0.0000 0.0000 32.0304 0.0000
# 6 0.0000 0.0000 0.0000 0.0000 0.0000 23.2022
#
#
#
# Elastic Compliance Matrix: (Units=1/GPa)
#
#
# Indices 1 2 3 4 5 6 
#
# 1 0.012200 -0.001334 -0.005478 0.000000 0.000000 0.000000
# 2 -0.001334 0.027889 -0.008447 0.000000 0.000000 0.000000
# 3 -0.005478 -0.008447 0.013532 0.000000 0.000000 0.000000
# 4 0.000000 0.000000 0.000000 0.063624 0.000000 0.000000
# 5 0.000000 0.000000 0.000000 0.000000 0.031220 0.000000
# 6 0.000000 0.000000 0.000000 0.000000 0.000000 0.043099
#
#
# Mechanical properties :
#
#
# Convention : Reuss Voigt Hill
#
# Bulk Modulus (GPa) = 43.28375 58.88466 51.08420
# Shear Modulus (GPa) = 21.75969 24.88047 23.32008
#
# Velocity S-wave (km/s) = 3.37574 3.60971 3.49468
# Velocity P-wave (km/s) = 6.15322 6.94345 6.56024
#
# Compressibility (1/GPa) = 0.02310336
#
# Stress axis : x y z
#
# Youngs Moduli (GPa) = 81.96611 35.85640 73.90120
#
# Poissons Ratio (x) = 0.04782 0.40480
# Poissons Ratio (y) = 0.10932 0.62427
# Poissons Ratio (z) = 0.44897 0.30289
#
# Static dielectric constant tensor:
#      x y z
#    x 3.540290 0.000000 0.000000 
#    y 0.000000 3.329830 0.000000 
#    z 0.000000 0.000000 3.449860 
# 
# 
# High freq. dielectric constant tensor:
#      x y z
#    x 1.747860 0.000000 0.000000 
#    y 0.000000 1.734030 0.000000 
#    z 0.000000 0.000000 1.750010 
# 
# From -- ./inp_files/2531.got.cif
#   From: 2010.03.12/outbox.cif.g09.slc.cpg/sg51_2_cif.got.tgz:2531.got - 2010.04.16 13:43:02.
