data_PCOD8212711
_publ_section_title
;
Structure prediction by ZEFSAII (Michael W. Deem and Ramdas Pophale) SiO2 
 PCOD8212711
Probable space group: P M M A
;
_chemical_formula_sum "Si O2"
_cell_formula_units_Z 48
_cell_length_a 8.640930
_cell_length_b 31.021275
_cell_length_c 9.314961
_cell_angle_alpha 90.000000
_cell_angle_beta 90.000000
_cell_angle_gamma 90.000000
_cell_volume 2496.900128
_symmetry_space_group_name_H-M "P M M A"
_symmetry_group_IT_number 51
_symmetry_cell_setting 'orthorhombic'
loop_
_space_group_symop_operation_xyz
x,y,z
1/2-x,-y,z
1/2+x,-y,-z
-x,y,-z
-x,-y,-z
1/2+x,y,-z
1/2-x,y,z
x,-y,z
loop_
_atom_site_type_symbol
_atom_site_label
_atom_site_fract_x
_atom_site_fract_y
_atom_site_fract_z
Si Si1 0.566675 0.906994 0.158497
Si Si2 0.567609 0.172050 0.342961
Si Si3 0.066415 0.671236 0.344899
Si Si4 0.566642 0.254094 0.157023
Si Si5 0.065962 0.420702 0.653118
Si Si6 0.068798 0.000000 0.844674
Si Si7 0.932247 0.500000 0.156179
O O1 0.750000 0.902551 0.145274
O O2 0.500095 0.870578 0.264689
O O3 0.518450 0.954195 0.226778
O O4 0.500000 0.900215 0.000000
O O5 0.500000 0.176149 0.500000
O O6 0.750000 0.169072 0.355948
O O7 0.516239 0.213400 0.252133
O O8 0.250000 0.671274 0.354682
O O9 0.000000 0.684721 0.500000
O O10 0.009649 0.703703 0.223943
O O11 0.006669 0.624414 0.297139
O O12 0.750000 0.259899 0.150650
O O13 0.500000 0.246426 0.000000
O O14 0.250000 0.416137 0.644093
O O15 0.010255 0.457133 0.763435
O O16 0.000000 0.434669 0.500000
O O17 0.250000 0.000000 0.861654
O O18 0.000000 0.000000 0.000000
O O19 0.750000 0.500000 0.147931
O O20 0.000000 0.500000 0.000000
#
# Coordination Sequence:
#
# PCOD8212711 Si02
#       7
#     8   8   8   8   8   4   4
#     4   9  17  31  51  77 104 135 173 216 262 314
#     4  10  22  37  54  76 105 139 178 219 266 318
#     4  11  22  38  60  86 114 147 183 225 272 323
#     4  11  23  39  58  82 109 141 179 223 272 326
#     4  10  20  37  59  85 113 146 187 228 269 322
#     4   8  14  26  47  72 102 134 168 210 259 310
#     4  10  23  38  56  82 114 148 185 228 274 322
#
# _framework density 19.223835999999999
#
# number of rings (size 3 to 8) (size 9 to 14) (size 15 to 20)
#    0.000    2.000    0.000    4.750    0.000    5.333 
#    0.000    2.083    0.000    0.000    0.000    0.000 
#    0.000    0.000    0.000    0.000    0.000    0.000 
#
# Total GULP energy -595074.114931 kJ/mol
# GULP energy per Si atom -12397.377394 kJ/mol
# Density = 1.918008 g / cm^3
# Si number density = 19.223836 Si / 1000 Ang^3
#
#
#
# Elastic Constant Matrix: (Units=GPa)
#
#
# Indices 1 2 3 4 5 6 
#
# 1 70.4839 51.5799 43.3473 0.0000 0.0000 0.0000
# 2 51.5799 174.1043 105.5234 0.0000 0.0000 0.0000
# 3 43.3473 105.5234 147.6597 0.0000 0.0000 0.0000
# 4 0.0000 0.0000 0.0000 39.2121 0.0000 0.0000
# 5 0.0000 0.0000 0.0000 0.0000 33.3432 0.0000
# 6 0.0000 0.0000 0.0000 0.0000 0.0000 5.4811
#
#
#
# Elastic Compliance Matrix: (Units=1/GPa)
#
#
# Indices 1 2 3 4 5 6 
#
# 1 0.018706 -0.003905 -0.002701 0.000000 0.000000 0.000000
# 2 -0.003905 0.010948 -0.006677 0.000000 0.000000 0.000000
# 3 -0.002701 -0.006677 0.012337 0.000000 0.000000 0.000000
# 4 0.000000 0.000000 0.000000 0.025502 0.000000 0.000000
# 5 0.000000 0.000000 0.000000 0.000000 0.029991 0.000000
# 6 0.000000 0.000000 0.000000 0.000000 0.000000 0.182446
#
#
# Mechanical properties :
#
#
# Convention : Reuss Voigt Hill
#
# Bulk Modulus (GPa) = 64.83047 88.12768 76.47908
# Shear Modulus (GPa) = 16.04427 28.39377 22.21902
#
# Velocity S-wave (km/s) = 2.89208 3.84736 3.40340
# Velocity P-wave (km/s) = 6.70443 8.10424 7.43734
#
# Compressibility (1/GPa) = 0.01542485
#
# Stress axis : x y z
#
# Youngs Moduli (GPa) = 53.45808 91.34449 81.05697
#
# Poissons Ratio (x) = 0.35669 0.21892
# Poissons Ratio (y) = 0.20875 0.54124
# Poissons Ratio (z) = 0.14438 0.60993
#
# Static dielectric constant tensor:
#      x y z
#    x 3.509840 0.000000 0.000000 
#    y 0.000000 4.107720 0.000000 
#    z 0.000000 0.000000 1.557970 
# 
# 
# High freq. dielectric constant tensor:
#      x y z
#    x 1.749410 0.000000 0.000000 
#    y 0.000000 1.773310 0.000000 
#    z 0.000000 0.000000 1.734220 
# 
# From -- ./inp_files/6260.got.cif
#   From: 2010.03.12/outbox.cif.g09.slc.cpg/sg51_4_cif.got.tgz:6260.got - 2010.04.16 13:43:02.
