data_PCOD8212044
_publ_section_title
;
Structure prediction by ZEFSAII (Michael W. Deem and Ramdas Pophale) SiO2 
 PCOD8212044
Probable space group: P M M A
;
_chemical_formula_sum "Si O2"
_cell_formula_units_Z 64
_cell_length_a 17.705980
_cell_length_b 20.340604
_cell_length_c 9.099459
_cell_angle_alpha 90.000000
_cell_angle_beta 90.000000
_cell_angle_gamma 90.000000
_cell_volume 3277.173140
_symmetry_space_group_name_H-M "P M M A"
_symmetry_group_IT_number 51
_symmetry_cell_setting 'orthorhombic'
loop_
_space_group_symop_operation_xyz
x,y,z
1/2-x,-y,z
1/2+x,-y,-z
-x,y,-z
-x,-y,-z
1/2+x,y,-z
1/2-x,y,z
x,-y,z
loop_
_atom_site_type_symbol
_atom_site_label
_atom_site_fract_x
_atom_site_fract_y
_atom_site_fract_z
Si Si1 0.660459 0.310640 0.057126
Si Si2 0.420992 0.075132 0.926343
Si Si3 0.923510 0.075741 0.416100
Si Si4 0.585519 0.424786 0.540318
Si Si5 0.838816 0.186012 0.567572
Si Si6 0.662978 0.574589 0.844962
Si Si7 0.160769 0.817290 0.103835
Si Si8 0.660935 0.691026 0.384404
O O1 0.750000 0.306435 0.065492
O O2 0.625944 0.306898 0.220626
O O3 0.636360 0.378028 0.976587
O O4 0.627330 0.248774 0.968161
O O5 0.430411 0.091217 0.755424
O O6 0.395796 0.000000 0.951455
O O7 0.500000 0.090802 0.000000
O O8 0.359084 0.120080 0.004418
O O9 0.856390 0.119840 0.478901
O O10 0.000000 0.095201 0.500000
O O11 0.902743 0.000000 0.445693
O O12 0.500000 0.404778 0.500000
O O13 0.601185 0.500000 0.494621
O O14 0.605076 0.413964 0.711343
O O15 0.641893 0.379691 0.449420
O O16 0.750000 0.194397 0.577148
O O17 0.873245 0.179245 0.731470
O O18 0.873497 0.249804 0.483853
O O19 0.750000 0.590129 0.796347
O O20 0.657051 0.500000 0.902995
O O21 0.250000 0.813963 0.111926
O O22 0.750000 0.699208 0.376991
#
# Coordination Sequence:
#
# PCOD8212044 Si02
#       8
#     8   8   8   8   8   8   8   8
#     4   9  18  33  54  80 107 134 171 220 266 310
#     4  10  21  37  56  78 106 139 177 221 265 313
#     4  10  21  37  57  80 108 143 181 222 268 318
#     4  10  21  36  53  76 107 141 177 217 262 314
#     4  10  21  36  56  82 110 141 178 221 268 318
#     4   9  17  32  55  79 104 138 177 215 260 316
#     4  10  20  35  55  78 108 143 176 215 264 318
#     4  10  20  35  56  80 106 137 176 222 268 316
#
# _framework density 19.529026000000002
#
# number of rings (size 3 to 8) (size 9 to 14) (size 15 to 20)
#    0.000    2.250    0.000    2.625    0.000    7.250 
#    0.000    8.125    0.000    2.250    0.000    0.000 
#    0.000    0.000    0.000    0.000    0.000    0.000 
#
# Total GULP energy -793595.035409 kJ/mol
# GULP energy per Si atom -12399.922428 kJ/mol
# Density = 1.948458 g / cm^3
# Si number density = 19.529026 Si / 1000 Ang^3
#
#
#
# Elastic Constant Matrix: (Units=GPa)
#
#
# Indices 1 2 3 4 5 6 
#
# 1 22.4997 25.2762 27.3550 0.0000 0.0000 0.0000
# 2 25.2762 122.7084 78.7112 0.0000 0.0000 0.0000
# 3 27.3550 78.7112 156.6853 0.0000 0.0000 0.0000
# 4 0.0000 0.0000 0.0000 36.8966 0.0000 0.0000
# 5 0.0000 0.0000 0.0000 0.0000 25.9784 0.0000
# 6 0.0000 0.0000 0.0000 0.0000 0.0000 19.6226
#
#
#
# Elastic Compliance Matrix: (Units=1/GPa)
#
#
# Indices 1 2 3 4 5 6 
#
# 1 0.062019 -0.008601 -0.006507 0.000000 0.000000 0.000000
# 2 -0.008601 0.013217 -0.005138 0.000000 0.000000 0.000000
# 3 -0.006507 -0.005138 0.010099 0.000000 0.000000 0.000000
# 4 0.000000 0.000000 0.000000 0.027103 0.000000 0.000000
# 5 0.000000 0.000000 0.000000 0.000000 0.038494 0.000000
# 6 0.000000 0.000000 0.000000 0.000000 0.000000 0.050962
#
#
# Mechanical properties :
#
#
# Convention : Reuss Voigt Hill
#
# Bulk Modulus (GPa) = 22.30001 62.73089 42.51545
# Shear Modulus (GPa) = 19.43018 27.86959 23.64989
#
# Velocity S-wave (km/s) = 3.15769 3.78178 3.48374
# Velocity P-wave (km/s) = 4.97377 7.15966 6.16438
#
# Compressibility (1/GPa) = 0.04484302
#
# Stress axis : x y z
#
# Youngs Moduli (GPa) = 16.12421 75.66130 99.01774
#
# Poissons Ratio (x) = 0.65078 0.64428
# Poissons Ratio (y) = 0.13869 0.50874
# Poissons Ratio (z) = 0.10492 0.38874
#
# Static dielectric constant tensor:
#      x y z
#    x 3.202010 0.000000 0.000000 
#    y 0.000000 3.656370 0.000000 
#    z 0.000000 0.000000 3.956150 
# 
# 
# High freq. dielectric constant tensor:
#      x y z
#    x 1.726260 0.000000 0.000000 
#    y 0.000000 1.773020 0.000000 
#    z 0.000000 0.000000 1.774230 
# 
# From -- ./inp_files/11222.got.cif
#   From: 2010.03.12/outbox.cif.g09.slc.cpg/sg51_6_cif.got.tgz:11222.got - 2010.04.16 13:43:02.
