data_PCOD8212396
_publ_section_title
;
Structure prediction by ZEFSAII (Michael W. Deem and Ramdas Pophale) SiO2 
 PCOD8212396
Probable space group: P M M A
;
_chemical_formula_sum "Si O2"
_cell_formula_units_Z 52
_cell_length_a 8.733729
_cell_length_b 20.146804
_cell_length_c 14.675855
_cell_angle_alpha 90.000000
_cell_angle_beta 90.000000
_cell_angle_gamma 90.000000
_cell_volume 2582.315402
_symmetry_space_group_name_H-M "P M M A"
_symmetry_group_IT_number 51
_symmetry_cell_setting 'orthorhombic'
loop_
_space_group_symop_operation_xyz
x,y,z
1/2-x,-y,z
1/2+x,-y,-z
-x,y,-z
-x,-y,-z
1/2+x,y,-z
1/2-x,y,z
x,-y,z
loop_
_atom_site_type_symbol
_atom_site_label
_atom_site_fract_x
_atom_site_fract_y
_atom_site_fract_z
Si Si1 0.072062 0.827957 0.907238
Si Si2 0.570281 0.129307 0.288292
Si Si3 0.568145 0.617913 0.405038
Si Si4 0.930829 0.239097 0.593618
Si Si5 0.073558 0.426348 0.228894
Si Si6 0.430790 0.322442 0.905903
Si Si7 0.070011 0.000000 0.600783
O O1 0.250000 0.825237 0.926049
O O2 0.034518 0.874822 0.820234
O O3 0.012341 0.752984 0.887530
O O4 0.000000 0.857616 0.000000
O O5 0.750000 0.143624 0.304216
O O6 0.468924 0.189046 0.325722
O O7 0.516604 0.063028 0.339983
O O8 0.500000 0.592193 0.500000
O O9 0.750000 0.616288 0.408728
O O10 0.511570 0.692003 0.383344
O O11 0.504713 0.569799 0.327564
O O12 0.750000 0.249366 0.583584
O O13 0.000000 0.209411 0.500000
O O14 0.250000 0.405882 0.238322
O O15 0.056938 0.500000 0.185054
O O16 0.988386 0.370558 0.172158
O O17 0.250000 0.326828 0.909892
O O18 0.500000 0.348978 0.000000
O O19 0.000000 0.000000 0.500000
O O20 0.250000 0.000000 0.587691
#
# Coordination Sequence:
#
# PCOD8212396 Si02
#       7
#     8   8   8   8   8   8   4
#     4   9  19  35  57  83 111 141 179 228 280 332
#     4  10  20  36  56  81 113 151 191 232 280 331
#     4  11  22  38  59  82 110 144 184 232 284 339
#     4  11  21  34  55  83 112 143 181 230 284 337
#     4  11  24  40  57  80 111 147 188 233 281 338
#     4  10  20  36  59  85 112 145 184 232 288 343
#     4  10  22  38  57  80 114 156 195 234 277 330
#
# _framework density 20.136966999999999
#
# number of rings (size 3 to 8) (size 9 to 14) (size 15 to 20)
#    0.000    1.692    0.000    6.000    0.000    6.154 
#    0.000    0.385    0.000    0.000    0.000    0.000 
#    0.000    0.000    0.000    0.000    0.000    0.000 
#
# Total GULP energy -644853.116728 kJ/mol
# GULP energy per Si atom -12401.021476 kJ/mol
# Density = 2.009113 g / cm^3
# Si number density = 20.136967 Si / 1000 Ang^3
#
#
#
# Elastic Constant Matrix: (Units=GPa)
#
#
# Indices 1 2 3 4 5 6 
#
# 1 91.8219 20.5384 32.0203 0.0000 0.0000 0.0000
# 2 20.5384 62.0569 49.4581 0.0000 0.0000 0.0000
# 3 32.0203 49.4581 137.4173 0.0000 0.0000 0.0000
# 4 0.0000 0.0000 0.0000 25.2491 0.0000 0.0000
# 5 0.0000 0.0000 0.0000 0.0000 40.1950 0.0000
# 6 0.0000 0.0000 0.0000 0.0000 0.0000 17.3832
#
#
#
# Elastic Compliance Matrix: (Units=1/GPa)
#
#
# Indices 1 2 3 4 5 6 
#
# 1 0.012118 -0.002468 -0.001935 0.000000 0.000000 0.000000
# 2 -0.002468 0.023098 -0.007738 0.000000 0.000000 0.000000
# 3 -0.001935 -0.007738 0.010513 0.000000 0.000000 0.000000
# 4 0.000000 0.000000 0.000000 0.039605 0.000000 0.000000
# 5 0.000000 0.000000 0.000000 0.000000 0.024879 0.000000
# 6 0.000000 0.000000 0.000000 0.000000 0.000000 0.057527
#
#
# Mechanical properties :
#
#
# Convention : Reuss Voigt Hill
#
# Bulk Modulus (GPa) = 46.62915 55.03664 50.83289
# Shear Modulus (GPa) = 25.10399 29.18410 27.14404
#
# Velocity S-wave (km/s) = 3.53464 3.81107 3.67546
# Velocity P-wave (km/s) = 6.31383 6.83785 6.58106
#
# Compressibility (1/GPa) = 0.02144581
#
# Stress axis : x y z
#
# Youngs Moduli (GPa) = 82.52479 43.29330 95.11909
#
# Poissons Ratio (x) = 0.10685 0.18408
# Poissons Ratio (y) = 0.20367 0.73605
# Poissons Ratio (z) = 0.15971 0.33501
#
# Static dielectric constant tensor:
#      x y z
#    x 3.729060 0.000000 0.000000 
#    y 0.000000 3.567770 0.000000 
#    z 0.000000 0.000000 3.900670 
# 
# 
# High freq. dielectric constant tensor:
#      x y z
#    x 1.789790 0.000000 0.000000 
#    y 0.000000 1.770460 0.000000 
#    z 0.000000 0.000000 1.795940 
# 
# From -- ./inp_files/21589.got.cif
#   From: 2010.03.12/outbox.cif.g09.slc.cpg/sg51_11_cif.got.tgz:21589.got - 2010.04.16 13:43:02.
