data_PCOD8212980
_publ_section_title
;
Structure prediction by ZEFSAII (Michael W. Deem and Ramdas Pophale) SiO2 
 PCOD8212980
Probable space group: P M M A
;
_chemical_formula_sum "Si O2"
_cell_formula_units_Z 48
_cell_length_a 18.028513
_cell_length_b 7.807584
_cell_length_c 17.774289
_cell_angle_alpha 90.000000
_cell_angle_beta 90.000000
_cell_angle_gamma 90.000000
_cell_volume 2501.893450
_symmetry_space_group_name_H-M "P M M A"
_symmetry_group_IT_number 51
_symmetry_cell_setting 'orthorhombic'
loop_
_space_group_symop_operation_xyz
x,y,z
1/2-x,-y,z
1/2+x,-y,-z
-x,y,-z
-x,-y,-z
1/2+x,y,-z
1/2-x,y,z
x,-y,z
loop_
_atom_site_type_symbol
_atom_site_label
_atom_site_fract_x
_atom_site_fract_y
_atom_site_fract_z
Si Si1 0.165657 0.000000 0.944701
Si Si2 0.415688 0.696616 0.024586
Si Si3 0.025780 0.697687 0.421487
Si Si4 0.165549 0.000000 0.767932
Si Si5 0.436192 0.699698 0.721214
Si Si6 0.832653 0.805078 0.661068
Si Si7 0.083236 0.303450 0.196497
O O1 0.155395 0.000000 0.856397
O O2 0.250000 0.000000 0.970397
O O3 0.131255 0.824556 0.974601
O O4 0.389213 0.500000 0.012365
O O5 0.403551 0.753799 0.110988
O O6 0.500000 0.715717 0.000000
O O7 0.008599 0.500000 0.428338
O O8 0.112376 0.719979 0.400034
O O9 0.000000 0.787109 0.500000
O O10 0.974174 0.768819 0.355143
O O11 0.132277 0.824038 0.735627
O O12 0.250000 0.000000 0.742282
O O13 0.410506 0.500000 0.717137
O O14 0.496287 0.725538 0.787261
O O15 0.750000 0.720989 0.657064
O O16 0.863902 0.797625 0.746255
O O17 0.826464 0.000000 0.637146
O O18 0.103762 0.500000 0.209585
#
# Coordination Sequence:
#
# PCOD8212980 Si02
#       7
#     4   8   8   4   8   8   8
#     4  11  25  39  53  78 113 149 188 234 288 345
#     4  10  21  38  59  83 110 144 190 242 291 339
#     4   9  19  37  61  86 110 145 188 226 274 330
#     4  11  24  39  56  80 106 147 194 232 286 337
#     4   9  19  37  60  85 111 141 184 233 277 332
#     4  10  21  34  51  82 119 151 182 221 275 334
#     4   9  19  34  56  82 106 143 188 228 279 335
#
# _framework density 19.185469000000001
#
# number of rings (size 3 to 8) (size 9 to 14) (size 15 to 20)
#    0.000    2.333    0.000    2.750    5.833    5.000 
#    0.000    4.167    0.000    3.000    0.000    0.000 
#    0.000    0.000    0.000    0.000    0.000    0.000 
#
# Total GULP energy -594990.703345 kJ/mol
# GULP energy per Si atom -12395.639653 kJ/mol
# Density = 1.914180 g / cm^3
# Si number density = 19.185469 Si / 1000 Ang^3
#
#
#
# Elastic Constant Matrix: (Units=GPa)
#
#
# Indices 1 2 3 4 5 6 
#
# 1 134.6085 49.7568 57.7045 0.0000 0.0000 0.0000
# 2 49.7568 80.1775 23.7043 0.0000 0.0000 0.0000
# 3 57.7045 23.7043 67.5669 0.0000 0.0000 0.0000
# 4 0.0000 0.0000 0.0000 16.4049 0.0000 0.0000
# 5 0.0000 0.0000 0.0000 0.0000 22.9705 0.0000
# 6 0.0000 0.0000 0.0000 0.0000 0.0000 37.3516
#
#
#
# Elastic Compliance Matrix: (Units=1/GPa)
#
#
# Indices 1 2 3 4 5 6 
#
# 1 0.013660 -0.005610 -0.009698 0.000000 0.000000 0.000000
# 2 -0.005610 0.016220 -0.000899 0.000000 0.000000 0.000000
# 3 -0.009698 -0.000899 0.023398 0.000000 0.000000 0.000000
# 4 0.000000 0.000000 0.000000 0.060958 0.000000 0.000000
# 5 0.000000 0.000000 0.000000 0.000000 0.043534 0.000000
# 6 0.000000 0.000000 0.000000 0.000000 0.000000 0.026773
#
#
# Mechanical properties :
#
#
# Convention : Reuss Voigt Hill
#
# Bulk Modulus (GPa) = 47.93089 60.52046 54.22568
# Shear Modulus (GPa) = 22.33034 25.42454 23.87744
#
# Velocity S-wave (km/s) = 3.41533 3.64428 3.53166
# Velocity P-wave (km/s) = 6.37101 7.02290 6.70488
#
# Compressibility (1/GPa) = 0.02086337
#
# Stress axis : x y z
#
# Youngs Moduli (GPa) = 73.20648 61.65375 42.73867
#
# Poissons Ratio (x) = 0.34588 0.41448
# Poissons Ratio (y) = 0.41069 0.03843
# Poissons Ratio (z) = 0.70996 0.05544
#
# Static dielectric constant tensor:
#      x y z
#    x 3.455390 0.000000 0.000000 
#    y 0.000000 3.447510 0.000000 
#    z 0.000000 0.000000 3.904400 
# 
# 
# High freq. dielectric constant tensor:
#      x y z
#    x 1.732650 0.000000 0.000000 
#    y 0.000000 1.749070 0.000000 
#    z 0.000000 0.000000 1.747600 
# 
# From -- ./inp_files/29627.got.cif
#   From: 2010.03.12/outbox.cif.g09.slc.cpg/sg51_15_cif.got.tgz:29627.got - 2010.04.16 13:43:02.
