data_PCOD8212467
_publ_section_title
;
Structure prediction by ZEFSAII (Michael W. Deem and Ramdas Pophale) SiO2 
 PCOD8212467
Probable space group: P M M A
;
_chemical_formula_sum "Si O2"
_cell_formula_units_Z 64
_cell_length_a 13.956555
_cell_length_b 17.725572
_cell_length_c 12.700878
_cell_angle_alpha 90.000000
_cell_angle_beta 90.000000
_cell_angle_gamma 90.000000
_cell_volume 3142.043797
_symmetry_space_group_name_H-M "P M M A"
_symmetry_group_IT_number 51
_symmetry_cell_setting 'orthorhombic'
loop_
_space_group_symop_operation_xyz
x,y,z
1/2-x,-y,z
1/2+x,-y,-z
-x,y,-z
-x,-y,-z
1/2+x,y,-z
1/2-x,y,z
x,-y,z
loop_
_atom_site_type_symbol
_atom_site_label
_atom_site_fract_x
_atom_site_fract_y
_atom_site_fract_z
Si Si1 0.006990 0.193472 0.680584
Si Si2 0.856769 0.915366 0.700535
Si Si3 0.859299 0.084711 0.450888
Si Si4 0.136998 0.416465 0.574691
Si Si5 0.864244 0.315185 0.621844
Si Si6 0.860377 0.684273 0.233059
Si Si7 0.645366 0.417979 0.803071
Si Si8 0.891139 0.415824 0.031192
O O1 0.939633 0.137521 0.750929
O O2 0.929645 0.241276 0.611670
O O3 0.073764 0.146761 0.601998
O O4 0.073519 0.241432 0.759948
O O5 0.750000 0.885871 0.729527
O O6 0.872867 0.912908 0.575520
O O7 0.869213 0.000000 0.743502
O O8 0.750000 0.103540 0.420374
O O9 0.886096 0.000000 0.411309
O O10 0.250000 0.424036 0.578566
O O11 0.090538 0.500000 0.571343
O O12 0.105571 0.370470 0.472047
O O13 0.101021 0.372939 0.678123
O O14 0.750000 0.294749 0.620328
O O15 0.902469 0.354596 0.730228
O O16 0.750000 0.707317 0.253141
O O17 0.868616 0.644649 0.120209
O O18 0.750000 0.429404 0.752116
O O19 0.591100 0.500000 0.799968
O O20 0.660114 0.390808 0.923182
O O21 0.857234 0.500000 0.067082
O O22 0.000000 0.416519 0.000000
#
# Coordination Sequence:
#
# PCOD8212467 Si02
#       8
#     8   8   8   8   8   8   8   8
#     4  12  22  32  49  76 111 148 181 224 279 335
#     4   9  19  35  55  78 104 141 190 237 277 324
#     4   9  19  35  54  75 101 140 190 235 273 325
#     4   9  19  36  53  69 102 154 199 232 271 328
#     4  10  21  34  51  79 112 148 192 240 289 338
#     4  11  24  37  52  79 115 154 192 230 280 344
#     4   9  17  32  55  76  96 133 188 246 294 329
#     4  10  20  36  58  80 101 135 190 253 302 339
#
# _framework density 20.368908000000001
#
# number of rings (size 3 to 8) (size 9 to 14) (size 15 to 20)
#    0.000    2.125    0.000    4.125    3.500    3.750 
#    0.000    2.500    0.000    0.000    0.000    0.000 
#    0.000   18.000    0.000   50.500    0.000    0.000 
#
# Total GULP energy -793120.157671 kJ/mol
# GULP energy per Si atom -12392.502464 kJ/mol
# Density = 2.032255 g / cm^3
# Si number density = 20.368908 Si / 1000 Ang^3
#
#
#
# Elastic Constant Matrix: (Units=GPa)
#
#
# Indices 1 2 3 4 5 6 
#
# 1 106.5126 63.9470 21.7695 0.0000 0.0000 0.0000
# 2 63.9470 127.1558 43.6675 0.0000 0.0000 0.0000
# 3 21.7695 43.6675 78.6452 0.0000 0.0000 0.0000
# 4 0.0000 0.0000 0.0000 17.0984 0.0000 0.0000
# 5 0.0000 0.0000 0.0000 0.0000 15.2974 0.0000
# 6 0.0000 0.0000 0.0000 0.0000 0.0000 26.3640
#
#
#
# Elastic Compliance Matrix: (Units=1/GPa)
#
#
# Indices 1 2 3 4 5 6 
#
# 1 0.013449 -0.006778 0.000040 0.000000 0.000000 0.000000
# 2 -0.006778 0.013133 -0.005416 0.000000 0.000000 0.000000
# 3 0.000040 -0.005416 0.015711 0.000000 0.000000 0.000000
# 4 0.000000 0.000000 0.000000 0.058485 0.000000 0.000000
# 5 0.000000 0.000000 0.000000 0.000000 0.065371 0.000000
# 6 0.000000 0.000000 0.000000 0.000000 0.000000 0.037931
#
#
# Mechanical properties :
#
#
# Convention : Reuss Voigt Hill
#
# Bulk Modulus (GPa) = 55.59487 63.45351 59.52419
# Shear Modulus (GPa) = 21.33274 23.94725 22.63999
#
# Velocity S-wave (km/s) = 3.23974 3.43253 3.33753
# Velocity P-wave (km/s) = 6.43023 6.85051 6.64369
#
# Compressibility (1/GPa) = 0.01798727
#
# Stress axis : x y z
#
# Youngs Moduli (GPa) = 74.35293 76.14571 63.64857
#
# Poissons Ratio (x) = 0.51608 -0.00257
# Poissons Ratio (y) = 0.50393 0.34471
# Poissons Ratio (z) = -0.00300 0.41239
#
# Static dielectric constant tensor:
#      x y z
#    x 3.997810 0.000000 0.000000 
#    y 0.000000 4.109230 0.000000 
#    z 0.000000 0.000000 1.992650 
# 
# 
# High freq. dielectric constant tensor:
#      x y z
#    x 1.820420 0.000000 0.000000 
#    y 0.000000 1.793540 0.000000 
#    z 0.000000 0.000000 1.742890 
# 
# From -- ./inp_files/16893.got.cif
#   From: 2010.03.12/outbox.cif.g09.slc.cpg/sg51_9_cif.got.tgz:16893.got - 2010.04.16 13:43:02.
