data_PCOD8212014
_publ_section_title
;
Structure prediction by ZEFSAII (Michael W. Deem and Ramdas Pophale) SiO2 
 PCOD8212014
Probable space group: P M M A
;
_chemical_formula_sum "Si O2"
_cell_formula_units_Z 40
_cell_length_a 8.792990
_cell_length_b 11.742628
_cell_length_c 20.288125
_cell_angle_alpha 90.000000
_cell_angle_beta 90.000000
_cell_angle_gamma 90.000000
_cell_volume 2094.805928
_symmetry_space_group_name_H-M "P M M A"
_symmetry_group_IT_number 51
_symmetry_cell_setting 'orthorhombic'
loop_
_space_group_symop_operation_xyz
x,y,z
1/2-x,-y,z
1/2+x,-y,-z
-x,y,-z
-x,-y,-z
1/2+x,y,-z
1/2-x,y,z
x,-y,z
loop_
_atom_site_type_symbol
_atom_site_label
_atom_site_fract_x
_atom_site_fract_y
_atom_site_fract_z
Si Si1 0.427245 0.267216 0.431729
Si Si2 0.429038 0.732779 0.812618
Si Si3 0.574748 0.865885 0.931637
Si Si4 0.568809 0.500000 0.629585
Si Si5 0.069444 0.500000 0.220499
Si Si6 0.573353 0.131656 0.696137
O O1 0.500000 0.228054 0.500000
O O2 0.250000 0.280643 0.443440
O O3 0.494821 0.388506 0.407571
O O4 0.463582 0.170519 0.378063
O O5 0.250000 0.717258 0.816095
O O6 0.484439 0.806865 0.873456
O O7 0.507351 0.610134 0.817023
O O8 0.472037 0.795387 0.745151
O O9 0.750000 0.827917 0.930793
O O10 0.558242 0.000000 0.921150
O O11 0.500000 0.826947 0.000000
O O12 0.750000 0.500000 0.631573
O O13 0.508343 0.500000 0.704409
O O14 0.250000 0.500000 0.217661
O O15 0.750000 0.154298 0.713120
O O16 0.530656 0.000000 0.703303
#
# Coordination Sequence:
#
# PCOD8212014 Si02
#       6
#     8   8   8   4   4   8
#     4  10  20  35  54  80 110 146 190 242 299 356
#     4  12  24  38  59  91 124 153 193 245 296 348
#     4  10  21  39  64  93 125 163 203 241 286 340
#     4   9  17  34  58  79 104 142 189 238 292 349
#     4  11  21  40  65  85 113 155 198 241 292 351
#     4  10  21  38  59  81 110 154 203 244 290 353
#
# _framework density 19.094847999999999
#
# number of rings (size 3 to 8) (size 9 to 14) (size 15 to 20)
#    0.000    1.600    2.000    3.600    0.000    5.200 
#    0.000    0.500    0.000    0.000    0.000    0.000 
#    0.000    0.000    0.000    0.000    0.000    0.000 
#
# Total GULP energy -496181.388237 kJ/mol
# GULP energy per Si atom -12404.534706 kJ/mol
# Density = 1.905139 g / cm^3
# Si number density = 19.094848 Si / 1000 Ang^3
#
#
#
# Elastic Constant Matrix: (Units=GPa)
#
#
# Indices 1 2 3 4 5 6 
#
# 1 98.9330 36.6424 43.6309 0.0000 0.0000 0.0000
# 2 36.6424 70.7946 12.1069 0.0000 0.0000 0.0000
# 3 43.6309 12.1069 92.5628 0.0000 0.0000 0.0000
# 4 0.0000 0.0000 0.0000 5.6580 0.0000 0.0000
# 5 0.0000 0.0000 0.0000 0.0000 36.4174 0.0000
# 6 0.0000 0.0000 0.0000 0.0000 0.0000 23.8911
#
#
#
# Elastic Compliance Matrix: (Units=1/GPa)
#
#
# Indices 1 2 3 4 5 6 
#
# 1 0.015494 -0.006926 -0.006398 0.000000 0.000000 0.000000
# 2 -0.006926 0.017544 0.000970 0.000000 0.000000 0.000000
# 3 -0.006398 0.000970 0.013692 0.000000 0.000000 0.000000
# 4 0.000000 0.000000 0.000000 0.176740 0.000000 0.000000
# 5 0.000000 0.000000 0.000000 0.000000 0.027459 0.000000
# 6 0.000000 0.000000 0.000000 0.000000 0.000000 0.041857
#
#
# Mechanical properties :
#
#
# Convention : Reuss Voigt Hill
#
# Bulk Modulus (GPa) = 45.40544 49.67230 47.53887
# Shear Modulus (GPa) = 15.39242 24.52066 19.95654
#
# Velocity S-wave (km/s) = 2.84228 3.58739 3.23635
# Velocity P-wave (km/s) = 5.88234 6.57488 6.23823
#
# Compressibility (1/GPa) = 0.02202379
#
# Stress axis : x y z
#
# Youngs Moduli (GPa) = 64.53944 56.99910 73.03392
#
# Poissons Ratio (x) = 0.39475 0.46725
# Poissons Ratio (y) = 0.44698 -0.07083
# Poissons Ratio (z) = 0.41290 -0.05528
#
# Static dielectric constant tensor:
#      x y z
#    x 3.522170 0.000000 0.000000 
#    y 0.000000 3.613450 0.000000 
#    z 0.000000 0.000000 3.569200 
# 
# 
# High freq. dielectric constant tensor:
#      x y z
#    x 1.733680 0.000000 0.000000 
#    y 0.000000 1.747240 0.000000 
#    z 0.000000 0.000000 1.747740 
# 
# From -- ./inp_files/31470.got.cif
#   From: 2010.03.12/outbox.cif.g09.slc.cpg/sg51_16_cif.got.tgz:31470.got - 2010.04.16 13:43:02.
