data_PCOD8212320
_publ_section_title
;
Structure prediction by ZEFSAII (Michael W. Deem and Ramdas Pophale) SiO2 
 PCOD8212320
Probable space group: P M M A
;
_chemical_formula_sum "Si O2"
_cell_formula_units_Z 64
_cell_length_a 27.615917
_cell_length_b 12.965314
_cell_length_c 9.406935
_cell_angle_alpha 90.000000
_cell_angle_beta 90.000000
_cell_angle_gamma 90.000000
_cell_volume 3368.144002
_symmetry_space_group_name_H-M "P M M A"
_symmetry_group_IT_number 51
_symmetry_cell_setting 'orthorhombic'
loop_
_space_group_symop_operation_xyz
x,y,z
1/2-x,-y,z
1/2+x,-y,-z
-x,y,-z
-x,-y,-z
1/2+x,y,-z
1/2-x,y,z
x,-y,z
loop_
_atom_site_type_symbol
_atom_site_label
_atom_site_fract_x
_atom_site_fract_y
_atom_site_fract_z
Si Si1 0.580672 0.380989 0.753327
Si Si2 0.515927 0.273381 0.342970
Si Si3 0.804609 0.882588 0.697831
Si Si4 0.129860 0.789411 0.068568
Si Si5 0.195712 0.765325 0.588387
Si Si6 0.956152 0.885499 0.105867
Si Si7 0.695015 0.884970 0.138762
Si Si8 0.110634 0.383531 0.565607
O O1 0.575719 0.500000 0.801382
O O2 0.527292 0.331913 0.739015
O O3 0.612902 0.321857 0.872235
O O4 0.607943 0.371888 0.604068
O O5 0.500000 0.233932 0.500000
O O6 0.533506 0.178189 0.248713
O O7 0.560697 0.350741 0.360141
O O8 0.750000 0.863980 0.759273
O O9 0.847396 0.859290 0.807603
O O10 0.813999 0.807995 0.567024
O O11 0.809967 0.000000 0.647619
O O12 0.085886 0.843828 0.992294
O O13 0.170935 0.789375 0.946911
O O14 0.250000 0.718147 0.601119
O O15 0.189538 0.860996 0.695002
O O16 0.156183 0.679202 0.624814
O O17 0.943802 0.000000 0.160149
O O18 0.000000 0.885170 0.000000
O O19 0.750000 0.887447 0.089498
O O20 0.672628 0.000000 0.109763
O O21 0.120005 0.500000 0.610805
#
# Coordination Sequence:
#
# PCOD8212320 Si02
#       8
#     8   8   8   8   8   8   8   8
#     4  10  21  39  61  86 115 150 198 250 294 339
#     4  10  21  41  65  86 112 153 205 253 286 339
#     4  10  20  35  59  89 117 151 199 242 279 342
#     4  12  21  37  58  84 118 156 190 238 293 348
#     4  10  20  36  58  88 121 151 190 241 295 352
#     4  11  23  38  56  84 123 159 186 227 293 358
#     4  10  21  37  58  84 117 156 194 236 289 348
#     4  10  20  37  62  88 114 150 197 246 298 344
#
# _framework density 19.001564999999999
#
# number of rings (size 3 to 8) (size 9 to 14) (size 15 to 20)
#    0.000    1.625    2.500    3.000    0.000    4.500 
#    0.000    4.375    0.000    2.250    0.000    0.000 
#    0.000    0.000    0.000    0.000    0.000    0.000 
#
# Total GULP energy -793211.785017 kJ/mol
# GULP energy per Si atom -12393.934141 kJ/mol
# Density = 1.895832 g / cm^3
# Si number density = 19.001565 Si / 1000 Ang^3
#
#
#
# Elastic Constant Matrix: (Units=GPa)
#
#
# Indices 1 2 3 4 5 6 
#
# 1 141.7476 74.0969 72.3533 0.0000 0.0000 0.0000
# 2 74.0969 135.7131 61.6223 0.0000 0.0000 0.0000
# 3 72.3533 61.6223 105.7178 0.0000 0.0000 0.0000
# 4 0.0000 0.0000 0.0000 28.1708 0.0000 0.0000
# 5 0.0000 0.0000 0.0000 0.0000 112.8872 0.0000
# 6 0.0000 0.0000 0.0000 0.0000 0.0000 27.6127
#
#
#
# Elastic Compliance Matrix: (Units=1/GPa)
#
#
# Indices 1 2 3 4 5 6 
#
# 1 0.012193 -0.003900 -0.006071 0.000000 0.000000 0.000000
# 2 -0.003900 0.011268 -0.003899 0.000000 0.000000 0.000000
# 3 -0.006071 -0.003899 0.015887 0.000000 0.000000 0.000000
# 4 0.000000 0.000000 0.000000 0.035498 0.000000 0.000000
# 5 0.000000 0.000000 0.000000 0.000000 0.008858 0.000000
# 6 0.000000 0.000000 0.000000 0.000000 0.000000 0.036215
#
#
# Mechanical properties :
#
#
# Convention : Reuss Voigt Hill
#
# Bulk Modulus (GPa) = 86.15379 88.81370 87.48375
# Shear Modulus (GPa) = 32.99706 45.40788 39.20247
#
# Velocity S-wave (km/s) = 4.17171 4.89375 4.54708
# Velocity P-wave (km/s) = 8.28511 8.87544 8.58535
#
# Compressibility (1/GPa) = 0.01160715
#
# Stress axis : x y z
#
# Youngs Moduli (GPa) = 82.01740 88.74461 62.94492
#
# Poissons Ratio (x) = 0.34612 0.38215
# Poissons Ratio (y) = 0.31989 0.24542
# Poissons Ratio (z) = 0.49794 0.34601
#
# Static dielectric constant tensor:
#      x y z
#    x 3.720330 0.000000 0.000000 
#    y 0.000000 3.432190 0.000000 
#    z 0.000000 0.000000 3.519070 
# 
# 
# High freq. dielectric constant tensor:
#      x y z
#    x 1.753130 0.000000 0.000000 
#    y 0.000000 1.723640 0.000000 
#    z 0.000000 0.000000 1.740320 
# 
# From -- ./inp_files/13200.got.cif
#   From: 2010.03.12/outbox.cif.g09.slc.cpg/sg51_7_cif.got.tgz:13200.got - 2010.04.16 13:43:02.
