data_PCOD8212139
_publ_section_title
;
Structure prediction by ZEFSAII (Michael W. Deem and Ramdas Pophale) SiO2 
 PCOD8212139
Probable space group: P M M A
;
_chemical_formula_sum "Si O2"
_cell_formula_units_Z 48
_cell_length_a 19.098068
_cell_length_b 8.802861
_cell_length_c 15.160480
_cell_angle_alpha 90.000000
_cell_angle_beta 90.000000
_cell_angle_gamma 90.000000
_cell_volume 2548.744088
_symmetry_space_group_name_H-M "P M M A"
_symmetry_group_IT_number 51
_symmetry_cell_setting 'orthorhombic'
loop_
_space_group_symop_operation_xyz
x,y,z
1/2-x,-y,z
1/2+x,-y,-z
-x,y,-z
-x,-y,-z
1/2+x,y,-z
1/2-x,y,z
x,-y,z
loop_
_atom_site_type_symbol
_atom_site_label
_atom_site_fract_x
_atom_site_fract_y
_atom_site_fract_z
Si Si1 0.169798 0.179464 0.114853
Si Si2 0.935887 0.178641 0.237130
Si Si3 0.916849 0.680186 0.726989
Si Si4 0.167677 0.673873 0.632587
Si Si5 0.172497 0.319693 0.435831
Si Si6 0.071763 0.820279 0.960339
O O1 0.250000 0.233635 0.116689
O O2 0.127238 0.261163 0.190948
O O3 0.162915 0.000000 0.128775
O O4 0.137147 0.229820 0.020895
O O5 0.870998 0.217506 0.299140
O O6 0.917829 0.240030 0.139027
O O7 0.004856 0.259164 0.273046
O O8 0.949412 0.000000 0.236403
O O9 0.917766 0.500000 0.729477
O O10 0.881197 0.742249 0.637164
O O11 0.250000 0.690810 0.648255
O O12 0.143899 0.500000 0.647409
O O13 0.147802 0.729010 0.533722
O O14 0.250000 0.253063 0.415781
O O15 0.176905 0.500000 0.432863
O O16 0.065676 0.000000 0.958867
O O17 0.000000 0.750904 0.000000
#
# Coordination Sequence:
#
# PCOD8212139 Si02
#       6
#     8   8   8   8   8   8
#     4  10  20  35  56  81 107 139 182 229 276 325
#     4  11  22  36  57  82 110 143 183 227 271 321
#     4  11  21  34  55  82 112 144 182 224 270 324
#     4   9  19  38  60  80 106 141 182 226 271 322
#     4   8  16  33  56  78 104 144 186 220 262 324
#     4   9  17  34  56  74 101 144 185 217 260 325
#
# _framework density 18.832805
#
# number of rings (size 3 to 8) (size 9 to 14) (size 15 to 20)
#    0.000    2.333    1.667    2.500    0.000    2.667 
#    0.000    9.167    0.000    2.000    0.000    0.000 
#    0.000    0.000    0.000    0.000    0.000    0.000 
#
# Total GULP energy -595159.058540 kJ/mol
# GULP energy per Si atom -12399.147053 kJ/mol
# Density = 1.878994 g / cm^3
# Si number density = 18.832805 Si / 1000 Ang^3
#
#
#
# Elastic Constant Matrix: (Units=GPa)
#
#
# Indices 1 2 3 4 5 6 
#
# 1 95.6403 20.0806 63.4849 0.0000 0.0000 0.0000
# 2 20.0806 22.8843 21.7052 0.0000 0.0000 0.0000
# 3 63.4849 21.7052 158.3553 0.0000 0.0000 0.0000
# 4 0.0000 0.0000 0.0000 30.5980 0.0000 0.0000
# 5 0.0000 0.0000 0.0000 0.0000 39.2145 0.0000
# 6 0.0000 0.0000 0.0000 0.0000 0.0000 28.7234
#
#
#
# Elastic Compliance Matrix: (Units=1/GPa)
#
#
# Indices 1 2 3 4 5 6 
#
# 1 0.015702 -0.008974 -0.005065 0.000000 0.000000 0.000000
# 2 -0.008974 0.055357 -0.003990 0.000000 0.000000 0.000000
# 3 -0.005065 -0.003990 0.008892 0.000000 0.000000 0.000000
# 4 0.000000 0.000000 0.000000 0.032682 0.000000 0.000000
# 5 0.000000 0.000000 0.000000 0.000000 0.025501 0.000000
# 6 0.000000 0.000000 0.000000 0.000000 0.000000 0.034815
#
#
# Mechanical properties :
#
#
# Convention : Reuss Voigt Hill
#
# Bulk Modulus (GPa) = 22.78247 54.15793 38.47020
# Shear Modulus (GPa) = 22.35754 31.14780 26.75267
#
# Velocity S-wave (km/s) = 3.44926 4.07124 3.77309
# Velocity P-wave (km/s) = 5.29024 7.13580 6.28118
#
# Compressibility (1/GPa) = 0.04389339
#
# Stress axis : x y z
#
# Youngs Moduli (GPa) = 63.68564 18.06455 112.45658
#
# Poissons Ratio (x) = 0.16212 0.56958
# Poissons Ratio (y) = 0.57154 0.44868
# Poissons Ratio (z) = 0.32256 0.07207
#
# Static dielectric constant tensor:
#      x y z
#    x 3.625530 0.000000 0.000000 
#    y 0.000000 3.125960 0.000000 
#    z 0.000000 0.000000 3.803600 
# 
# 
# High freq. dielectric constant tensor:
#      x y z
#    x 1.735960 0.000000 0.000000 
#    y 0.000000 1.698290 0.000000 
#    z 0.000000 0.000000 1.746420 
# 
# From -- ./inp_files/24764.got.cif
#   From: 2010.03.12/outbox.cif.g09.slc.cpg/sg51_13_cif.got.tgz:24764.got - 2010.04.16 13:43:02.
