data_PCOD8212145
_publ_section_title
;
Structure prediction by ZEFSAII (Michael W. Deem and Ramdas Pophale) SiO2 
 PCOD8212145
Probable space group: P M M A
;
_chemical_formula_sum "Si O2"
_cell_formula_units_Z 48
_cell_length_a 9.663552
_cell_length_b 9.030577
_cell_length_c 28.879119
_cell_angle_alpha 90.000000
_cell_angle_beta 90.000000
_cell_angle_gamma 90.000000
_cell_volume 2520.207086
_symmetry_space_group_name_H-M "P M M A"
_symmetry_group_IT_number 51
_symmetry_cell_setting 'orthorhombic'
loop_
_space_group_symop_operation_xyz
x,y,z
1/2-x,-y,z
1/2+x,-y,-z
-x,y,-z
-x,-y,-z
1/2+x,y,-z
1/2-x,y,z
x,-y,z
loop_
_atom_site_type_symbol
_atom_site_label
_atom_site_fract_x
_atom_site_fract_y
_atom_site_fract_z
Si Si1 0.540584 0.170614 0.899853
Si Si2 0.592795 0.323788 0.278852
Si Si3 0.250000 0.832920 0.940314
Si Si4 0.409107 0.172788 0.457346
Si Si5 0.750000 0.324984 0.964525
Si Si6 0.906098 0.330567 0.805187
Si Si7 0.592185 0.675075 0.636780
O O1 0.378359 0.193374 0.906593
O O2 0.614053 0.259989 0.940673
O O3 0.583998 0.230849 0.850308
O O4 0.585488 0.000000 0.903147
O O5 0.750000 0.261872 0.278979
O O6 0.592651 0.500000 0.279744
O O7 0.512950 0.268630 0.232981
O O8 0.509457 0.263395 0.323351
O O9 0.250000 0.000000 0.961001
O O10 0.250000 0.716722 0.981761
O O11 0.500000 0.232198 0.500000
O O12 0.250000 0.208971 0.468627
O O13 0.458876 0.256005 0.411338
O O14 0.433997 0.000000 0.449147
O O15 0.750000 0.500000 0.959160
O O16 0.750000 0.320621 0.785118
O O17 0.941674 0.500000 0.818370
O O18 0.750000 0.723857 0.647974
O O19 0.581586 0.500000 0.632650
#
# Coordination Sequence:
#
# PCOD8212145 Si02
#       7
#     8   8   4   8   4   8   8
#     4  11  23  40  61  84 115 152 186 224 275 331
#     4   9  18  32  52  79 108 139 175 220 273 322
#     4  10  24  42  60  84 116 154 186 222 277 332
#     4   9  18  32  49  70  99 136 175 216 264 317
#     4  12  24  40  62  90 116 144 188 234 271 322
#     4  10  20  35  56  81 109 141 182 225 266 320
#     4   9  17  31  51  74 102 137 177 219 264 318
#
# _framework density 19.046053000000001
#
# number of rings (size 3 to 8) (size 9 to 14) (size 15 to 20)
#    0.000    2.167    0.833    2.250    1.167    6.333 
#    0.000    0.833    0.000    3.000    0.000    0.000 
#    0.000    0.000    0.000    0.000    0.000    0.000 
#
# Total GULP energy -595304.130773 kJ/mol
# GULP energy per Si atom -12402.169391 kJ/mol
# Density = 1.900270 g / cm^3
# Si number density = 19.046053 Si / 1000 Ang^3
#
#
#
# Elastic Constant Matrix: (Units=GPa)
#
#
# Indices 1 2 3 4 5 6 
#
# 1 121.9997 29.2800 53.8400 0.0000 0.0000 0.0000
# 2 29.2800 63.3948 30.0544 0.0000 0.0000 0.0000
# 3 53.8400 30.0544 115.9078 0.0000 0.0000 0.0000
# 4 0.0000 0.0000 0.0000 -4.1734 0.0000 0.0000
# 5 0.0000 0.0000 0.0000 0.0000 36.9010 0.0000
# 6 0.0000 0.0000 0.0000 0.0000 0.0000 18.8661
#
#
#
# Elastic Compliance Matrix: (Units=1/GPa)
#
#
# Indices 1 2 3 4 5 6 
#
# 1 0.010779 -0.002970 -0.004237 0.000000 0.000000 0.000000
# 2 -0.002970 0.018803 -0.003496 0.000000 0.000000 0.000000
# 3 -0.004237 -0.003496 0.011502 0.000000 0.000000 0.000000
# 4 0.000000 0.000000 0.000000 -0.239611 0.000000 0.000000
# 5 0.000000 0.000000 0.000000 0.000000 0.027100 0.000000
# 6 0.000000 0.000000 0.000000 0.000000 0.000000 0.053005
#
#
# Mechanical properties :
#
#
# Convention : Reuss Voigt Hill
#
# Bulk Modulus (GPa) = 50.81598 58.62789 54.72193
# Shear Modulus (GPa) = -55.27533 22.86061 -16.20736
#
# Velocity S-wave (km/s) = -5.39305 3.46827 -2.92028
# Velocity P-wave (km/s) = 3.47007 6.84744 4.17409
#
# Compressibility (1/GPa) = 0.01967885
#
# Stress axis : x y z
#
# Youngs Moduli (GPa) = 92.76981 53.18216 86.94010
#
# Poissons Ratio (x) = 0.15795 0.36837
# Poissons Ratio (y) = 0.27552 0.30395
# Poissons Ratio (z) = 0.39307 0.18593
#
# Static dielectric constant tensor:
#      x y z
#    x 3.816040 0.000000 0.000000 
#    y 0.000000 3.268620 0.000000 
#    z 0.000000 0.000000 3.492740 
# 
# 
# High freq. dielectric constant tensor:
#      x y z
#    x 1.751200 0.000000 0.000000 
#    y 0.000000 1.717020 0.000000 
#    z 0.000000 0.000000 1.743750 
# 
# From -- ./inp_files/37228.got.cif
#   From: 2010.03.12/outbox.cif.g09.slc.cpg/sg51_19_cif.got.tgz:37228.got - 2010.04.16 13:43:02.
