data_PCOD8212023
_publ_section_title
;
Structure prediction by ZEFSAII (Michael W. Deem and Ramdas Pophale) SiO2 
 PCOD8212023
Probable space group: P M M A
;
_chemical_formula_sum "Si O2"
_cell_formula_units_Z 64
_cell_length_a 8.860895
_cell_length_b 19.657394
_cell_length_c 19.997679
_cell_angle_alpha 90.000000
_cell_angle_beta 90.000000
_cell_angle_gamma 90.000000
_cell_volume 3483.237807
_symmetry_space_group_name_H-M "P M M A"
_symmetry_group_IT_number 51
_symmetry_cell_setting 'orthorhombic'
loop_
_space_group_symop_operation_xyz
x,y,z
1/2-x,-y,z
1/2+x,-y,-z
-x,y,-z
-x,-y,-z
1/2+x,y,-z
1/2-x,y,z
x,-y,z
loop_
_atom_site_type_symbol
_atom_site_label
_atom_site_fract_x
_atom_site_fract_y
_atom_site_fract_z
Si Si1 0.073747 0.703500 0.934212
Si Si2 0.928587 0.244660 0.712198
Si Si3 0.576203 0.575477 0.875875
Si Si4 0.576996 0.426058 0.615250
Si Si5 0.074256 0.178995 0.830651
Si Si6 0.927526 0.615015 0.255875
Si Si7 0.925347 0.281741 0.566318
Si Si8 0.575327 0.079582 0.931177
O O1 0.250000 0.692560 0.945551
O O2 0.041714 0.751643 0.871074
O O3 0.994989 0.630587 0.925389
O O4 0.000000 0.737761 0.000000
O O5 0.750000 0.237976 0.717770
O O6 0.980419 0.243178 0.633912
O O7 0.005224 0.184830 0.755759
O O8 0.981759 0.314850 0.744023
O O9 0.750000 0.594280 0.861151
O O10 0.563910 0.500000 0.908048
O O11 0.480470 0.573121 0.807905
O O12 0.750000 0.415023 0.639313
O O13 0.559895 0.500000 0.578656
O O14 0.467565 0.428513 0.678892
O O15 0.531338 0.362292 0.568915
O O16 0.250000 0.163613 0.824552
O O17 0.997798 0.116025 0.867738
O O18 0.750000 0.630183 0.252100
O O19 0.750000 0.271022 0.557761
O O20 0.000000 0.249838 0.500000
O O21 0.750000 0.098649 0.935389
O O22 0.547812 0.000000 0.920706
O O23 0.500000 0.104887 0.000000
#
# Coordination Sequence:
#
# PCOD8212023 Si02
#       8
#     8   8   8   8   8   8   8   8
#     4  11  24  39  55  76 101 131 171 218 269 323
#     4  10  20  35  55  76 103 137 175 218 265 317
#     4  11  23  37  53  70  91 125 167 215 274 331
#     4   9  18  32  47  64  90 125 165 207 259 327
#     4  11  22  36  58  87 113 142 183 227 270 314
#     4  11  20  31  48  72  97 122 160 212 268 323
#     4   9  19  33  49  71  98 133 170 213 269 325
#     4  10  21  37  58  86 122 163 199 229 265 311
#
# _framework density 18.373709000000002
#
# number of rings (size 3 to 8) (size 9 to 14) (size 15 to 20)
#    0.000    1.750    1.250    4.500    0.000    9.000 
#    0.000    0.000    0.000    0.000    0.000    0.000 
#    0.000    0.500    0.000    1.625    0.000    2.000 
#
# Total GULP energy -793484.451015 kJ/mol
# GULP energy per Si atom -12398.194547 kJ/mol
# Density = 1.833189 g / cm^3
# Si number density = 18.373709 Si / 1000 Ang^3
#
#
#
# Elastic Constant Matrix: (Units=GPa)
#
#
# Indices 1 2 3 4 5 6 
#
# 1 94.0152 37.1517 56.8727 0.0000 0.0000 0.0000
# 2 37.1517 52.9357 36.7095 0.0000 0.0000 0.0000
# 3 56.8727 36.7095 124.6597 0.0000 0.0000 0.0000
# 4 0.0000 0.0000 0.0000 20.6272 0.0000 0.0000
# 5 0.0000 0.0000 0.0000 0.0000 32.4825 0.0000
# 6 0.0000 0.0000 0.0000 0.0000 0.0000 21.3776
#
#
#
# Elastic Compliance Matrix: (Units=1/GPa)
#
#
# Indices 1 2 3 4 5 6 
#
# 1 0.017186 -0.008324 -0.005389 0.000000 0.000000 0.000000
# 2 -0.008324 0.027771 -0.004380 0.000000 0.000000 0.000000
# 3 -0.005389 -0.004380 0.011770 0.000000 0.000000 0.000000
# 4 0.000000 0.000000 0.000000 0.048480 0.000000 0.000000
# 5 0.000000 0.000000 0.000000 0.000000 0.030786 0.000000
# 6 0.000000 0.000000 0.000000 0.000000 0.000000 0.046778
#
#
# Mechanical properties :
#
#
# Convention : Reuss Voigt Hill
#
# Bulk Modulus (GPa) = 48.68645 59.23093 53.95869
# Shear Modulus (GPa) = 22.14300 24.28925 23.21613
#
# Velocity S-wave (km/s) = 3.47529 3.63982 3.55850
# Velocity P-wave (km/s) = 6.53138 7.06903 6.80551
#
# Compressibility (1/GPa) = 0.02053960
#
# Stress axis : x y z
#
# Youngs Moduli (GPa) = 58.18566 36.00937 84.95834
#
# Poissons Ratio (x) = 0.29976 0.45788
# Poissons Ratio (y) = 0.48436 0.37212
# Poissons Ratio (z) = 0.31359 0.15772
#
# Static dielectric constant tensor:
#      x y z
#    x 3.465140 0.000000 0.000000 
#    y 0.000000 3.102250 0.000000 
#    z 0.000000 0.000000 3.407950 
# 
# 
# High freq. dielectric constant tensor:
#      x y z
#    x 1.723990 0.000000 0.000000 
#    y 0.000000 1.673410 0.000000 
#    z 0.000000 0.000000 1.705230 
# 
# From -- ./inp_files/32387.got.cif
#   From: 2010.03.12/outbox.cif.g09.slc.cpg/sg51_17_cif.got.tgz:32387.got - 2010.04.16 13:43:02.
