data_PCOD8212919
_publ_section_title
;
Structure prediction by ZEFSAII (Michael W. Deem and Ramdas Pophale) SiO2 
 PCOD8212919
Probable space group: P M M A
;
_chemical_formula_sum "Si O2"
_cell_formula_units_Z 64
_cell_length_a 18.388816
_cell_length_b 9.163804
_cell_length_c 21.286796
_cell_angle_alpha 90.000000
_cell_angle_beta 90.000000
_cell_angle_gamma 90.000000
_cell_volume 3587.070044
_symmetry_space_group_name_H-M "P M M A"
_symmetry_group_IT_number 51
_symmetry_cell_setting 'orthorhombic'
loop_
_space_group_symop_operation_xyz
x,y,z
1/2-x,-y,z
1/2+x,-y,-z
-x,y,-z
-x,-y,-z
1/2+x,y,-z
1/2-x,y,z
x,-y,z
loop_
_atom_site_type_symbol
_atom_site_label
_atom_site_fract_x
_atom_site_fract_y
_atom_site_fract_z
Si Si1 0.832163 0.171891 0.116698
Si Si2 0.085528 0.168788 0.499881
Si Si3 0.166523 0.329262 0.390373
Si Si4 0.832526 0.831336 0.735733
Si Si5 0.392879 0.169847 0.752781
Si Si6 0.332498 0.173688 0.623394
Si Si7 0.963487 0.830866 0.820333
Si Si8 0.466375 0.670695 0.932835
O O1 0.750000 0.209650 0.096656
O O2 0.845790 0.227319 0.188042
O O3 0.887138 0.254462 0.070346
O O4 0.848147 0.000000 0.111944
O O5 0.116999 0.261086 0.443370
O O6 0.119614 0.228814 0.564785
O O7 0.000000 0.192894 0.500000
O O8 0.106107 0.000000 0.489623
O O9 0.250000 0.290656 0.405375
O O10 0.152549 0.500000 0.387568
O O11 0.143568 0.263280 0.323648
O O12 0.750000 0.796776 0.756471
O O13 0.884029 0.790540 0.794189
O O14 0.842498 0.000000 0.716977
O O15 0.366591 0.242605 0.687418
O O16 0.477703 0.203401 0.765596
O O17 0.378003 0.000000 0.745736
O O18 0.250000 0.230311 0.615703
O O19 0.334676 0.000000 0.625921
O O20 0.978482 0.734130 0.881215
O O21 0.969155 0.000000 0.840233
O O22 0.456900 0.500000 0.921085
O O23 0.500000 0.706235 0.000000
#
# Coordination Sequence:
#
# PCOD8212919 Si02
#       8
#     8   8   8   8   8   8   8   8
#     4   9  17  31  53  80 106 133 170 217 265 309
#     4  10  21  33  49  72  98 131 173 221 264 307
#     4  10  21  36  53  72  98 136 176 214 262 318
#     4   9  18  33  55  81 105 130 167 218 272 320
#     4   8  14  25  45  73 100 125 157 200 251 306
#     4   9  16  26  43  68  96 125 159 202 252 304
#     4   9  18  32  54  79 104 133 166 212 262 307
#     4  10  21  36  53  75 107 146 182 213 249 299
#
# _framework density 17.841858999999999
#
# number of rings (size 3 to 8) (size 9 to 14) (size 15 to 20)
#    0.000    2.750    0.000    2.250    1.750    4.750 
#    0.000    0.625    0.000    3.000    0.000    0.000 
#    0.000    0.000    0.000    0.000    0.000    0.000 
#
# Total GULP energy -793538.372054 kJ/mol
# GULP energy per Si atom -12399.037063 kJ/mol
# Density = 1.780125 g / cm^3
# Si number density = 17.841859 Si / 1000 Ang^3
#
#
#
# Elastic Constant Matrix: (Units=GPa)
#
#
# Indices 1 2 3 4 5 6 
#
# 1 120.9932 47.1475 81.7212 0.0000 0.0000 0.0000
# 2 47.1475 58.0554 50.5403 0.0000 0.0000 0.0000
# 3 81.7212 50.5403 119.4124 0.0000 0.0000 0.0000
# 4 0.0000 0.0000 0.0000 13.0339 0.0000 0.0000
# 5 0.0000 0.0000 0.0000 0.0000 26.4789 0.0000
# 6 0.0000 0.0000 0.0000 0.0000 0.0000 14.0079
#
#
#
# Elastic Compliance Matrix: (Units=1/GPa)
#
#
# Indices 1 2 3 4 5 6 
#
# 1 0.016457 -0.005637 -0.008877 0.000000 0.000000 0.000000
# 2 -0.005637 0.029205 -0.008503 0.000000 0.000000 0.000000
# 3 -0.008877 -0.008503 0.018048 0.000000 0.000000 0.000000
# 4 0.000000 0.000000 0.000000 0.076723 0.000000 0.000000
# 5 0.000000 0.000000 0.000000 0.000000 0.037766 0.000000
# 6 0.000000 0.000000 0.000000 0.000000 0.000000 0.071388
#
#
# Mechanical properties :
#
#
# Convention : Reuss Voigt Hill
#
# Bulk Modulus (GPa) = 56.57216 73.03098 64.80157
# Shear Modulus (GPa) = 16.58299 18.64093 17.61196
#
# Velocity S-wave (km/s) = 3.05198 3.23582 3.14525
# Velocity P-wave (km/s) = 6.64800 7.41498 7.04194
#
# Compressibility (1/GPa) = 0.01767654
#
# Stress axis : x y z
#
# Youngs Moduli (GPa) = 60.76396 34.24022 55.40807
#
# Poissons Ratio (x) = 0.19303 0.49184
# Poissons Ratio (y) = 0.34256 0.47113
# Poissons Ratio (z) = 0.53938 0.29114
#
# Static dielectric constant tensor:
#      x y z
#    x 3.329170 0.000000 0.000000 
#    y 0.000000 3.026640 0.000000 
#    z 0.000000 0.000000 3.321420 
# 
# 
# High freq. dielectric constant tensor:
#      x y z
#    x 1.698740 0.000000 0.000000 
#    y 0.000000 1.658710 0.000000 
#    z 0.000000 0.000000 1.685480 
# 
# From -- ./inp_files/33882.got.cif
#   From: 2010.03.12/outbox.cif.g09.slc.cpg/sg51_17_cif.got.tgz:33882.got - 2010.04.16 13:43:02.
