data_PCOD8212140
_publ_section_title
;
Structure prediction by ZEFSAII (Michael W. Deem and Ramdas Pophale) SiO2 
 PCOD8212140
Probable space group: P M M A
;
_chemical_formula_sum "Si O2"
_cell_formula_units_Z 64
_cell_length_a 9.051129
_cell_length_b 18.075029
_cell_length_c 20.506501
_cell_angle_alpha 90.000000
_cell_angle_beta 90.000000
_cell_angle_gamma 90.000000
_cell_volume 3354.851653
_symmetry_space_group_name_H-M "P M M A"
_symmetry_group_IT_number 51
_symmetry_cell_setting 'orthorhombic'
loop_
_space_group_symop_operation_xyz
x,y,z
1/2-x,-y,z
1/2+x,-y,-z
-x,y,-z
-x,-y,-z
1/2+x,y,-z
1/2-x,y,z
x,-y,z
loop_
_atom_site_type_symbol
_atom_site_label
_atom_site_fract_x
_atom_site_fract_y
_atom_site_fract_z
Si Si1 0.922938 0.680456 0.433953
Si Si2 0.925741 0.583449 0.314745
Si Si3 0.420090 0.914846 0.310551
Si Si4 0.576955 0.584858 0.933526
Si Si5 0.577071 0.084755 0.065177
Si Si6 0.919968 0.165769 0.194956
Si Si7 0.579899 0.339542 0.183773
Si Si8 0.576503 0.851079 0.433231
O O1 0.750000 0.668006 0.443026
O O2 0.987606 0.631297 0.375036
O O3 0.959786 0.765532 0.418201
O O4 0.000000 0.653717 0.500000
O O5 0.750000 0.585723 0.315872
O O6 0.986136 0.500000 0.320639
O O7 0.982258 0.618594 0.247372
O O8 0.250000 0.894231 0.323378
O O9 0.480130 0.865547 0.252089
O O10 0.512270 0.900356 0.375639
O O11 0.438986 0.000000 0.290626
O O12 0.750000 0.596587 0.941936
O O13 0.536812 0.500000 0.917104
O O14 0.518661 0.636813 0.876668
O O15 0.500000 0.610328 0.000000
O O16 0.750000 0.093099 0.054269
O O17 0.523332 0.133217 0.126299
O O18 0.530763 0.000000 0.078338
O O19 0.500000 0.115461 0.000000
O O20 0.750000 0.142497 0.207430
O O21 0.938209 0.253078 0.195007
O O22 0.750000 0.360871 0.170055
O O23 0.500000 0.876580 0.500000
O O24 0.750000 0.865300 0.439289
#
# Coordination Sequence:
#
# PCOD8212140 Si02
#       8
#     8   8   8   8   8   8   8   8
#     4   9  18  33  53  78 106 137 175 215 257 309
#     4   9  17  30  50  75 104 139 176 214 259 313
#     4  11  24  39  56  81 111 143 182 227 274 325
#     4  10  21  37  57  81 110 145 184 226 274 328
#     4   9  18  33  53  76 103 136 173 214 262 316
#     4  10  21  37  57  81 109 143 183 225 271 326
#     4  10  20  35  56  81 108 140 181 227 275 327
#     4  10  20  36  58  81 108 142 179 222 271 325
#
# _framework density 19.076847999999998
#
# number of rings (size 3 to 8) (size 9 to 14) (size 15 to 20)
#    0.000    2.250    0.000    2.625    0.000    7.250 
#    0.000    3.125    0.000    0.750    0.000    0.000 
#    0.000    0.000    0.000    0.000    0.000    0.000 
#
# Total GULP energy -793868.027780 kJ/mol
# GULP energy per Si atom -12404.187934 kJ/mol
# Density = 1.903343 g / cm^3
# Si number density = 19.076848 Si / 1000 Ang^3
#
#
#
# Elastic Constant Matrix: (Units=GPa)
#
#
# Indices 1 2 3 4 5 6 
#
# 1 70.5915 31.9930 52.6219 0.0000 0.0000 0.0000
# 2 31.9930 64.4637 43.0584 0.0000 0.0000 0.0000
# 3 52.6219 43.0584 138.2323 0.0000 0.0000 0.0000
# 4 0.0000 0.0000 0.0000 40.1188 0.0000 0.0000
# 5 0.0000 0.0000 0.0000 0.0000 38.4859 0.0000
# 6 0.0000 0.0000 0.0000 0.0000 0.0000 95.8858
#
#
#
# Elastic Compliance Matrix: (Units=1/GPa)
#
#
# Indices 1 2 3 4 5 6 
#
# 1 0.021838 -0.006674 -0.006234 0.000000 0.000000 0.000000
# 2 -0.006674 0.021628 -0.004196 0.000000 0.000000 0.000000
# 3 -0.006234 -0.004196 0.010915 0.000000 0.000000 0.000000
# 4 0.000000 0.000000 0.000000 0.024926 0.000000 0.000000
# 5 0.000000 0.000000 0.000000 0.000000 0.025984 0.000000
# 6 0.000000 0.000000 0.000000 0.000000 0.000000 0.010429
#
#
# Mechanical properties :
#
#
# Convention : Reuss Voigt Hill
#
# Bulk Modulus (GPa) = 49.57542 58.73713 54.15628
# Shear Modulus (GPa) = 31.91790 44.60572 38.26181
#
# Velocity S-wave (km/s) = 4.09482 4.84075 4.48333
# Velocity P-wave (km/s) = 6.95704 7.88038 7.43306
#
# Compressibility (1/GPa) = 0.02017129
#
# Stress axis : x y z
#
# Youngs Moduli (GPa) = 45.79153 46.23694 91.62031
#
# Poissons Ratio (x) = 0.30858 0.57120
# Poissons Ratio (y) = 0.30561 0.38447
# Poissons Ratio (z) = 0.28548 0.19402
#
# Static dielectric constant tensor:
#      x y z
#    x 3.364040 0.000000 0.000000 
#    y 0.000000 3.509240 0.000000 
#    z 0.000000 0.000000 3.681980 
# 
# 
# High freq. dielectric constant tensor:
#      x y z
#    x 1.726680 0.000000 0.000000 
#    y 0.000000 1.741820 0.000000 
#    z 0.000000 0.000000 1.755580 
# 
# From -- ./inp_files/28438.got.cif
#   From: 2010.03.12/outbox.cif.g09.slc.cpg/sg51_15_cif.got.tgz:28438.got - 2010.04.16 13:43:02.
