data_PCOD8212768
_publ_section_title
;
Structure prediction by ZEFSAII (Michael W. Deem and Ramdas Pophale) SiO2 
 PCOD8212768
Probable space group: P M M A
;
_chemical_formula_sum "Si O2"
_cell_formula_units_Z 64
_cell_length_a 14.562677
_cell_length_b 19.189807
_cell_length_c 11.370852
_cell_angle_alpha 90.000000
_cell_angle_beta 90.000000
_cell_angle_gamma 90.000000
_cell_volume 3177.641003
_symmetry_space_group_name_H-M "P M M A"
_symmetry_group_IT_number 51
_symmetry_cell_setting 'orthorhombic'
loop_
_space_group_symop_operation_xyz
x,y,z
1/2-x,-y,z
1/2+x,-y,-z
-x,y,-z
-x,-y,-z
1/2+x,y,-z
1/2-x,y,z
x,-y,z
loop_
_atom_site_type_symbol
_atom_site_label
_atom_site_fract_x
_atom_site_fract_y
_atom_site_fract_z
Si Si1 0.900138 0.323499 0.020561
Si Si2 0.351563 0.821482 0.238782
Si Si3 0.012643 0.422059 0.637433
Si Si4 0.645154 0.685168 0.278952
Si Si5 0.529650 0.816538 0.368342
Si Si6 0.849462 0.343012 0.771014
Si Si7 0.858733 0.921280 0.240693
Si Si8 0.853960 0.170277 0.023297
O O1 0.856385 0.342856 0.145163
O O2 0.912771 0.240028 0.025448
O O3 0.842415 0.354700 0.912079
O O4 0.000000 0.356459 0.000000
O O5 0.250000 0.838691 0.292187
O O6 0.436633 0.848970 0.313065
O O7 0.366968 0.738705 0.241449
O O8 0.356982 0.857720 0.110284
O O9 0.021006 0.500000 0.689393
O O10 0.107917 0.380707 0.649741
O O11 0.000000 0.425215 0.500000
O O12 0.929042 0.384335 0.704763
O O13 0.750000 0.703255 0.316450
O O14 0.577399 0.750621 0.303518
O O15 0.500000 0.796130 0.500000
O O16 0.601120 0.880234 0.353935
O O17 0.750000 0.365036 0.718104
O O18 0.750000 0.920011 0.250518
O O19 0.892041 0.885366 0.117848
O O20 0.895976 0.000000 0.240858
O O21 0.750000 0.190984 0.058753
#
# Coordination Sequence:
#
# PCOD8212768 Si02
#       8
#     8   8   8   8   8   8   8   8
#     4  11  18  33  62  93 125 155 192 251 321 371
#     4   9  19  35  59  88 122 155 198 257 316 369
#     4  11  25  45  63  86 124 169 213 257 306 369
#     4  12  23  39  64  94 124 160 207 264 317 375
#     4  12  24  39  60  89 126 166 216 262 310 361
#     4  10  20  37  61  92 122 158 203 251 309 372
#     4  10  22  40  62  90 125 164 207 258 317 382
#     4   9  17  32  55  85 117 152 193 246 309 371
#
# _framework density 20.140726000000001
#
# number of rings (size 3 to 8) (size 9 to 14) (size 15 to 20)
#    0.000    1.500    3.750    3.375    0.000    2.250 
#    0.000    3.750    0.000    2.625    0.000    0.000 
#    0.000    0.000    0.000    0.000    0.000    0.000 
#
# Total GULP energy -792864.981550 kJ/mol
# GULP energy per Si atom -12388.515337 kJ/mol
# Density = 2.009488 g / cm^3
# Si number density = 20.140726 Si / 1000 Ang^3
#
#
#
# Elastic Constant Matrix: (Units=GPa)
#
#
# Indices 1 2 3 4 5 6 
#
# 1 105.1784 27.9563 26.8224 0.0000 0.0000 0.0000
# 2 27.9563 82.0319 25.2704 0.0000 0.0000 0.0000
# 3 26.8224 25.2704 81.4983 0.0000 0.0000 0.0000
# 4 0.0000 0.0000 0.0000 22.9014 0.0000 0.0000
# 5 0.0000 0.0000 0.0000 0.0000 23.1180 0.0000
# 6 0.0000 0.0000 0.0000 0.0000 0.0000 18.3368
#
#
#
# Elastic Compliance Matrix: (Units=1/GPa)
#
#
# Indices 1 2 3 4 5 6 
#
# 1 0.010971 -0.002904 -0.002710 0.000000 0.000000 0.000000
# 2 -0.002904 0.014246 -0.003462 0.000000 0.000000 0.000000
# 3 -0.002710 -0.003462 0.014236 0.000000 0.000000 0.000000
# 4 0.000000 0.000000 0.000000 0.043665 0.000000 0.000000
# 5 0.000000 0.000000 0.000000 0.000000 0.043256 0.000000
# 6 0.000000 0.000000 0.000000 0.000000 0.000000 0.054535
#
#
# Mechanical properties :
#
#
# Convention : Reuss Voigt Hill
#
# Bulk Modulus (GPa) = 46.94608 47.64518 47.29563
# Shear Modulus (GPa) = 24.25282 25.44854 24.85068
#
# Velocity S-wave (km/s) = 3.47388 3.55848 3.51643
# Velocity P-wave (km/s) = 6.28093 6.37112 6.32619
#
# Compressibility (1/GPa) = 0.02130103
#
# Stress axis : x y z
#
# Youngs Moduli (GPa) = 91.15230 70.19309 70.24666
#
# Poissons Ratio (x) = 0.20383 0.19038
# Poissons Ratio (y) = 0.26470 0.24317
# Poissons Ratio (z) = 0.24704 0.24299
#
# Static dielectric constant tensor:
#      x y z
#    x 3.858450 0.000000 0.000000 
#    y 0.000000 3.483100 0.000000 
#    z 0.000000 0.000000 3.712510 
# 
# 
# High freq. dielectric constant tensor:
#      x y z
#    x 1.801710 0.000000 0.000000 
#    y 0.000000 1.742150 0.000000 
#    z 0.000000 0.000000 1.780920 
# 
# From -- ./inp_files/16857.got.cif
#   From: 2010.03.12/outbox.cif.g09.slc.cpg/sg51_9_cif.got.tgz:16857.got - 2010.04.16 13:43:02.
