data_PCOD8212195
_publ_section_title
;
Structure prediction by ZEFSAII (Michael W. Deem and Ramdas Pophale) SiO2 
 PCOD8212195
Probable space group: P M M A
;
_chemical_formula_sum "Si O2"
_cell_formula_units_Z 64
_cell_length_a 14.015895
_cell_length_b 9.172492
_cell_length_c 25.422409
_cell_angle_alpha 90.000000
_cell_angle_beta 90.000000
_cell_angle_gamma 90.000000
_cell_volume 3268.322309
_symmetry_space_group_name_H-M "P M M A"
_symmetry_group_IT_number 51
_symmetry_cell_setting 'orthorhombic'
loop_
_space_group_symop_operation_xyz
x,y,z
1/2-x,-y,z
1/2+x,-y,-z
-x,y,-z
-x,-y,-z
1/2+x,y,-z
1/2-x,y,z
x,-y,z
loop_
_atom_site_type_symbol
_atom_site_label
_atom_site_fract_x
_atom_site_fract_y
_atom_site_fract_z
Si Si1 0.969150 0.329494 0.125292
Si Si2 0.359269 0.829424 0.085810
Si Si3 0.476336 0.828216 0.680657
Si Si4 0.636643 0.161835 0.531763
Si Si5 0.639992 0.329534 0.634441
Si Si6 0.355607 0.172616 0.582899
Si Si7 0.860892 0.169341 0.215977
Si Si8 0.358306 0.665218 0.979928
O O1 0.981376 0.500000 0.135849
O O2 0.898140 0.264842 0.168080
O O3 0.925771 0.295096 0.068311
O O4 0.072630 0.251897 0.127713
O O5 0.250000 0.794202 0.101202
O O6 0.380542 0.000000 0.087771
O O7 0.381975 0.773145 0.027329
O O8 0.579016 0.748527 0.680278
O O9 0.419949 0.766329 0.629995
O O10 0.418434 0.783462 0.732303
O O11 0.493010 0.000000 0.678096
O O12 0.750000 0.155696 0.525526
O O13 0.605532 0.272099 0.577357
O O14 0.597059 0.211420 0.474165
O O15 0.597962 0.000000 0.546628
O O16 0.750000 0.289154 0.644523
O O17 0.621935 0.500000 0.636452
O O18 0.250000 0.242228 0.588296
O O19 0.346855 0.000000 0.588263
O O20 0.750000 0.203188 0.225760
O O21 0.877036 0.000000 0.202776
O O22 0.250000 0.684049 0.960469
O O23 0.376951 0.500000 0.999659
#
# Coordination Sequence:
#
# PCOD8212195 Si02
#       8
#     8   8   8   8   8   8   8   8
#     4  11  22  36  57  83 112 150 192 229 269 321
#     4  10  21  36  55  82 116 151 187 230 278 324
#     4  10  20  35  57  81 103 133 175 220 266 316
#     4   8  14  27  49  75 102 134 171 210 254 308
#     4  10  21  36  52  72 103 140 175 215 263 314
#     4   8  14  27  50  79 107 134 168 211 258 312
#     4  10  22  40  61  85 112 140 173 219 273 323
#     4   9  18  33  53  80 115 152 188 225 269 324
#
# _framework density 19.581911999999999
#
# number of rings (size 3 to 8) (size 9 to 14) (size 15 to 20)
#    0.000    2.500    0.000    3.000    0.000    7.250 
#    0.000    5.000    0.000    2.625    0.000    0.000 
#    0.000    0.000    0.000    0.000    0.000    0.000 
#
# Total GULP energy -793593.027691 kJ/mol
# GULP energy per Si atom -12399.891058 kJ/mol
# Density = 1.953734 g / cm^3
# Si number density = 19.581912 Si / 1000 Ang^3
#
#
#
# Elastic Constant Matrix: (Units=GPa)
#
#
# Indices 1 2 3 4 5 6 
#
# 1 93.5473 50.7308 41.7460 0.0000 0.0000 0.0000
# 2 50.7308 77.5909 40.8426 0.0000 0.0000 0.0000
# 3 41.7460 40.8426 54.5248 0.0000 0.0000 0.0000
# 4 0.0000 0.0000 0.0000 3.5244 0.0000 0.0000
# 5 0.0000 0.0000 0.0000 0.0000 34.4024 0.0000
# 6 0.0000 0.0000 0.0000 0.0000 0.0000 24.5137
#
#
#
# Elastic Compliance Matrix: (Units=1/GPa)
#
#
# Indices 1 2 3 4 5 6 
#
# 1 0.018682 -0.007736 -0.008509 0.000000 0.000000 0.000000
# 2 -0.007736 0.024481 -0.012415 0.000000 0.000000 0.000000
# 3 -0.008509 -0.012415 0.034155 0.000000 0.000000 0.000000
# 4 0.000000 0.000000 0.000000 0.283733 0.000000 0.000000
# 5 0.000000 0.000000 0.000000 0.000000 0.029068 0.000000
# 6 0.000000 0.000000 0.000000 0.000000 0.000000 0.040793
#
#
# Mechanical properties :
#
#
# Convention : Reuss Voigt Hill
#
# Bulk Modulus (GPa) = 50.00479 54.70021 52.35250
# Shear Modulus (GPa) = 10.10308 18.64435 14.37372
#
# Velocity S-wave (km/s) = 2.27389 3.08899 2.71224
# Velocity P-wave (km/s) = 5.69963 6.38100 6.04992
#
# Compressibility (1/GPa) = 0.01999809
#
# Stress axis : x y z
#
# Youngs Moduli (GPa) = 53.52708 40.84784 29.27845
#
# Poissons Ratio (x) = 0.31599 0.24913
# Poissons Ratio (y) = 0.41408 0.36350
# Poissons Ratio (z) = 0.45546 0.50713
#
# Static dielectric constant tensor:
#      x y z
#    x 3.787540 0.000000 0.000000 
#    y 0.000000 3.349430 0.000000 
#    z 0.000000 0.000000 3.493150 
# 
# 
# High freq. dielectric constant tensor:
#      x y z
#    x 1.778120 0.000000 0.000000 
#    y 0.000000 1.740340 0.000000 
#    z 0.000000 0.000000 1.745940 
# 
# From -- ./inp_files/35727.got.cif
#   From: 2010.03.12/outbox.cif.g09.slc.cpg/sg51_18_cif.got.tgz:35727.got - 2010.04.16 13:43:02.
