data_PCOD8212066
_publ_section_title
;
Structure prediction by ZEFSAII (Michael W. Deem and Ramdas Pophale) SiO2 
 PCOD8212066
Probable space group: P M M A
;
_chemical_formula_sum "Si O2"
_cell_formula_units_Z 44
_cell_length_a 8.949710
_cell_length_b 26.901335
_cell_length_c 9.943202
_cell_angle_alpha 90.000000
_cell_angle_beta 90.000000
_cell_angle_gamma 90.000000
_cell_volume 2393.916831
_symmetry_space_group_name_H-M "P M M A"
_symmetry_group_IT_number 51
_symmetry_cell_setting 'orthorhombic'
loop_
_space_group_symop_operation_xyz
x,y,z
1/2-x,-y,z
1/2+x,-y,-z
-x,y,-z
-x,-y,-z
1/2+x,y,-z
1/2-x,y,z
x,-y,z
loop_
_atom_site_type_symbol
_atom_site_label
_atom_site_fract_x
_atom_site_fract_y
_atom_site_fract_z
Si Si1 0.422626 0.624389 0.140495
Si Si2 0.426303 0.000000 0.853407
Si Si3 0.574144 0.194042 0.361622
Si Si4 0.424539 0.080066 0.638358
Si Si5 0.077004 0.738803 0.140788
Si Si6 0.576581 0.557385 0.360471
O O1 0.250000 0.609621 0.128800
O O2 0.442566 0.681577 0.183266
O O3 0.501614 0.590498 0.248491
O O4 0.500000 0.613293 0.000000
O O5 0.478230 0.951986 0.766831
O O6 0.250000 0.000000 0.876497
O O7 0.500000 0.000000 0.000000
O O8 0.500000 0.211284 0.500000
O O9 0.750000 0.202630 0.371085
O O10 0.533234 0.136933 0.330158
O O11 0.506365 0.227609 0.246940
O O12 0.500000 0.061687 0.500000
O O13 0.250000 0.072638 0.615489
O O14 0.250000 0.753826 0.131564
O O15 0.000000 0.749663 0.000000
O O16 0.500000 0.571088 0.500000
O O17 0.750000 0.570628 0.371691
O O18 0.550778 0.500000 0.322859
#
# Coordination Sequence:
#
# PCOD8212066 Si02
#       6
#     8   4   8   8   8   8
#     4  10  21  37  57  80 107 140 179 220 263 314
#     4  10  21  36  52  76 108 138 173 216 260 310
#     4  10  20  35  55  80 108 139 177 220 264 314
#     4   9  19  35  55  78 104 136 175 216 260 311
#     4  10  21  37  56  79 107 141 178 218 266 316
#     4  10  21  37  57  81 109 141 177 218 265 315
#
# _framework density 18.379921
#
# number of rings (size 3 to 8) (size 9 to 14) (size 15 to 20)
#    0.000    2.182    0.000    2.455    0.000    6.545 
#    0.000    1.818    0.000    0.000    0.000    0.000 
#    0.000    0.000    0.000    0.000    0.000    0.000 
#
# Total GULP energy -545713.194677 kJ/mol
# GULP energy per Si atom -12402.572606 kJ/mol
# Density = 1.833809 g / cm^3
# Si number density = 18.379921 Si / 1000 Ang^3
#
#
#
# Elastic Constant Matrix: (Units=GPa)
#
#
# Indices 1 2 3 4 5 6 
#
# 1 121.7878 65.0938 82.8085 0.0000 0.0000 0.0000
# 2 65.0938 94.4117 90.0376 0.0000 0.0000 0.0000
# 3 82.8085 90.0376 151.0840 0.0000 0.0000 0.0000
# 4 0.0000 0.0000 0.0000 43.1713 0.0000 0.0000
# 5 0.0000 0.0000 0.0000 0.0000 42.3279 0.0000
# 6 0.0000 0.0000 0.0000 0.0000 0.0000 22.0866
#
#
#
# Elastic Compliance Matrix: (Units=1/GPa)
#
#
# Indices 1 2 3 4 5 6 
#
# 1 0.014221 -0.005494 -0.004520 0.000000 0.000000 0.000000
# 2 -0.005494 0.026660 -0.012876 0.000000 0.000000 0.000000
# 3 -0.004520 -0.012876 0.016770 0.000000 0.000000 0.000000
# 4 0.000000 0.000000 0.000000 0.023164 0.000000 0.000000
# 5 0.000000 0.000000 0.000000 0.000000 0.023625 0.000000
# 6 0.000000 0.000000 0.000000 0.000000 0.000000 0.045276
#
#
# Mechanical properties :
#
#
# Convention : Reuss Voigt Hill
#
# Bulk Modulus (GPa) = 84.25182 93.68480 88.96831
# Shear Modulus (GPa) = 25.06844 30.14007 27.60426
#
# Velocity S-wave (km/s) = 3.69711 4.05388 3.87960
# Velocity P-wave (km/s) = 8.01021 8.54365 8.28122
#
# Compressibility (1/GPa) = 0.01186918
#
# Stress axis : x y z
#
# Youngs Moduli (GPa) = 70.31824 37.50973 59.62998
#
# Poissons Ratio (x) = 0.20608 0.26955
# Poissons Ratio (y) = 0.38633 0.76782
# Poissons Ratio (z) = 0.31787 0.48299
#
# Static dielectric constant tensor:
#      x y z
#    x 3.522630 0.000000 0.000000 
#    y 0.000000 3.503470 0.000000 
#    z 0.000000 0.000000 3.420250 
# 
# 
# High freq. dielectric constant tensor:
#      x y z
#    x 1.726560 0.000000 0.000000 
#    y 0.000000 1.716470 0.000000 
#    z 0.000000 0.000000 1.717990 
# 
# From -- ./inp_files/5864.got.cif
#   From: 2010.03.12/outbox.cif.g09.slc.cpg/sg51_3_cif.got.tgz:5864.got - 2010.04.16 13:43:02.
