data_PCOD8212511
_publ_section_title
;
Structure prediction by ZEFSAII (Michael W. Deem and Ramdas Pophale) SiO2 
 PCOD8212511
Probable space group: P M M A
;
_chemical_formula_sum "Si O2"
_cell_formula_units_Z 64
_cell_length_a 23.760302
_cell_length_b 9.030002
_cell_length_c 15.409667
_cell_angle_alpha 90.000000
_cell_angle_beta 90.000000
_cell_angle_gamma 90.000000
_cell_volume 3306.229957
_symmetry_space_group_name_H-M "P M M A"
_symmetry_group_IT_number 51
_symmetry_cell_setting 'orthorhombic'
loop_
_space_group_symop_operation_xyz
x,y,z
1/2-x,-y,z
1/2+x,-y,-z
-x,y,-z
-x,-y,-z
1/2+x,y,-z
1/2-x,y,z
x,-y,z
loop_
_atom_site_type_symbol
_atom_site_label
_atom_site_fract_x
_atom_site_fract_y
_atom_site_fract_z
Si Si1 0.001848 0.674351 0.348302
Si Si2 0.611820 0.170584 0.594538
Si Si3 0.879097 0.326453 0.087879
Si Si4 0.003546 0.673040 0.149328
Si Si5 0.315293 0.828884 0.759680
Si Si6 0.609215 0.830788 0.400767
Si Si7 0.812987 0.175894 0.751180
Si Si8 0.387114 0.824266 0.086914
O O1 0.004474 0.500000 0.356757
O O2 0.053803 0.742013 0.399507
O O3 0.003823 0.725536 0.248613
O O4 0.944692 0.727836 0.391741
O O5 0.635508 0.190183 0.496968
O O6 0.657369 0.233586 0.662968
O O7 0.598990 0.000000 0.616385
O O8 0.870190 0.500000 0.074700
O O9 0.839646 0.273338 0.165253
O O10 0.943481 0.287603 0.109042
O O11 0.860654 0.241781 0.000766
O O12 0.017486 0.500000 0.139736
O O13 0.049728 0.765029 0.097286
O O14 0.250000 0.794328 0.749276
O O15 0.343711 0.784757 0.668573
O O16 0.326529 0.000000 0.783171
O O17 0.589930 0.000000 0.386676
O O18 0.750000 0.242848 0.755693
O O19 0.848694 0.232338 0.833475
O O20 0.809825 0.000000 0.751283
O O21 0.388046 0.000000 0.081033
#
# Coordination Sequence:
#
# PCOD8212511 Si02
#       8
#     8   8   8   8   8   8   8   8
#     4  11  21  35  57  84 116 152 188 230 282 340
#     4  10  20  36  58  86 115 148 189 233 282 338
#     4  11  23  40  60  84 115 151 191 233 284 345
#     4  10  21  37  57  82 114 151 187 232 285 339
#     4  10  22  40  60  84 114 149 192 241 287 333
#     4  10  21  36  58  86 117 148 185 235 286 336
#     4   9  19  36  57  81 111 147 187 230 276 329
#     4  11  22  36  59  89 116 148 189 234 287 342
#
# _framework density 19.357395
#
# number of rings (size 3 to 8) (size 9 to 14) (size 15 to 20)
#    0.000    1.750    2.500    1.875    0.000    6.250 
#    0.000    3.750    0.000    3.000    0.000    1.750 
#    0.000    0.000    0.000    0.000    0.000    0.000 
#
# Total GULP energy -793858.590498 kJ/mol
# GULP energy per Si atom -12404.040477 kJ/mol
# Density = 1.931334 g / cm^3
# Si number density = 19.357395 Si / 1000 Ang^3
#
#
#
# Elastic Constant Matrix: (Units=GPa)
#
#
# Indices 1 2 3 4 5 6 
#
# 1 119.8821 27.3159 49.4916 0.0000 0.0000 0.0000
# 2 27.3159 39.2120 29.0903 0.0000 0.0000 0.0000
# 3 49.4916 29.0903 144.9337 0.0000 0.0000 0.0000
# 4 0.0000 0.0000 0.0000 23.1440 0.0000 0.0000
# 5 0.0000 0.0000 0.0000 0.0000 7.0627 0.0000
# 6 0.0000 0.0000 0.0000 0.0000 0.0000 11.0022
#
#
#
# Elastic Compliance Matrix: (Units=1/GPa)
#
#
# Indices 1 2 3 4 5 6 
#
# 1 0.010646 -0.005545 -0.002523 0.000000 0.000000 0.000000
# 2 -0.005545 0.032852 -0.004700 0.000000 0.000000 0.000000
# 3 -0.002523 -0.004700 0.008705 0.000000 0.000000 0.000000
# 4 0.000000 0.000000 0.000000 0.043208 0.000000 0.000000
# 5 0.000000 0.000000 0.000000 0.000000 0.141589 0.000000
# 6 0.000000 0.000000 0.000000 0.000000 0.000000 0.090891
#
#
# Mechanical properties :
#
#
# Convention : Reuss Voigt Hill
#
# Bulk Modulus (GPa) = 37.49924 57.31369 47.40647
# Shear Modulus (GPa) = 13.80011 21.45045 17.62528
#
# Velocity S-wave (km/s) = 2.67294 3.33247 3.02075
# Velocity P-wave (km/s) = 5.37961 6.66930 6.05887
#
# Compressibility (1/GPa) = 0.02666720
#
# Stress axis : x y z
#
# Youngs Moduli (GPa) = 93.92846 30.43921 114.88267
#
# Poissons Ratio (x) = 0.16879 0.28979
# Poissons Ratio (y) = 0.52084 0.54000
# Poissons Ratio (z) = 0.23694 0.14308
#
# Static dielectric constant tensor:
#      x y z
#    x 3.511340 0.000000 0.000000 
#    y 0.000000 3.411870 0.000000 
#    z 0.000000 0.000000 3.807630 
# 
# 
# High freq. dielectric constant tensor:
#      x y z
#    x 1.746070 0.000000 0.000000 
#    y 0.000000 1.737680 0.000000 
#    z 0.000000 0.000000 1.772880 
# 
# From -- ./inp_files/26294.got.cif
#   From: 2010.03.12/outbox.cif.g09.slc.cpg/sg51_14_cif.got.tgz:26294.got - 2010.04.16 13:43:02.
