data_PCOD8212321
_publ_section_title
;
Structure prediction by ZEFSAII (Michael W. Deem and Ramdas Pophale) SiO2 
 PCOD8212321
Probable space group: P M M A
;
_chemical_formula_sum "Si O2"
_cell_formula_units_Z 64
_cell_length_a 18.652959
_cell_length_b 8.880930
_cell_length_c 19.750367
_cell_angle_alpha 90.000000
_cell_angle_beta 90.000000
_cell_angle_gamma 90.000000
_cell_volume 3271.759353
_symmetry_space_group_name_H-M "P M M A"
_symmetry_group_IT_number 51
_symmetry_cell_setting 'orthorhombic'
loop_
_space_group_symop_operation_xyz
x,y,z
1/2-x,-y,z
1/2+x,-y,-z
-x,y,-z
-x,-y,-z
1/2+x,y,-z
1/2-x,y,z
x,-y,z
loop_
_atom_site_type_symbol
_atom_site_label
_atom_site_fract_x
_atom_site_fract_y
_atom_site_fract_z
Si Si1 0.423515 0.829033 0.836951
Si Si2 0.167345 0.676313 0.465432
Si Si3 0.078488 0.676933 0.596396
Si Si4 0.830710 0.322275 0.894439
Si Si5 0.919432 0.825718 0.010295
Si Si6 0.831697 0.172955 0.289672
Si Si7 0.440101 0.323389 0.219478
Si Si8 0.934632 0.177881 0.634748
O O1 0.395728 0.796243 0.912463
O O2 0.355967 0.806239 0.787740
O O3 0.486177 0.714104 0.818181
O O4 0.453598 0.000000 0.831734
O O5 0.250000 0.719293 0.475937
O O6 0.157422 0.500000 0.451621
O O7 0.125205 0.728189 0.532358
O O8 0.137923 0.766680 0.401024
O O9 0.064916 0.500000 0.596771
O O10 0.119541 0.721725 0.664336
O O11 0.001791 0.756980 0.592958
O O12 0.750000 0.260138 0.886602
O O13 0.831701 0.500000 0.900101
O O14 0.875063 0.270677 0.828535
O O15 0.864392 0.260714 0.963114
O O16 0.916367 0.000000 0.990054
O O17 0.000000 0.763729 0.000000
O O18 0.750000 0.226520 0.295764
O O19 0.840866 0.000000 0.312969
O O20 0.437370 0.500000 0.235704
O O21 0.434749 0.232470 0.288547
O O22 0.939229 0.000000 0.633892
#
# Coordination Sequence:
#
# PCOD8212321 Si02
#       8
#     8   8   8   8   8   8   8   8
#     4  10  20  36  58  85 120 156 195 244 296 355
#     4  10  23  43  64  88 122 161 200 247 301 357
#     4  11  22  39  64  92 120 157 204 248 296 354
#     4  10  23  41  60  87 122 158 201 252 305 360
#     4  10  20  35  59  89 119 155 200 245 294 354
#     4  10  21  36  56  85 121 160 197 240 299 357
#     4  11  22  38  62  88 116 157 204 250 303 360
#     4  12  25  40  62  92 124 157 201 253 303 360
#
# _framework density 19.561342
#
# number of rings (size 3 to 8) (size 9 to 14) (size 15 to 20)
#    0.000    1.500    2.500    2.625    0.000    6.000 
#    0.000    2.500    0.000    0.000    0.000    0.000 
#    0.000    0.000    0.000    0.000    0.000    0.000 
#
# Total GULP energy -793935.801125 kJ/mol
# GULP energy per Si atom -12405.246893 kJ/mol
# Density = 1.951682 g / cm^3
# Si number density = 19.561342 Si / 1000 Ang^3
#
#
#
# Elastic Constant Matrix: (Units=GPa)
#
#
# Indices 1 2 3 4 5 6 
#
# 1 115.5178 38.0334 53.3736 0.0000 0.0000 0.0000
# 2 38.0334 63.9901 38.6923 0.0000 0.0000 0.0000
# 3 53.3736 38.6923 92.6980 0.0000 0.0000 0.0000
# 4 0.0000 0.0000 0.0000 30.8639 0.0000 0.0000
# 5 0.0000 0.0000 0.0000 0.0000 34.0681 0.0000
# 6 0.0000 0.0000 0.0000 0.0000 0.0000 22.5415
#
#
#
# Elastic Compliance Matrix: (Units=1/GPa)
#
#
# Indices 1 2 3 4 5 6 
#
# 1 0.012563 -0.004137 -0.005507 0.000000 0.000000 0.000000
# 2 -0.004137 0.022266 -0.006911 0.000000 0.000000 0.000000
# 3 -0.005507 -0.006911 0.016843 0.000000 0.000000 0.000000
# 4 0.000000 0.000000 0.000000 0.032400 0.000000 0.000000
# 5 0.000000 0.000000 0.000000 0.000000 0.029353 0.000000
# 6 0.000000 0.000000 0.000000 0.000000 0.000000 0.044363
#
#
# Mechanical properties :
#
#
# Convention : Reuss Voigt Hill
#
# Bulk Modulus (GPa) = 53.87665 59.15606 56.51636
# Shear Modulus (GPa) = 25.36964 26.96847 26.16905
#
# Velocity S-wave (km/s) = 3.60519 3.71706 3.66156
# Velocity P-wave (km/s) = 6.70314 6.98062 6.84329
#
# Compressibility (1/GPa) = 0.01856091
#
# Stress axis : x y z
#
# Youngs Moduli (GPa) = 79.59769 44.91218 59.37126
#
# Poissons Ratio (x) = 0.18582 0.32694
# Poissons Ratio (y) = 0.32933 0.41034
# Poissons Ratio (z) = 0.43831 0.31041
#
# Static dielectric constant tensor:
#      x y z
#    x 3.714540 0.000000 0.000000 
#    y 0.000000 3.494350 0.000000 
#    z 0.000000 0.000000 3.689410 
# 
# 
# High freq. dielectric constant tensor:
#      x y z
#    x 1.763820 0.000000 0.000000 
#    y 0.000000 1.756280 0.000000 
#    z 0.000000 0.000000 1.774810 
# 
# From -- ./inp_files/33978.got.cif
#   From: 2010.03.12/outbox.cif.g09.slc.cpg/sg51_17_cif.got.tgz:33978.got - 2010.04.16 13:43:02.
