data_PCOD8212674
_publ_section_title
;
Structure prediction by ZEFSAII (Michael W. Deem and Ramdas Pophale) SiO2 
 PCOD8212674
Probable space group: P M M A
;
_chemical_formula_sum "Si O2"
_cell_formula_units_Z 48
_cell_length_a 8.565816
_cell_length_b 30.463925
_cell_length_c 9.539882
_cell_angle_alpha 90.000000
_cell_angle_beta 90.000000
_cell_angle_gamma 90.000000
_cell_volume 2489.416717
_symmetry_space_group_name_H-M "P M M A"
_symmetry_group_IT_number 51
_symmetry_cell_setting 'orthorhombic'
loop_
_space_group_symop_operation_xyz
x,y,z
1/2-x,-y,z
1/2+x,-y,-z
-x,y,-z
-x,-y,-z
1/2+x,y,-z
1/2-x,y,z
x,-y,z
loop_
_atom_site_type_symbol
_atom_site_label
_atom_site_fract_x
_atom_site_fract_y
_atom_site_fract_z
Si Si1 0.566079 0.251223 0.146758
Si Si2 0.935527 0.000000 0.157681
Si Si3 0.065369 0.577464 0.650708
Si Si4 0.564542 0.848370 0.152081
Si Si5 0.935245 0.078481 0.657007
Si Si6 0.565221 0.324716 0.350877
Si Si7 0.934988 0.500000 0.154392
O O1 0.750000 0.253851 0.142689
O O2 0.514301 0.201718 0.183864
O O3 0.494832 0.286957 0.252249
O O4 0.500000 0.266156 0.000000
O O5 0.993442 0.957762 0.241021
O O6 0.750000 0.000000 0.150582
O O7 0.000000 0.000000 0.000000
O O8 0.250000 0.575283 0.640184
O O9 0.008819 0.626454 0.694442
O O10 0.002130 0.543273 0.765758
O O11 0.000000 0.563844 0.500000
O O12 0.750000 0.855475 0.153677
O O13 0.484691 0.875059 0.277611
O O14 0.500000 0.863323 0.000000
O O15 0.750000 0.073706 0.651924
O O16 0.000000 0.073361 0.500000
O O17 0.500000 0.312260 0.500000
O O18 0.750000 0.322934 0.353295
O O19 0.750000 0.500000 0.148894
O O20 0.000000 0.500000 0.000000
#
# Coordination Sequence:
#
# PCOD8212674 Si02
#       7
#     8   4   8   8   8   8   4
#     4   9  19  34  53  77 107 140 178 220 266 316
#     4  12  25  44  67  92 120 154 192 230 273 326
#     4   9  18  33  52  72  98 131 171 213 259 312
#     4  10  20  37  58  82 111 147 187 228 272 325
#     4  12  25  42  62  88 119 152 188 231 279 327
#     4   9  18  33  51  74 102 134 171 216 263 314
#     4  10  21  34  48  72 102 132 165 210 260 312
#
# _framework density 19.281624999999998
#
# number of rings (size 3 to 8) (size 9 to 14) (size 15 to 20)
#    0.000    2.000    0.000    3.750    0.000    3.333 
#    0.000    1.667    0.000    0.000    0.000    0.000 
#    0.000    0.000    0.000    0.000    0.000    0.000 
#
# Total GULP energy -595154.671415 kJ/mol
# GULP energy per Si atom -12399.055654 kJ/mol
# Density = 1.923774 g / cm^3
# Si number density = 19.281625 Si / 1000 Ang^3
#
#
#
# Elastic Constant Matrix: (Units=GPa)
#
#
# Indices 1 2 3 4 5 6 
#
# 1 68.5621 35.0684 46.4799 0.0000 0.0000 0.0000
# 2 35.0684 142.9295 108.8693 0.0000 0.0000 0.0000
# 3 46.4799 108.8693 173.9853 0.0000 0.0000 0.0000
# 4 0.0000 0.0000 0.0000 44.8509 0.0000 0.0000
# 5 0.0000 0.0000 0.0000 0.0000 36.3314 0.0000
# 6 0.0000 0.0000 0.0000 0.0000 0.0000 21.5984
#
#
#
# Elastic Compliance Matrix: (Units=1/GPa)
#
#
# Indices 1 2 3 4 5 6 
#
# 1 0.017964 -0.001437 -0.003900 0.000000 0.000000 0.000000
# 2 -0.001437 0.013483 -0.008053 0.000000 0.000000 0.000000
# 3 -0.003900 -0.008053 0.011828 0.000000 0.000000 0.000000
# 4 0.000000 0.000000 0.000000 0.022296 0.000000 0.000000
# 5 0.000000 0.000000 0.000000 0.000000 0.027524 0.000000
# 6 0.000000 0.000000 0.000000 0.000000 0.000000 0.046300
#
#
# Mechanical properties :
#
#
# Convention : Reuss Voigt Hill
#
# Bulk Modulus (GPa) = 60.62104 85.14578 72.88341
# Shear Modulus (GPa) = 29.12497 33.56010 31.34254
#
# Velocity S-wave (km/s) = 3.89074 4.17648 4.03614
# Velocity P-wave (km/s) = 7.18970 8.21658 7.72024
#
# Compressibility (1/GPa) = 0.01649592
#
# Stress axis : x y z
#
# Youngs Moduli (GPa) = 55.66640 74.16794 84.54189
#
# Poissons Ratio (x) = 0.10658 0.32970
# Poissons Ratio (y) = 0.08000 0.68081
# Poissons Ratio (z) = 0.21709 0.59727
#
# Static dielectric constant tensor:
#      x y z
#    x 3.489180 0.000000 0.000000 
#    y 0.000000 4.042540 0.000000 
#    z 0.000000 0.000000 3.734690 
# 
# 
# High freq. dielectric constant tensor:
#      x y z
#    x 1.748440 0.000000 0.000000 
#    y 0.000000 1.767660 0.000000 
#    z 0.000000 0.000000 1.751040 
# 
# From -- ./inp_files/6117.got.cif
#   From: 2010.03.12/outbox.cif.g09.slc.cpg/sg51_4_cif.got.tgz:6117.got - 2010.04.16 13:43:02.
