data_PCOD8212422
_publ_section_title
;
Structure prediction by ZEFSAII (Michael W. Deem and Ramdas Pophale) SiO2 
 PCOD8212422
Probable space group: P M M A
;
_chemical_formula_sum "Si O2"
_cell_formula_units_Z 48
_cell_length_a 8.676785
_cell_length_b 30.284781
_cell_length_c 9.554704
_cell_angle_alpha 90.000000
_cell_angle_beta 90.000000
_cell_angle_gamma 90.000000
_cell_volume 2510.732886
_symmetry_space_group_name_H-M "P M M A"
_symmetry_group_IT_number 51
_symmetry_cell_setting 'orthorhombic'
loop_
_space_group_symop_operation_xyz
x,y,z
1/2-x,-y,z
1/2+x,-y,-z
-x,y,-z
-x,-y,-z
1/2+x,y,-z
1/2-x,y,z
x,-y,z
loop_
_atom_site_type_symbol
_atom_site_label
_atom_site_fract_x
_atom_site_fract_y
_atom_site_fract_z
Si Si1 0.568662 0.549457 0.145671
Si Si2 0.432760 0.205005 0.852661
Si Si3 0.932202 0.049713 0.147922
Si Si4 0.932838 0.373078 0.346448
Si Si5 0.568689 0.125936 0.347445
Si Si6 0.066927 0.700330 0.149748
O O1 0.750000 0.549676 0.128820
O O2 0.507849 0.500000 0.180126
O O3 0.516007 0.582000 0.268727
O O4 0.500000 0.566873 0.000000
O O5 0.250000 0.210971 0.866026
O O6 0.480440 0.169682 0.735923
O O7 0.509209 0.251092 0.809335
O O8 0.500000 0.188261 0.000000
O O9 0.750000 0.052973 0.135545
O O10 0.995361 0.082684 0.266987
O O11 0.985828 0.000000 0.186140
O O12 0.000000 0.064853 0.000000
O O13 0.750000 0.367235 0.350094
O O14 0.000000 0.375981 0.500000
O O15 0.007493 0.331723 0.269558
O O16 0.500000 0.128033 0.500000
O O17 0.750000 0.122789 0.360583
O O18 0.250000 0.699473 0.141906
O O19 0.000000 0.685358 0.000000
#
# Coordination Sequence:
#
# PCOD8212422 Si02
#       6
#     8   8   8   8   8   8
#     4   9  19  36  58  83 110 142 182 226 270 319
#     4  10  20  36  57  81 107 137 179 225 269 318
#     4   9  18  34  55  79 106 137 176 220 264 312
#     4  11  23  38  56  81 114 149 185 225 273 326
#     4  10  22  36  52  77 109 143 177 217 264 318
#     4  11  22  38  60  84 110 142 182 226 273 323
#
# _framework density 19.117925
#
# number of rings (size 3 to 8) (size 9 to 14) (size 15 to 20)
#    0.000    2.000    0.000    4.500    0.000    6.000 
#    0.000    1.667    0.000    0.000    0.000    0.000 
#    0.000    0.000    0.000    0.000    0.000    0.000 
#
# Total GULP energy -595307.210783 kJ/mol
# GULP energy per Si atom -12402.233558 kJ/mol
# Density = 1.907441 g / cm^3
# Si number density = 19.117925 Si / 1000 Ang^3
#
#
#
# Elastic Constant Matrix: (Units=GPa)
#
#
# Indices 1 2 3 4 5 6 
#
# 1 74.8994 52.8066 54.9503 0.0000 0.0000 0.0000
# 2 52.8066 137.8906 114.2956 0.0000 0.0000 0.0000
# 3 54.9503 114.2956 187.1823 0.0000 0.0000 0.0000
# 4 0.0000 0.0000 0.0000 -80.5869 0.0000 0.0000
# 5 0.0000 0.0000 0.0000 0.0000 36.9250 0.0000
# 6 0.0000 0.0000 0.0000 0.0000 0.0000 17.3097
#
#
#
# Elastic Compliance Matrix: (Units=1/GPa)
#
#
# Indices 1 2 3 4 5 6 
#
# 1 0.018753 -0.005302 -0.002268 0.000000 0.000000 0.000000
# 2 -0.005302 0.016183 -0.008325 0.000000 0.000000 0.000000
# 3 -0.002268 -0.008325 0.011092 0.000000 0.000000 0.000000
# 4 0.000000 0.000000 0.000000 -0.012409 0.000000 0.000000
# 5 0.000000 0.000000 0.000000 0.000000 0.027082 0.000000
# 6 0.000000 0.000000 0.000000 0.000000 0.000000 0.057771
#
#
# Mechanical properties :
#
#
# Convention : Reuss Voigt Hill
#
# Bulk Modulus (GPa) = 70.23461 93.78637 82.01049
# Shear Modulus (GPa) = 32.25651 6.59090 19.42370
#
# Velocity S-wave (km/s) = 4.11206 1.85876 3.19092
# Velocity P-wave (km/s) = 7.70472 7.33280 7.52106
#
# Compressibility (1/GPa) = 0.01423800
#
# Stress axis : x y z
#
# Youngs Moduli (GPa) = 53.32462 61.79277 90.15833
#
# Poissons Ratio (x) = 0.32762 0.20447
# Poissons Ratio (y) = 0.28272 0.75058
# Poissons Ratio (z) = 0.12093 0.51443
#
# Static dielectric constant tensor:
#      x y z
#    x 3.483010 0.000000 0.000000 
#    y 0.000000 3.856600 0.000000 
#    z 0.000000 0.000000 3.378190 
# 
# 
# High freq. dielectric constant tensor:
#      x y z
#    x 1.745300 0.000000 0.000000 
#    y 0.000000 1.759040 0.000000 
#    z 0.000000 0.000000 1.741290 
# 
# From -- ./inp_files/6025.got.cif
#   From: 2010.03.12/outbox.cif.g09.slc.cpg/sg51_4_cif.got.tgz:6025.got - 2010.04.16 13:43:02.
