data_PCOD8212003
_publ_section_title
;
Structure prediction by ZEFSAII (Michael W. Deem and Ramdas Pophale) SiO2 
 PCOD8212003
Probable space group: P M M A
;
_chemical_formula_sum "Si O2"
_cell_formula_units_Z 44
_cell_length_a 8.632451
_cell_length_b 27.309675
_cell_length_c 9.854703
_cell_angle_alpha 90.000000
_cell_angle_beta 90.000000
_cell_angle_gamma 90.000000
_cell_volume 2323.240628
_symmetry_space_group_name_H-M "P M M A"
_symmetry_group_IT_number 51
_symmetry_cell_setting 'orthorhombic'
loop_
_space_group_symop_operation_xyz
x,y,z
1/2-x,-y,z
1/2+x,-y,-z
-x,y,-z
-x,-y,-z
1/2+x,y,-z
1/2-x,y,z
x,-y,z
loop_
_atom_site_type_symbol
_atom_site_label
_atom_site_fract_x
_atom_site_fract_y
_atom_site_fract_z
Si Si1 0.930227 0.810308 0.142957
Si Si2 0.930038 0.075436 0.144030
Si Si3 0.433804 0.364654 0.647318
Si Si4 0.067406 0.262524 0.353224
Si Si5 0.566767 0.000000 0.651439
Si Si6 0.066935 0.445015 0.857527
O O1 0.750000 0.796685 0.147844
O O2 0.959220 0.867434 0.168087
O O3 0.023018 0.782083 0.257678
O O4 0.000000 0.793693 0.000000
O O5 0.750000 0.061893 0.143020
O O6 0.011744 0.048031 0.268050
O O7 0.000000 0.058439 0.000000
O O8 0.500000 0.375900 0.500000
O O9 0.250000 0.362205 0.640927
O O10 0.497097 0.313142 0.704256
O O11 0.494488 0.408149 0.743164
O O12 0.250000 0.268010 0.363965
O O13 0.000000 0.250531 0.500000
O O14 0.500000 0.000000 0.500000
O O15 0.750000 0.000000 0.641009
O O16 0.250000 0.443471 0.866695
O O17 0.008454 0.500000 0.823142
O O18 0.000000 0.426924 0.000000
#
# Coordination Sequence:
#
# PCOD8212003 Si02
#       6
#     8   8   8   8   4   8
#     4  10  21  38  60  86 114 145 184 228 273 324
#     4  10  21  39  62  86 114 148 186 227 273 326
#     4  10  20  35  54  77 107 140 179 223 267 321
#     4  11  22  37  57  80 110 146 184 226 274 327
#     4  12  25  40  59  84 116 150 188 232 277 326
#     4   9  19  35  54  77 105 137 174 218 267 319
#
# _framework density 18.939063000000001
#
# number of rings (size 3 to 8) (size 9 to 14) (size 15 to 20)
#    0.000    1.818    0.000    5.455    0.000    5.455 
#    0.000    1.818    0.000    0.000    0.000    0.000 
#    0.000    0.000    0.000    0.000    0.000    0.000 
#
# Total GULP energy -545752.552595 kJ/mol
# GULP energy per Si atom -12403.467104 kJ/mol
# Density = 1.889596 g / cm^3
# Si number density = 18.939063 Si / 1000 Ang^3
#
#
#
# Elastic Constant Matrix: (Units=GPa)
#
#
# Indices 1 2 3 4 5 6 
#
# 1 114.7983 46.1103 58.7134 0.0000 0.0000 0.0000
# 2 46.1103 103.5057 78.7063 0.0000 0.0000 0.0000
# 3 58.7134 78.7063 132.8112 0.0000 0.0000 0.0000
# 4 0.0000 0.0000 0.0000 29.4160 0.0000 0.0000
# 5 0.0000 0.0000 0.0000 0.0000 37.2436 0.0000
# 6 0.0000 0.0000 0.0000 0.0000 0.0000-6020.5404
#
#
#
# Elastic Compliance Matrix: (Units=1/GPa)
#
#
# Indices 1 2 3 4 5 6 
#
# 1 0.011549 -0.002298 -0.003743 0.000000 0.000000 0.000000
# 2 -0.002298 0.018043 -0.009677 0.000000 0.000000 0.000000
# 3 -0.003743 -0.009677 0.014919 0.000000 0.000000 0.000000
# 4 0.000000 0.000000 0.000000 0.033995 0.000000 0.000000
# 5 0.000000 0.000000 0.000000 0.000000 0.026850 0.000000
# 6 0.000000 0.000000 0.000000 0.000000 0.000000 -0.000166
#
#
# Mechanical properties :
#
#
# Convention : Reuss Voigt Hill
#
# Bulk Modulus (GPa) = 76.48722 79.79723 78.14222
# Shear Modulus (GPa) = 35.46460 -1179.60380 -572.06960
#
# Velocity S-wave (km/s) = 4.33201 -24.98387 -17.39867
# Velocity P-wave (km/s) = 8.09292 28.10753 19.03336
#
# Compressibility (1/GPa) = 0.01307408
#
# Stress axis : x y z
#
# Youngs Moduli (GPa) = 86.59041 55.42167 67.02807
#
# Poissons Ratio (x) = 0.12737 0.25092
# Poissons Ratio (y) = 0.19900 0.64862
# Poissons Ratio (z) = 0.32415 0.53631
#
# Static dielectric constant tensor:
#      x y z
#    x 3.561900 0.000000 0.000000 
#    y 0.000000 3.656320 0.000000 
#    z 0.000000 0.000000 3.466330 
# 
# 
# High freq. dielectric constant tensor:
#      x y z
#    x 1.750400 0.000000 0.000000 
#    y 0.000000 1.744400 0.000000 
#    z 0.000000 0.000000 1.736930 
# 
# From -- ./inp_files/5878.got.cif
#   From: 2010.03.12/outbox.cif.g09.slc.cpg/sg51_3_cif.got.tgz:5878.got - 2010.04.16 13:43:02.
