data_PCOD8212088
_publ_section_title
;
Structure prediction by ZEFSAII (Michael W. Deem and Ramdas Pophale) SiO2 
 PCOD8212088
Probable space group: P M M A
;
_chemical_formula_sum "Si O2"
_cell_formula_units_Z 28
_cell_length_a 8.485551
_cell_length_b 17.636665
_cell_length_c 9.811302
_cell_angle_alpha 90.000000
_cell_angle_beta 90.000000
_cell_angle_gamma 90.000000
_cell_volume 1468.328261
_symmetry_space_group_name_H-M "P M M A"
_symmetry_group_IT_number 51
_symmetry_cell_setting 'orthorhombic'
loop_
_space_group_symop_operation_xyz
x,y,z
1/2-x,-y,z
1/2+x,-y,-z
-x,y,-z
-x,-y,-z
1/2+x,y,-z
1/2-x,y,z
x,-y,z
loop_
_atom_site_type_symbol
_atom_site_label
_atom_site_fract_x
_atom_site_fract_y
_atom_site_fract_z
Si Si1 0.936225 0.500000 0.846638
Si Si2 0.936231 0.915404 0.855538
Si Si3 0.937367 0.209845 0.645383
Si Si4 0.063799 0.373899 0.649236
O O1 0.750000 0.500000 0.852615
O O2 0.994313 0.426203 0.766828
O O3 0.000000 0.500000 0.000000
O O4 0.750000 0.915734 0.859519
O O5 0.998050 0.855406 0.746032
O O6 0.999812 0.000000 0.820226
O O7 0.000000 0.887852 0.000000
O O8 0.750000 0.219662 0.643920
O O9 0.000000 0.183547 0.500000
O O10 0.015272 0.288890 0.688607
O O11 0.250000 0.382525 0.646034
O O12 0.000000 0.397109 0.500000
#
# Coordination Sequence:
#
# PCOD8212088 Si02
#       4
#     4   8   8   8
#     4  12  25  42  61  86 116 146 184 228 275 326
#     4   9  19  35  54  77 107 143 183 226 273 327
#     4  10  20  35  55  81 111 143 183 229 275 325
#     4  11  22  39  61  85 113 148 187 227 275 329
#
# _framework density 19.069306000000001
#
# number of rings (size 3 to 8) (size 9 to 14) (size 15 to 20)
#    0.000    1.714    0.000    6.857    0.000    4.000 
#    0.000    2.857    0.000    0.000    0.000    0.000 
#    0.000    0.000    0.000    0.000    0.000    0.000 
#
# Total GULP energy -347243.069883 kJ/mol
# GULP energy per Si atom -12401.538210 kJ/mol
# Density = 1.902590 g / cm^3
# Si number density = 19.069306 Si / 1000 Ang^3
#
#
#
# Elastic Constant Matrix: (Units=GPa)
#
#
# Indices 1 2 3 4 5 6 
#
# 1 121.4931 46.8250 57.6858 0.0000 0.0000 0.0000
# 2 46.8250 141.0407 122.5786 0.0000 0.0000 0.0000
# 3 57.6858 122.5786 175.2331 0.0000 0.0000 0.0000
# 4 0.0000 0.0000 0.0000 217.1903 0.0000 0.0000
# 5 0.0000 0.0000 0.0000 0.0000 35.4284 0.0000
# 6 0.0000 0.0000 0.0000 0.0000 0.0000 -80.5727
#
#
#
# Elastic Compliance Matrix: (Units=1/GPa)
#
#
# Indices 1 2 3 4 5 6 
#
# 1 0.009828 -0.001151 -0.002431 0.000000 0.000000 0.000000
# 2 -0.001151 0.018220 -0.012366 0.000000 0.000000 0.000000
# 3 -0.002431 -0.012366 0.015157 0.000000 0.000000 0.000000
# 4 0.000000 0.000000 0.000000 0.004604 0.000000 0.000000
# 5 0.000000 0.000000 0.000000 0.000000 0.028226 0.000000
# 6 0.000000 0.000000 0.000000 0.000000 0.000000 -0.012411
#
#
# Mechanical properties :
#
#
# Convention : Reuss Voigt Hill
#
# Bulk Modulus (GPa) = 88.41330 99.10508 93.75919
# Shear Modulus (GPa) = 50.35803 48.45437 49.40620
#
# Velocity S-wave (km/s) = 5.14444 5.04626 5.09559
# Velocity P-wave (km/s) = 9.04167 9.27561 9.15938
#
# Compressibility (1/GPa) = 0.01131052
#
# Stress axis : x y z
#
# Youngs Moduli (GPa) = 101.74557 54.88611 65.97535
#
# Poissons Ratio (x) = 0.06315 0.16036
# Poissons Ratio (y) = 0.11706 0.81586
# Poissons Ratio (z) = 0.24731 0.67873
#
# Static dielectric constant tensor:
#      x y z
#    x 3.567870 0.000000 0.000000 
#    y 0.000000 3.796310 0.000000 
#    z 0.000000 0.000000 3.517290 
# 
# 
# High freq. dielectric constant tensor:
#      x y z
#    x 1.753320 0.000000 0.000000 
#    y 0.000000 1.753180 0.000000 
#    z 0.000000 0.000000 1.742580 
# 
# From -- ./inp_files/4772.got.cif
#   From: 2010.03.12/outbox.cif.g09.slc.cpg/sg51_3_cif.got.tgz:4772.got - 2010.04.16 13:43:02.
