data_PCOD8212681
_publ_section_title
;
Structure prediction by ZEFSAII (Michael W. Deem and Ramdas Pophale) SiO2 
 PCOD8212681
Probable space group: P M M A
;
_chemical_formula_sum "Si O2"
_cell_formula_units_Z 64
_cell_length_a 17.038696
_cell_length_b 19.942566
_cell_length_c 9.503568
_cell_angle_alpha 90.000000
_cell_angle_beta 90.000000
_cell_angle_gamma 90.000000
_cell_volume 3229.267925
_symmetry_space_group_name_H-M "P M M A"
_symmetry_group_IT_number 51
_symmetry_cell_setting 'orthorhombic'
loop_
_space_group_symop_operation_xyz
x,y,z
1/2-x,-y,z
1/2+x,-y,-z
-x,y,-z
-x,-y,-z
1/2+x,y,-z
1/2-x,y,z
x,-y,z
loop_
_atom_site_type_symbol
_atom_site_label
_atom_site_fract_x
_atom_site_fract_y
_atom_site_fract_z
Si Si1 0.456372 0.575132 0.364207
Si Si2 0.064722 0.573824 0.893310
Si Si3 0.158188 0.177773 0.406811
Si Si4 0.158863 0.313926 0.246511
Si Si5 0.572354 0.077180 0.800724
Si Si6 0.837993 0.806554 0.281056
Si Si7 0.841662 0.301775 0.068562
Si Si8 0.104725 0.923535 0.883318
O O1 0.500000 0.605541 0.500000
O O2 0.421733 0.500000 0.392290
O O3 0.527415 0.569076 0.257647
O O4 0.387395 0.622719 0.308726
O O5 0.092955 0.500000 0.945204
O O6 0.139139 0.622624 0.885052
O O7 0.000000 0.603424 0.000000
O O8 0.250000 0.156958 0.403150
O O9 0.144493 0.250864 0.344663
O O10 0.109238 0.123082 0.320057
O O11 0.122956 0.182195 0.565638
O O12 0.250000 0.335071 0.239978
O O13 0.127820 0.292485 0.091428
O O14 0.481277 0.094012 0.823882
O O15 0.583227 0.000000 0.754540
O O16 0.614226 0.090086 0.950360
O O17 0.750000 0.781835 0.311854
O O18 0.880769 0.750960 0.180066
O O19 0.834764 0.876558 0.197868
O O20 0.750000 0.288913 0.072390
O O21 0.126107 0.000000 0.849719
#
# Coordination Sequence:
#
# PCOD8212681 Si02
#       8
#     8   8   8   8   8   8   8   8
#     4  10  22  39  58  84 116 149 186 231 284 344
#     4  10  20  37  58  83 115 146 184 234 285 337
#     4  10  22  38  55  80 114 150 188 230 278 335
#     4  10  21  38  59  82 112 150 192 238 284 337
#     4   9  19  37  59  83 112 145 185 234 282 333
#     4  10  22  38  55  80 115 150 186 232 281 332
#     4  10  21  37  58  84 113 149 193 238 284 336
#     4   9  19  37  59  83 111 144 185 233 283 335
#
# _framework density 19.818735
#
# number of rings (size 3 to 8) (size 9 to 14) (size 15 to 20)
#    0.000    2.250    1.250    1.500    1.750    4.500 
#    2.250    5.000    0.000    2.250    0.000    0.000 
#    0.000    0.000    0.000    0.000    0.000    0.000 
#
# Total GULP energy -793295.575773 kJ/mol
# GULP energy per Si atom -12395.243371 kJ/mol
# Density = 1.977363 g / cm^3
# Si number density = 19.818735 Si / 1000 Ang^3
#
#
#
# Elastic Constant Matrix: (Units=GPa)
#
#
# Indices 1 2 3 4 5 6 
#
# 1 25.3529 28.3426 35.0392 0.0000 0.0000 0.0000
# 2 28.3426 115.9990 70.1755 0.0000 0.0000 0.0000
# 3 35.0392 70.1755 152.8631 0.0000 0.0000 0.0000
# 4 0.0000 0.0000 0.0000 33.5029 0.0000 0.0000
# 5 0.0000 0.0000 0.0000 0.0000 29.2051 0.0000
# 6 0.0000 0.0000 0.0000 0.0000 0.0000 41.6004
#
#
#
# Elastic Compliance Matrix: (Units=1/GPa)
#
#
# Indices 1 2 3 4 5 6 
#
# 1 0.064399 -0.009421 -0.010436 0.000000 0.000000 0.000000
# 2 -0.009421 0.013314 -0.003953 0.000000 0.000000 0.000000
# 3 -0.010436 -0.003953 0.010749 0.000000 0.000000 0.000000
# 4 0.000000 0.000000 0.000000 0.029848 0.000000 0.000000
# 5 0.000000 0.000000 0.000000 0.000000 0.034241 0.000000
# 6 0.000000 0.000000 0.000000 0.000000 0.000000 0.024038
#
#
# Mechanical properties :
#
#
# Convention : Reuss Voigt Hill
#
# Bulk Modulus (GPa) = 24.48516 62.36994 43.42755
# Shear Modulus (GPa) = 21.02408 31.57219 26.29813
#
# Velocity S-wave (km/s) = 3.26055 3.99563 3.64666
# Velocity P-wave (km/s) = 5.15328 7.26810 6.30006
#
# Compressibility (1/GPa) = 0.04084107
#
# Stress axis : x y z
#
# Youngs Moduli (GPa) = 15.52817 75.10986 93.03587
#
# Poissons Ratio (x) = 0.70763 0.97097
# Poissons Ratio (y) = 0.14629 0.36773
# Poissons Ratio (z) = 0.16206 0.29687
#
# Static dielectric constant tensor:
#      x y z
#    x 2.818280 0.000000 0.000000 
#    y 0.000000 3.653660 0.000000 
#    z 0.000000 0.000000 3.821630 
# 
# 
# High freq. dielectric constant tensor:
#      x y z
#    x 1.744140 0.000000 0.000000 
#    y 0.000000 1.777270 0.000000 
#    z 0.000000 0.000000 1.787650 
# 
# From -- ./inp_files/10037.got.cif
#   From: 2010.03.12/outbox.cif.g09.slc.cpg/sg51_6_cif.got.tgz:10037.got - 2010.04.16 13:43:02.
