data_PCOD8212719
_publ_section_title
;
Structure prediction by ZEFSAII (Michael W. Deem and Ramdas Pophale) SiO2 
 PCOD8212719
Probable space group: P M M A
;
_chemical_formula_sum "Si O2"
_cell_formula_units_Z 56
_cell_length_a 20.332473
_cell_length_b 9.658611
_cell_length_c 15.099957
_cell_angle_alpha 90.000000
_cell_angle_beta 90.000000
_cell_angle_gamma 90.000000
_cell_volume 2965.381611
_symmetry_space_group_name_H-M "P M M A"
_symmetry_group_IT_number 51
_symmetry_cell_setting 'orthorhombic'
loop_
_space_group_symop_operation_xyz
x,y,z
1/2-x,-y,z
1/2+x,-y,-z
-x,y,-z
-x,-y,-z
1/2+x,y,-z
1/2-x,y,z
x,-y,z
loop_
_atom_site_type_symbol
_atom_site_label
_atom_site_fract_x
_atom_site_fract_y
_atom_site_fract_z
Si Si1 0.450973 0.162173 0.579331
Si Si2 0.676605 0.344088 0.949250
Si Si3 0.443807 0.339054 0.931736
Si Si4 0.481703 0.153116 0.777922
Si Si5 0.176003 0.658847 0.550680
Si Si6 0.675992 0.651283 0.656852
Si Si7 0.130098 0.845512 0.203541
O O1 0.500000 0.214672 0.500000
O O2 0.484818 0.193320 0.674064
O O3 0.381239 0.241368 0.585942
O O4 0.436503 0.000000 0.564866
O O5 0.750000 0.332152 0.988296
O O6 0.661780 0.500000 0.915071
O O7 0.670304 0.241259 0.867546
O O8 0.626936 0.305241 0.027116
O O9 0.454771 0.500000 0.911193
O O10 0.442018 0.261356 0.837619
O O11 0.500000 0.286631 0.000000
O O12 0.553876 0.150862 0.820436
O O13 0.449920 0.000000 0.787328
O O14 0.250000 0.699827 0.585134
O O15 0.160935 0.500000 0.578266
O O16 0.175322 0.675953 0.446423
O O17 0.750000 0.657149 0.693747
O O18 0.645564 0.500000 0.679637
O O19 0.634915 0.773474 0.701008
O O20 0.159726 0.000000 0.208213
#
# Coordination Sequence:
#
# PCOD8212719 Si02
#       7
#     8   8   8   8   8   8   8
#     4  10  21  38  58  83 118 154 192 238 287 341
#     4  10  21  37  56  79 110 144 177 223 282 330
#     4  10  20  37  60  83 106 141 189 229 265 325
#     4  10  22  37  55  81 111 147 185 228 283 332
#     4   9  19  36  56  79 108 145 191 241 291 340
#     4   9  18  32  49  71 104 144 181 221 275 335
#     4  11  21  32  50  78 110 142 180 224 273 332
#
# _framework density 18.884585999999999
#
# number of rings (size 3 to 8) (size 9 to 14) (size 15 to 20)
#    0.000    2.143    1.429    2.571    0.000    6.571 
#    0.000    2.143    0.000    2.571    0.000    0.000 
#    0.000    0.000    0.000    0.000    0.000    0.000 
#
# Total GULP energy -694162.584988 kJ/mol
# GULP energy per Si atom -12395.760446 kJ/mol
# Density = 1.884160 g / cm^3
# Si number density = 18.884586 Si / 1000 Ang^3
#
#
#
# Elastic Constant Matrix: (Units=GPa)
#
#
# Indices 1 2 3 4 5 6 
#
# 1 100.2203 36.4761 30.1613 0.0000 0.0000 0.0000
# 2 36.4761 87.6391 43.3876 0.0000 0.0000 0.0000
# 3 30.1613 43.3876 89.0587 0.0000 0.0000 0.0000
# 4 0.0000 0.0000 0.0000 32.8811 0.0000 0.0000
# 5 0.0000 0.0000 0.0000 0.0000 28.6028 0.0000
# 6 0.0000 0.0000 0.0000 0.0000 0.0000 26.7132
#
#
#
# Elastic Compliance Matrix: (Units=1/GPa)
#
#
# Indices 1 2 3 4 5 6 
#
# 1 0.012067 -0.003952 -0.002161 0.000000 0.000000 0.000000
# 2 -0.003952 0.016332 -0.006618 0.000000 0.000000 0.000000
# 3 -0.002161 -0.006618 0.015185 0.000000 0.000000 0.000000
# 4 0.000000 0.000000 0.000000 0.030413 0.000000 0.000000
# 5 0.000000 0.000000 0.000000 0.000000 0.034962 0.000000
# 6 0.000000 0.000000 0.000000 0.000000 0.000000 0.037435
#
#
# Mechanical properties :
#
#
# Convention : Reuss Voigt Hill
#
# Bulk Modulus (GPa) = 55.18679 55.21866 55.20272
# Shear Modulus (GPa) = 28.10637 28.76561 28.43599
#
# Velocity S-wave (km/s) = 3.86206 3.90709 3.88465
# Velocity P-wave (km/s) = 7.01242 7.04680 7.02963
#
# Compressibility (1/GPa) = 0.01812028
#
# Stress axis : x y z
#
# Youngs Moduli (GPa) = 82.87103 61.23006 65.85618
#
# Poissons Ratio (x) = 0.24201 0.14232
# Poissons Ratio (y) = 0.32754 0.43584
# Poissons Ratio (z) = 0.17909 0.40522
#
# Static dielectric constant tensor:
#      x y z
#    x 3.670040 0.000000 0.000000 
#    y 0.000000 3.597490 0.000000 
#    z 0.000000 0.000000 3.254320 
# 
# 
# High freq. dielectric constant tensor:
#      x y z
#    x 1.728950 0.000000 0.000000 
#    y 0.000000 1.734000 0.000000 
#    z 0.000000 0.000000 1.716720 
# 
# From -- ./inp_files/25655.got.cif
#   From: 2010.03.12/outbox.cif.g09.slc.cpg/sg51_13_cif.got.tgz:25655.got - 2010.04.16 13:43:02.
