data_PCOD8212403
_publ_section_title
;
Structure prediction by ZEFSAII (Michael W. Deem and Ramdas Pophale) SiO2 
 PCOD8212403
Probable space group: P M M A
;
_chemical_formula_sum "Si O2"
_cell_formula_units_Z 32
_cell_length_a 9.979273
_cell_length_b 9.626879
_cell_length_c 17.557277
_cell_angle_alpha 90.000000
_cell_angle_beta 90.000000
_cell_angle_gamma 90.000000
_cell_volume 1686.714498
_symmetry_space_group_name_H-M "P M M A"
_symmetry_group_IT_number 51
_symmetry_cell_setting 'orthorhombic'
loop_
_space_group_symop_operation_xyz
x,y,z
1/2-x,-y,z
1/2+x,-y,-z
-x,y,-z
-x,-y,-z
1/2+x,y,-z
1/2-x,y,z
x,-y,z
loop_
_atom_site_type_symbol
_atom_site_label
_atom_site_fract_x
_atom_site_fract_y
_atom_site_fract_z
Si Si1 0.410115 0.000000 0.576172
Si Si2 0.750000 0.343865 0.928775
Si Si3 0.597416 0.252727 0.320950
Si Si4 0.522486 0.661032 0.160630
Si Si5 0.396731 0.500000 0.566289
Si Si6 0.750000 0.169565 0.077484
O O1 0.500000 0.000000 0.500000
O O2 0.453873 0.123581 0.631068
O O3 0.250000 0.000000 0.555908
O O4 0.750000 0.500000 0.965764
O O5 0.621952 0.325652 0.876048
O O6 0.750000 0.222297 0.990782
O O7 0.750000 0.234026 0.292038
O O8 0.508222 0.286061 0.247282
O O9 0.581165 0.371192 0.381151
O O10 0.573939 0.500000 0.157797
O O11 0.619544 0.766435 0.116920
O O12 0.250000 0.500000 0.528574
O O13 0.500000 0.500000 0.500000
O O14 0.750000 0.000000 0.081202
#
# Coordination Sequence:
#
# PCOD8212403 Si02
#       6
#     4   4   8   8   4   4
#     4  10  22  40  60  84 121 161 204 248 305 375
#     4  10  24  44  62  94 131 166 205 261 318 371
#     4  10  20  36  62  87 118 158 205 249 298 367
#     4  11  22  41  67  93 127 167 213 260 314 369
#     4  10  20  36  56  88 117 153 196 248 299 351
#     4  12  26  40  68  96 123 166 213 253 312 385
#
# _framework density 18.971795
#
# number of rings (size 3 to 8) (size 9 to 14) (size 15 to 20)
#    0.000    1.500    2.500    2.625    1.750    4.000 
#    4.500    0.000    0.000    0.000    0.000    0.000 
#    0.000    0.000    0.000    0.000    0.000    0.000 
#
# Total GULP energy -396622.363719 kJ/mol
# GULP energy per Si atom -12394.448866 kJ/mol
# Density = 1.892861 g / cm^3
# Si number density = 18.971795 Si / 1000 Ang^3
#
#
#
# Elastic Constant Matrix: (Units=GPa)
#
#
# Indices 1 2 3 4 5 6 
#
# 1 107.4786 59.9066 73.2079 0.0000 0.0000 0.0000
# 2 59.9066 174.6517 70.6103 0.0000 0.0000 0.0000
# 3 73.2079 70.6103 141.8415 0.0000 0.0000 0.0000
# 4 0.0000 0.0000 0.0000 45.3725 0.0000 0.0000
# 5 0.0000 0.0000 0.0000 0.0000 32.1491 0.0000
# 6 0.0000 0.0000 0.0000 0.0000 0.0000 21.3720
#
#
#
# Elastic Compliance Matrix: (Units=1/GPa)
#
#
# Indices 1 2 3 4 5 6 
#
# 1 0.015210 -0.002558 -0.006577 0.000000 0.000000 0.000000
# 2 -0.002558 0.007599 -0.002462 0.000000 0.000000 0.000000
# 3 -0.006577 -0.002462 0.011670 0.000000 0.000000 0.000000
# 4 0.000000 0.000000 0.000000 0.022040 0.000000 0.000000
# 5 0.000000 0.000000 0.000000 0.000000 0.031105 0.000000
# 6 0.000000 0.000000 0.000000 0.000000 0.000000 0.046790
#
#
# Mechanical properties :
#
#
# Convention : Reuss Voigt Hill
#
# Bulk Modulus (GPa) = 88.61846 92.38014 90.49930
# Shear Modulus (GPa) = 30.98486 34.46186 32.72336
#
# Velocity S-wave (km/s) = 4.04568 4.26664 4.15763
# Velocity P-wave (km/s) = 8.28465 8.54818 8.41745
#
# Compressibility (1/GPa) = 0.01128433
#
# Stress axis : x y z
#
# Youngs Moduli (GPa) = 65.74791 131.60215 85.68786
#
# Poissons Ratio (x) = 0.33666 0.56353
# Poissons Ratio (y) = 0.16819 0.21100
# Poissons Ratio (z) = 0.43240 0.32405
#
# Static dielectric constant tensor:
#      x y z
#    x 3.401650 0.000000 0.000000 
#    y 0.000000 3.742780 0.000000 
#    z 0.000000 0.000000 3.521830 
# 
# 
# High freq. dielectric constant tensor:
#      x y z
#    x 1.724270 0.000000 0.000000 
#    y 0.000000 1.752270 0.000000 
#    z 0.000000 0.000000 1.751050 
# 
# From -- ./inp_files/22885.got.cif
#   From: 2010.03.12/outbox.cif.g09.slc.cpg/sg51_12_cif.got.tgz:22885.got - 2010.04.16 13:43:02.
