data_PCOD8212537
_publ_section_title
;
Structure prediction by ZEFSAII (Michael W. Deem and Ramdas Pophale) SiO2 
 PCOD8212537
Probable space group: P M M A
;
_chemical_formula_sum "Si O2"
_cell_formula_units_Z 40
_cell_length_a 18.088453
_cell_length_b 8.970243
_cell_length_c 12.683142
_cell_angle_alpha 90.000000
_cell_angle_beta 90.000000
_cell_angle_gamma 90.000000
_cell_volume 2057.938958
_symmetry_space_group_name_H-M "P M M A"
_symmetry_group_IT_number 51
_symmetry_cell_setting 'orthorhombic'
loop_
_space_group_symop_operation_xyz
x,y,z
1/2-x,-y,z
1/2+x,-y,-z
-x,y,-z
-x,-y,-z
1/2+x,y,-z
1/2-x,y,z
x,-y,z
loop_
_atom_site_type_symbol
_atom_site_label
_atom_site_fract_x
_atom_site_fract_y
_atom_site_fract_z
Si Si1 0.331784 0.176600 0.128885
Si Si2 0.665296 0.170918 0.483954
Si Si3 0.163859 0.172641 0.891401
Si Si4 0.932356 0.176160 0.683317
Si Si5 0.088301 0.324396 0.701713
O O1 0.250000 0.242824 0.152454
O O2 0.390725 0.238941 0.212742
O O3 0.326804 0.000000 0.139243
O O4 0.356606 0.219670 0.010767
O O5 0.750000 0.193320 0.517447
O O6 0.615805 0.220314 0.582281
O O7 0.648381 0.272566 0.383466
O O8 0.649333 0.000000 0.452583
O O9 0.250000 0.202527 0.868852
O O10 0.113420 0.272638 0.816965
O O11 0.144862 0.000000 0.871291
O O12 0.010155 0.255196 0.671043
O O13 0.944849 0.000000 0.690766
O O14 0.081632 0.500000 0.700556
#
# Coordination Sequence:
#
# PCOD8212537 Si02
#       5
#     8   8   8   8   8
#     4   8  15  31  58  88 110 132 172 225 274 319
#     4  10  21  38  61  85 106 133 175 225 273 322
#     4   9  18  35  59  83 107 138 179 225 269 316
#     4  10  20  36  59  84 110 139 173 218 272 325
#     4  12  25  37  51  76 113 151 184 219 260 311
#
# _framework density 19.436923
#
# number of rings (size 3 to 8) (size 9 to 14) (size 15 to 20)
#    0.000    2.200    0.000    4.800    0.000    9.600 
#    0.000    5.000    0.000    3.000    0.000    0.000 
#    0.000    0.000    0.000    0.000    0.000    0.000 
#
# Total GULP energy -496087.942053 kJ/mol
# GULP energy per Si atom -12402.198551 kJ/mol
# Density = 1.939268 g / cm^3
# Si number density = 19.436923 Si / 1000 Ang^3
#
#
#
# Elastic Constant Matrix: (Units=GPa)
#
#
# Indices 1 2 3 4 5 6 
#
# 1 81.1477 24.2989 35.2508 0.0000 0.0000 0.0000
# 2 24.2989 53.8317 31.1761 0.0000 0.0000 0.0000
# 3 35.2508 31.1761 106.3162 0.0000 0.0000 0.0000
# 4 0.0000 0.0000 0.0000 0.5909 0.0000 0.0000
# 5 0.0000 0.0000 0.0000 0.0000 31.4732 0.0000
# 6 0.0000 0.0000 0.0000 0.0000 0.0000 -1.3669
#
#
#
# Elastic Compliance Matrix: (Units=1/GPa)
#
#
# Indices 1 2 3 4 5 6 
#
# 1 0.015362 -0.004799 -0.003686 0.000000 0.000000 0.000000
# 2 -0.004799 0.023876 -0.005410 0.000000 0.000000 0.000000
# 3 -0.003686 -0.005410 0.012215 0.000000 0.000000 0.000000
# 4 0.000000 0.000000 0.000000 1.692405 0.000000 0.000000
# 5 0.000000 0.000000 0.000000 0.000000 0.031773 0.000000
# 6 0.000000 0.000000 0.000000 0.000000 0.000000 -0.731595
#
#
# Mechanical properties :
#
#
# Convention : Reuss Voigt Hill
#
# Bulk Modulus (GPa) = 42.26327 46.97194 44.61761
# Shear Modulus (GPa) = 4.63086 16.17743 10.40415
#
# Velocity S-wave (km/s) = 1.54521 2.88810 2.31612
# Velocity P-wave (km/s) = 4.99746 5.94477 5.49158
#
# Compressibility (1/GPa) = 0.02366121
#
# Stress axis : x y z
#
# Youngs Moduli (GPa) = 65.09777 41.88319 81.86978
#
# Poissons Ratio (x) = 0.20101 0.30177
# Poissons Ratio (y) = 0.31242 0.44292
# Poissons Ratio (z) = 0.23995 0.22659
#
# Static dielectric constant tensor:
#      x y z
#    x 3.642650 0.000000 0.000000 
#    y 0.000000 3.171420 0.000000 
#    z 0.000000 0.000000 3.762970 
# 
# 
# High freq. dielectric constant tensor:
#      x y z
#    x 1.763810 0.000000 0.000000 
#    y 0.000000 1.715220 0.000000 
#    z 0.000000 0.000000 1.772670 
# 
# From -- ./inp_files/17066.got.cif
#   From: 2010.03.12/outbox.cif.g09.slc.cpg/sg51_9_cif.got.tgz:17066.got - 2010.04.16 13:43:02.
