data_PCOD8212954
_publ_section_title
;
Structure prediction by ZEFSAII (Michael W. Deem and Ramdas Pophale) SiO2 
 PCOD8212954
Probable space group: P M M A
;
_chemical_formula_sum "Si O2"
_cell_formula_units_Z 44
_cell_length_a 9.579441
_cell_length_b 27.964694
_cell_length_c 9.531013
_cell_angle_alpha 90.000000
_cell_angle_beta 90.000000
_cell_angle_gamma 90.000000
_cell_volume 2553.226247
_symmetry_space_group_name_H-M "P M M A"
_symmetry_group_IT_number 51
_symmetry_cell_setting 'orthorhombic'
loop_
_space_group_symop_operation_xyz
x,y,z
1/2-x,-y,z
1/2+x,-y,-z
-x,y,-z
-x,-y,-z
1/2+x,y,-z
1/2-x,y,z
x,-y,z
loop_
_atom_site_type_symbol
_atom_site_label
_atom_site_fract_x
_atom_site_fract_y
_atom_site_fract_z
Si Si1 0.911760 0.820819 0.865659
Si Si2 0.588805 0.288441 0.864435
Si Si3 0.912777 0.632888 0.641608
Si Si4 0.092526 0.000000 0.365200
Si Si5 0.088122 0.103294 0.359599
Si Si6 0.411414 0.445171 0.133627
O O1 0.750000 0.829440 0.900621
O O2 0.940506 0.766221 0.820434
O O3 0.964957 0.855448 0.743240
O O4 0.000000 0.835029 0.000000
O O5 0.750000 0.296939 0.904124
O O6 0.545458 0.320665 0.732345
O O7 0.500000 0.303440 0.000000
O O8 0.750000 0.633535 0.602073
O O9 0.951867 0.585854 0.730913
O O10 0.000000 0.632770 0.500000
O O11 0.065107 0.050602 0.285076
O O12 0.000000 0.000000 0.500000
O O13 0.250000 0.000000 0.420532
O O14 0.250000 0.111282 0.397292
O O15 0.000000 0.107641 0.500000
O O16 0.250000 0.437662 0.093988
O O17 0.445535 0.500000 0.171154
O O18 0.500000 0.427811 0.000000
#
# Coordination Sequence:
#
# PCOD8212954 Si02
#       6
#     8   8   8   4   8   8
#     4   9  18  32  48  67  92 120 150 186 228 272
#     4   9  18  33  51  69  90 119 155 191 226 269
#     4  10  21  34  48  70  99 126 153 189 231 273
#     4   8  14  26  43  62  86 116 148 182 221 264
#     4   9  17  29  46  67  90 117 150 187 225 267
#     4   9  18  33  52  73  96 123 157 194 229 269
#
# _framework density 17.233097999999998
#
# number of rings (size 3 to 8) (size 9 to 14) (size 15 to 20)
#    0.000    2.909    0.000    0.545    0.000    3.273 
#    0.000    0.455    0.000    0.000    0.000    0.000 
#    0.000    0.000    0.000    0.000    0.000    0.000 
#
# Total GULP energy -545388.347355 kJ/mol
# GULP energy per Si atom -12395.189713 kJ/mol
# Density = 1.719387 g / cm^3
# Si number density = 17.233098 Si / 1000 Ang^3
#
#
#
# Elastic Constant Matrix: (Units=GPa)
#
#
# Indices 1 2 3 4 5 6 
#
# 1 58.7924 49.4794 64.6675 0.0000 0.0000 0.0000
# 2 49.4794 128.4098 88.8245 0.0000 0.0000 0.0000
# 3 64.6675 88.8245 137.3848 0.0000 0.0000 0.0000
# 4 0.0000 0.0000 0.0000 26.9847 0.0000 0.0000
# 5 0.0000 0.0000 0.0000 0.0000 35.2415 0.0000
# 6 0.0000 0.0000 0.0000 0.0000 0.0000 24.8545
#
#
#
# Elastic Compliance Matrix: (Units=1/GPa)
#
#
# Indices 1 2 3 4 5 6 
#
# 1 0.036331 -0.003926 -0.014563 0.000000 0.000000 0.000000
# 2 -0.003926 0.014512 -0.007535 0.000000 0.000000 0.000000
# 3 -0.014563 -0.007535 0.019005 0.000000 0.000000 0.000000
# 4 0.000000 0.000000 0.000000 0.037058 0.000000 0.000000
# 5 0.000000 0.000000 0.000000 0.000000 0.028376 0.000000
# 6 0.000000 0.000000 0.000000 0.000000 0.000000 0.040234
#
#
# Mechanical properties :
#
#
# Convention : Reuss Voigt Hill
#
# Bulk Modulus (GPa) = 56.17510 81.17000 68.67255
# Shear Modulus (GPa) = 21.41343 25.52384 23.46863
#
# Velocity S-wave (km/s) = 3.52884 3.85267 3.69431
# Velocity P-wave (km/s) = 7.01937 8.18500 7.62450
#
# Compressibility (1/GPa) = 0.01780148
#
# Stress axis : x y z
#
# Youngs Moduli (GPa) = 27.52451 68.90678 52.61642
#
# Poissons Ratio (x) = 0.27050 0.76627
# Poissons Ratio (y) = 0.10805 0.39647
# Poissons Ratio (z) = 0.40085 0.51921
#
# Static dielectric constant tensor:
#      x y z
#    x 3.200250 0.000000 0.000000 
#    y 0.000000 3.708390 0.000000 
#    z 0.000000 0.000000 3.076380 
# 
# 
# High freq. dielectric constant tensor:
#      x y z
#    x 1.665210 0.000000 0.000000 
#    y 0.000000 1.687480 0.000000 
#    z 0.000000 0.000000 1.637360 
# 
# From -- ./inp_files/5739.got.cif
#   From: 2010.03.12/outbox.cif.g09.slc.cpg/sg51_3_cif.got.tgz:5739.got - 2010.04.16 13:43:02.
