data_PCOD8212979
_publ_section_title
;
Structure prediction by ZEFSAII (Michael W. Deem and Ramdas Pophale) SiO2 
 PCOD8212979
Probable space group: P M M A
;
_chemical_formula_sum "Si O2"
_cell_formula_units_Z 48
_cell_length_a 16.584625
_cell_length_b 9.485000
_cell_length_c 14.899767
_cell_angle_alpha 90.000000
_cell_angle_beta 90.000000
_cell_angle_gamma 90.000000
_cell_volume 2343.810353
_symmetry_space_group_name_H-M "P M M A"
_symmetry_group_IT_number 51
_symmetry_cell_setting 'orthorhombic'
loop_
_space_group_symop_operation_xyz
x,y,z
1/2-x,-y,z
1/2+x,-y,-z
-x,y,-z
-x,-y,-z
1/2+x,y,-z
1/2-x,y,z
x,-y,z
loop_
_atom_site_type_symbol
_atom_site_label
_atom_site_fract_x
_atom_site_fract_y
_atom_site_fract_z
Si Si1 0.657601 0.347007 0.376262
Si Si2 0.844774 0.167353 0.715127
Si Si3 0.658450 0.848164 0.227691
Si Si4 0.398139 0.339923 0.919049
Si Si5 0.917239 0.338513 0.877020
Si Si6 0.917707 0.336597 0.552924
O O1 0.750000 0.360411 0.348722
O O2 0.614483 0.500000 0.364717
O O3 0.614175 0.239300 0.307512
O O4 0.651381 0.301460 0.479863
O O5 0.750000 0.201652 0.700778
O O6 0.873668 0.231696 0.809674
O O7 0.899739 0.237664 0.637733
O O8 0.859868 0.000000 0.715640
O O9 0.750000 0.873716 0.256576
O O10 0.659033 0.765493 0.134259
O O11 0.614752 0.000000 0.218089
O O12 0.374952 0.500000 0.895555
O O13 0.488089 0.308297 0.884587
O O14 0.382443 0.311965 0.023631
O O15 0.900991 0.500000 0.847007
O O16 0.916324 0.500000 0.584370
O O17 0.000000 0.299047 0.500000
#
# Coordination Sequence:
#
# PCOD8212979 Si02
#       6
#     8   8   8   8   8   8
#     4   9  18  34  55  78 108 148 190 232 279 332
#     4  11  25  42  60  87 124 162 198 240 293 354
#     4  10  21  34  51  80 116 152 186 225 279 341
#     4   9  19  37  60  85 114 148 192 244 292 339
#     4   9  20  39  62  86 112 149 195 242 290 342
#     4  10  22  39  61  89 116 148 194 246 294 343
#
# _framework density 20.479472000000001
#
# number of rings (size 3 to 8) (size 9 to 14) (size 15 to 20)
#    0.000    2.333    0.000    2.500    2.333    6.000 
#    0.000    6.667    0.000    0.000    0.000    0.000 
#    0.000    0.000    0.000    0.000    0.000    0.000 
#
# Total GULP energy -594880.480151 kJ/mol
# GULP energy per Si atom -12393.343336 kJ/mol
# Density = 2.043286 g / cm^3
# Si number density = 20.479472 Si / 1000 Ang^3
#
#
#
# Elastic Constant Matrix: (Units=GPa)
#
#
# Indices 1 2 3 4 5 6 
#
# 1 51.1918 37.7103 32.2613 0.0000 0.0000 0.0000
# 2 37.7103 149.2398 90.8391 0.0000 0.0000 0.0000
# 3 32.2613 90.8391 133.1608 0.0000 0.0000 0.0000
# 4 0.0000 0.0000 0.0000 18.0184 0.0000 0.0000
# 5 0.0000 0.0000 0.0000 0.0000 33.8945 0.0000
# 6 0.0000 0.0000 0.0000 0.0000 0.0000 24.2252
#
#
#
# Elastic Compliance Matrix: (Units=1/GPa)
#
#
# Indices 1 2 3 4 5 6 
#
# 1 0.024661 -0.004437 -0.002948 0.000000 0.000000 0.000000
# 2 -0.004437 0.012257 -0.007286 0.000000 0.000000 0.000000
# 3 -0.002948 -0.007286 0.013194 0.000000 0.000000 0.000000
# 4 0.000000 0.000000 0.000000 0.055499 0.000000 0.000000
# 5 0.000000 0.000000 0.000000 0.000000 0.029503 0.000000
# 6 0.000000 0.000000 0.000000 0.000000 0.000000 0.041279
#
#
# Mechanical properties :
#
#
# Convention : Reuss Voigt Hill
#
# Bulk Modulus (GPa) = 48.14729 72.80153 60.47441
# Shear Modulus (GPa) = 23.51183 26.74640 25.12911
#
# Velocity S-wave (km/s) = 3.39199 3.61780 3.50671
# Velocity P-wave (km/s) = 6.23714 7.28540 6.78155
#
# Compressibility (1/GPa) = 0.02076960
#
# Stress axis : x y z
#
# Youngs Moduli (GPa) = 40.55045 81.58712 75.78950
#
# Poissons Ratio (x) = 0.36201 0.22341
# Poissons Ratio (y) = 0.17993 0.55223
# Poissons Ratio (z) = 0.11953 0.59447
#
# Static dielectric constant tensor:
#      x y z
#    x 3.538440 0.000000 0.000000 
#    y 0.000000 3.995230 0.000000 
#    z 0.000000 0.000000 3.758620 
# 
# 
# High freq. dielectric constant tensor:
#      x y z
#    x 1.782960 0.000000 0.000000 
#    y 0.000000 1.798730 0.000000 
#    z 0.000000 0.000000 1.809210 
# 
# From -- ./inp_files/24721.got.cif
#   From: 2010.03.12/outbox.cif.g09.slc.cpg/sg51_13_cif.got.tgz:24721.got - 2010.04.16 13:43:02.
