data_PCOD8212551
_publ_section_title
;
Structure prediction by ZEFSAII (Michael W. Deem and Ramdas Pophale) SiO2 
 PCOD8212551
Probable space group: P M M A
;
_chemical_formula_sum "Si O2"
_cell_formula_units_Z 56
_cell_length_a 23.049690
_cell_length_b 9.278680
_cell_length_c 13.477774
_cell_angle_alpha 90.000000
_cell_angle_beta 90.000000
_cell_angle_gamma 90.000000
_cell_volume 2882.500928
_symmetry_space_group_name_H-M "P M M A"
_symmetry_group_IT_number 51
_symmetry_cell_setting 'orthorhombic'
loop_
_space_group_symop_operation_xyz
x,y,z
1/2-x,-y,z
1/2+x,-y,-z
-x,y,-z
-x,-y,-z
1/2+x,y,-z
1/2-x,y,z
x,-y,z
loop_
_atom_site_type_symbol
_atom_site_label
_atom_site_fract_x
_atom_site_fract_y
_atom_site_fract_z
Si Si1 0.151083 0.668144 0.631469
Si Si2 0.402283 0.666496 0.289490
Si Si3 0.816800 0.830873 0.566832
Si Si4 0.947144 0.838895 0.074372
Si Si5 0.250000 0.329886 0.780607
Si Si6 0.968559 0.664777 0.269420
Si Si7 0.371613 0.667748 0.070110
Si Si8 0.750000 0.668125 0.999325
O O1 0.160794 0.500000 0.606709
O O2 0.169159 0.760865 0.537963
O O3 0.191687 0.718751 0.722779
O O4 0.083705 0.700046 0.655418
O O5 0.383003 0.500000 0.301440
O O6 0.359188 0.764798 0.351422
O O7 0.469231 0.688044 0.324000
O O8 0.398421 0.715997 0.174724
O O9 0.750000 0.799275 0.595965
O O10 0.828870 0.000000 0.559725
O O11 0.966243 0.768420 0.176358
O O12 0.924987 0.000000 0.096093
O O13 0.896586 0.748626 0.024533
O O14 0.000000 0.840066 0.000000
O O15 0.250000 0.500000 0.788537
O O16 0.250000 0.258609 0.890618
O O17 0.963669 0.500000 0.231680
O O18 0.382942 0.500000 0.052081
O O19 0.304206 0.710962 0.068684
O O20 0.750000 0.500000 0.021179
#
# Coordination Sequence:
#
# PCOD8212551 Si02
#       8
#     8   8   8   8   4   8   8   4
#     4  10  20  37  64  89 112 147 193 246 300 353
#     4  10  22  38  60  88 118 155 198 246 296 346
#     4  11  25  43  62  85 115 155 195 240 298 357
#     4  11  22  35  55  84 122 165 200 233 280 343
#     4   9  16  30  54  85 114 144 183 235 292 339
#     4  10  21  38  61  91 121 153 195 246 299 347
#     4  10  20  36  59  85 116 154 198 247 292 340
#     4   9  18  32  54  87 118 144 187 245 296 341
#
# _framework density 19.427574
#
# number of rings (size 3 to 8) (size 9 to 14) (size 15 to 20)
#    0.000    1.857    2.143    1.714    1.000    6.000 
#    0.000    3.214    0.000    0.000    0.000    0.000 
#    0.000    0.000    0.000    0.000    0.000    0.000 
#
# Total GULP energy -694367.226134 kJ/mol
# GULP energy per Si atom -12399.414752 kJ/mol
# Density = 1.938336 g / cm^3
# Si number density = 19.427574 Si / 1000 Ang^3
#
#
#
# Elastic Constant Matrix: (Units=GPa)
#
#
# Indices 1 2 3 4 5 6 
#
# 1 140.3208 43.1559 35.5531 0.0000 0.0000 0.0000
# 2 43.1559 76.6858 34.9135 0.0000 0.0000 0.0000
# 3 35.5531 34.9135 60.3789 0.0000 0.0000 0.0000
# 4 0.0000 0.0000 0.0000-1198.3390 0.0000 0.0000
# 5 0.0000 0.0000 0.0000 0.0000 35.4671 0.0000
# 6 0.0000 0.0000 0.0000 0.0000 0.0000 18.8582
#
#
#
# Elastic Compliance Matrix: (Units=1/GPa)
#
#
# Indices 1 2 3 4 5 6 
#
# 1 0.009062 -0.003625 -0.003240 0.000000 0.000000 0.000000
# 2 -0.003625 0.019150 -0.008939 0.000000 0.000000 0.000000
# 3 -0.003240 -0.008939 0.023639 0.000000 0.000000 0.000000
# 4 0.000000 0.000000 0.000000 -0.000834 0.000000 0.000000
# 5 0.000000 0.000000 0.000000 0.000000 0.028195 0.000000
# 6 0.000000 0.000000 0.000000 0.000000 0.000000 0.053027
#
#
# Mechanical properties :
#
#
# Convention : Reuss Voigt Hill
#
# Bulk Modulus (GPa) = 49.39889 56.07005 52.73447
# Shear Modulus (GPa) = 29.30931 -217.88523 -94.28796
#
# Velocity S-wave (km/s) = 3.88834 -10.60170 -6.97413
# Velocity P-wave (km/s) = 6.75584 10.99717 6.13581
#
# Compressibility (1/GPa) = 0.02024337
#
# Stress axis : x y z
#
# Youngs Moduli (GPa) = 110.34738 52.22000 42.30330
#
# Poissons Ratio (x) = 0.18928 0.13707
# Poissons Ratio (y) = 0.39998 0.37814
# Poissons Ratio (z) = 0.35755 0.46678
#
# Static dielectric constant tensor:
#      x y z
#    x 3.901340 0.000000 0.000000 
#    y 0.000000 3.460820 0.000000 
#    z 0.000000 0.000000 3.482890 
# 
# 
# High freq. dielectric constant tensor:
#      x y z
#    x 1.774450 0.000000 0.000000 
#    y 0.000000 1.734510 0.000000 
#    z 0.000000 0.000000 1.750290 
# 
# From -- ./inp_files/25824.got.cif
#   From: 2010.03.12/outbox.cif.g09.slc.cpg/sg51_13_cif.got.tgz:25824.got - 2010.04.16 13:43:02.
