data_PCOD8212181
_publ_section_title
;
Structure prediction by ZEFSAII (Michael W. Deem and Ramdas Pophale) SiO2 
 PCOD8212181
Probable space group: P M M A
;
_chemical_formula_sum "Si O2"
_cell_formula_units_Z 48
_cell_length_a 15.928458
_cell_length_b 9.094065
_cell_length_c 16.928398
_cell_angle_alpha 90.000000
_cell_angle_beta 90.000000
_cell_angle_gamma 90.000000
_cell_volume 2452.153484
_symmetry_space_group_name_H-M "P M M A"
_symmetry_group_IT_number 51
_symmetry_cell_setting 'orthorhombic'
loop_
_space_group_symop_operation_xyz
x,y,z
1/2-x,-y,z
1/2+x,-y,-z
-x,y,-z
-x,-y,-z
1/2+x,y,-z
1/2-x,y,z
x,-y,z
loop_
_atom_site_type_symbol
_atom_site_label
_atom_site_fract_x
_atom_site_fract_y
_atom_site_fract_z
Si Si1 0.842294 0.672366 0.187911
Si Si2 0.072636 0.328725 0.652241
Si Si3 0.599385 0.826418 0.664351
Si Si4 0.842662 0.330727 0.811270
Si Si5 0.000706 0.675325 0.911009
Si Si6 0.152597 0.167128 0.509636
O O1 0.750000 0.739326 0.166698
O O2 0.840412 0.500000 0.171748
O O3 0.858307 0.703005 0.280561
O O4 0.916965 0.740127 0.133979
O O5 0.051175 0.500000 0.645886
O O6 0.102926 0.273475 0.567564
O O7 0.991062 0.242178 0.679265
O O8 0.660384 0.761600 0.730633
O O9 0.634825 0.780349 0.579080
O O10 0.595144 0.000000 0.673260
O O11 0.750000 0.314978 0.850957
O O12 0.861849 0.500000 0.790351
O O13 0.914908 0.269316 0.869484
O O14 0.003213 0.500000 0.910521
O O15 0.000000 0.736939 0.000000
O O16 0.250000 0.180347 0.528473
O O17 0.120860 0.000000 0.522234
#
# Coordination Sequence:
#
# PCOD8212181 Si02
#       6
#     8   8   8   8   8   8
#     4   9  17  30  50  77 109 142 178 221 270 326
#     4  11  21  35  55  80 111 145 187 235 286 333
#     4  11  22  37  57  79 108 150 195 231 277 334
#     4  10  20  35  56  84 116 147 183 232 284 332
#     4   9  17  31  52  80 115 147 177 221 279 341
#     4  10  22  38  53  75 109 146 188 235 278 330
#
# _framework density 19.574631
#
# number of rings (size 3 to 8) (size 9 to 14) (size 15 to 20)
#    0.000    2.000    1.667    2.500    0.000    6.000 
#    0.000    3.333    0.000    0.500    0.000    0.000 
#    0.000    0.000    0.000    0.000    0.000    0.000 
#
# Total GULP energy -595156.955899 kJ/mol
# GULP energy per Si atom -12399.103248 kJ/mol
# Density = 1.953008 g / cm^3
# Si number density = 19.574631 Si / 1000 Ang^3
#
#
#
# Elastic Constant Matrix: (Units=GPa)
#
#
# Indices 1 2 3 4 5 6 
#
# 1 138.4556 26.0481 53.4408 0.0000 0.0000 0.0000
# 2 26.0481 42.0333 34.8534 0.0000 0.0000 0.0000
# 3 53.4408 34.8534 127.9735 0.0000 0.0000 0.0000
# 4 0.0000 0.0000 0.0000 6.0910 0.0000 0.0000
# 5 0.0000 0.0000 0.0000 0.0000 24.1809 0.0000
# 6 0.0000 0.0000 0.0000 0.0000 0.0000 19.7401
#
#
#
# Elastic Compliance Matrix: (Units=1/GPa)
#
#
# Indices 1 2 3 4 5 6 
#
# 1 0.008922 -0.003151 -0.002868 0.000000 0.000000 0.000000
# 2 -0.003151 0.031843 -0.007357 0.000000 0.000000 0.000000
# 3 -0.002868 -0.007357 0.011015 0.000000 0.000000 0.000000
# 4 0.000000 0.000000 0.000000 0.164177 0.000000 0.000000
# 5 0.000000 0.000000 0.000000 0.000000 0.041355 0.000000
# 6 0.000000 0.000000 0.000000 0.000000 0.000000 0.050658
#
#
# Mechanical properties :
#
#
# Convention : Reuss Voigt Hill
#
# Bulk Modulus (GPa) = 39.95224 59.68298 49.81761
# Shear Modulus (GPa) = 14.57448 22.94376 18.75912
#
# Velocity S-wave (km/s) = 2.73162 3.42733 3.09906
# Velocity P-wave (km/s) = 5.51394 6.79841 6.18958
#
# Compressibility (1/GPa) = 0.02502988
#
# Stress axis : x y z
#
# Youngs Moduli (GPa) = 112.07962 31.40362 90.78405
#
# Poissons Ratio (x) = 0.09896 0.26033
# Poissons Ratio (y) = 0.35320 0.66786
# Poissons Ratio (z) = 0.32140 0.23102
#
# Static dielectric constant tensor:
#      x y z
#    x 3.903220 0.000000 0.000000 
#    y 0.000000 3.224760 0.000000 
#    z 0.000000 0.000000 3.654890 
# 
# 
# High freq. dielectric constant tensor:
#      x y z
#    x 1.780510 0.000000 0.000000 
#    y 0.000000 1.720090 0.000000 
#    z 0.000000 0.000000 1.760670 
# 
# From -- ./inp_files/29420.got.cif
#   From: 2010.03.12/outbox.cif.g09.slc.cpg/sg51_15_cif.got.tgz:29420.got - 2010.04.16 13:43:02.
