data_PCOD8212053
_publ_section_title
;
Structure prediction by ZEFSAII (Michael W. Deem and Ramdas Pophale) SiO2 
 PCOD8212053
Probable space group: P M M A
;
_chemical_formula_sum "Si O2"
_cell_formula_units_Z 48
_cell_length_a 9.099517
_cell_length_b 30.138008
_cell_length_c 9.455909
_cell_angle_alpha 90.000000
_cell_angle_beta 90.000000
_cell_angle_gamma 90.000000
_cell_volume 2593.200929
_symmetry_space_group_name_H-M "P M M A"
_symmetry_group_IT_number 51
_symmetry_cell_setting 'orthorhombic'
loop_
_space_group_symop_operation_xyz
x,y,z
1/2-x,-y,z
1/2+x,-y,-z
-x,y,-z
-x,-y,-z
1/2+x,y,-z
1/2-x,y,z
x,-y,z
loop_
_atom_site_type_symbol
_atom_site_label
_atom_site_fract_x
_atom_site_fract_y
_atom_site_fract_z
Si Si1 0.922845 0.792936 0.149979
Si Si2 0.578000 0.050386 0.142773
Si Si3 0.920461 0.283333 0.356333
Si Si4 0.577446 0.615202 0.355024
Si Si5 0.922638 0.873393 0.350156
Si Si6 0.080801 0.450535 0.147545
O O1 0.750000 0.794201 0.122732
O O2 0.972482 0.747418 0.226740
O O3 0.973251 0.833284 0.249637
O O4 0.000000 0.796670 0.000000
O O5 0.750000 0.054988 0.114533
O O6 0.529254 0.080878 0.274023
O O7 0.532170 0.000000 0.179822
O O8 0.500000 0.066857 0.000000
O O9 0.750000 0.276064 0.387107
O O10 0.955902 0.333896 0.314025
O O11 0.000000 0.268971 0.500000
O O12 0.500000 0.602520 0.500000
O O13 0.750000 0.605833 0.368027
O O14 0.506671 0.584366 0.239125
O O15 0.750000 0.871710 0.377717
O O16 0.000000 0.869550 0.500000
O O17 0.250000 0.435558 0.130003
O O18 0.072899 0.500000 0.214755
O O19 0.000000 0.450947 0.000000
#
# Coordination Sequence:
#
# PCOD8212053 Si02
#       6
#     8   8   8   8   8   8
#     4  10  21  36  53  76 104 133 170 212 254 303
#     4   9  18  33  52  75 103 134 170 212 256 303
#     4   9  19  35  54  77 104 134 169 209 253 303
#     4  10  20  35  55  79 107 138 173 213 257 306
#     4  10  21  35  52  75 103 135 171 212 256 304
#     4  10  21  37  56  78 105 138 175 215 260 308
#
# _framework density 18.509941999999999
#
# number of rings (size 3 to 8) (size 9 to 14) (size 15 to 20)
#    0.000    2.333    0.000    2.000    0.000    5.000 
#    0.000    1.667    0.000    0.000    0.000    0.000 
#    0.000    0.000    0.000    0.000    0.000    0.000 
#
# Total GULP energy -595252.495116 kJ/mol
# GULP energy per Si atom -12401.093648 kJ/mol
# Density = 1.846781 g / cm^3
# Si number density = 18.509942 Si / 1000 Ang^3
#
#
#
# Elastic Constant Matrix: (Units=GPa)
#
#
# Indices 1 2 3 4 5 6 
#
# 1 73.1479 47.6148 60.2712 0.0000 0.0000 0.0000
# 2 47.6148 111.5870 85.3409 0.0000 0.0000 0.0000
# 3 60.2712 85.3409 154.2136 0.0000 0.0000 0.0000
# 4 0.0000 0.0000 0.0000 43.1677 0.0000 0.0000
# 5 0.0000 0.0000 0.0000 0.0000 40.9025 0.0000
# 6 0.0000 0.0000 0.0000 0.0000 0.0000 24.7535
#
#
#
# Elastic Compliance Matrix: (Units=1/GPa)
#
#
# Indices 1 2 3 4 5 6 
#
# 1 0.021537 -0.004772 -0.005776 0.000000 0.000000 0.000000
# 2 -0.004772 0.016595 -0.007319 0.000000 0.000000 0.000000
# 3 -0.005776 -0.007319 0.012792 0.000000 0.000000 0.000000
# 4 0.000000 0.000000 0.000000 0.023165 0.000000 0.000000
# 5 0.000000 0.000000 0.000000 0.000000 0.024448 0.000000
# 6 0.000000 0.000000 0.000000 0.000000 0.000000 0.040398
#
#
# Mechanical properties :
#
#
# Convention : Reuss Voigt Hill
#
# Bulk Modulus (GPa) = 65.83306 80.60026 73.21666
# Shear Modulus (GPa) = 27.81898 31.47952 29.64925
#
# Velocity S-wave (km/s) = 3.88096 4.12841 4.00659
# Velocity P-wave (km/s) = 7.46498 8.14640 7.81312
#
# Compressibility (1/GPa) = 0.01518994
#
# Stress axis : x y z
#
# Youngs Moduli (GPa) = 46.43217 60.25883 78.17338
#
# Poissons Ratio (x) = 0.28757 0.45155
# Poissons Ratio (y) = 0.22158 0.57211
# Poissons Ratio (z) = 0.26821 0.44100
#
# Static dielectric constant tensor:
#      x y z
#    x 3.405310 0.000000 0.000000 
#    y 0.000000 3.713730 0.000000 
#    z 0.000000 0.000000 3.314010 
# 
# 
# High freq. dielectric constant tensor:
#      x y z
#    x 1.718720 0.000000 0.000000 
#    y 0.000000 1.731670 0.000000 
#    z 0.000000 0.000000 1.715620 
# 
# From -- ./inp_files/5949.got.cif
#   From: 2010.03.12/outbox.cif.g09.slc.cpg/sg51_3_cif.got.tgz:5949.got - 2010.04.16 13:43:02.
