data_PCOD8212597
_publ_section_title
;
Structure prediction by ZEFSAII (Michael W. Deem and Ramdas Pophale) SiO2 
 PCOD8212597
Probable space group: P M M A
;
_chemical_formula_sum "Si O2"
_cell_formula_units_Z 64
_cell_length_a 9.079239
_cell_length_b 14.291855
_cell_length_c 25.416153
_cell_angle_alpha 90.000000
_cell_angle_beta 90.000000
_cell_angle_gamma 90.000000
_cell_volume 3297.978849
_symmetry_space_group_name_H-M "P M M A"
_symmetry_group_IT_number 51
_symmetry_cell_setting 'orthorhombic'
loop_
_space_group_symop_operation_xyz
x,y,z
1/2-x,-y,z
1/2+x,-y,-z
-x,y,-z
-x,-y,-z
1/2+x,y,-z
1/2-x,y,z
x,-y,z
loop_
_atom_site_type_symbol
_atom_site_label
_atom_site_fract_x
_atom_site_fract_y
_atom_site_fract_z
Si Si1 0.575947 0.302124 0.943497
Si Si2 0.420073 0.390011 0.659298
Si Si3 0.923786 0.897105 0.399123
Si Si4 0.580338 0.607559 0.149880
Si Si5 0.577502 0.708582 0.447887
Si Si6 0.417752 0.103611 0.291730
Si Si7 0.578938 0.294866 0.755391
Si Si8 0.920342 0.098699 0.945210
O O1 0.750000 0.320320 0.949205
O O2 0.506672 0.377398 0.904348
O O3 0.541293 0.198295 0.917979
O O4 0.500000 0.313742 0.000000
O O5 0.250000 0.363432 0.670741
O O6 0.444839 0.500000 0.661749
O O7 0.468387 0.354366 0.601791
O O8 0.523864 0.342423 0.702050
O O9 0.750000 0.894869 0.394371
O O10 0.976503 0.815951 0.438663
O O11 0.981617 0.873818 0.341370
O O12 0.979288 0.000000 0.418315
O O13 0.750000 0.635173 0.141651
O O14 0.563949 0.500000 0.166839
O O15 0.513492 0.670620 0.195448
O O16 0.500000 0.668980 0.500000
O O17 0.750000 0.703052 0.457593
O O18 0.250000 0.108359 0.311650
O O19 0.445159 0.182553 0.247638
O O20 0.453160 0.000000 0.268347
O O21 0.750000 0.320176 0.763741
O O22 0.750000 0.100461 0.958833
O O23 0.958416 0.000000 0.914016
O O24 0.000000 0.095757 0.000000
#
# Coordination Sequence:
#
# PCOD8212597 Si02
#       8
#     8   8   8   8   8   8   8   8
#     4  10  20  36  60  88 119 155 193 234 280 331
#     4  10  21  38  58  79 106 143 184 228 283 340
#     4   9  17  31  52  77 105 140 182 225 270 325
#     4  11  25  43  61  82 111 149 191 236 285 333
#     4  10  21  35  51  75 108 144 184 229 277 331
#     4   9  18  33  55  84 115 145 177 216 268 330
#     4  11  22  37  61  89 114 141 179 228 278 330
#     4   8  14  26  47  77 111 146 183 221 264 315
#
# _framework density 19.405826000000001
#
# number of rings (size 3 to 8) (size 9 to 14) (size 15 to 20)
#    0.000    2.250    1.250    1.500    0.000    5.500 
#    0.000    0.625    0.000    3.750    0.000    0.000 
#    0.000    0.000    0.000    0.000    0.000    0.000 
#
# Total GULP energy -793154.594163 kJ/mol
# GULP energy per Si atom -12393.040534 kJ/mol
# Density = 1.936166 g / cm^3
# Si number density = 19.405826 Si / 1000 Ang^3
#
#
#
# Elastic Constant Matrix: (Units=GPa)
#
#
# Indices 1 2 3 4 5 6 
#
# 1 64.8828 37.1763 37.9842 0.0000 0.0000 0.0000
# 2 37.1763 87.2194 41.5071 0.0000 0.0000 0.0000
# 3 37.9842 41.5071 92.7596 0.0000 0.0000 0.0000
# 4 0.0000 0.0000 0.0000 27.0280 0.0000 0.0000
# 5 0.0000 0.0000 0.0000 0.0000 32.8408 0.0000
# 6 0.0000 0.0000 0.0000 0.0000 0.0000 23.7093
#
#
#
# Elastic Compliance Matrix: (Units=1/GPa)
#
#
# Indices 1 2 3 4 5 6 
#
# 1 0.023043 -0.006774 -0.006405 0.000000 0.000000 0.000000
# 2 -0.006774 0.016559 -0.004636 0.000000 0.000000 0.000000
# 3 -0.006405 -0.004636 0.015478 0.000000 0.000000 0.000000
# 4 0.000000 0.000000 0.000000 0.036999 0.000000 0.000000
# 5 0.000000 0.000000 0.000000 0.000000 0.030450 0.000000
# 6 0.000000 0.000000 0.000000 0.000000 0.000000 0.042178
#
#
# Mechanical properties :
#
#
# Convention : Reuss Voigt Hill
#
# Bulk Modulus (GPa) = 51.41205 53.13300 52.27252
# Shear Modulus (GPa) = 24.17579 25.26189 24.71884
#
# Velocity S-wave (km/s) = 3.53342 3.61192 3.57288
# Velocity P-wave (km/s) = 6.57247 6.69582 6.63443
#
# Compressibility (1/GPa) = 0.01945069
#
# Stress axis : x y z
#
# Youngs Moduli (GPa) = 43.39650 60.39108 64.60933
#
# Poissons Ratio (x) = 0.40908 0.41382
# Poissons Ratio (y) = 0.29396 0.29951
# Poissons Ratio (z) = 0.27795 0.27995
#
# Static dielectric constant tensor:
#      x y z
#    x 3.545150 0.000000 0.000000 
#    y 0.000000 4.160570 0.000000 
#    z 0.000000 0.000000 3.247680 
# 
# 
# High freq. dielectric constant tensor:
#      x y z
#    x 1.756130 0.000000 0.000000 
#    y 0.000000 1.776050 0.000000 
#    z 0.000000 0.000000 1.726190 
# 
# From -- ./inp_files/34973.got.cif
#   From: 2010.03.12/outbox.cif.g09.slc.cpg/sg51_18_cif.got.tgz:34973.got - 2010.04.16 13:43:02.
