data_PCOD8212964
_publ_section_title
;
Structure prediction by ZEFSAII (Michael W. Deem and Ramdas Pophale) SiO2 
 PCOD8212964
Probable space group: P M M A
;
_chemical_formula_sum "Si O2"
_cell_formula_units_Z 64
_cell_length_a 14.958947
_cell_length_b 9.081272
_cell_length_c 24.523700
_cell_angle_alpha 90.000000
_cell_angle_beta 90.000000
_cell_angle_gamma 90.000000
_cell_volume 3331.453087
_symmetry_space_group_name_H-M "P M M A"
_symmetry_group_IT_number 51
_symmetry_cell_setting 'orthorhombic'
loop_
_space_group_symop_operation_xyz
x,y,z
1/2-x,-y,z
1/2+x,-y,-z
-x,y,-z
-x,-y,-z
1/2+x,y,-z
1/2-x,y,z
x,-y,z
loop_
_atom_site_type_symbol
_atom_site_label
_atom_site_fract_x
_atom_site_fract_y
_atom_site_fract_z
Si Si1 0.004677 0.174300 0.062324
Si Si2 0.352550 0.325341 0.133796
Si Si3 0.644288 0.660684 0.748908
Si Si4 0.002425 0.829567 0.564107
Si Si5 0.647466 0.324410 0.631060
Si Si6 0.354634 0.328485 0.633785
Si Si7 0.849369 0.175258 0.140183
Si Si8 0.355958 0.836721 0.740171
O O1 0.092361 0.246263 0.087146
O O2 0.916948 0.233653 0.094047
O O3 0.012935 0.000000 0.067523
O O4 0.000000 0.225609 0.000000
O O5 0.250000 0.285922 0.122190
O O6 0.367904 0.500000 0.132245
O O7 0.382876 0.260966 0.193862
O O8 0.750000 0.639739 0.749740
O O9 0.599087 0.500000 0.748518
O O10 0.618918 0.738840 0.691483
O O11 0.913854 0.753362 0.587000
O O12 0.000000 0.806313 0.500000
O O13 0.092288 0.754804 0.586545
O O14 0.002992 0.000000 0.580539
O O15 0.750000 0.283568 0.617806
O O16 0.634107 0.500000 0.629211
O O17 0.250000 0.294907 0.625441
O O18 0.376107 0.500000 0.630105
O O19 0.389360 0.272316 0.692772
O O20 0.750000 0.239386 0.128087
O O21 0.884690 0.225368 0.200238
O O22 0.844490 0.000000 0.139985
O O23 0.250000 0.847315 0.739857
O O24 0.396284 0.000000 0.729732
#
# Coordination Sequence:
#
# PCOD8212964 Si02
#       8
#     8   8   8   8   8   8   8   8
#     4  10  21  34  49  73 103 136 177 221 260 300
#     4   9  18  34  55  76 102 137 171 206 253 309
#     4   7  12  27  52  80 106 132 164 202 253 316
#     4  11  25  41  55  75 106 145 186 222 256 302
#     4   9  18  35  60  86 111 139 171 213 265 316
#     4  10  21  37  58  83 109 136 169 215 268 318
#     4   8  15  30  51  73 100 136 174 211 256 312
#     4   8  14  28  52  78 103 133 168 207 257 318
#
# _framework density 19.210836
#
# number of rings (size 3 to 8) (size 9 to 14) (size 15 to 20)
#    0.000    3.000    0.000    3.000    0.000    4.500 
#    0.000    7.500    0.000    3.375    0.000    0.000 
#    0.000    0.000    0.000    0.000    0.000    0.000 
#
# Total GULP energy -793067.058937 kJ/mol
# GULP energy per Si atom -12391.672796 kJ/mol
# Density = 1.916711 g / cm^3
# Si number density = 19.210836 Si / 1000 Ang^3
#
#
#
# Elastic Constant Matrix: (Units=GPa)
#
#
# Indices 1 2 3 4 5 6 
#
# 1 94.4468 41.8854 70.1529 0.0000 0.0000 0.0000
# 2 41.8854 59.8402 55.8493 0.0000 0.0000 0.0000
# 3 70.1529 55.8493 152.0961 0.0000 0.0000 0.0000
# 4 0.0000 0.0000 0.0000 6.5024 0.0000 0.0000
# 5 0.0000 0.0000 0.0000 0.0000 32.6959 0.0000
# 6 0.0000 0.0000 0.0000 0.0000 0.0000 24.2756
#
#
#
# Elastic Compliance Matrix: (Units=1/GPa)
#
#
# Indices 1 2 3 4 5 6 
#
# 1 0.018025 -0.007390 -0.005600 0.000000 0.000000 0.000000
# 2 -0.007390 0.028454 -0.007040 0.000000 0.000000 0.000000
# 3 -0.005600 -0.007040 0.011743 0.000000 0.000000 0.000000
# 4 0.000000 0.000000 0.000000 0.153790 0.000000 0.000000
# 5 0.000000 0.000000 0.000000 0.000000 0.030585 0.000000
# 6 0.000000 0.000000 0.000000 0.000000 0.000000 0.041194
#
#
# Mechanical properties :
#
#
# Convention : Reuss Voigt Hill
#
# Bulk Modulus (GPa) = 55.05993 71.35092 63.20543
# Shear Modulus (GPa) = 15.15591 21.92782 18.54187
#
# Velocity S-wave (km/s) = 2.81183 3.38217 3.11010
# Velocity P-wave (km/s) = 6.26617 7.24387 6.77269
#
# Compressibility (1/GPa) = 0.01816203
#
# Stress axis : x y z
#
# Youngs Moduli (GPa) = 55.47842 35.14448 85.15804
#
# Poissons Ratio (x) = 0.25971 0.47691
# Poissons Ratio (y) = 0.40998 0.59949
# Poissons Ratio (z) = 0.31070 0.24741
#
# Static dielectric constant tensor:
#      x y z
#    x 3.466390 0.000000 0.000000 
#    y 0.000000 3.219260 0.000000 
#    z 0.000000 0.000000 4.572510 
# 
# 
# High freq. dielectric constant tensor:
#      x y z
#    x 1.740410 0.000000 0.000000 
#    y 0.000000 1.713770 0.000000 
#    z 0.000000 0.000000 1.757050 
# 
# From -- ./inp_files/35724.got.cif
#   From: 2010.03.12/outbox.cif.g09.slc.cpg/sg51_18_cif.got.tgz:35724.got - 2010.04.16 13:43:02.
