data_PCOD8212036
_publ_section_title
;
Structure prediction by ZEFSAII (Michael W. Deem and Ramdas Pophale) SiO2 
 PCOD8212036
Probable space group: P M M A
;
_chemical_formula_sum "Si O2"
_cell_formula_units_Z 44
_cell_length_a 9.206392
_cell_length_b 17.697632
_cell_length_c 14.281125
_cell_angle_alpha 90.000000
_cell_angle_beta 90.000000
_cell_angle_gamma 90.000000
_cell_volume 2326.842800
_symmetry_space_group_name_H-M "P M M A"
_symmetry_group_IT_number 51
_symmetry_cell_setting 'orthorhombic'
loop_
_space_group_symop_operation_xyz
x,y,z
1/2-x,-y,z
1/2+x,-y,-z
-x,y,-z
-x,-y,-z
1/2+x,y,-z
1/2-x,y,z
x,-y,z
loop_
_atom_site_type_symbol
_atom_site_label
_atom_site_fract_x
_atom_site_fract_y
_atom_site_fract_z
Si Si1 0.923207 0.500000 0.599751
Si Si2 0.583319 0.628818 0.293163
Si Si3 0.918094 0.324459 0.089685
Si Si4 0.420931 0.849113 0.908657
Si Si5 0.577234 0.915810 0.284526
Si Si6 0.582745 0.220721 0.406089
O O1 0.750000 0.500000 0.586987
O O2 0.000000 0.500000 0.500000
O O3 0.971759 0.426027 0.655703
O O4 0.750000 0.602229 0.309568
O O5 0.544877 0.628227 0.182989
O O6 0.561825 0.713140 0.331071
O O7 0.750000 0.329387 0.066286
O O8 0.965254 0.238009 0.106096
O O9 0.000000 0.359712 0.000000
O O10 0.250000 0.859223 0.921991
O O11 0.479538 0.894881 0.818868
O O12 0.500000 0.882612 0.000000
O O13 0.750000 0.909972 0.283057
O O14 0.517785 0.856350 0.361186
O O15 0.523728 0.000000 0.311369
O O16 0.500000 0.242219 0.500000
O O17 0.750000 0.210162 0.432623
#
# Coordination Sequence:
#
# PCOD8212036 Si02
#       6
#     4   8   8   8   8   8
#     4  12  26  42  61  88 117 144 179 224 276 328
#     4  10  20  38  61  83 112 147 183 224 271 324
#     4   9  17  31  54  82 111 144 182 223 267 318
#     4   9  16  29  49  75 105 140 179 220 265 315
#     4   9  17  31  51  74 104 143 183 221 266 323
#     4  10  20  35  55  78 103 137 183 227 270 323
#
# _framework density 18.909742000000001
#
# number of rings (size 3 to 8) (size 9 to 14) (size 15 to 20)
#    0.000    2.364    1.818    1.364    0.000    3.636 
#    0.000    1.364    0.000    1.091    0.000    0.000 
#    0.000    0.000    0.000    0.000    0.000    0.000 
#
# Total GULP energy -545578.194661 kJ/mol
# GULP energy per Si atom -12399.504424 kJ/mol
# Density = 1.886670 g / cm^3
# Si number density = 18.909742 Si / 1000 Ang^3
#
#
#
# Elastic Constant Matrix: (Units=GPa)
#
#
# Indices 1 2 3 4 5 6 
#
# 1 63.4930 35.0525 50.3543 0.0000 0.0000 0.0000
# 2 35.0525 81.8919 38.0976 0.0000 0.0000 0.0000
# 3 50.3543 38.0976 130.5138 0.0000 0.0000 0.0000
# 4 0.0000 0.0000 0.0000 22.8219 0.0000 0.0000
# 5 0.0000 0.0000 0.0000 0.0000 32.8072 0.0000
# 6 0.0000 0.0000 0.0000 0.0000 0.0000 14.7903
#
#
#
# Elastic Compliance Matrix: (Units=1/GPa)
#
#
# Indices 1 2 3 4 5 6 
#
# 1 0.026170 -0.007526 -0.007900 0.000000 0.000000 0.000000
# 2 -0.007526 0.016295 -0.001853 0.000000 0.000000 0.000000
# 3 -0.007900 -0.001853 0.011251 0.000000 0.000000 0.000000
# 4 0.000000 0.000000 0.000000 0.043818 0.000000 0.000000
# 5 0.000000 0.000000 0.000000 0.000000 0.030481 0.000000
# 6 0.000000 0.000000 0.000000 0.000000 0.000000 0.067612
#
#
# Mechanical properties :
#
#
# Convention : Reuss Voigt Hill
#
# Bulk Modulus (GPa) = 52.19890 58.10083 55.14987
# Shear Modulus (GPa) = 21.13545 24.24352 22.68948
#
# Velocity S-wave (km/s) = 3.34683 3.58448 3.46769
# Velocity P-wave (km/s) = 6.52681 6.92267 6.72765
#
# Compressibility (1/GPa) = 0.01915749
#
# Stress axis : x y z
#
# Youngs Moduli (GPa) = 38.21178 61.36969 88.88356
#
# Poissons Ratio (x) = 0.46190 0.70216
# Poissons Ratio (y) = 0.28760 0.16467
# Poissons Ratio (z) = 0.30186 0.11370
#
# Static dielectric constant tensor:
#      x y z
#    x 3.199740 0.000000 0.000000 
#    y 0.000000 3.435380 0.000000 
#    z 0.000000 0.000000 3.632220 
# 
# 
# High freq. dielectric constant tensor:
#      x y z
#    x 1.703100 0.000000 0.000000 
#    y 0.000000 1.725740 0.000000 
#    z 0.000000 0.000000 1.747390 
# 
# From -- ./inp_files/20935.got.cif
#   From: 2010.03.12/outbox.cif.g09.slc.cpg/sg51_11_cif.got.tgz:20935.got - 2010.04.16 13:43:02.
