data_PCOD8212054
_publ_section_title
;
Structure prediction by ZEFSAII (Michael W. Deem and Ramdas Pophale) SiO2 
 PCOD8212054
Probable space group: P M M A
;
_chemical_formula_sum "Si O2"
_cell_formula_units_Z 36
_cell_length_a 9.033724
_cell_length_b 22.667215
_cell_length_c 9.426068
_cell_angle_alpha 90.000000
_cell_angle_beta 90.000000
_cell_angle_gamma 90.000000
_cell_volume 1930.169951
_symmetry_space_group_name_H-M "P M M A"
_symmetry_group_IT_number 51
_symmetry_cell_setting 'orthorhombic'
loop_
_space_group_symop_operation_xyz
x,y,z
1/2-x,-y,z
1/2+x,-y,-z
-x,y,-z
-x,-y,-z
1/2+x,y,-z
1/2-x,y,z
x,-y,z
loop_
_atom_site_type_symbol
_atom_site_label
_atom_site_fract_x
_atom_site_fract_y
_atom_site_fract_z
Si Si1 0.422327 0.710748 0.145057
Si Si2 0.424364 0.500000 0.152819
Si Si3 0.423950 0.845316 0.145718
Si Si4 0.924160 0.391586 0.651419
Si Si5 0.079705 0.065559 0.648658
O O1 0.250000 0.702363 0.116117
O O2 0.461807 0.777844 0.186130
O O3 0.473988 0.669877 0.275660
O O4 0.500000 0.690936 0.000000
O O5 0.250000 0.500000 0.126772
O O6 0.475314 0.556709 0.242853
O O7 0.500000 0.500000 0.000000
O O8 0.250000 0.856060 0.132647
O O9 0.491677 0.887118 0.262206
O O10 0.500000 0.863145 0.000000
O O11 0.750000 0.394062 0.624948
O O12 0.000000 0.398655 0.500000
O O13 0.250000 0.085323 0.631695
O O14 0.000000 0.064033 0.500000
O O15 0.070705 0.000000 0.717684
#
# Coordination Sequence:
#
# PCOD8212054 Si02
#       5
#     8   4   8   8   8
#     4   9  19  35  54  77 105 137 175 216 259 310
#     4  10  21  36  56  80 106 138 177 218 260 310
#     4  10  20  35  55  79 107 139 176 219 264 312
#     4  10  21  36  53  78 109 139 175 217 260 308
#     4  10  21  37  56  78 105 138 175 216 264 317
#
# _framework density 18.651206999999999
#
# number of rings (size 3 to 8) (size 9 to 14) (size 15 to 20)
#    0.000    2.222    0.000    2.333    0.000    5.333 
#    0.000    2.222    0.000    0.000    0.000    0.000 
#    0.000    0.000    0.000    0.000    0.000    0.000 
#
# Total GULP energy -446421.507489 kJ/mol
# GULP energy per Si atom -12400.597430 kJ/mol
# Density = 1.860876 g / cm^3
# Si number density = 18.651207 Si / 1000 Ang^3
#
#
#
# Elastic Constant Matrix: (Units=GPa)
#
#
# Indices 1 2 3 4 5 6 
#
# 1 76.8534 44.9944 53.9463 0.0000 0.0000 0.0000
# 2 44.9944 109.5223 77.7258 0.0000 0.0000 0.0000
# 3 53.9463 77.7258 140.7544 0.0000 0.0000 0.0000
# 4 0.0000 0.0000 0.0000 39.7762 0.0000 0.0000
# 5 0.0000 0.0000 0.0000 0.0000 41.6616 0.0000
# 6 0.0000 0.0000 0.0000 0.0000 0.0000 27.1873
#
#
#
# Elastic Compliance Matrix: (Units=1/GPa)
#
#
# Indices 1 2 3 4 5 6 
#
# 1 0.018973 -0.004331 -0.004880 0.000000 0.000000 0.000000
# 2 -0.004331 0.016004 -0.007177 0.000000 0.000000 0.000000
# 3 -0.004880 -0.007177 0.012938 0.000000 0.000000 0.000000
# 4 0.000000 0.000000 0.000000 0.025141 0.000000 0.000000
# 5 0.000000 0.000000 0.000000 0.000000 0.024003 0.000000
# 6 0.000000 0.000000 0.000000 0.000000 0.000000 0.036782
#
#
# Mechanical properties :
#
#
# Convention : Reuss Voigt Hill
#
# Bulk Modulus (GPa) = 66.06009 75.60703 70.83356
# Shear Modulus (GPa) = 29.12683 31.75593 30.44138
#
# Velocity S-wave (km/s) = 3.95607 4.13076 4.04436
# Velocity P-wave (km/s) = 7.50752 7.96092 7.73754
#
# Compressibility (1/GPa) = 0.01513773
#
# Stress axis : x y z
#
# Youngs Moduli (GPa) = 52.70648 62.48621 77.29085
#
# Poissons Ratio (x) = 0.27066 0.37717
# Poissons Ratio (y) = 0.22830 0.55473
# Poissons Ratio (z) = 0.25720 0.44848
#
# Static dielectric constant tensor:
#      x y z
#    x 3.455630 0.000000 0.000000 
#    y 0.000000 3.739240 0.000000 
#    z 0.000000 0.000000 3.338990 
# 
# 
# High freq. dielectric constant tensor:
#      x y z
#    x 1.727650 0.000000 0.000000 
#    y 0.000000 1.737840 0.000000 
#    z 0.000000 0.000000 1.721930 
# 
# From -- ./inp_files/5199.got.cif
#   From: 2010.03.12/outbox.cif.g09.slc.cpg/sg51_3_cif.got.tgz:5199.got - 2010.04.16 13:43:02.
