data_PCOD8212932
_publ_section_title
;
Structure prediction by ZEFSAII (Michael W. Deem and Ramdas Pophale) SiO2 
 PCOD8212932
Probable space group: P M M A
;
_chemical_formula_sum "Si O2"
_cell_formula_units_Z 40
_cell_length_a 9.508876
_cell_length_b 26.313620
_cell_length_c 9.065635
_cell_angle_alpha 90.000000
_cell_angle_beta 90.000000
_cell_angle_gamma 90.000000
_cell_volume 2268.339274
_symmetry_space_group_name_H-M "P M M A"
_symmetry_group_IT_number 51
_symmetry_cell_setting 'orthorhombic'
loop_
_space_group_symop_operation_xyz
x,y,z
1/2-x,-y,z
1/2+x,-y,-z
-x,y,-z
-x,-y,-z
1/2+x,y,-z
1/2-x,y,z
x,-y,z
loop_
_atom_site_type_symbol
_atom_site_label
_atom_site_fract_x
_atom_site_fract_y
_atom_site_fract_z
Si Si1 0.590936 0.297765 0.357081
Si Si2 0.584569 0.500000 0.148654
Si Si3 0.086959 0.592437 0.649455
Si Si4 0.913760 0.812458 0.349295
Si Si5 0.913254 0.000000 0.350838
Si Si6 0.085376 0.095183 0.850956
O O1 0.500000 0.298966 0.500000
O O2 0.750000 0.297044 0.412777
O O3 0.562740 0.351499 0.272986
O O4 0.559979 0.243917 0.275343
O O5 0.750000 0.500000 0.115435
O O6 0.536400 0.450030 0.236922
O O7 0.500000 0.500000 0.000000
O O8 0.250000 0.584092 0.609033
O O9 0.000000 0.586807 0.500000
O O10 0.750000 0.821181 0.387919
O O11 0.963593 0.852922 0.228329
O O12 0.000000 0.819495 0.500000
O O13 0.953793 0.950724 0.256861
O O14 0.000000 0.000000 0.500000
O O15 0.750000 0.000000 0.393545
O O16 0.250000 0.095602 0.889731
O O17 0.000000 0.088423 0.000000
#
# Coordination Sequence:
#
# PCOD8212932 Si02
#       6
#     8   4   8   8   4   8
#     4   8  14  26  45  68  93 118 147 188 232 271
#     4  10  21  34  46  64  92 124 155 188 230 278
#     4   9  17  30  49  71  92 117 152 192 233 276
#     4   9  17  30  49  72  96 123 156 192 230 274
#     4  10  21  36  54  76  98 122 157 198 238 280
#     4  10  21  35  50  71  99 129 160 193 231 276
#
# _framework density 17.634046000000001
#
# number of rings (size 3 to 8) (size 9 to 14) (size 15 to 20)
#    0.000    2.800    0.000    1.200    0.000    2.400 
#    0.000    1.000    0.000    0.000    0.000    0.000 
#    0.000    0.000    0.000    0.000    0.000    0.000 
#
# Total GULP energy -495554.804199 kJ/mol
# GULP energy per Si atom -12388.870105 kJ/mol
# Density = 1.759391 g / cm^3
# Si number density = 17.634046 Si / 1000 Ang^3
#
#
#
# Elastic Constant Matrix: (Units=GPa)
#
#
# Indices 1 2 3 4 5 6 
#
# 1 47.7408 46.8982 50.7741 0.0000 0.0000 0.0000
# 2 46.8982 195.2728 83.6982 0.0000 0.0000 0.0000
# 3 50.7741 83.6982 114.2196 0.0000 0.0000 0.0000
# 4 0.0000 0.0000 0.0000 3.0957 0.0000 0.0000
# 5 0.0000 0.0000 0.0000 0.0000 31.6182 0.0000
# 6 0.0000 0.0000 0.0000 0.0000 0.0000 16.6506
#
#
#
# Elastic Compliance Matrix: (Units=1/GPa)
#
#
# Indices 1 2 3 4 5 6 
#
# 1 0.040868 -0.002957 -0.016000 0.000000 0.000000 0.000000
# 2 -0.002957 0.007680 -0.004313 0.000000 0.000000 0.000000
# 3 -0.016000 -0.004313 0.019028 0.000000 0.000000 0.000000
# 4 0.000000 0.000000 0.000000 0.323024 0.000000 0.000000
# 5 0.000000 0.000000 0.000000 0.000000 0.031627 0.000000
# 6 0.000000 0.000000 0.000000 0.000000 0.000000 0.060058
#
#
# Mechanical properties :
#
#
# Convention : Reuss Voigt Hill
#
# Bulk Modulus (GPa) = 47.53912 79.99714 63.76813
# Shear Modulus (GPa) = 9.33116 21.99710 15.66413
#
# Velocity S-wave (km/s) = 2.30283 3.53572 2.98365
# Velocity P-wave (km/s) = 5.83849 7.88239 6.93614
#
# Compressibility (1/GPa) = 0.02103531
#
# Stress axis : x y z
#
# Youngs Moduli (GPa) = 24.46889 130.20838 52.55330
#
# Poissons Ratio (x) = 0.38505 0.84086
# Poissons Ratio (y) = 0.07236 0.22667
# Poissons Ratio (z) = 0.39151 0.56162
#
# Static dielectric constant tensor:
#      x y z
#    x 3.263080 0.000000 0.000000 
#    y 0.000000 4.245770 0.000000 
#    z 0.000000 0.000000 2.191940 
# 
# 
# High freq. dielectric constant tensor:
#      x y z
#    x 1.681600 0.000000 0.000000 
#    y 0.000000 1.718320 0.000000 
#    z 0.000000 0.000000 1.637820 
# 
# From -- ./inp_files/5530.got.cif
#   From: 2010.03.12/outbox.cif.g09.slc.cpg/sg51_3_cif.got.tgz:5530.got - 2010.04.16 13:43:02.
