data_PCOD8212845
_publ_section_title
;
Structure prediction by ZEFSAII (Michael W. Deem and Ramdas Pophale) SiO2 
 PCOD8212845
Probable space group: P M M A
;
_chemical_formula_sum "Si O2"
_cell_formula_units_Z 56
_cell_length_a 21.516645
_cell_length_b 9.293340
_cell_length_c 14.509202
_cell_angle_alpha 90.000000
_cell_angle_beta 90.000000
_cell_angle_gamma 90.000000
_cell_volume 2901.281762
_symmetry_space_group_name_H-M "P M M A"
_symmetry_group_IT_number 51
_symmetry_cell_setting 'orthorhombic'
loop_
_space_group_symop_operation_xyz
x,y,z
1/2-x,-y,z
1/2+x,-y,-z
-x,y,-z
-x,-y,-z
1/2+x,y,-z
1/2-x,y,z
x,-y,z
loop_
_atom_site_type_symbol
_atom_site_label
_atom_site_fract_x
_atom_site_fract_y
_atom_site_fract_z
Si Si1 0.929819 0.341473 0.471093
Si Si2 0.177741 0.834517 0.853962
Si Si3 0.872953 0.169045 0.629364
Si Si4 0.581947 0.330589 0.258634
Si Si5 0.750000 0.341777 0.661670
Si Si6 0.250000 0.344316 0.124606
Si Si7 0.862729 0.836543 0.944594
Si Si8 0.037660 0.833019 0.202216
O O1 0.898167 0.500000 0.485033
O O2 0.901512 0.215397 0.532276
O O3 0.923882 0.291984 0.365715
O O4 0.000000 0.357651 0.500000
O O5 0.250000 0.790397 0.870680
O O6 0.147367 0.734471 0.776165
O O7 0.174101 0.000000 0.822160
O O8 0.136552 0.810553 0.945990
O O9 0.809009 0.251462 0.633059
O O10 0.917083 0.214299 0.714359
O O11 0.860602 0.000000 0.630223
O O12 0.580979 0.500000 0.240161
O O13 0.524616 0.260394 0.203730
O O14 0.750000 0.500000 0.613376
O O15 0.750000 0.368034 0.768502
O O16 0.250000 0.500000 0.074664
O O17 0.311615 0.262152 0.099653
O O18 0.928867 0.803007 0.896297
O O19 0.843317 0.000000 0.922354
O O20 0.019214 0.000000 0.212072
#
# Coordination Sequence:
#
# PCOD8212845 Si02
#       8
#     8   8   8   8   4   4   8   8
#     4  10  21  40  63  85 115 158 199 240 302 371
#     4  10  22  42  67  88 114 159 207 250 294 346
#     4  11  22  36  60  91 121 156 201 256 302 348
#     4  11  24  41  63  88 120 158 196 247 302 359
#     4  11  23  37  55  84 127 168 197 239 304 372
#     4  11  21  31  53  88 121 158 199 243 290 344
#     4  10  20  38  62  87 119 159 201 241 291 352
#     4  10  21  36  60  92 124 156 194 245 297 352
#
# _framework density 19.301812999999999
#
# number of rings (size 3 to 8) (size 9 to 14) (size 15 to 20)
#    0.000    1.571    3.571    1.286    0.000    4.571 
#    1.286    2.857    0.000    0.000    0.000    0.000 
#    0.000    0.000    0.000    0.000    0.000    0.000 
#
# Total GULP energy -694369.456579 kJ/mol
# GULP energy per Si atom -12399.454582 kJ/mol
# Density = 1.925788 g / cm^3
# Si number density = 19.301813 Si / 1000 Ang^3
#
#
#
# Elastic Constant Matrix: (Units=GPa)
#
#
# Indices 1 2 3 4 5 6 
#
# 1 94.6330 51.5022 43.4896 0.0000 0.0000 0.0000
# 2 51.5022 91.7689 42.6488 0.0000 0.0000 0.0000
# 3 43.4896 42.6488 106.1131 0.0000 0.0000 0.0000
# 4 0.0000 0.0000 0.0000 33.0773 0.0000 0.0000
# 5 0.0000 0.0000 0.0000 0.0000 33.3737 0.0000
# 6 0.0000 0.0000 0.0000 0.0000 0.0000 71.4678
#
#
#
# Elastic Compliance Matrix: (Units=1/GPa)
#
#
# Indices 1 2 3 4 5 6 
#
# 1 0.016314 -0.007437 -0.003697 0.000000 0.000000 0.000000
# 2 -0.007437 0.016791 -0.003700 0.000000 0.000000 0.000000
# 3 -0.003697 -0.003700 0.012426 0.000000 0.000000 0.000000
# 4 0.000000 0.000000 0.000000 0.030232 0.000000 0.000000
# 5 0.000000 0.000000 0.000000 0.000000 0.029964 0.000000
# 6 0.000000 0.000000 0.000000 0.000000 0.000000 0.013992
#
#
# Mechanical properties :
#
#
# Convention : Reuss Voigt Hill
#
# Bulk Modulus (GPa) = 63.04574 63.08846 63.06710
# Shear Modulus (GPa) = 32.32581 37.90871 35.11726
#
# Velocity S-wave (km/s) = 4.09682 4.43651 4.27004
# Velocity P-wave (km/s) = 7.42378 7.68113 7.55355
#
# Compressibility (1/GPa) = 0.01586150
#
# Stress axis : x y z
#
# Youngs Moduli (GPa) = 61.29794 59.55700 80.47495
#
# Poissons Ratio (x) = 0.44295 0.29750
# Poissons Ratio (y) = 0.45590 0.29778
# Poissons Ratio (z) = 0.22661 0.22038
#
# Static dielectric constant tensor:
#      x y z
#    x 3.032410 0.000000 0.000000 
#    y 0.000000 3.644130 0.000000 
#    z 0.000000 0.000000 3.827120 
# 
# 
# High freq. dielectric constant tensor:
#      x y z
#    x 1.747680 0.000000 0.000000 
#    y 0.000000 1.757090 0.000000 
#    z 0.000000 0.000000 1.748150 
# 
# From -- ./inp_files/25856.got.cif
#   From: 2010.03.12/outbox.cif.g09.slc.cpg/sg51_13_cif.got.tgz:25856.got - 2010.04.16 13:43:02.
