data_PCOD8212706
_publ_section_title
;
Structure prediction by ZEFSAII (Michael W. Deem and Ramdas Pophale) SiO2 
 PCOD8212706
Probable space group: P M M A
;
_chemical_formula_sum "Si O2"
_cell_formula_units_Z 56
_cell_length_a 8.708472
_cell_length_b 21.320072
_cell_length_c 15.483466
_cell_angle_alpha 90.000000
_cell_angle_beta 90.000000
_cell_angle_gamma 90.000000
_cell_volume 2874.741587
_symmetry_space_group_name_H-M "P M M A"
_symmetry_group_IT_number 51
_symmetry_cell_setting 'orthorhombic'
loop_
_space_group_symop_operation_xyz
x,y,z
1/2-x,-y,z
1/2+x,-y,-z
-x,y,-z
-x,-y,-z
1/2+x,y,-z
1/2-x,y,z
x,-y,z
loop_
_atom_site_type_symbol
_atom_site_label
_atom_site_fract_x
_atom_site_fract_y
_atom_site_fract_z
Si Si1 0.067421 0.628807 0.410682
Si Si2 0.932104 0.290070 0.750102
Si Si3 0.068549 0.500000 0.850165
Si Si4 0.931415 0.500000 0.350026
Si Si5 0.067391 0.851738 0.253249
Si Si6 0.569120 0.928344 0.409328
Si Si7 0.931327 0.928753 0.910982
Si Si8 0.432643 0.628836 0.089324
O O1 0.250000 0.626590 0.414354
O O2 0.007151 0.674302 0.334840
O O3 0.000000 0.655738 0.500000
O O4 0.003135 0.559740 0.396012
O O5 0.750000 0.290021 0.750782
O O6 0.994771 0.219267 0.750223
O O7 0.993562 0.325819 0.834778
O O8 0.250000 0.500000 0.863567
O O9 0.021700 0.500000 0.750056
O O10 0.996664 0.440290 0.896123
O O11 0.750000 0.500000 0.363443
O O12 0.250000 0.854792 0.259371
O O13 0.006934 0.886758 0.167628
O O14 0.998386 0.884494 0.336269
O O15 0.500000 0.905778 0.500000
O O16 0.750000 0.920686 0.413247
O O17 0.520250 0.000000 0.389985
O O18 0.750000 0.925138 0.917494
O O19 0.987731 0.000000 0.895392
O O20 0.000000 0.901985 0.000000
O O21 0.250000 0.626796 0.085797
O O22 0.500000 0.655752 0.000000
#
# Coordination Sequence:
#
# PCOD8212706 Si02
#       8
#     8   8   4   4   8   8   8   8
#     4  11  22  39  60  83 111 147 186 226 280 335
#     4   9  21  39  58  80 112 152 189 229 277 334
#     4  11  22  37  60  88 114 142 184 237 289 337
#     4  11  22  37  60  88 114 140 180 233 283 333
#     4  10  20  37  59  83 113 150 193 234 281 334
#     4  10  21  37  58  86 117 149 187 233 284 337
#     4   9  18  32  53  81 112 146 183 227 277 327
#     4  11  22  39  60  84 114 150 190 232 285 340
#
# _framework density 19.480011000000001
#
# number of rings (size 3 to 8) (size 9 to 14) (size 15 to 20)
#    0.000    1.857    1.429    2.571    0.000    3.714 
#    0.000    5.714    0.000    0.000    0.000    0.000 
#    0.000    0.000    0.000    0.000    0.000    0.000 
#
# Total GULP energy -694622.853760 kJ/mol
# GULP energy per Si atom -12403.979531 kJ/mol
# Density = 1.943567 g / cm^3
# Si number density = 19.480011 Si / 1000 Ang^3
#
#
#
# Elastic Constant Matrix: (Units=GPa)
#
#
# Indices 1 2 3 4 5 6 
#
# 1 52.2722 29.5705 42.7026 0.0000 0.0000 0.0000
# 2 29.5705 145.3220 97.9323 0.0000 0.0000 0.0000
# 3 42.7026 97.9323 198.8088 0.0000 0.0000 0.0000
# 4 0.0000 0.0000 0.0000 4.6814 0.0000 0.0000
# 5 0.0000 0.0000 0.0000 0.0000 35.9876 0.0000
# 6 0.0000 0.0000 0.0000 0.0000 0.0000 12.0294
#
#
#
# Elastic Compliance Matrix: (Units=1/GPa)
#
#
# Indices 1 2 3 4 5 6 
#
# 1 0.023613 -0.002076 -0.004049 0.000000 0.000000 0.000000
# 2 -0.002076 0.010483 -0.004718 0.000000 0.000000 0.000000
# 3 -0.004049 -0.004718 0.008224 0.000000 0.000000 0.000000
# 4 0.000000 0.000000 0.000000 0.213609 0.000000 0.000000
# 5 0.000000 0.000000 0.000000 0.000000 0.027787 0.000000
# 6 0.000000 0.000000 0.000000 0.000000 0.000000 0.083130
#
#
# Mechanical properties :
#
#
# Convention : Reuss Voigt Hill
#
# Bulk Modulus (GPa) = 48.46538 81.86821 65.16680
# Shear Modulus (GPa) = 12.64508 25.61951 19.13230
#
# Velocity S-wave (km/s) = 2.55057 3.63046 3.13733
# Velocity P-wave (km/s) = 5.79719 7.72604 6.83005
#
# Compressibility (1/GPa) = 0.02063329
#
# Stress axis : x y z
#
# Youngs Moduli (GPa) = 42.34961 95.39062 121.59830
#
# Poissons Ratio (x) = 0.19804 0.49238
# Poissons Ratio (y) = 0.08792 0.57371
# Poissons Ratio (z) = 0.17148 0.45006
#
# Static dielectric constant tensor:
#      x y z
#    x 3.428750 0.000000 0.000000 
#    y 0.000000 3.680120 0.000000 
#    z 0.000000 0.000000 3.865140 
# 
# 
# High freq. dielectric constant tensor:
#      x y z
#    x 1.747490 0.000000 0.000000 
#    y 0.000000 1.755030 0.000000 
#    z 0.000000 0.000000 1.778400 
# 
# From -- ./inp_files/21905.got.cif
#   From: 2010.03.12/outbox.cif.g09.slc.cpg/sg51_11_cif.got.tgz:21905.got - 2010.04.16 13:43:02.
