data_PCOD8212538
_publ_section_title
;
Structure prediction by ZEFSAII (Michael W. Deem and Ramdas Pophale) SiO2 
 PCOD8212538
Probable space group: P M M A
;
_chemical_formula_sum "Si O2"
_cell_formula_units_Z 48
_cell_length_a 29.963349
_cell_length_b 8.946455
_cell_length_c 9.426848
_cell_angle_alpha 90.000000
_cell_angle_beta 90.000000
_cell_angle_gamma 90.000000
_cell_volume 2527.015112
_symmetry_space_group_name_H-M "P M M A"
_symmetry_group_IT_number 51
_symmetry_cell_setting 'orthorhombic'
loop_
_space_group_symop_operation_xyz
x,y,z
1/2-x,-y,z
1/2+x,-y,-z
-x,y,-z
-x,-y,-z
1/2+x,y,-z
1/2-x,y,z
x,-y,z
loop_
_atom_site_type_symbol
_atom_site_label
_atom_site_fract_x
_atom_site_fract_y
_atom_site_fract_z
Si Si1 0.175534 0.829093 0.341623
Si Si2 0.426511 0.174349 0.356612
Si Si3 0.172582 0.174812 0.667104
Si Si4 0.750000 0.675496 0.835656
Si Si5 0.995622 0.328263 0.837242
Si Si6 0.420023 0.673279 0.645615
Si Si7 0.250000 0.322737 0.841659
O O1 0.124108 0.790408 0.310793
O O2 0.187062 0.795193 0.505250
O O3 0.205422 0.728260 0.241655
O O4 0.186348 0.000000 0.305614
O O5 0.458242 0.222441 0.229310
O O6 0.439382 0.266323 0.497109
O O7 0.432279 0.000000 0.391472
O O8 0.123082 0.235166 0.694966
O O9 0.205880 0.260276 0.769142
O O10 0.173451 0.000000 0.702425
O O11 0.750000 0.500000 0.832533
O O12 0.750000 0.733738 0.996573
O O13 0.980418 0.500000 0.820221
O O14 0.043028 0.300610 0.764592
O O15 0.000000 0.281828 0.000000
O O16 0.407430 0.500000 0.628347
O O17 0.250000 0.500000 0.829015
#
# Coordination Sequence:
#
# PCOD8212538 Si02
#       7
#     8   8   8   4   8   8   4
#     4   9  20  38  58  81 109 140 178 225 274 323
#     4  10  21  37  58  84 111 142 184 231 276 326
#     4  10  21  38  60  85 110 141 184 231 276 323
#     4  11  24  37  54  82 112 145 184 223 266 322
#     4  10  22  38  55  79 113 150 185 225 276 331
#     4  10  20  36  59  84 110 144 184 226 275 328
#     4  11  24  39  54  80 116 149 182 221 270 328
#
# _framework density 18.994744000000001
#
# number of rings (size 3 to 8) (size 9 to 14) (size 15 to 20)
#    0.000    2.000    0.000    4.000    0.000   12.333 
#    0.000    5.000    0.000    0.000    0.000    0.000 
#    0.000    0.000    0.000    0.000    0.000    0.000 
#
# Total GULP energy -595441.200602 kJ/mol
# GULP energy per Si atom -12405.025013 kJ/mol
# Density = 1.895151 g / cm^3
# Si number density = 18.994744 Si / 1000 Ang^3
#
#
#
# Elastic Constant Matrix: (Units=GPa)
#
#
# Indices 1 2 3 4 5 6 
#
# 1 97.4357 48.5945 73.8082 0.0000 0.0000 0.0000
# 2 48.5945 81.7852 54.7729 0.0000 0.0000 0.0000
# 3 73.8082 54.7729 130.5800 0.0000 0.0000 0.0000
# 4 0.0000 0.0000 0.0000 19.4338 0.0000 0.0000
# 5 0.0000 0.0000 0.0000 0.0000 -4.7131 0.0000
# 6 0.0000 0.0000 0.0000 0.0000 0.0000 37.6895
#
#
#
# Elastic Compliance Matrix: (Units=1/GPa)
#
#
# Indices 1 2 3 4 5 6 
#
# 1 0.019830 -0.005946 -0.008714 0.000000 0.000000 0.000000
# 2 -0.005946 0.018787 -0.004519 0.000000 0.000000 0.000000
# 3 -0.008714 -0.004519 0.014479 0.000000 0.000000 0.000000
# 4 0.000000 0.000000 0.000000 0.051457 0.000000 0.000000
# 5 0.000000 0.000000 0.000000 0.000000 -0.212177 0.000000
# 6 0.000000 0.000000 0.000000 0.000000 0.000000 0.026533
#
#
# Mechanical properties :
#
#
# Convention : Reuss Voigt Hill
#
# Bulk Modulus (GPa) = 67.85880 73.79467 70.82673
# Shear Modulus (GPa) = -132.20869 19.32374 -56.44248
#
# Velocity S-wave (km/s) = -8.35188 3.19301 -5.45704
# Velocity P-wave (km/s) = 7.56324 7.24763 1.52880
#
# Compressibility (1/GPa) = 0.01473648
#
# Stress axis : x y z
#
# Youngs Moduli (GPa) = 50.42874 53.22853 69.06351
#
# Poissons Ratio (x) = 0.31651 0.60184
# Poissons Ratio (y) = 0.29986 0.31212
# Poissons Ratio (z) = 0.43945 0.24056
#
# Static dielectric constant tensor:
#      x y z
#    x 3.512460 0.000000 0.000000 
#    y 0.000000 3.542980 0.000000 
#    z 0.000000 0.000000 3.513920 
# 
# 
# High freq. dielectric constant tensor:
#      x y z
#    x 1.749040 0.000000 0.000000 
#    y 0.000000 1.747700 0.000000 
#    z 0.000000 0.000000 1.735470 
# 
# From -- ./inp_files/12887.got.cif
#   From: 2010.03.12/outbox.cif.g09.slc.cpg/sg51_7_cif.got.tgz:12887.got - 2010.04.16 13:43:02.
