data_PCOD8212290
_publ_section_title
;
Structure prediction by ZEFSAII (Michael W. Deem and Ramdas Pophale) SiO2 
 PCOD8212290
Probable space group: P M M A
;
_chemical_formula_sum "Si O2"
_cell_formula_units_Z 64
_cell_length_a 9.162696
_cell_length_b 15.342510
_cell_length_c 23.656030
_cell_angle_alpha 90.000000
_cell_angle_beta 90.000000
_cell_angle_gamma 90.000000
_cell_volume 3325.535246
_symmetry_space_group_name_H-M "P M M A"
_symmetry_group_IT_number 51
_symmetry_cell_setting 'orthorhombic'
loop_
_space_group_symop_operation_xyz
x,y,z
1/2-x,-y,z
1/2+x,-y,-z
-x,y,-z
-x,-y,-z
1/2+x,y,-z
1/2-x,y,z
x,-y,z
loop_
_atom_site_type_symbol
_atom_site_label
_atom_site_fract_x
_atom_site_fract_y
_atom_site_fract_z
Si Si1 0.418744 0.900210 0.123553
Si Si2 0.420570 0.848499 0.248315
Si Si3 0.083583 0.597628 0.636853
Si Si4 0.423104 0.249981 0.940973
Si Si5 0.077774 0.351096 0.252359
Si Si6 0.416919 0.902952 0.643505
Si Si7 0.078324 0.755278 0.559204
Si Si8 0.916651 0.597046 0.142959
O O1 0.250000 0.871856 0.115948
O O2 0.466155 0.889926 0.188636
O O3 0.520145 0.840464 0.084855
O O4 0.442216 0.000000 0.104786
O O5 0.250000 0.857778 0.258957
O O6 0.472107 0.748846 0.249641
O O7 0.499127 0.900826 0.297548
O O8 0.250000 0.618053 0.654971
O O9 0.068422 0.500000 0.612245
O O10 0.033445 0.664169 0.588205
O O11 0.982360 0.605621 0.691182
O O12 0.250000 0.243961 0.949238
O O13 0.470016 0.330986 0.901684
O O14 0.500000 0.267339 0.000000
O O15 0.250000 0.361786 0.251618
O O16 0.014414 0.400573 0.198606
O O17 0.250000 0.879143 0.656500
O O18 0.480251 0.833866 0.598650
O O19 0.432829 0.000000 0.617774
O O20 0.250000 0.762563 0.548830
O O21 0.000000 0.762771 0.500000
O O22 0.750000 0.616060 0.160447
O O23 0.932244 0.500000 0.116314
#
# Coordination Sequence:
#
# PCOD8212290 Si02
#       8
#     8   8   8   8   8   8   8   8
#     4  10  21  39  62  87 118 154 190 232 284 341
#     4  10  20  35  58  87 119 151 184 226 282 339
#     4  10  21  38  59  82 112 151 188 225 278 340
#     4  11  24  41  62  85 114 151 195 242 286 335
#     4  11  21  34  58  90 120 149 185 231 281 334
#     4  10  21  37  58  84 113 147 187 229 276 335
#     4  10  22  39  57  79 109 145 189 236 280 329
#     4  10  22  40  61  86 117 154 192 231 282 343
#
# _framework density 19.245021999999999
#
# number of rings (size 3 to 8) (size 9 to 14) (size 15 to 20)
#    0.000    1.750    2.500    1.500    0.000    6.500 
#    0.000    0.000    0.000    0.000    0.000    0.000 
#    0.000    0.000    0.000    0.000    0.000    0.000 
#
# Total GULP energy -793849.921519 kJ/mol
# GULP energy per Si atom -12403.905024 kJ/mol
# Density = 1.920122 g / cm^3
# Si number density = 19.245022 Si / 1000 Ang^3
#
#
#
# Elastic Constant Matrix: (Units=GPa)
#
#
# Indices 1 2 3 4 5 6 
#
# 1 53.7603 27.6659 37.2877 0.0000 0.0000 0.0000
# 2 27.6659 113.5028 33.3571 0.0000 0.0000 0.0000
# 3 37.2877 33.3571 105.2346 0.0000 0.0000 0.0000
# 4 0.0000 0.0000 0.0000 11.8192 0.0000 0.0000
# 5 0.0000 0.0000 0.0000 0.0000 29.3891 0.0000
# 6 0.0000 0.0000 0.0000 0.0000 0.0000 27.8301
#
#
#
# Elastic Compliance Matrix: (Units=1/GPa)
#
#
# Indices 1 2 3 4 5 6 
#
# 1 0.026241 -0.004040 -0.008017 0.000000 0.000000 0.000000
# 2 -0.004040 0.010337 -0.001845 0.000000 0.000000 0.000000
# 3 -0.008017 -0.001845 0.012928 0.000000 0.000000 0.000000
# 4 0.000000 0.000000 0.000000 0.084608 0.000000 0.000000
# 5 0.000000 0.000000 0.000000 0.000000 0.034026 0.000000
# 6 0.000000 0.000000 0.000000 0.000000 0.000000 0.035932
#
#
# Mechanical properties :
#
#
# Convention : Reuss Voigt Hill
#
# Bulk Modulus (GPa) = 46.07984 52.12434 49.10209
# Shear Modulus (GPa) = 20.91073 25.42017 23.16545
#
# Velocity S-wave (km/s) = 3.29987 3.63832 3.47322
# Velocity P-wave (km/s) = 6.20601 6.69277 6.45398
#
# Compressibility (1/GPa) = 0.02170146
#
# Stress axis : x y z
#
# Youngs Moduli (GPa) = 38.10848 96.73638 77.34999
#
# Poissons Ratio (x) = 0.39081 0.62014
# Poissons Ratio (y) = 0.15396 0.14273
# Poissons Ratio (z) = 0.30553 0.17850
#
# Static dielectric constant tensor:
#      x y z
#    x 3.442330 0.000000 0.000000 
#    y 0.000000 3.772770 0.000000 
#    z 0.000000 0.000000 3.384740 
# 
# 
# High freq. dielectric constant tensor:
#      x y z
#    x 1.743450 0.000000 0.000000 
#    y 0.000000 1.767240 0.000000 
#    z 0.000000 0.000000 1.739130 
# 
# From -- ./inp_files/34892.got.cif
#   From: 2010.03.12/outbox.cif.g09.slc.cpg/sg51_18_cif.got.tgz:34892.got - 2010.04.16 13:43:02.
