data_PCOD8212441
_publ_section_title
;
Structure prediction by ZEFSAII (Michael W. Deem and Ramdas Pophale) SiO2 
 PCOD8212441
Probable space group: P M M A
;
_chemical_formula_sum "Si O2"
_cell_formula_units_Z 44
_cell_length_a 8.852055
_cell_length_b 27.831367
_cell_length_c 9.268731
_cell_angle_alpha 90.000000
_cell_angle_beta 90.000000
_cell_angle_gamma 90.000000
_cell_volume 2283.488979
_symmetry_space_group_name_H-M "P M M A"
_symmetry_group_IT_number 51
_symmetry_cell_setting 'orthorhombic'
loop_
_space_group_symop_operation_xyz
x,y,z
1/2-x,-y,z
1/2+x,-y,-z
-x,y,-z
-x,-y,-z
1/2+x,y,-z
1/2-x,y,z
x,-y,z
loop_
_atom_site_type_symbol
_atom_site_label
_atom_site_fract_x
_atom_site_fract_y
_atom_site_fract_z
Si Si1 0.076401 0.052850 0.347339
Si Si2 0.429708 0.591667 0.157237
Si Si3 0.074102 0.762047 0.852102
Si Si4 0.427959 0.129829 0.851331
Si Si5 0.571612 0.325066 0.343249
Si Si6 0.426945 0.500000 0.343513
O O1 0.250000 0.068723 0.361615
O O2 0.000000 0.048763 0.500000
O O3 0.985383 0.093589 0.266886
O O4 0.064494 0.000000 0.272104
O O5 0.250000 0.596556 0.143771
O O6 0.497997 0.638305 0.231914
O O7 0.478597 0.546443 0.254078
O O8 0.500000 0.584965 0.000000
O O9 0.250000 0.761211 0.883537
O O10 0.019275 0.815880 0.812652
O O11 0.033024 0.727858 0.717847
O O12 0.000000 0.743279 0.000000
O O13 0.250000 0.126242 0.864015
O O14 0.500000 0.112961 0.000000
O O15 0.500000 0.331101 0.500000
O O16 0.750000 0.334410 0.353704
O O17 0.250000 0.500000 0.368267
O O18 0.500000 0.500000 0.500000
#
# Coordination Sequence:
#
# PCOD8212441 Si02
#       6
#     8   8   8   8   8   4
#     4  10  21  37  56  79 108 143 182 225 275 330
#     4  11  23  40  61  87 116 151 192 234 281 334
#     4   9  20  37  57  81 110 144 183 226 275 329
#     4  10  20  36  57  82 111 144 183 227 274 326
#     4  11  23  39  58  84 116 150 188 232 280 331
#     4  10  23  40  60  86 118 152 189 234 283 332
#
# _framework density 19.26876
#
# number of rings (size 3 to 8) (size 9 to 14) (size 15 to 20)
#    0.000    1.818    0.000    3.545    0.000    8.727 
#    0.000    1.818    0.000    0.000    0.000    0.000 
#    0.000    0.000    0.000    0.000    0.000    0.000 
#
# Total GULP energy -545638.445009 kJ/mol
# GULP energy per Si atom -12400.873750 kJ/mol
# Density = 1.922490 g / cm^3
# Si number density = 19.268760 Si / 1000 Ang^3
#
#
#
# Elastic Constant Matrix: (Units=GPa)
#
#
# Indices 1 2 3 4 5 6 
#
# 1 84.5043 44.3593 47.8656 0.0000 0.0000 0.0000
# 2 44.3593 108.3212 63.2721 0.0000 0.0000 0.0000
# 3 47.8656 63.2721 133.6133 0.0000 0.0000 0.0000
# 4 0.0000 0.0000 0.0000 40.1064 0.0000 0.0000
# 5 0.0000 0.0000 0.0000 0.0000 40.7565 0.0000
# 6 0.0000 0.0000 0.0000 0.0000 0.0000 30.1357
#
#
#
# Elastic Compliance Matrix: (Units=1/GPa)
#
#
# Indices 1 2 3 4 5 6 
#
# 1 0.016299 -0.004512 -0.003702 0.000000 0.000000 0.000000
# 2 -0.004512 0.014011 -0.005018 0.000000 0.000000 0.000000
# 3 -0.003702 -0.005018 0.011187 0.000000 0.000000 0.000000
# 4 0.000000 0.000000 0.000000 0.024934 0.000000 0.000000
# 5 0.000000 0.000000 0.000000 0.000000 0.024536 0.000000
# 6 0.000000 0.000000 0.000000 0.000000 0.000000 0.033183
#
#
# Mechanical properties :
#
#
# Convention : Reuss Voigt Hill
#
# Bulk Modulus (GPa) = 66.52702 70.82585 68.67644
# Shear Modulus (GPa) = 32.12813 33.59584 32.86199
#
# Velocity S-wave (km/s) = 4.08777 4.18010 4.13419
# Velocity P-wave (km/s) = 7.54193 7.75463 7.64902
#
# Compressibility (1/GPa) = 0.01503149
#
# Stress axis : x y z
#
# Youngs Moduli (GPa) = 61.35165 71.37273 89.38924
#
# Poissons Ratio (x) = 0.32206 0.33095
# Poissons Ratio (y) = 0.27684 0.44859
# Poissons Ratio (z) = 0.22714 0.35817
#
# Static dielectric constant tensor:
#      x y z
#    x 3.626730 0.000000 0.000000 
#    y 0.000000 3.925350 0.000000 
#    z 0.000000 0.000000 3.484370 
# 
# 
# High freq. dielectric constant tensor:
#      x y z
#    x 1.761180 0.000000 0.000000 
#    y 0.000000 1.765550 0.000000 
#    z 0.000000 0.000000 1.749910 
# 
# From -- ./inp_files/5817.got.cif
#   From: 2010.03.12/outbox.cif.g09.slc.cpg/sg51_3_cif.got.tgz:5817.got - 2010.04.16 13:43:02.
