data_PCOD8212416
_publ_section_title
;
Structure prediction by ZEFSAII (Michael W. Deem and Ramdas Pophale) SiO2 
 PCOD8212416
Probable space group: P M M A
;
_chemical_formula_sum "Si O2"
_cell_formula_units_Z 44
_cell_length_a 8.778456
_cell_length_b 27.972091
_cell_length_c 9.273593
_cell_angle_alpha 90.000000
_cell_angle_beta 90.000000
_cell_angle_gamma 90.000000
_cell_volume 2277.147176
_symmetry_space_group_name_H-M "P M M A"
_symmetry_group_IT_number 51
_symmetry_cell_setting 'orthorhombic'
loop_
_space_group_symop_operation_xyz
x,y,z
1/2-x,-y,z
1/2+x,-y,-z
-x,y,-z
-x,-y,-z
1/2+x,y,-z
1/2-x,y,z
x,-y,z
loop_
_atom_site_type_symbol
_atom_site_label
_atom_site_fract_x
_atom_site_fract_y
_atom_site_fract_z
Si Si1 0.571842 0.084613 0.841875
Si Si2 0.068642 0.000000 0.659429
Si Si3 0.928988 0.635868 0.150130
Si Si4 0.927021 0.822632 0.653243
Si Si5 0.571922 0.447720 0.345879
Si Si6 0.570499 0.256003 0.154181
O O1 0.750000 0.071615 0.853116
O O2 0.544977 0.135267 0.766820
O O3 0.486310 0.046173 0.745049
O O4 0.500000 0.085826 0.000000
O O5 0.000000 0.000000 0.500000
O O6 0.250000 0.000000 0.647717
O O7 0.750000 0.630761 0.136736
O O8 0.998742 0.596307 0.256969
O O9 0.973466 0.689683 0.196426
O O10 0.000000 0.622437 0.000000
O O11 0.750000 0.812762 0.628568
O O12 0.000000 0.836255 0.500000
O O13 0.003986 0.775457 0.717161
O O14 0.500000 0.445140 0.500000
O O15 0.750000 0.440135 0.363049
O O16 0.536650 0.500000 0.275133
O O17 0.750000 0.248074 0.142626
O O18 0.500000 0.241495 0.000000
#
# Coordination Sequence:
#
# PCOD8212416 Si02
#       6
#     8   4   8   8   8   8
#     4  11  24  42  64  90 120 155 194 235 281 333
#     4  12  25  42  65  92 124 158 194 238 285 334
#     4   9  19  34  52  77 106 138 176 220 270 323
#     4  11  24  40  60  86 116 150 189 233 281 332
#     4   9  18  33  51  72 101 136 175 219 267 321
#     4  10  20  36  57  80 110 145 183 227 276 332
#
# _framework density 19.322420999999999
#
# number of rings (size 3 to 8) (size 9 to 14) (size 15 to 20)
#    0.000    1.818    0.000    3.818    0.000    8.364 
#    0.000    1.818    0.000    0.000    0.000    0.000 
#    0.000    0.000    0.000    0.000    0.000    0.000 
#
# Total GULP energy -545603.277488 kJ/mol
# GULP energy per Si atom -12400.074488 kJ/mol
# Density = 1.927844 g / cm^3
# Si number density = 19.322421 Si / 1000 Ang^3
#
#
#
# Elastic Constant Matrix: (Units=GPa)
#
#
# Indices 1 2 3 4 5 6 
#
# 1 91.8946 53.9198 62.8112 0.0000 0.0000 0.0000
# 2 53.9198 120.9054 69.8708 0.0000 0.0000 0.0000
# 3 62.8112 69.8708 132.3245 0.0000 0.0000 0.0000
# 4 0.0000 0.0000 0.0000 28.8139 0.0000 0.0000
# 5 0.0000 0.0000 0.0000 0.0000 37.8003 0.0000
# 6 0.0000 0.0000 0.0000 0.0000 0.0000 27.3441
#
#
#
# Elastic Compliance Matrix: (Units=1/GPa)
#
#
# Indices 1 2 3 4 5 6 
#
# 1 0.017558 -0.004338 -0.006044 0.000000 0.000000 0.000000
# 2 -0.004338 0.012975 -0.004792 0.000000 0.000000 0.000000
# 3 -0.006044 -0.004792 0.012957 0.000000 0.000000 0.000000
# 4 0.000000 0.000000 0.000000 0.034705 0.000000 0.000000
# 5 0.000000 0.000000 0.000000 0.000000 0.026455 0.000000
# 6 0.000000 0.000000 0.000000 0.000000 0.000000 0.036571
#
#
# Mechanical properties :
#
#
# Convention : Reuss Voigt Hill
#
# Bulk Modulus (GPa) = 76.09178 79.81424 77.95301
# Shear Modulus (GPa) = 28.41732 29.35984 28.88858
#
# Velocity S-wave (km/s) = 3.83912 3.90227 3.87082
# Velocity P-wave (km/s) = 7.68878 7.85492 7.77229
#
# Compressibility (1/GPa) = 0.01314202
#
# Stress axis : x y z
#
# Youngs Moduli (GPa) = 56.95269 77.07355 77.18112
#
# Poissons Ratio (x) = 0.33431 0.46650
# Poissons Ratio (y) = 0.24703 0.36985
# Poissons Ratio (z) = 0.34423 0.36934
#
# Static dielectric constant tensor:
#      x y z
#    x 3.621610 0.000000 0.000000 
#    y 0.000000 3.956310 0.000000 
#    z 0.000000 0.000000 3.234310 
# 
# 
# High freq. dielectric constant tensor:
#      x y z
#    x 1.759550 0.000000 0.000000 
#    y 0.000000 1.769920 0.000000 
#    z 0.000000 0.000000 1.753460 
# 
# From -- ./inp_files/5889.got.cif
#   From: 2010.03.12/outbox.cif.g09.slc.cpg/sg51_3_cif.got.tgz:5889.got - 2010.04.16 13:43:02.
