data_PCOD8212001
_publ_section_title
;
Structure prediction by ZEFSAII (Michael W. Deem and Ramdas Pophale) SiO2 
 PCOD8212001
Probable space group: P M M A
;
_chemical_formula_sum "Si O2"
_cell_formula_units_Z 64
_cell_length_a 9.103740
_cell_length_b 24.414950
_cell_length_c 14.968411
_cell_angle_alpha 90.000000
_cell_angle_beta 90.000000
_cell_angle_gamma 90.000000
_cell_volume 3326.989150
_symmetry_space_group_name_H-M "P M M A"
_symmetry_group_IT_number 51
_symmetry_cell_setting 'orthorhombic'
loop_
_space_group_symop_operation_xyz
x,y,z
1/2-x,-y,z
1/2+x,-y,-z
-x,y,-z
-x,-y,-z
1/2+x,y,-z
1/2-x,y,z
x,-y,z
loop_
_atom_site_type_symbol
_atom_site_label
_atom_site_fract_x
_atom_site_fract_y
_atom_site_fract_z
Si Si1 0.080413 0.562278 0.761532
Si Si2 0.076578 0.652608 0.904686
Si Si3 0.416538 0.725896 0.587341
Si Si4 0.080115 0.142919 0.242108
Si Si5 0.586453 0.856158 0.415868
Si Si6 0.915729 0.434760 0.586486
Si Si7 0.078306 0.061760 0.090433
Si Si8 0.077518 0.270391 0.232077
O O1 0.250000 0.565540 0.734204
O O2 0.032846 0.500000 0.782784
O O3 0.046277 0.597052 0.849767
O O4 0.991086 0.586680 0.677396
O O5 0.250000 0.663758 0.916473
O O6 0.002479 0.702593 0.852187
O O7 0.000000 0.645999 0.000000
O O8 0.500000 0.701985 0.500000
O O9 0.250000 0.702706 0.591466
O O10 0.413085 0.790874 0.580992
O O11 0.504778 0.707779 0.676030
O O12 0.250000 0.132794 0.262633
O O13 0.021772 0.105003 0.162734
O O14 0.050130 0.206016 0.219325
O O15 0.991765 0.122607 0.327560
O O16 0.500000 0.880420 0.500000
O O17 0.750000 0.879843 0.418247
O O18 0.750000 0.412867 0.583950
O O19 0.922225 0.500000 0.585065
O O20 0.000000 0.410984 0.500000
O O21 0.250000 0.067791 0.074288
O O22 0.036927 0.000000 0.120324
O O23 0.000000 0.078413 0.000000
O O24 0.250000 0.284854 0.233493
#
# Coordination Sequence:
#
# PCOD8212001 Si02
#       8
#     8   8   8   8   8   8   8   8
#     4   9  19  37  59  81 105 134 170 212 256 304
#     4  11  24  41  59  78 103 135 171 214 264 313
#     4   9  16  28  48  75 106 139 174 211 254 303
#     4   9  18  32  51  76 104 136 173 211 253 303
#     4   9  16  26  44  71 102 136 172 211 253 299
#     4   9  16  27  48  79 112 143 172 204 246 298
#     4   9  18  33  52  74 101 132 167 211 261 308
#     4  10  20  35  54  77 107 140 174 212 255 306
#
# _framework density 19.236612999999998
#
# number of rings (size 3 to 8) (size 9 to 14) (size 15 to 20)
#    0.000    2.625    0.000    1.875    0.000    7.250 
#    0.000    1.875    0.000    3.375    0.000    0.000 
#    0.000    0.000    0.000    0.000    0.000    0.000 
#
# Total GULP energy -793651.160041 kJ/mol
# GULP energy per Si atom -12400.799376 kJ/mol
# Density = 1.919283 g / cm^3
# Si number density = 19.236613 Si / 1000 Ang^3
#
#
#
# Elastic Constant Matrix: (Units=GPa)
#
#
# Indices 1 2 3 4 5 6 
#
# 1 136.1352 44.2187 100.0651 0.0000 0.0000 0.0000
# 2 44.2187 57.1607 58.2240 0.0000 0.0000 0.0000
# 3 100.0651 58.2240 190.6004 0.0000 0.0000 0.0000
# 4 0.0000 0.0000 0.0000 -43.9013 0.0000 0.0000
# 5 0.0000 0.0000 0.0000 0.0000 43.7422 0.0000
# 6 0.0000 0.0000 0.0000 0.0000 0.0000 16.9840
#
#
#
# Elastic Compliance Matrix: (Units=1/GPa)
#
#
# Indices 1 2 3 4 5 6 
#
# 1 0.012679 -0.004396 -0.005314 0.000000 0.000000 0.000000
# 2 -0.004396 0.026921 -0.005916 0.000000 0.000000 0.000000
# 3 -0.005314 -0.005916 0.009844 0.000000 0.000000 0.000000
# 4 0.000000 0.000000 0.000000 -0.022778 0.000000 0.000000
# 5 0.000000 0.000000 0.000000 0.000000 0.022861 0.000000
# 6 0.000000 0.000000 0.000000 0.000000 0.000000 0.058879
#
#
# Mechanical properties :
#
#
# Convention : Reuss Voigt Hill
#
# Bulk Modulus (GPa) = 54.96711 87.65689 71.31200
# Shear Modulus (GPa) = 34.31204 15.45755 24.88480
#
# Velocity S-wave (km/s) = 4.22795 2.83777 3.60059
# Velocity P-wave (km/s) = 7.24364 7.51025 7.37815
#
# Compressibility (1/GPa) = 0.01819270
#
# Stress axis : x y z
#
# Youngs Moduli (GPa) = 78.86824 37.14551 101.58981
#
# Poissons Ratio (x) = 0.16329 0.53983
# Poissons Ratio (y) = 0.34670 0.60100
# Poissons Ratio (z) = 0.41909 0.21975
#
# Static dielectric constant tensor:
#      x y z
#    x 3.654180 0.000000 0.000000 
#    y 0.000000 3.288760 0.000000 
#    z 0.000000 0.000000 3.583610 
# 
# 
# High freq. dielectric constant tensor:
#      x y z
#    x 1.757370 0.000000 0.000000 
#    y 0.000000 1.723370 0.000000 
#    z 0.000000 0.000000 1.751420 
# 
# From -- ./inp_files/14863.got.cif
#   From: 2010.03.12/outbox.cif.g09.slc.cpg/sg51_8_cif.got.tgz:14863.got - 2010.04.16 13:43:02.
