data_PCOD8212686
_publ_section_title
;
Structure prediction by ZEFSAII (Michael W. Deem and Ramdas Pophale) SiO2 
 PCOD8212686
Probable space group: P M M A
;
_chemical_formula_sum "Si O2"
_cell_formula_units_Z 56
_cell_length_a 14.165278
_cell_length_b 17.654671
_cell_length_c 11.547543
_cell_angle_alpha 90.000000
_cell_angle_beta 90.000000
_cell_angle_gamma 90.000000
_cell_volume 2887.847923
_symmetry_space_group_name_H-M "P M M A"
_symmetry_group_IT_number 51
_symmetry_cell_setting 'orthorhombic'
loop_
_space_group_symop_operation_xyz
x,y,z
1/2-x,-y,z
1/2+x,-y,-z
-x,y,-z
-x,-y,-z
1/2+x,y,-z
1/2-x,y,z
x,-y,z
loop_
_atom_site_type_symbol
_atom_site_label
_atom_site_fract_x
_atom_site_fract_y
_atom_site_fract_z
Si Si1 0.357416 0.190275 0.437694
Si Si2 0.490996 0.585885 0.637479
Si Si3 0.143701 0.843049 0.829494
Si Si4 0.354469 0.718201 0.652648
Si Si5 0.362049 0.187953 0.088257
Si Si6 0.536046 0.911612 0.728473
Si Si7 0.855297 0.318614 0.753236
O O1 0.250000 0.158560 0.455362
O O2 0.399762 0.224620 0.557472
O O3 0.427647 0.124775 0.392331
O O4 0.355917 0.258462 0.348722
O O5 0.500000 0.593503 0.500000
O O6 0.467204 0.500000 0.672439
O O7 0.406620 0.639960 0.674303
O O8 0.582166 0.610551 0.712203
O O9 0.250000 0.878245 0.829723
O O10 0.145859 0.759782 0.775067
O O11 0.074775 0.896824 0.755146
O O12 0.103583 0.828905 0.958224
O O13 0.250000 0.697662 0.608505
O O14 0.250000 0.183705 0.098666
O O15 0.403388 0.121505 0.166539
O O16 0.394020 0.271966 0.133832
O O17 0.554039 0.000000 0.719229
O O18 0.750000 0.350173 0.776044
#
# Coordination Sequence:
#
# PCOD8212686 Si02
#       7
#     8   8   8   8   8   8   8
#     4   9  18  34  56  79 101 134 183 229 267 317
#     4  11  22  32  50  84 119 144 170 213 272 331
#     4  10  22  37  55  80 106 142 190 228 266 322
#     4  10  20  37  59  77 104 145 183 224 270 320
#     4   9  19  36  58  83 106 136 188 239 270 312
#     4  11  22  34  54  81 109 142 176 223 287 335
#     4   9  17  33  56  77 105 145 184 225 267 308
#
# _framework density 19.391603
#
# number of rings (size 3 to 8) (size 9 to 14) (size 15 to 20)
#    0.000    2.143    1.429    3.429    0.000    3.143 
#    0.000    4.286    0.000    4.286    0.000    4.000 
#    0.000    0.000    0.000    0.000    0.000    0.000 
#
# Total GULP energy -694119.091093 kJ/mol
# GULP energy per Si atom -12394.983770 kJ/mol
# Density = 1.934747 g / cm^3
# Si number density = 19.391603 Si / 1000 Ang^3
#
#
#
# Elastic Constant Matrix: (Units=GPa)
#
#
# Indices 1 2 3 4 5 6 
#
# 1 72.7297 52.4019 32.8128 0.0000 0.0000 0.0000
# 2 52.4019 126.9808 42.6381 0.0000 0.0000 0.0000
# 3 32.8128 42.6381 51.1774 0.0000 0.0000 0.0000
# 4 0.0000 0.0000 0.0000 14.6848 0.0000 0.0000
# 5 0.0000 0.0000 0.0000 0.0000 24.1977 0.0000
# 6 0.0000 0.0000 0.0000 0.0000 0.0000 16.8838
#
#
#
# Elastic Compliance Matrix: (Units=1/GPa)
#
#
# Indices 1 2 3 4 5 6 
#
# 1 0.022310 -0.006114 -0.009210 0.000000 0.000000 0.000000
# 2 -0.006114 0.012610 -0.006586 0.000000 0.000000 0.000000
# 3 -0.009210 -0.006586 0.030932 0.000000 0.000000 0.000000
# 4 0.000000 0.000000 0.000000 0.068098 0.000000 0.000000
# 5 0.000000 0.000000 0.000000 0.000000 0.041326 0.000000
# 6 0.000000 0.000000 0.000000 0.000000 0.000000 0.059228
#
#
# Mechanical properties :
#
#
# Convention : Reuss Voigt Hill
#
# Bulk Modulus (GPa) = 45.38937 56.28817 50.83877
# Shear Modulus (GPa) = 17.50284 19.35560 18.42922
#
# Velocity S-wave (km/s) = 3.00759 3.16277 3.08615
# Velocity P-wave (km/s) = 5.95972 6.51364 6.24283
#
# Compressibility (1/GPa) = 0.02203159
#
# Stress axis : x y z
#
# Youngs Moduli (GPa) = 44.82264 79.30405 32.32916
#
# Poissons Ratio (x) = 0.48488 0.29776
# Poissons Ratio (y) = 0.27405 0.21290
# Poissons Ratio (z) = 0.41283 0.52226
#
# Static dielectric constant tensor:
#      x y z
#    x 3.854290 0.000000 0.000000 
#    y 0.000000 3.273670 0.000000 
#    z 0.000000 0.000000 4.133340 
# 
# 
# High freq. dielectric constant tensor:
#      x y z
#    x 1.768310 0.000000 0.000000 
#    y 0.000000 1.719900 0.000000 
#    z 0.000000 0.000000 1.751850 
# 
# From -- ./inp_files/16604.got.cif
#   From: 2010.03.12/outbox.cif.g09.slc.cpg/sg51_9_cif.got.tgz:16604.got - 2010.04.16 13:43:02.
