data_PCOD8212349
_publ_section_title
;
Structure prediction by ZEFSAII (Michael W. Deem and Ramdas Pophale) SiO2 
 PCOD8212349
Probable space group: P M M A
;
_chemical_formula_sum "Si O2"
_cell_formula_units_Z 52
_cell_length_a 8.897128
_cell_length_b 23.205309
_cell_length_c 15.009175
_cell_angle_alpha 90.000000
_cell_angle_beta 90.000000
_cell_angle_gamma 90.000000
_cell_volume 3098.803343
_symmetry_space_group_name_H-M "P M M A"
_symmetry_group_IT_number 51
_symmetry_cell_setting 'orthorhombic'
loop_
_space_group_symop_operation_xyz
x,y,z
1/2-x,-y,z
1/2+x,-y,-z
-x,y,-z
-x,-y,-z
1/2+x,y,-z
1/2-x,y,z
x,-y,z
loop_
_atom_site_type_symbol
_atom_site_label
_atom_site_fract_x
_atom_site_fract_y
_atom_site_fract_z
Si Si1 0.571920 0.909746 0.271653
Si Si2 0.927330 0.685241 0.404343
Si Si3 0.573758 0.777051 0.264608
Si Si4 0.919806 0.088598 0.911616
Si Si5 0.082545 0.774532 0.086204
Si Si6 0.425869 0.560831 0.595212
Si Si7 0.430445 0.000000 0.401647
O O1 0.750000 0.921042 0.276081
O O2 0.530342 0.842839 0.286327
O O3 0.511769 0.931345 0.175720
O O4 0.488291 0.943535 0.350087
O O5 0.750000 0.691501 0.415633
O O6 0.989883 0.736085 0.342117
O O7 0.970679 0.622357 0.360072
O O8 0.000000 0.693346 0.500000
O O9 0.750000 0.770747 0.252211
O O10 0.501378 0.753777 0.174190
O O11 0.750000 0.064290 0.905735
O O12 0.917495 0.156895 0.918032
O O13 0.000000 0.063127 0.000000
O O14 0.250000 0.749622 0.087527
O O15 0.000000 0.748622 0.000000
O O16 0.500000 0.559593 0.500000
O O17 0.250000 0.561395 0.579161
O O18 0.470599 0.500000 0.646149
O O19 0.500000 0.000000 0.500000
O O20 0.250000 0.000000 0.406915
#
# Coordination Sequence:
#
# PCOD8212349 Si02
#       7
#     8   8   8   8   8   8   4
#     4  10  20  36  55  74  95 120 151 188 230 275
#     4   9  17  28  41  61  90 122 154 188 224 262
#     4   9  18  31  47  68  95 123 150 184 226 270
#     4   9  16  28  48  75 102 127 151 178 218 269
#     4   9  16  26  43  66  92 121 152 184 220 266
#     4   8  13  22  37  56  80 113 151 186 219 257
#     4  12  26  44  61  74  89 114 152 196 236 274
#
# _framework density 16.780671000000002
#
# number of rings (size 3 to 8) (size 9 to 14) (size 15 to 20)
#    0.000    2.769    0.000    2.077    0.000    5.538 
#    0.000    1.923    0.000    0.000    0.000    0.000 
#    0.000    0.615    0.000    1.077    0.000    1.846 
#
# Total GULP energy -644262.988488 kJ/mol
# GULP energy per Si atom -12389.672856 kJ/mol
# Density = 1.674248 g / cm^3
# Si number density = 16.780671 Si / 1000 Ang^3
#
#
#
# Elastic Constant Matrix: (Units=GPa)
#
#
# Indices 1 2 3 4 5 6 
#
# 1 76.5127 34.7538 51.3592 0.0000 0.0000 0.0000
# 2 34.7538 100.1564 62.9043 0.0000 0.0000 0.0000
# 3 51.3592 62.9043 131.1899 0.0000 0.0000 0.0000
# 4 0.0000 0.0000 0.0000 -2.2723 0.0000 0.0000
# 5 0.0000 0.0000 0.0000 0.0000 29.7604 0.0000
# 6 0.0000 0.0000 0.0000 0.0000 0.0000 10.7733
#
#
#
# Elastic Compliance Matrix: (Units=1/GPa)
#
#
# Indices 1 2 3 4 5 6 
#
# 1 0.018201 -0.002634 -0.005863 0.000000 0.000000 0.000000
# 2 -0.002634 0.014668 -0.006002 0.000000 0.000000 0.000000
# 3 -0.005863 -0.006002 0.012796 0.000000 0.000000 0.000000
# 4 0.000000 0.000000 0.000000 -0.440089 0.000000 0.000000
# 5 0.000000 0.000000 0.000000 0.000000 0.033602 0.000000
# 6 0.000000 0.000000 0.000000 0.000000 0.000000 0.092822
#
#
# Mechanical properties :
#
#
# Convention : Reuss Voigt Hill
#
# Bulk Modulus (GPa) = 59.99530 67.32151 63.65841
# Shear Modulus (GPa) = -21.41814 18.24172 -1.58821
#
# Velocity S-wave (km/s) = -3.57649 3.30065 -0.97391
# Velocity P-wave (km/s) = 4.33303 7.39806 6.06244
#
# Compressibility (1/GPa) = 0.01666797
#
# Stress axis : x y z
#
# Youngs Moduli (GPa) = 54.94079 68.17598 78.15098
#
# Poissons Ratio (x) = 0.17955 0.45819
# Poissons Ratio (y) = 0.14469 0.46907
# Poissons Ratio (z) = 0.32211 0.40920
#
# Static dielectric constant tensor:
#      x y z
#    x 3.231650 0.000000 0.000000 
#    y 0.000000 3.491880 0.000000 
#    z 0.000000 0.000000 3.107650 
# 
# 
# High freq. dielectric constant tensor:
#      x y z
#    x 1.656040 0.000000 0.000000 
#    y 0.000000 1.630890 0.000000 
#    z 0.000000 0.000000 1.624070 
# 
# From -- ./inp_files/22033.got.cif
#   From: 2010.03.12/outbox.cif.g09.slc.cpg/sg51_12_cif.got.tgz:22033.got - 2010.04.16 13:43:02.
