data_PCOD8212488
_publ_section_title
;
Structure prediction by ZEFSAII (Michael W. Deem and Ramdas Pophale) SiO2 
 PCOD8212488
Probable space group: P M M A
;
_chemical_formula_sum "Si O2"
_cell_formula_units_Z 64
_cell_length_a 23.694753
_cell_length_b 9.072889
_cell_length_c 15.336004
_cell_angle_alpha 90.000000
_cell_angle_beta 90.000000
_cell_angle_gamma 90.000000
_cell_volume 3296.932052
_symmetry_space_group_name_H-M "P M M A"
_symmetry_group_IT_number 51
_symmetry_cell_setting 'orthorhombic'
loop_
_space_group_symop_operation_xyz
x,y,z
1/2-x,-y,z
1/2+x,-y,-z
-x,y,-z
-x,-y,-z
1/2+x,y,-z
1/2-x,y,z
x,-y,z
loop_
_atom_site_type_symbol
_atom_site_label
_atom_site_fract_x
_atom_site_fract_y
_atom_site_fract_z
Si Si1 0.118217 0.170609 0.089329
Si Si2 0.997823 0.173496 0.652125
Si Si3 0.315620 0.170367 0.258822
Si Si4 0.992395 0.830448 0.146738
Si Si5 0.115879 0.330682 0.399612
Si Si6 0.883927 0.674357 0.084185
Si Si7 0.892613 0.669385 0.403615
Si Si8 0.813173 0.324923 0.249466
O O1 0.150893 0.229089 0.174430
O O2 0.051917 0.197480 0.100990
O O3 0.132312 0.000000 0.074020
O O4 0.140154 0.260809 0.005962
O O5 0.003898 0.216099 0.752922
O O6 0.941895 0.245450 0.614872
O O7 0.050842 0.234936 0.599363
O O8 0.993469 0.000000 0.638119
O O9 0.250000 0.194635 0.241770
O O10 0.333890 0.262473 0.342925
O O11 0.330858 0.000000 0.275902
O O12 0.947414 0.728897 0.098785
O O13 0.973685 0.000000 0.136790
O O14 0.107042 0.500000 0.373085
O O15 0.134203 0.315950 0.500509
O O16 0.883847 0.500000 0.078530
O O17 0.844243 0.732012 0.162433
O O18 0.908271 0.500000 0.382193
O O19 0.847437 0.731376 0.333991
O O20 0.750000 0.258378 0.252309
O O21 0.810389 0.500000 0.249857
#
# Coordination Sequence:
#
# PCOD8212488 Si02
#       8
#     8   8   8   8   8   8   8   8
#     4  10  21  39  59  82 114 151 189 231 286 348
#     4  11  21  36  60  87 117 153 192 236 288 348
#     4  10  22  42  64  84 113 156 201 242 289 344
#     4  10  20  36  58  82 112 152 188 228 286 348
#     4  11  23  37  59  89 121 152 190 241 292 345
#     4  11  22  35  57  88 115 146 189 237 287 340
#     4  10  21  38  59  86 117 153 193 236 289 347
#     4   9  19  37  58  79 110 152 192 231 279 337
#
# _framework density 19.411987
#
# number of rings (size 3 to 8) (size 9 to 14) (size 15 to 20)
#    0.000    1.750    2.500    1.875    0.000    6.750 
#    0.000    1.250    0.000    3.000    0.000    0.000 
#    0.000    0.000    0.000    0.000    0.000    0.000 
#
# Total GULP energy -793895.630804 kJ/mol
# GULP energy per Si atom -12404.619231 kJ/mol
# Density = 1.936780 g / cm^3
# Si number density = 19.411987 Si / 1000 Ang^3
#
#
#
# Elastic Constant Matrix: (Units=GPa)
#
#
# Indices 1 2 3 4 5 6 
#
# 1 92.3210 31.1557 38.5484 0.0000 0.0000 0.0000
# 2 31.1557 67.5993 48.7716 0.0000 0.0000 0.0000
# 3 38.5484 48.7716 132.4727 0.0000 0.0000 0.0000
# 4 0.0000 0.0000 0.0000 33.3604 0.0000 0.0000
# 5 0.0000 0.0000 0.0000 0.0000 14.2583 0.0000
# 6 0.0000 0.0000 0.0000 0.0000 0.0000 23.9676
#
#
#
# Elastic Compliance Matrix: (Units=1/GPa)
#
#
# Indices 1 2 3 4 5 6 
#
# 1 0.013279 -0.004538 -0.002194 0.000000 0.000000 0.000000
# 2 -0.004538 0.021694 -0.006667 0.000000 0.000000 0.000000
# 3 -0.002194 -0.006667 0.010641 0.000000 0.000000 0.000000
# 4 0.000000 0.000000 0.000000 0.029976 0.000000 0.000000
# 5 0.000000 0.000000 0.000000 0.000000 0.070134 0.000000
# 6 0.000000 0.000000 0.000000 0.000000 0.000000 0.041723
#
#
# Mechanical properties :
#
#
# Convention : Reuss Voigt Hill
#
# Bulk Modulus (GPa) = 53.13713 58.81605 55.97659
# Shear Modulus (GPa) = 22.67409 25.91175 24.29292
#
# Velocity S-wave (km/s) = 3.42138 3.65750 3.54141
# Velocity P-wave (km/s) = 6.56053 6.94269 6.75432
#
# Compressibility (1/GPa) = 0.01881923
#
# Stress axis : x y z
#
# Youngs Moduli (GPa) = 75.30718 46.09532 93.97236
#
# Poissons Ratio (x) = 0.20916 0.20613
# Poissons Ratio (y) = 0.34171 0.62648
# Poissons Ratio (z) = 0.16519 0.30730
#
# Static dielectric constant tensor:
#      x y z
#    x 3.512650 0.000000 0.000000 
#    y 0.000000 3.424930 0.000000 
#    z 0.000000 0.000000 3.788340 
# 
# 
# High freq. dielectric constant tensor:
#      x y z
#    x 1.749750 0.000000 0.000000 
#    y 0.000000 1.740700 0.000000 
#    z 0.000000 0.000000 1.772950 
# 
# From -- ./inp_files/26297.got.cif
#   From: 2010.03.12/outbox.cif.g09.slc.cpg/sg51_14_cif.got.tgz:26297.got - 2010.04.16 13:43:02.
