data_PCOD8212111
_publ_section_title
;
Structure prediction by ZEFSAII (Michael W. Deem and Ramdas Pophale) SiO2 
 PCOD8212111
Probable space group: P M M A
;
_chemical_formula_sum "Si O2"
_cell_formula_units_Z 40
_cell_length_a 24.254129
_cell_length_b 7.759848
_cell_length_c 11.654016
_cell_angle_alpha 90.000000
_cell_angle_beta 90.000000
_cell_angle_gamma 90.000000
_cell_volume 2193.383174
_symmetry_space_group_name_H-M "P M M A"
_symmetry_group_IT_number 51
_symmetry_cell_setting 'orthorhombic'
loop_
_space_group_symop_operation_xyz
x,y,z
1/2-x,-y,z
1/2+x,-y,-z
-x,y,-z
-x,-y,-z
1/2+x,y,-z
1/2-x,y,z
x,-y,z
loop_
_atom_site_type_symbol
_atom_site_label
_atom_site_fract_x
_atom_site_fract_y
_atom_site_fract_z
Si Si1 0.499914 0.810275 0.135626
Si Si2 0.186451 0.807160 0.343740
Si Si3 0.620996 0.199185 0.122286
Si Si4 0.315316 0.500000 0.502539
Si Si5 0.115870 0.694753 0.135942
Si Si6 0.815360 0.500000 0.239566
O O1 0.560666 0.740479 0.170299
O O2 0.448590 0.693594 0.176299
O O3 0.491070 0.000000 0.188760
O O4 0.500000 0.822246 0.000000
O O5 0.250000 0.766514 0.314818
O O6 0.163437 0.670731 0.436581
O O7 0.152655 0.795390 0.226727
O O8 0.179795 0.000000 0.394451
O O9 0.665450 0.325815 0.177220
O O10 0.633036 0.000000 0.156256
O O11 0.623302 0.210502 0.984831
O O12 0.250000 0.500000 0.508901
O O13 0.339196 0.500000 0.631037
O O14 0.136902 0.500000 0.126255
O O15 0.750000 0.500000 0.237282
#
# Coordination Sequence:
#
# PCOD8212111 Si02
#       6
#     8   8   8   4   8   4
#     4   8  16  30  50  77 109 143 179 213 251 309
#     4  10  20  35  56  79 106 139 173 219 275 322
#     4  10  21  37  55  80 114 147 177 214 261 317
#     4   9  20  39  56  75 100 131 185 233 262 308
#     4  11  19  30  55  86 114 143 174 215 266 320
#     4  11  24  39  57  79 105 141 183 226 265 313
#
# _framework density 18.236668999999999
#
# number of rings (size 3 to 8) (size 9 to 14) (size 15 to 20)
#    0.000    2.200    2.000    3.000    1.400    3.200 
#    0.000    2.000    0.000    2.400    0.000    4.200 
#    0.000    0.000    0.000    0.000    0.000    0.000 
#
# Total GULP energy -495781.926450 kJ/mol
# GULP energy per Si atom -12394.548161 kJ/mol
# Density = 1.819516 g / cm^3
# Si number density = 18.236669 Si / 1000 Ang^3
#
#
#
# Elastic Constant Matrix: (Units=GPa)
#
#
# Indices 1 2 3 4 5 6 
#
# 1 83.7539 40.5648 42.3119 0.0000 0.0000 0.0000
# 2 40.5648 123.4339 40.3323 0.0000 0.0000 0.0000
# 3 42.3119 40.3323 83.5967 0.0000 0.0000 0.0000
# 4 0.0000 0.0000 0.0000 10.2213 0.0000 0.0000
# 5 0.0000 0.0000 0.0000 0.0000 0.1973 0.0000
# 6 0.0000 0.0000 0.0000 0.0000 0.0000 24.5973
#
#
#
# Elastic Compliance Matrix: (Units=1/GPa)
#
#
# Indices 1 2 3 4 5 6 
#
# 1 0.017114 -0.003317 -0.007062 0.000000 0.000000 0.000000
# 2 -0.003317 0.010260 -0.003272 0.000000 0.000000 0.000000
# 3 -0.007062 -0.003272 0.017115 0.000000 0.000000 0.000000
# 4 0.000000 0.000000 0.000000 0.097835 0.000000 0.000000
# 5 0.000000 0.000000 0.000000 0.000000 5.067903 0.000000
# 6 0.000000 0.000000 0.000000 0.000000 0.000000 0.040655
#
#
# Mechanical properties :
#
#
# Convention : Reuss Voigt Hill
#
# Bulk Modulus (GPa) = 58.17703 59.68918 58.93310
# Shear Modulus (GPa) = 0.94627 18.17489 9.56058
#
# Velocity S-wave (km/s) = 0.72112 3.16034 2.29214
# Velocity P-wave (km/s) = 5.71522 6.79105 6.27623
#
# Compressibility (1/GPa) = 0.01718891
#
# Stress axis : x y z
#
# Youngs Moduli (GPa) = 58.43268 97.46129 58.42874
#
# Poissons Ratio (x) = 0.32325 0.41261
# Poissons Ratio (y) = 0.19381 0.19115
# Poissons Ratio (z) = 0.41264 0.31885
#
# Static dielectric constant tensor:
#      x y z
#    x 3.528230 0.000000 0.000000 
#    y 0.000000 3.475590 0.000000 
#    z 0.000000 0.000000 3.108390 
# 
# 
# High freq. dielectric constant tensor:
#      x y z
#    x 1.701130 0.000000 0.000000 
#    y 0.000000 1.721140 0.000000 
#    z 0.000000 0.000000 1.664560 
# 
# From -- ./inp_files/17990.got.cif
#   From: 2010.03.12/outbox.cif.g09.slc.cpg/sg51_9_cif.got.tgz:17990.got - 2010.04.16 13:43:02.
