data_PCOD8212379
_publ_section_title
;
Structure prediction by ZEFSAII (Michael W. Deem and Ramdas Pophale) SiO2 
 PCOD8212379
Probable space group: P M M A
;
_chemical_formula_sum "Si O2"
_cell_formula_units_Z 56
_cell_length_a 23.193482
_cell_length_b 8.711907
_cell_length_c 13.653613
_cell_angle_alpha 90.000000
_cell_angle_beta 90.000000
_cell_angle_gamma 90.000000
_cell_volume 2758.841645
_symmetry_space_group_name_H-M "P M M A"
_symmetry_group_IT_number 51
_symmetry_cell_setting 'orthorhombic'
loop_
_space_group_symop_operation_xyz
x,y,z
1/2-x,-y,z
1/2+x,-y,-z
-x,y,-z
-x,-y,-z
1/2+x,y,-z
1/2-x,y,z
x,-y,z
loop_
_atom_site_type_symbol
_atom_site_label
_atom_site_fract_x
_atom_site_fract_y
_atom_site_fract_z
Si Si1 0.313767 0.681912 0.435974
Si Si2 0.367601 0.321649 0.084693
Si Si3 0.250000 0.317708 0.998396
Si Si4 0.087887 0.683496 0.289929
Si Si5 0.555601 0.830920 0.065414
Si Si6 0.533627 0.818036 0.284088
Si Si7 0.750000 0.181785 0.216512
Si Si8 0.651259 0.682252 0.348760
O O1 0.250000 0.741174 0.404236
O O2 0.315196 0.500000 0.431691
O O3 0.362796 0.745962 0.363390
O O4 0.325436 0.737125 0.546322
O O5 0.368188 0.500000 0.103711
O O6 0.395498 0.248188 0.182444
O O7 0.303010 0.264643 0.066049
O O8 0.401270 0.285835 0.985310
O O9 0.250000 0.500000 0.976556
O O10 0.250000 0.228761 0.896405
O O11 0.083378 0.500000 0.291672
O O12 0.026838 0.752768 0.324318
O O13 0.539494 0.765838 0.171345
O O14 0.584349 0.000000 0.074772
O O15 0.500000 0.843490 0.000000
O O16 0.586090 0.742848 0.342593
O O17 0.534616 0.000000 0.297099
O O18 0.808108 0.246598 0.265461
O O19 0.750000 0.000000 0.226322
O O20 0.652259 0.500000 0.337149
#
# Coordination Sequence:
#
# PCOD8212379 Si02
#       8
#     8   8   4   8   8   8   4   8
#     4   9  19  38  65  91 114 150 198 245 297 355
#     4  10  21  35  56  87 119 151 193 244 290 335
#     4  10  22  38  55  84 122 158 193 240 293 340
#     4  10  21  37  60  89 119 154 198 247 295 351
#     4  10  20  36  56  77 110 157 196 230 279 345
#     4  11  23  39  59  87 122 160 198 241 297 355
#     4  12  24  40  61  90 122 156 197 242 297 358
#     4  11  22  40  66  91 117 152 197 248 299 351
#
# _framework density 20.298376000000001
#
# number of rings (size 3 to 8) (size 9 to 14) (size 15 to 20)
#    0.000    1.714    2.143    2.357    1.000    4.857 
#    0.000    4.286    0.000    0.000    0.000    0.000 
#    0.000    0.000    0.000    0.000    0.000    0.000 
#
# Total GULP energy -694381.843900 kJ/mol
# GULP energy per Si atom -12399.675784 kJ/mol
# Density = 2.025218 g / cm^3
# Si number density = 20.298376 Si / 1000 Ang^3
#
#
#
# Elastic Constant Matrix: (Units=GPa)
#
#
# Indices 1 2 3 4 5 6 
#
# 1 171.9028 37.8031 44.6826 0.0000 0.0000 0.0000
# 2 37.8031 50.4672 28.5429 0.0000 0.0000 0.0000
# 3 44.6826 28.5429 61.6486 0.0000 0.0000 0.0000
# 4 0.0000 0.0000 0.0000 20.5686 0.0000 0.0000
# 5 0.0000 0.0000 0.0000 0.0000 34.8281 0.0000
# 6 0.0000 0.0000 0.0000 0.0000 0.0000 10.7804
#
#
#
# Elastic Compliance Matrix: (Units=1/GPa)
#
#
# Indices 1 2 3 4 5 6 
#
# 1 0.007596 -0.003490 -0.003890 0.000000 0.000000 0.000000
# 2 -0.003490 0.028448 -0.010642 0.000000 0.000000 0.000000
# 3 -0.003890 -0.010642 0.023967 0.000000 0.000000 0.000000
# 4 0.000000 0.000000 0.000000 0.048618 0.000000 0.000000
# 5 0.000000 0.000000 0.000000 0.000000 0.028712 0.000000
# 6 0.000000 0.000000 0.000000 0.000000 0.000000 0.092761
#
#
# Mechanical properties :
#
#
# Convention : Reuss Voigt Hill
#
# Bulk Modulus (GPa) = 41.72172 56.23066 48.97619
# Shear Modulus (GPa) = 18.23930 24.76809 21.50370
#
# Velocity S-wave (km/s) = 3.00085 3.49693 3.25834
# Velocity P-wave (km/s) = 5.71014 6.63829 6.19163
#
# Compressibility (1/GPa) = 0.02396833
#
# Stress axis : x y z
#
# Youngs Moduli (GPa) = 131.65350 35.15236 41.72388
#
# Poissons Ratio (x) = 0.12268 0.16229
# Poissons Ratio (y) = 0.45945 0.44401
# Poissons Ratio (z) = 0.51207 0.37408
#
# Static dielectric constant tensor:
#      x y z
#    x 3.849670 0.000000 0.000000 
#    y 0.000000 3.492150 0.000000 
#    z 0.000000 0.000000 3.881690 
# 
# 
# High freq. dielectric constant tensor:
#      x y z
#    x 1.810850 0.000000 0.000000 
#    y 0.000000 1.768260 0.000000 
#    z 0.000000 0.000000 1.793700 
# 
# From -- ./inp_files/25796.got.cif
#   From: 2010.03.12/outbox.cif.g09.slc.cpg/sg51_13_cif.got.tgz:25796.got - 2010.04.16 13:43:02.
