data_PCOD8212664
_publ_section_title
;
Structure prediction by ZEFSAII (Michael W. Deem and Ramdas Pophale) SiO2 
 PCOD8212664
Probable space group: P M M A
;
_chemical_formula_sum "Si O2"
_cell_formula_units_Z 48
_cell_length_a 29.815119
_cell_length_b 9.170570
_cell_length_c 9.463541
_cell_angle_alpha 90.000000
_cell_angle_beta 90.000000
_cell_angle_gamma 90.000000
_cell_volume 2587.536861
_symmetry_space_group_name_H-M "P M M A"
_symmetry_group_IT_number 51
_symmetry_cell_setting 'orthorhombic'
loop_
_space_group_symop_operation_xyz
x,y,z
1/2-x,-y,z
1/2+x,-y,-z
-x,y,-z
-x,-y,-z
1/2+x,y,-z
1/2-x,y,z
x,-y,z
loop_
_atom_site_type_symbol
_atom_site_label
_atom_site_fract_x
_atom_site_fract_y
_atom_site_fract_z
Si Si1 0.320650 0.845630 0.516449
Si Si2 0.396720 0.160028 0.739024
Si Si3 0.843351 0.173313 0.986509
Si Si4 0.250000 0.332496 0.659471
Si Si5 0.447854 0.331110 0.519794
Si Si6 0.888552 0.833702 0.703590
Si Si7 0.750000 0.323730 0.025440
O O1 0.364788 0.861130 0.607403
O O2 0.292623 0.709780 0.568080
O O3 0.338014 0.818538 0.358590
O O4 0.293581 0.000000 0.525505
O O5 0.435240 0.264046 0.674442
O O6 0.416434 0.000000 0.781963
O O7 0.368255 0.226694 0.869725
O O8 0.879978 0.213137 0.865800
O O9 0.796160 0.258534 0.960385
O O10 0.833070 0.000000 0.991326
O O11 0.250000 0.500000 0.685362
O O12 0.250000 0.261712 0.813880
O O13 0.500000 0.302875 0.500000
O O14 0.435145 0.500000 0.525880
O O15 0.423480 0.266415 0.380789
O O16 0.906083 0.000000 0.694105
O O17 0.750000 0.500000 0.010388
#
# Coordination Sequence:
#
# PCOD8212664 Si02
#       7
#     8   8   8   4   8   8   4
#     4   9  17  31  50  72  98 131 173 219 264 307
#     4   9  18  33  56  81 103 137 181 223 267 316
#     4  10  20  37  58  80 110 147 186 227 273 320
#     4  11  21  30  45  72 102 136 181 223 258 305
#     4  10  21  37  58  83 110 142 177 217 273 335
#     4   9  20  37  57  81 106 137 178 224 273 322
#     4  11  23  34  49  78 114 150 187 223 266 317
#
# _framework density 18.550460999999999
#
# number of rings (size 3 to 8) (size 9 to 14) (size 15 to 20)
#    0.000    2.333    1.667    2.000    0.000    6.667 
#    0.000    4.167    0.000    5.000    0.000    0.000 
#    0.000    0.000    0.000    0.000    0.000    0.000 
#
# Total GULP energy -594629.126083 kJ/mol
# GULP energy per Si atom -12388.106793 kJ/mol
# Density = 1.850824 g / cm^3
# Si number density = 18.550461 Si / 1000 Ang^3
#
#
#
# Elastic Constant Matrix: (Units=GPa)
#
#
# Indices 1 2 3 4 5 6 
#
# 1 87.7533 51.3420 34.1018 0.0000 0.0000 0.0000
# 2 51.3420 85.9794 31.8521 0.0000 0.0000 0.0000
# 3 34.1018 31.8521 84.4999 0.0000 0.0000 0.0000
# 4 0.0000 0.0000 0.0000 20.0824 0.0000 0.0000
# 5 0.0000 0.0000 0.0000 0.0000 5.2935 0.0000
# 6 0.0000 0.0000 0.0000 0.0000 0.0000 32.0027
#
#
#
# Elastic Compliance Matrix: (Units=1/GPa)
#
#
# Indices 1 2 3 4 5 6 
#
# 1 0.018530 -0.009641 -0.003844 0.000000 0.000000 0.000000
# 2 -0.009641 0.018535 -0.003096 0.000000 0.000000 0.000000
# 3 -0.003844 -0.003096 0.014553 0.000000 0.000000 0.000000
# 4 0.000000 0.000000 0.000000 0.049795 0.000000 0.000000
# 5 0.000000 0.000000 0.000000 0.000000 0.188909 0.000000
# 6 0.000000 0.000000 0.000000 0.000000 0.000000 0.031247
#
#
# Mechanical properties :
#
#
# Convention : Reuss Voigt Hill
#
# Bulk Modulus (GPa) = 54.18389 54.75827 54.47108
# Shear Modulus (GPa) = 13.85493 20.87152 17.36323
#
# Velocity S-wave (km/s) = 2.73587 3.35792 3.06273
# Velocity P-wave (km/s) = 6.26517 6.67958 6.47569
#
# Compressibility (1/GPa) = 0.01845567
#
# Stress axis : x y z
#
# Youngs Moduli (GPa) = 53.96614 53.95305 68.71615
#
# Poissons Ratio (x) = 0.52016 0.26415
# Poissons Ratio (y) = 0.52029 0.21273
# Poissons Ratio (z) = 0.20745 0.16703
#
# Static dielectric constant tensor:
#      x y z
#    x 0.349630 0.000000 0.000000 
#    y 0.000000 3.486390 0.000000 
#    z 0.000000 0.000000 3.514660 
# 
# 
# High freq. dielectric constant tensor:
#      x y z
#    x 1.699230 0.000000 0.000000 
#    y 0.000000 1.713780 0.000000 
#    z 0.000000 0.000000 1.721520 
# 
# From -- ./inp_files/12968.got.cif
#   From: 2010.03.12/outbox.cif.g09.slc.cpg/sg51_7_cif.got.tgz:12968.got - 2010.04.16 13:43:02.
