data_PCOD8212192
_publ_section_title
;
Structure prediction by ZEFSAII (Michael W. Deem and Ramdas Pophale) SiO2 
 PCOD8212192
Probable space group: P M M A
;
_chemical_formula_sum "Si O2"
_cell_formula_units_Z 56
_cell_length_a 15.156203
_cell_length_b 7.589572
_cell_length_c 23.242893
_cell_angle_alpha 90.000000
_cell_angle_beta 90.000000
_cell_angle_gamma 90.000000
_cell_volume 2673.608922
_symmetry_space_group_name_H-M "P M M A"
_symmetry_group_IT_number 51
_symmetry_cell_setting 'orthorhombic'
loop_
_space_group_symop_operation_xyz
x,y,z
1/2-x,-y,z
1/2+x,-y,-z
-x,y,-z
-x,-y,-z
1/2+x,y,-z
1/2-x,y,z
x,-y,z
loop_
_atom_site_type_symbol
_atom_site_label
_atom_site_fract_x
_atom_site_fract_y
_atom_site_fract_z
Si Si1 0.522668 0.206607 0.326665
Si Si2 0.851722 0.201756 0.599604
Si Si3 0.490310 0.790041 0.804040
Si Si4 0.652635 0.201461 0.108831
Si Si5 0.095642 0.698977 0.011366
Si Si6 0.843882 0.800124 0.868766
Si Si7 0.357939 0.500000 0.617293
Si Si8 0.647426 0.500000 0.512346
O O1 0.423177 0.238667 0.350376
O O2 0.520534 0.273132 0.261058
O O3 0.599042 0.322745 0.356394
O O4 0.548513 0.000000 0.332751
O O5 0.750000 0.244148 0.620003
O O6 0.880716 0.324174 0.546445
O O7 0.857563 0.000000 0.578705
O O8 0.411567 0.713813 0.843546
O O9 0.579258 0.707933 0.831761
O O10 0.490415 0.000000 0.806254
O O11 0.750000 0.220382 0.134933
O O12 0.650569 0.298184 0.047542
O O13 0.626372 0.000000 0.097260
O O14 0.085979 0.500000 0.033514
O O15 0.140872 0.804321 0.062699
O O16 0.000000 0.784023 0.000000
O O17 0.750000 0.705513 0.856007
O O18 0.838126 0.000000 0.847805
O O19 0.250000 0.500000 0.624693
O O20 0.392581 0.500000 0.551385
O O21 0.750000 0.500000 0.503204
#
# Coordination Sequence:
#
# PCOD8212192 Si02
#       8
#     8   8   8   8   8   8   4   4
#     4  10  22  40  62  89 122 163 207 253 302 358
#     4   9  18  34  60  94 128 163 201 244 299 361
#     4   9  19  37  57  79 110 142 180 234 285 333
#     4  10  20  35  57  79  98 133 183 227 277 339
#     4  11  22  35  52  76 108 143 175 223 290 344
#     4  10  20  35  58  83 106 140 183 226 282 351
#     4  11  25  43  62  90 123 164 209 254 302 351
#     4   9  19  37  61  88 127 165 200 249 302 352
#
# _framework density 20.945471999999999
#
# number of rings (size 3 to 8) (size 9 to 14) (size 15 to 20)
#    0.000    2.143    1.429    1.286    0.000    6.000 
#    2.571    7.143    0.000    0.000    0.000    0.000 
#    0.000    0.000    0.000    0.000    0.000    0.000 
#
# Total GULP energy -694040.139541 kJ/mol
# GULP energy per Si atom -12393.573920 kJ/mol
# Density = 2.089780 g / cm^3
# Si number density = 20.945472 Si / 1000 Ang^3
#
#
#
# Elastic Constant Matrix: (Units=GPa)
#
#
# Indices 1 2 3 4 5 6 
#
# 1 144.4392 33.6968 58.1654 0.0000 0.0000 0.0000
# 2 33.6968 68.2824 33.4031 0.0000 0.0000 0.0000
# 3 58.1654 33.4031 151.8611 0.0000 0.0000 0.0000
# 4 0.0000 0.0000 0.0000 -170.4942 0.0000 0.0000
# 5 0.0000 0.0000 0.0000 0.0000 16.2417 0.0000
# 6 0.0000 0.0000 0.0000 0.0000 0.0000 20.0487
#
#
#
# Elastic Compliance Matrix: (Units=1/GPa)
#
#
# Indices 1 2 3 4 5 6 
#
# 1 0.008696 -0.002983 -0.002675 0.000000 0.000000 0.000000
# 2 -0.002983 0.017434 -0.002692 0.000000 0.000000 0.000000
# 3 -0.002675 -0.002692 0.008202 0.000000 0.000000 0.000000
# 4 0.000000 0.000000 0.000000 -0.005865 0.000000 0.000000
# 5 0.000000 0.000000 0.000000 0.000000 0.061570 0.000000
# 6 0.000000 0.000000 0.000000 0.000000 0.000000 0.049879
#
#
# Mechanical properties :
#
#
# Convention : Reuss Voigt Hill
#
# Bulk Modulus (GPa) = 56.71475 68.34591 62.53033
# Shear Modulus (GPa) = 30.77061 -10.88626 9.94218
#
# Velocity S-wave (km/s) = 3.83702 -2.28226 2.18105
# Velocity P-wave (km/s) = 6.83860 5.07507 6.02174
#
# Compressibility (1/GPa) = 0.01763210
#
# Stress axis : x y z
#
# Youngs Moduli (GPa) = 114.99053 57.35845 121.92760
#
# Poissons Ratio (x) = 0.17111 0.32612
# Poissons Ratio (y) = 0.34303 0.32825
# Poissons Ratio (z) = 0.30756 0.15442
#
# Static dielectric constant tensor:
#      x y z
#    x 4.024960 0.000000 0.000000 
#    y 0.000000 3.837620 0.000000 
#    z 0.000000 0.000000 3.796420 
# 
# 
# High freq. dielectric constant tensor:
#      x y z
#    x 1.830420 0.000000 0.000000 
#    y 0.000000 1.809490 0.000000 
#    z 0.000000 0.000000 1.806160 
# 
# From -- ./inp_files/33617.got.cif
#   From: 2010.03.12/outbox.cif.g09.slc.cpg/sg51_17_cif.got.tgz:33617.got - 2010.04.16 13:43:02.
