data_PCOD8212075
_publ_section_title
;
Structure prediction by ZEFSAII (Michael W. Deem and Ramdas Pophale) SiO2 
 PCOD8212075
Probable space group: P M M A
;
_chemical_formula_sum "Si O2"
_cell_formula_units_Z 56
_cell_length_a 9.235855
_cell_length_b 20.853289
_cell_length_c 14.617286
_cell_angle_alpha 90.000000
_cell_angle_beta 90.000000
_cell_angle_gamma 90.000000
_cell_volume 2815.259369
_symmetry_space_group_name_H-M "P M M A"
_symmetry_group_IT_number 51
_symmetry_cell_setting 'orthorhombic'
loop_
_space_group_symop_operation_xyz
x,y,z
1/2-x,-y,z
1/2+x,-y,-z
-x,y,-z
-x,-y,-z
1/2+x,y,-z
1/2-x,y,z
x,-y,z
loop_
_atom_site_type_symbol
_atom_site_label
_atom_site_fract_x
_atom_site_fract_y
_atom_site_fract_z
Si Si1 0.417960 0.611025 0.096477
Si Si2 0.919275 0.322812 0.406120
Si Si3 0.919179 0.177609 0.406211
Si Si4 0.420746 0.888904 0.096744
Si Si5 0.584630 0.429092 0.264401
Si Si6 0.415454 0.929173 0.734772
Si Si7 0.911741 0.749632 0.911238
O O1 0.250000 0.592204 0.081579
O O2 0.491543 0.566426 0.171712
O O3 0.430465 0.682870 0.143057
O O4 0.500000 0.603268 0.000000
O O5 0.750000 0.332144 0.424501
O O6 0.952310 0.250139 0.371233
O O7 0.976275 0.374912 0.333116
O O8 0.000000 0.336760 0.500000
O O9 0.750000 0.167860 0.424476
O O10 0.976351 0.125405 0.333237
O O11 0.000000 0.163498 0.500000
O O12 0.250000 0.903278 0.085733
O O13 0.489373 0.933936 0.173233
O O14 0.455424 0.816677 0.136123
O O15 0.500000 0.900298 0.000000
O O16 0.750000 0.412189 0.238437
O O17 0.574598 0.500000 0.310066
O O18 0.250000 0.912901 0.761407
O O19 0.425707 0.000000 0.688781
O O20 0.750000 0.758657 0.946537
O O21 0.000000 0.736996 0.000000
#
# Coordination Sequence:
#
# PCOD8212075 Si02
#       7
#     8   8   8   8   8   8   8
#     4  10  20  35  55  80 111 148 189 232 278 328
#     4   9  19  37  60  85 111 142 180 225 277 331
#     4   9  19  37  60  85 111 142 180 225 277 331
#     4  10  20  35  55  80 111 148 189 232 278 328
#     4  10  22  38  55  80 114 150 187 228 275 327
#     4  10  22  38  55  80 114 150 187 228 275 327
#     4   8  16  30  48  74 103 132 173 224 273 318
#
# _framework density 19.891594999999999
#
# number of rings (size 3 to 8) (size 9 to 14) (size 15 to 20)
#    0.000    2.571    0.000    0.857    2.000    4.000 
#    0.000    0.000    0.000    0.000    0.000    0.000 
#    0.000    0.000    0.000    0.000    0.000    0.000 
#
# Total GULP energy -693835.185922 kJ/mol
# GULP energy per Si atom -12389.914034 kJ/mol
# Density = 1.984632 g / cm^3
# Si number density = 19.891595 Si / 1000 Ang^3
#
#
#
# Elastic Constant Matrix: (Units=GPa)
#
#
# Indices 1 2 3 4 5 6 
#
# 1 70.9233 35.6344 47.1204 0.0000 0.0000 0.0000
# 2 35.6344 120.6855 67.4873 0.0000 0.0000 0.0000
# 3 47.1204 67.4873 109.9922 0.0000 0.0000 0.0000
# 4 0.0000 0.0000 0.0000 25.1280 0.0000 0.0000
# 5 0.0000 0.0000 0.0000 0.0000 33.4432 0.0000
# 6 0.0000 0.0000 0.0000 0.0000 0.0000 16.4003
#
#
#
# Elastic Compliance Matrix: (Units=1/GPa)
#
#
# Indices 1 2 3 4 5 6 
#
# 1 0.019933 -0.001690 -0.007502 0.000000 0.000000 0.000000
# 2 -0.001690 0.012757 -0.007103 0.000000 0.000000 0.000000
# 3 -0.007502 -0.007103 0.016664 0.000000 0.000000 0.000000
# 4 0.000000 0.000000 0.000000 0.039796 0.000000 0.000000
# 5 0.000000 0.000000 0.000000 0.000000 0.029901 0.000000
# 6 0.000000 0.000000 0.000000 0.000000 0.000000 0.060974
#
#
# Mechanical properties :
#
#
# Convention : Reuss Voigt Hill
#
# Bulk Modulus (GPa) = 59.65630 66.89835 63.27732
# Shear Modulus (GPa) = 22.91413 25.08490 23.99952
#
# Velocity S-wave (km/s) = 3.39772 3.55502 3.47726
# Velocity P-wave (km/s) = 6.74155 7.11023 6.92834
#
# Compressibility (1/GPa) = 0.01676269
#
# Stress axis : x y z
#
# Youngs Moduli (GPa) = 50.16688 78.38681 60.01037
#
# Poissons Ratio (x) = 0.13251 0.45021
# Poissons Ratio (y) = 0.08480 0.42627
# Poissons Ratio (z) = 0.37637 0.55680
#
# Static dielectric constant tensor:
#      x y z
#    x 3.545590 0.000000 0.000000 
#    y 0.000000 3.995050 0.000000 
#    z 0.000000 0.000000 3.225670 
# 
# 
# High freq. dielectric constant tensor:
#      x y z
#    x 1.774300 0.000000 0.000000 
#    y 0.000000 1.793540 0.000000 
#    z 0.000000 0.000000 1.744330 
# 
# From -- ./inp_files/21735.got.cif
#   From: 2010.03.12/outbox.cif.g09.slc.cpg/sg51_11_cif.got.tgz:21735.got - 2010.04.16 13:43:02.
