data_PCOD8212270
_publ_section_title
;
Structure prediction by ZEFSAII (Michael W. Deem and Ramdas Pophale) SiO2 
 PCOD8212270
Probable space group: P M M A
;
_chemical_formula_sum "Si O2"
_cell_formula_units_Z 48
_cell_length_a 18.911610
_cell_length_b 9.011797
_cell_length_c 14.958666
_cell_angle_alpha 90.000000
_cell_angle_beta 90.000000
_cell_angle_gamma 90.000000
_cell_volume 2549.369400
_symmetry_space_group_name_H-M "P M M A"
_symmetry_group_IT_number 51
_symmetry_cell_setting 'orthorhombic'
loop_
_space_group_symop_operation_xyz
x,y,z
1/2-x,-y,z
1/2+x,-y,-z
-x,y,-z
-x,-y,-z
1/2+x,y,-z
1/2-x,y,z
x,-y,z
loop_
_atom_site_type_symbol
_atom_site_label
_atom_site_fract_x
_atom_site_fract_y
_atom_site_fract_z
Si Si1 0.077316 0.675328 0.531934
Si Si2 0.924708 0.173652 0.783948
Si Si3 0.424499 0.673428 0.033232
Si Si4 0.832518 0.670692 0.135132
Si Si5 0.922320 0.824598 0.281094
Si Si6 0.332602 0.171721 0.384338
O O1 0.081035 0.500000 0.542857
O O2 0.096132 0.749651 0.625433
O O3 0.135736 0.727054 0.461730
O O4 0.000000 0.728265 0.500000
O O5 0.901105 0.250452 0.875180
O O6 0.867672 0.217475 0.709344
O O7 0.001459 0.231895 0.752890
O O8 0.927062 0.000000 0.801550
O O9 0.430076 0.500000 0.052033
O O10 0.500000 0.736072 0.000000
O O11 0.366100 0.713483 0.959798
O O12 0.750000 0.700568 0.127465
O O13 0.849795 0.500000 0.159331
O O14 0.863009 0.776509 0.211130
O O15 0.921012 0.000000 0.293979
O O16 0.250000 0.204128 0.376766
O O17 0.348651 0.000000 0.406462
#
# Coordination Sequence:
#
# PCOD8212270 Si02
#       6
#     8   8   8   8   8   8
#     4  11  23  38  61  90 118 152 195 241 290 345
#     4  10  21  36  58  88 117 150 192 238 285 339
#     4  10  20  35  58  85 113 150 193 236 285 343
#     4  10  22  40  59  83 118 155 193 241 293 343
#     4  11  22  37  61  88 116 152 195 240 288 345
#     4  10  22  41  62  86 120 157 191 235 292 347
#
# _framework density 18.828187
#
# number of rings (size 3 to 8) (size 9 to 14) (size 15 to 20)
#    0.000    1.667    3.333    1.000    0.000    5.000 
#    0.000    0.000    0.000    0.000    0.000    0.000 
#    0.000    0.000    0.000    0.000    0.000    0.000 
#
# Total GULP energy -595501.710414 kJ/mol
# GULP energy per Si atom -12406.285634 kJ/mol
# Density = 1.878533 g / cm^3
# Si number density = 18.828187 Si / 1000 Ang^3
#
#
#
# Elastic Constant Matrix: (Units=GPa)
#
#
# Indices 1 2 3 4 5 6 
#
# 1 128.3429 40.3714 66.3700 0.0000 0.0000 0.0000
# 2 40.3714 59.0881 58.5390 0.0000 0.0000 0.0000
# 3 66.3700 58.5390 159.6843 0.0000 0.0000 0.0000
# 4 0.0000 0.0000 0.0000 39.5886 0.0000 0.0000
# 5 0.0000 0.0000 0.0000 0.0000 34.1177 0.0000
# 6 0.0000 0.0000 0.0000 0.0000 0.0000 22.6138
#
#
#
# Elastic Compliance Matrix: (Units=1/GPa)
#
#
# Indices 1 2 3 4 5 6 
#
# 1 0.010647 -0.004539 -0.002761 0.000000 0.000000 0.000000
# 2 -0.004539 0.028511 -0.008565 0.000000 0.000000 0.000000
# 3 -0.002761 -0.008565 0.010550 0.000000 0.000000 0.000000
# 4 0.000000 0.000000 0.000000 0.025260 0.000000 0.000000
# 5 0.000000 0.000000 0.000000 0.000000 0.029310 0.000000
# 6 0.000000 0.000000 0.000000 0.000000 0.000000 0.044221
#
#
# Mechanical properties :
#
#
# Convention : Reuss Voigt Hill
#
# Bulk Modulus (GPa) = 55.62709 75.29735 65.46222
# Shear Modulus (GPa) = 26.84954 31.38633 29.11793
#
# Velocity S-wave (km/s) = 3.78038 4.08730 3.93683
# Velocity P-wave (km/s) = 6.97594 7.89642 7.45041
#
# Compressibility (1/GPa) = 0.01797685
#
# Stress axis : x y z
#
# Youngs Moduli (GPa) = 93.91931 35.07449 94.78599
#
# Poissons Ratio (x) = 0.15920 0.26175
# Poissons Ratio (y) = 0.42629 0.81187
# Poissons Ratio (z) = 0.25936 0.30042
#
# Static dielectric constant tensor:
#      x y z
#    x 3.439180 0.000000 0.000000 
#    y 0.000000 3.369250 0.000000 
#    z 0.000000 0.000000 3.288880 
# 
# 
# High freq. dielectric constant tensor:
#      x y z
#    x 1.731480 0.000000 0.000000 
#    y 0.000000 1.727240 0.000000 
#    z 0.000000 0.000000 1.744230 
# 
# From -- ./inp_files/24702.got.cif
#   From: 2010.03.12/outbox.cif.g09.slc.cpg/sg51_13_cif.got.tgz:24702.got - 2010.04.16 13:43:02.
