data_PCOD8212791
_publ_section_title
;
Structure prediction by ZEFSAII (Michael W. Deem and Ramdas Pophale) SiO2 
 PCOD8212791
Probable space group: P M M A
;
_chemical_formula_sum "Si O2"
_cell_formula_units_Z 64
_cell_length_a 15.099363
_cell_length_b 8.843680
_cell_length_c 23.913849
_cell_angle_alpha 90.000000
_cell_angle_beta 90.000000
_cell_angle_gamma 90.000000
_cell_volume 3193.310348
_symmetry_space_group_name_H-M "P M M A"
_symmetry_group_IT_number 51
_symmetry_cell_setting 'orthorhombic'
loop_
_space_group_symop_operation_xyz
x,y,z
1/2-x,-y,z
1/2+x,-y,-z
-x,y,-z
-x,-y,-z
1/2+x,y,-z
1/2-x,y,z
x,-y,z
loop_
_atom_site_type_symbol
_atom_site_label
_atom_site_fract_x
_atom_site_fract_y
_atom_site_fract_z
Si Si1 0.007719 0.179359 0.307309
Si Si2 0.354786 0.832907 0.518363
Si Si3 0.348698 0.825718 0.113098
Si Si4 0.850102 0.176187 0.127578
Si Si5 0.150775 0.179968 0.395916
Si Si6 0.597694 0.821761 0.007002
Si Si7 0.508568 0.677561 0.810465
Si Si8 0.647684 0.676503 0.370120
O O1 0.082311 0.242391 0.349966
O O2 0.033451 0.240672 0.246878
O O3 0.910555 0.237107 0.324384
O O4 0.006698 0.000000 0.305956
O O5 0.250000 0.846174 0.516012
O O6 0.385101 0.770136 0.457548
O O7 0.385208 0.721672 0.567707
O O8 0.395325 0.000000 0.530223
O O9 0.250000 0.803955 0.137501
O O10 0.416221 0.718548 0.144974
O O11 0.380015 0.000000 0.119355
O O12 0.345965 0.778350 0.047728
O O13 0.750000 0.201796 0.148047
O O14 0.858663 0.239885 0.064086
O O15 0.912792 0.269411 0.168566
O O16 0.876610 0.000000 0.130803
O O17 0.250000 0.244542 0.384058
O O18 0.154814 0.000000 0.394419
O O19 0.592025 0.000000 0.013150
O O20 0.500000 0.751529 0.000000
O O21 0.506665 0.500000 0.800632
O O22 0.750000 0.723618 0.360981
O O23 0.633777 0.500000 0.362021
#
# Coordination Sequence:
#
# PCOD8212791 Si02
#       8
#     8   8   8   8   8   8   8   8
#     4  11  23  39  61  84 107 143 195 244 286 334
#     4   8  14  29  55  84 113 144 179 221 272 333
#     4  10  20  37  63  91 117 150 193 237 282 334
#     4  10  20  37  63  91 116 147 191 238 283 336
#     4   8  16  33  58  87 114 140 177 229 283 332
#     4   9  15  29  59  93 123 147 179 233 287 333
#     4  12  26  42  57  78 116 156 193 238 290 345
#     4  10  21  37  56  81 116 153 186 226 280 338
#
# _framework density 20.041898
#
# number of rings (size 3 to 8) (size 9 to 14) (size 15 to 20)
#    0.000    2.250    1.250    3.000    0.000    4.250 
#    0.000    6.250    0.000    4.125    0.000    0.000 
#    0.000    0.000    0.000    0.000    0.000    0.000 
#
# Total GULP energy -793497.799990 kJ/mol
# GULP energy per Si atom -12398.403125 kJ/mol
# Density = 1.999628 g / cm^3
# Si number density = 20.041898 Si / 1000 Ang^3
#
#
#
# Elastic Constant Matrix: (Units=GPa)
#
#
# Indices 1 2 3 4 5 6 
#
# 1 79.9448 23.9459 14.6392 0.0000 0.0000 0.0000
# 2 23.9459 62.0487 20.5210 0.0000 0.0000 0.0000
# 3 14.6392 20.5210 76.4325 0.0000 0.0000 0.0000
# 4 0.0000 0.0000 0.0000 -1.4475 0.0000 0.0000
# 5 0.0000 0.0000 0.0000 0.0000 18.8311 0.0000
# 6 0.0000 0.0000 0.0000 0.0000 0.0000 16.9009
#
#
#
# Elastic Compliance Matrix: (Units=1/GPa)
#
#
# Indices 1 2 3 4 5 6 
#
# 1 0.014274 -0.005053 -0.001377 0.000000 0.000000 0.000000
# 2 -0.005053 0.019476 -0.004261 0.000000 0.000000 0.000000
# 3 -0.001377 -0.004261 0.014491 0.000000 0.000000 0.000000
# 4 0.000000 0.000000 0.000000 -0.690827 0.000000 0.000000
# 5 0.000000 0.000000 0.000000 0.000000 0.053104 0.000000
# 6 0.000000 0.000000 0.000000 0.000000 0.000000 0.059168
#
#
# Mechanical properties :
#
#
# Convention : Reuss Voigt Hill
#
# Bulk Modulus (GPa) = 37.23262 37.40425 37.31843
# Shear Modulus (GPa) = -10.00045 17.47824 3.73889
#
# Velocity S-wave (km/s) = -2.23620 2.95631 1.36733
# Velocity P-wave (km/s) = 3.45691 5.50968 4.59928
#
# Compressibility (1/GPa) = 0.02685817
#
# Stress axis : x y z
#
# Youngs Moduli (GPa) = 70.05530 51.34584 69.00704
#
# Poissons Ratio (x) = 0.25947 0.09504
# Poissons Ratio (y) = 0.35401 0.29405
# Poissons Ratio (z) = 0.09649 0.21879
#
# Static dielectric constant tensor:
#      x y z
#    x 3.685820 0.000000 0.000000 
#    y 0.000000 3.261770 0.000000 
#    z 0.000000 0.000000 3.825130 
# 
# 
# High freq. dielectric constant tensor:
#      x y z
#    x 1.785390 0.000000 0.000000 
#    y 0.000000 1.741570 0.000000 
#    z 0.000000 0.000000 1.786260 
# 
# From -- ./inp_files/35854.got.cif
#   From: 2010.03.12/outbox.cif.g09.slc.cpg/sg51_18_cif.got.tgz:35854.got - 2010.04.16 13:43:02.
