data_PCOD8212539
_publ_section_title
;
Structure prediction by ZEFSAII (Michael W. Deem and Ramdas Pophale) SiO2 
 PCOD8212539
Probable space group: P M M A
;
_chemical_formula_sum "Si O2"
_cell_formula_units_Z 48
_cell_length_a 18.654237
_cell_length_b 8.985673
_cell_length_c 14.973996
_cell_angle_alpha 90.000000
_cell_angle_beta 90.000000
_cell_angle_gamma 90.000000
_cell_volume 2509.954293
_symmetry_space_group_name_H-M "P M M A"
_symmetry_group_IT_number 51
_symmetry_cell_setting 'orthorhombic'
loop_
_space_group_symop_operation_xyz
x,y,z
1/2-x,-y,z
1/2+x,-y,-z
-x,y,-z
-x,-y,-z
1/2+x,y,-z
1/2-x,y,z
x,-y,z
loop_
_atom_site_type_symbol
_atom_site_label
_atom_site_fract_x
_atom_site_fract_y
_atom_site_fract_z
Si Si1 0.577137 0.327802 0.154233
Si Si2 0.332637 0.828429 0.987568
Si Si3 0.575993 0.330283 0.359634
Si Si4 0.832905 0.172237 0.505047
Si Si5 0.912331 0.673942 0.661599
Si Si6 0.429139 0.174907 0.154466
O O1 0.561110 0.500000 0.135641
O O2 0.643209 0.271556 0.095599
O O3 0.597585 0.302643 0.257274
O O4 0.506667 0.236600 0.127469
O O5 0.250000 0.796078 0.006603
O O6 0.346764 0.000000 0.963199
O O7 0.375101 0.781761 0.075954
O O8 0.591971 0.500000 0.388577
O O9 0.622492 0.219770 0.418631
O O10 0.492304 0.293455 0.374186
O O11 0.750000 0.203695 0.485067
O O12 0.855508 0.265713 0.591171
O O13 0.847856 0.000000 0.524643
O O14 0.900613 0.500000 0.676372
O O15 0.898706 0.752755 0.755673
O O16 0.434941 0.000000 0.169196
#
# Coordination Sequence:
#
# PCOD8212539 Si02
#       6
#     8   8   8   8   8   8
#     4  10  21  37  58  84 112 143 184 233 278 326
#     4  10  22  38  55  79 113 150 185 225 276 331
#     4   9  20  38  58  81 109 141 180 227 276 325
#     4  11  24  38  54  81 114 147 184 225 271 327
#     4  10  21  38  60  85 111 142 183 230 278 329
#     4  10  20  36  59  84 111 146 186 229 277 328
#
# _framework density 19.123854000000001
#
# number of rings (size 3 to 8) (size 9 to 14) (size 15 to 20)
#    0.000    2.000    0.000    4.000    0.000   12.333 
#    0.000    5.000    0.000    0.000    0.000    0.000 
#    0.000    0.000    0.000    0.000    0.000    0.000 
#
# Total GULP energy -595472.846689 kJ/mol
# GULP energy per Si atom -12405.684306 kJ/mol
# Density = 1.908033 g / cm^3
# Si number density = 19.123854 Si / 1000 Ang^3
#
#
#
# Elastic Constant Matrix: (Units=GPa)
#
#
# Indices 1 2 3 4 5 6 
#
# 1 65.3846 32.9082 39.7056 0.0000 0.0000 0.0000
# 2 32.9082 85.5525 44.8770 0.0000 0.0000 0.0000
# 3 39.7056 44.8770 86.4210 0.0000 0.0000 0.0000
# 4 0.0000 0.0000 0.0000 35.6236 0.0000 0.0000
# 5 0.0000 0.0000 0.0000 0.0000 14.0435 0.0000
# 6 0.0000 0.0000 0.0000 0.0000 0.0000 23.6685
#
#
#
# Elastic Compliance Matrix: (Units=1/GPa)
#
#
# Indices 1 2 3 4 5 6 
#
# 1 0.022363 -0.004415 -0.007982 0.000000 0.000000 0.000000
# 2 -0.004415 0.016936 -0.006766 0.000000 0.000000 0.000000
# 3 -0.007982 -0.006766 0.018752 0.000000 0.000000 0.000000
# 4 0.000000 0.000000 0.000000 0.028071 0.000000 0.000000
# 5 0.000000 0.000000 0.000000 0.000000 0.071207 0.000000
# 6 0.000000 0.000000 0.000000 0.000000 0.000000 0.042250
#
#
# Mechanical properties :
#
#
# Convention : Reuss Voigt Hill
#
# Bulk Modulus (GPa) = 50.69698 52.48221 51.58959
# Shear Modulus (GPa) = 20.45136 22.65829 21.55482
#
# Velocity S-wave (km/s) = 3.27374 3.44585 3.36090
# Velocity P-wave (km/s) = 6.39196 6.58291 6.48814
#
# Compressibility (1/GPa) = 0.01972504
#
# Stress axis : x y z
#
# Youngs Moduli (GPa) = 44.71576 59.04465 53.32725
#
# Poissons Ratio (x) = 0.26070 0.42566
# Poissons Ratio (y) = 0.19743 0.36082
# Poissons Ratio (z) = 0.35692 0.39951
#
# Static dielectric constant tensor:
#      x y z
#    x 3.464740 0.000000 0.000000 
#    y 0.000000 3.575550 0.000000 
#    z 0.000000 0.000000 3.535060 
# 
# 
# High freq. dielectric constant tensor:
#      x y z
#    x 1.737680 0.000000 0.000000 
#    y 0.000000 1.753390 0.000000 
#    z 0.000000 0.000000 1.753760 
# 
# From -- ./inp_files/24708.got.cif
#   From: 2010.03.12/outbox.cif.g09.slc.cpg/sg51_13_cif.got.tgz:24708.got - 2010.04.16 13:43:02.
