data_PCOD8212536
_publ_section_title
;
Structure prediction by ZEFSAII (Michael W. Deem and Ramdas Pophale) SiO2 
 PCOD8212536
Probable space group: P M M A
;
_chemical_formula_sum "Si O2"
_cell_formula_units_Z 64
_cell_length_a 9.381125
_cell_length_b 14.366347
_cell_length_c 25.437245
_cell_angle_alpha 90.000000
_cell_angle_beta 90.000000
_cell_angle_gamma 90.000000
_cell_volume 3428.241025
_symmetry_space_group_name_H-M "P M M A"
_symmetry_group_IT_number 51
_symmetry_cell_setting 'orthorhombic'
loop_
_space_group_symop_operation_xyz
x,y,z
1/2-x,-y,z
1/2+x,-y,-z
-x,y,-z
-x,-y,-z
1/2+x,y,-z
1/2-x,y,z
x,-y,z
loop_
_atom_site_type_symbol
_atom_site_label
_atom_site_fract_x
_atom_site_fract_y
_atom_site_fract_z
Si Si1 0.585625 0.109672 0.355515
Si Si2 0.913675 0.597681 0.947261
Si Si3 0.414570 0.603037 0.704936
Si Si4 0.917352 0.105428 0.841709
Si Si5 0.413327 0.396805 0.399058
Si Si6 0.916192 0.799922 0.946142
Si Si7 0.917492 0.793779 0.551814
Si Si8 0.585237 0.792108 0.246958
O O1 0.750000 0.133760 0.369378
O O2 0.481113 0.150170 0.399362
O O3 0.541529 0.154891 0.300158
O O4 0.561586 0.000000 0.351253
O O5 0.750000 0.599280 0.963753
O O6 0.945682 0.500000 0.914860
O O7 0.949923 0.696974 0.920524
O O8 0.000000 0.593115 0.000000
O O9 0.250000 0.607856 0.689138
O O10 0.455415 0.500000 0.726785
O O11 0.496867 0.626940 0.652092
O O12 0.449180 0.681804 0.747930
O O13 0.750000 0.122160 0.835605
O O14 0.965153 0.127992 0.901412
O O15 0.994021 0.172502 0.801275
O O16 0.961318 0.000000 0.829264
O O17 0.250000 0.393591 0.381211
O O18 0.452396 0.500000 0.421574
O O19 0.443851 0.317278 0.442012
O O20 0.750000 0.811640 0.959478
O O21 0.000000 0.819314 0.000000
O O22 0.750000 0.817006 0.546653
O O23 0.000000 0.827493 0.500000
O O24 0.750000 0.810245 0.234162
#
# Coordination Sequence:
#
# PCOD8212536 Si02
#       8
#     8   8   8   8   8   8   8   8
#     4  10  21  38  59  81 105 135 176 227 278 325
#     4   8  13  23  42  67  94 125 162 204 249 300
#     4   9  17  31  55  84 111 140 172 210 261 319
#     4  10  22  38  54  76 108 143 180 225 274 320
#     4   9  18  33  53  79 110 142 177 217 261 314
#     4   9  18  33  52  75 104 138 176 218 264 316
#     4  11  23  37  55  79 110 145 182 224 269 321
#     4  10  20  36  59  84 110 138 175 220 265 318
#
# _framework density 18.668465999999999
#
# number of rings (size 3 to 8) (size 9 to 14) (size 15 to 20)
#    0.000    2.500    1.250    0.750    0.000    3.750 
#    0.000    0.625    0.000    0.750    0.000    3.500 
#    0.000    0.000    0.000    0.000    0.000    0.000 
#
# Total GULP energy -793073.824353 kJ/mol
# GULP energy per Si atom -12391.778506 kJ/mol
# Density = 1.862598 g / cm^3
# Si number density = 18.668466 Si / 1000 Ang^3
#
#
#
# Elastic Constant Matrix: (Units=GPa)
#
#
# Indices 1 2 3 4 5 6 
#
# 1 61.4194 41.4675 50.4176 0.0000 0.0000 0.0000
# 2 41.4675 96.4613 49.1549 0.0000 0.0000 0.0000
# 3 50.4176 49.1549 104.3210 0.0000 0.0000 0.0000
# 4 0.0000 0.0000 0.0000 22.2922 0.0000 0.0000
# 5 0.0000 0.0000 0.0000 0.0000 29.5054 0.0000
# 6 0.0000 0.0000 0.0000 0.0000 0.0000 25.8563
#
#
#
# Elastic Compliance Matrix: (Units=1/GPa)
#
#
# Indices 1 2 3 4 5 6 
#
# 1 0.030513 -0.007373 -0.011273 0.000000 0.000000 0.000000
# 2 -0.007373 0.015424 -0.003704 0.000000 0.000000 0.000000
# 3 -0.011273 -0.003704 0.016779 0.000000 0.000000 0.000000
# 4 0.000000 0.000000 0.000000 0.044859 0.000000 0.000000
# 5 0.000000 0.000000 0.000000 0.000000 0.033892 0.000000
# 6 0.000000 0.000000 0.000000 0.000000 0.000000 0.038675
#
#
# Mechanical properties :
#
#
# Convention : Reuss Voigt Hill
#
# Bulk Modulus (GPa) = 55.50502 60.47575 57.99038
# Shear Modulus (GPa) = 21.65937 23.60821 22.63379
#
# Velocity S-wave (km/s) = 3.40988 3.55998 3.48574
# Velocity P-wave (km/s) = 6.73050 7.02587 6.87977
#
# Compressibility (1/GPa) = 0.01801639
#
# Stress axis : x y z
#
# Youngs Moduli (GPa) = 32.77336 64.83406 59.59741
#
# Poissons Ratio (x) = 0.47800 0.67182
# Poissons Ratio (y) = 0.24163 0.22078
# Poissons Ratio (z) = 0.36944 0.24017
#
# Static dielectric constant tensor:
#      x y z
#    x 3.421280 0.000000 0.000000 
#    y 0.000000 4.094120 0.000000 
#    z 0.000000 0.000000 3.020670 
# 
# 
# High freq. dielectric constant tensor:
#      x y z
#    x 1.723130 0.000000 0.000000 
#    y 0.000000 1.747970 0.000000 
#    z 0.000000 0.000000 1.690480 
# 
# From -- ./inp_files/34931.got.cif
#   From: 2010.03.12/outbox.cif.g09.slc.cpg/sg51_18_cif.got.tgz:34931.got - 2010.04.16 13:43:02.
