data_PCOD8212108
_publ_section_title
;
Structure prediction by ZEFSAII (Michael W. Deem and Ramdas Pophale) SiO2 
 PCOD8212108
Probable space group: P M M A
;
_chemical_formula_sum "Si O2"
_cell_formula_units_Z 40
_cell_length_a 17.984643
_cell_length_b 16.692463
_cell_length_c 7.220387
_cell_angle_alpha 90.000000
_cell_angle_beta 90.000000
_cell_angle_gamma 90.000000
_cell_volume 2167.617853
_symmetry_space_group_name_H-M "P M M A"
_symmetry_group_IT_number 51
_symmetry_cell_setting 'orthorhombic'
loop_
_space_group_symop_operation_xyz
x,y,z
1/2-x,-y,z
1/2+x,-y,-z
-x,y,-z
-x,-y,-z
1/2+x,y,-z
1/2-x,y,z
x,-y,z
loop_
_atom_site_type_symbol
_atom_site_label
_atom_site_fract_x
_atom_site_fract_y
_atom_site_fract_z
Si Si1 0.586613 0.089748 0.514247
Si Si2 0.336140 0.500000 0.099745
Si Si3 0.162539 0.800796 0.773886
Si Si4 0.165308 0.909969 0.106358
Si Si5 0.662715 0.381996 0.224816
Si Si6 0.411399 0.500000 0.498463
O O1 0.500000 0.104953 0.500000
O O2 0.628044 0.158294 0.404024
O O3 0.609901 0.100405 0.725042
O O4 0.607751 0.000000 0.444152
O O5 0.250000 0.500000 0.159401
O O6 0.385195 0.500000 0.284809
O O7 0.355261 0.422670 0.973166
O O8 0.250000 0.806763 0.752887
O O9 0.136078 0.709374 0.788684
O O10 0.135616 0.848172 0.954414
O O11 0.250000 0.890518 0.167502
O O12 0.160697 0.000000 0.025154
O O13 0.750000 0.390639 0.269117
O O14 0.618681 0.421808 0.394949
O O15 0.500000 0.500000 0.500000
#
# Coordination Sequence:
#
# PCOD8212108 Si02
#       6
#     8   4   8   8   8   4
#     4  10  21  35  51  75 109 147 182 216 261 317
#     4   9  18  37  60  75 100 141 174 210 262 313
#     4  10  20  35  56  79 104 135 175 226 271 305
#     4   9  18  33  53  76 101 134 179 223 263 312
#     4   9  20  37  56  81 106 133 178 221 256 314
#     4  11  22  36  57  83 111 141 171 209 260 316
#
# _framework density 18.453437000000001
#
# number of rings (size 3 to 8) (size 9 to 14) (size 15 to 20)
#    0.000    2.400    0.000    2.700    0.000    6.800 
#    0.000    9.000    0.000    0.000    0.000    0.000 
#    0.000    0.000    0.000    0.000    0.000    0.000 
#
# Total GULP energy -496012.738613 kJ/mol
# GULP energy per Si atom -12400.318465 kJ/mol
# Density = 1.841144 g / cm^3
# Si number density = 18.453437 Si / 1000 Ang^3
#
#
#
# Elastic Constant Matrix: (Units=GPa)
#
#
# Indices 1 2 3 4 5 6 
#
# 1 40.7596 33.6473 34.9005 0.0000 0.0000 0.0000
# 2 33.6473 157.8565 67.7432 0.0000 0.0000 0.0000
# 3 34.9005 67.7432 104.6223 0.0000 0.0000 0.0000
# 4 0.0000 0.0000 0.0000 20.7386 0.0000 0.0000
# 5 0.0000 0.0000 0.0000 0.0000 -3.6886 0.0000
# 6 0.0000 0.0000 0.0000 0.0000 0.0000 -55.5577
#
#
#
# Elastic Compliance Matrix: (Units=1/GPa)
#
#
# Indices 1 2 3 4 5 6 
#
# 1 0.035655 -0.003456 -0.009656 0.000000 0.000000 0.000000
# 2 -0.003456 0.009107 -0.004744 0.000000 0.000000 0.000000
# 3 -0.009656 -0.004744 0.015851 0.000000 0.000000 0.000000
# 4 0.000000 0.000000 0.000000 0.048219 0.000000 0.000000
# 5 0.000000 0.000000 0.000000 0.000000 -0.271107 0.000000
# 6 0.000000 0.000000 0.000000 0.000000 0.000000 -0.017999
#
#
# Mechanical properties :
#
#
# Convention : Reuss Voigt Hill
#
# Bulk Modulus (GPa) = 40.15911 63.98003 52.06957
# Shear Modulus (GPa) = -36.69474 3.42831 -16.63322
#
# Velocity S-wave (km/s) = -4.46410 1.36450 -3.00553
# Velocity P-wave (km/s) = 2.18204 6.10154 4.02911
#
# Compressibility (1/GPa) = 0.02490095
#
# Stress axis : x y z
#
# Youngs Moduli (GPa) = 28.04630 109.79984 63.08624
#
# Poissons Ratio (x) = 0.37947 0.60918
# Poissons Ratio (y) = 0.09693 0.29930
# Poissons Ratio (z) = 0.27082 0.52092
#
# Static dielectric constant tensor:
#      x y z
#    x 3.238110 0.000000 0.000000 
#    y 0.000000 3.645370 0.000000 
#    z 0.000000 0.000000 3.295800 
# 
# 
# High freq. dielectric constant tensor:
#      x y z
#    x 1.705840 0.000000 0.000000 
#    y 0.000000 1.721110 0.000000 
#    z 0.000000 0.000000 1.716850 
# 
# From -- ./inp_files/2473.got.cif
#   From: 2010.03.12/outbox.cif.g09.slc.cpg/sg51_2_cif.got.tgz:2473.got - 2010.04.16 13:43:02.
