data_PCOD8212627
_publ_section_title
;
Structure prediction by ZEFSAII (Michael W. Deem and Ramdas Pophale) SiO2 
 PCOD8212627
Probable space group: P M M A
;
_chemical_formula_sum "Si O2"
_cell_formula_units_Z 48
_cell_length_a 16.662524
_cell_length_b 8.650893
_cell_length_c 16.330271
_cell_angle_alpha 90.000000
_cell_angle_beta 90.000000
_cell_angle_gamma 90.000000
_cell_volume 2353.938544
_symmetry_space_group_name_H-M "P M M A"
_symmetry_group_IT_number 51
_symmetry_cell_setting 'orthorhombic'
loop_
_space_group_symop_operation_xyz
x,y,z
1/2-x,-y,z
1/2+x,-y,-z
-x,y,-z
-x,-y,-z
1/2+x,y,-z
1/2-x,y,z
x,-y,z
loop_
_atom_site_type_symbol
_atom_site_label
_atom_site_fract_x
_atom_site_fract_y
_atom_site_fract_z
Si Si1 0.918811 0.184881 0.546021
Si Si2 0.886682 0.175718 0.202799
Si Si3 0.410835 0.676758 0.969085
Si Si4 0.250000 0.675611 0.700947
Si Si5 0.750000 0.819589 0.471850
Si Si6 0.841537 0.824657 0.876921
Si Si7 0.059694 0.822494 0.272505
O O1 0.834188 0.248501 0.508385
O O2 0.921656 0.250897 0.638845
O O3 0.000000 0.245618 0.500000
O O4 0.920196 0.000000 0.543437
O O5 0.897448 0.213634 0.107902
O O6 0.826092 0.295029 0.242481
O O7 0.966775 0.197634 0.254320
O O8 0.855170 0.000000 0.209603
O O9 0.394473 0.500000 0.944194
O O10 0.500000 0.703497 0.000000
O O11 0.350915 0.724715 0.041279
O O12 0.250000 0.500000 0.669725
O O13 0.250000 0.789587 0.624352
O O14 0.750000 0.000000 0.489337
O O15 0.750000 0.824256 0.849783
O O16 0.890211 0.745281 0.801765
O O17 0.872300 0.000000 0.893624
O O18 0.086334 0.000000 0.275791
#
# Coordination Sequence:
#
# PCOD8212627 Si02
#       7
#     8   8   8   4   4   8   8
#     4   9  17  30  53  87 121 147 186 244 297 345
#     4  11  22  39  64  88 115 154 202 246 293 352
#     4  11  23  39  58  82 117 158 200 244 299 355
#     4  12  26  42  60  85 122 155 192 247 302 353
#     4  10  20  36  62  89 116 155 196 237 292 359
#     4  10  21  36  57  85 118 155 200 248 296 350
#     4   9  18  33  57  89 120 151 190 246 300 345
#
# _framework density 20.391355000000001
#
# number of rings (size 3 to 8) (size 9 to 14) (size 15 to 20)
#    0.000    1.833    1.667    2.750    2.333    3.667 
#    0.000    0.000    0.000    6.500    0.000    0.000 
#    0.000    0.000    0.000    0.000    0.000    0.000 
#
# Total GULP energy -595155.837465 kJ/mol
# GULP energy per Si atom -12399.079947 kJ/mol
# Density = 2.034494 g / cm^3
# Si number density = 20.391355 Si / 1000 Ang^3
#
#
#
# Elastic Constant Matrix: (Units=GPa)
#
#
# Indices 1 2 3 4 5 6 
#
# 1 102.5077 29.7151 39.2049 0.0000 0.0000 0.0000
# 2 29.7151 32.0677 16.6888 0.0000 0.0000 0.0000
# 3 39.2049 16.6888 132.5849 0.0000 0.0000 0.0000
# 4 0.0000 0.0000 0.0000 6.2549 0.0000 0.0000
# 5 0.0000 0.0000 0.0000 0.0000 -9.3327 0.0000
# 6 0.0000 0.0000 0.0000 0.0000 0.0000 45.4097
#
#
#
# Elastic Compliance Matrix: (Units=1/GPa)
#
#
# Indices 1 2 3 4 5 6 
#
# 1 0.014200 -0.011742 -0.002721 0.000000 0.000000 0.000000
# 2 -0.011742 0.043080 -0.001950 0.000000 0.000000 0.000000
# 3 -0.002721 -0.001950 0.008592 0.000000 0.000000 0.000000
# 4 0.000000 0.000000 0.000000 0.159875 0.000000 0.000000
# 5 0.000000 0.000000 0.000000 0.000000 -0.107150 0.000000
# 6 0.000000 0.000000 0.000000 0.000000 0.000000 0.022022
#
#
# Mechanical properties :
#
#
# Convention : Reuss Voigt Hill
#
# Bulk Modulus (GPa) = 30.26157 48.70864 39.48511
# Shear Modulus (GPa) = 27.10607 20.56980 23.83794
#
# Velocity S-wave (km/s) = 3.64990 3.17953 3.42281
# Velocity P-wave (km/s) = 5.71270 6.11702 5.91832
#
# Compressibility (1/GPa) = 0.03304521
#
# Stress axis : x y z
#
# Youngs Moduli (GPa) = 70.42362 23.21275 116.38212
#
# Poissons Ratio (x) = 0.27257 0.31665
# Poissons Ratio (y) = 0.82692 0.22700
# Poissons Ratio (z) = 0.19161 0.04528
#
# Static dielectric constant tensor:
#      x y z
#    x 3.830370 0.000000 0.000000 
#    y 0.000000 3.295510 0.000000 
#    z 0.000000 0.000000 3.838680 
# 
# 
# High freq. dielectric constant tensor:
#      x y z
#    x 1.808800 0.000000 0.000000 
#    y 0.000000 1.749970 0.000000 
#    z 0.000000 0.000000 1.811360 
# 
# From -- ./inp_files/24842.got.cif
#   From: 2010.03.12/outbox.cif.g09.slc.cpg/sg51_13_cif.got.tgz:24842.got - 2010.04.16 13:43:02.
