data_PCOD8212626
_publ_section_title
;
Structure prediction by ZEFSAII (Michael W. Deem and Ramdas Pophale) SiO2 
 PCOD8212626
Probable space group: P M M A
;
_chemical_formula_sum "Si O2"
_cell_formula_units_Z 64
_cell_length_a 8.849934
_cell_length_b 15.142759
_cell_length_c 23.604722
_cell_angle_alpha 90.000000
_cell_angle_beta 90.000000
_cell_angle_gamma 90.000000
_cell_volume 3163.325865
_symmetry_space_group_name_H-M "P M M A"
_symmetry_group_IT_number 51
_symmetry_cell_setting 'orthorhombic'
loop_
_space_group_symop_operation_xyz
x,y,z
1/2-x,-y,z
1/2+x,-y,-z
-x,y,-z
-x,-y,-z
1/2+x,y,-z
1/2-x,y,z
x,-y,z
loop_
_atom_site_type_symbol
_atom_site_label
_atom_site_fract_x
_atom_site_fract_y
_atom_site_fract_z
Si Si1 0.576150 0.899848 0.876952
Si Si2 0.076235 0.647105 0.751505
Si Si3 0.076757 0.145692 0.762316
Si Si4 0.927975 0.742047 0.060033
Si Si5 0.574820 0.398555 0.374020
Si Si6 0.922740 0.400905 0.862221
Si Si7 0.571865 0.754979 0.560044
Si Si8 0.077406 0.901289 0.351438
O O1 0.750000 0.870538 0.880169
O O2 0.523022 0.893702 0.812388
O O3 0.480386 0.837090 0.917760
O O4 0.554733 0.000000 0.898458
O O5 0.250000 0.618115 0.759491
O O6 0.053997 0.750355 0.759865
O O7 0.017365 0.619049 0.689707
O O8 0.973990 0.597027 0.796998
O O9 0.250000 0.120231 0.773566
O O10 0.025112 0.102771 0.703950
O O11 0.750000 0.743977 0.053464
O O12 0.971372 0.665139 0.103410
O O13 0.000000 0.719707 0.000000
O O14 0.750000 0.371889 0.378829
O O15 0.547777 0.500000 0.390550
O O16 0.480601 0.340163 0.417702
O O17 0.750000 0.368345 0.866394
O O18 0.938907 0.500000 0.886818
O O19 0.500000 0.776338 0.500000
O O20 0.750000 0.754580 0.553192
O O21 0.516560 0.831709 0.602600
O O22 0.250000 0.878680 0.334818
O O23 0.065055 0.000000 0.377060
#
# Coordination Sequence:
#
# PCOD8212626 Si02
#       8
#     8   8   8   8   8   8   8   8
#     4  11  24  42  65  93 127 166 206 252 305 362
#     4  10  20  36  61  92 126 163 200 245 304 362
#     4  11  21  35  61  95 127 161 200 247 302 360
#     4  12  26  45  68  92 122 163 208 259 309 362
#     4  10  21  39  63  89 120 157 197 243 296 356
#     4  11  24  41  64  95 129 165 206 252 303 363
#     4  11  24  41  62  85 115 154 199 251 300 356
#     4  10  22  40  61  87 120 159 200 245 301 361
#
# _framework density 20.231871999999999
#
# number of rings (size 3 to 8) (size 9 to 14) (size 15 to 20)
#    0.000    1.250    2.500    3.375    0.000    7.000 
#    0.000    0.000    0.000    0.000    0.000    0.000 
#    0.000    0.000    0.000    0.000    0.000    0.000 
#
# Total GULP energy -793997.621698 kJ/mol
# GULP energy per Si atom -12406.212839 kJ/mol
# Density = 2.018582 g / cm^3
# Si number density = 20.231872 Si / 1000 Ang^3
#
#
#
# Elastic Constant Matrix: (Units=GPa)
#
#
# Indices 1 2 3 4 5 6 
#
# 1 99.5837 36.0810 25.3800 0.0000 0.0000 0.0000
# 2 36.0810 92.2456 19.1119 0.0000 0.0000 0.0000
# 3 25.3800 19.1119 82.7271 0.0000 0.0000 0.0000
# 4 0.0000 0.0000 0.0000 10.0774 0.0000 0.0000
# 5 0.0000 0.0000 0.0000 0.0000 35.5744 0.0000
# 6 0.0000 0.0000 0.0000 0.0000 0.0000 16.6549
#
#
#
# Elastic Compliance Matrix: (Units=1/GPa)
#
#
# Indices 1 2 3 4 5 6 
#
# 1 0.012285 -0.004227 -0.002792 0.000000 0.000000 0.000000
# 2 -0.004227 0.012840 -0.001670 0.000000 0.000000 0.000000
# 3 -0.002792 -0.001670 0.013330 0.000000 0.000000 0.000000
# 4 0.000000 0.000000 0.000000 0.099232 0.000000 0.000000
# 5 0.000000 0.000000 0.000000 0.000000 0.028110 0.000000
# 6 0.000000 0.000000 0.000000 0.000000 0.000000 0.060042
#
#
# Mechanical properties :
#
#
# Convention : Reuss Voigt Hill
#
# Bulk Modulus (GPa) = 47.44351 48.41136 47.92744
# Shear Modulus (GPa) = 19.98061 25.39356 22.68708
#
# Velocity S-wave (km/s) = 3.14599 3.54662 3.35229
# Velocity P-wave (km/s) = 6.05782 6.38369 6.22289
#
# Compressibility (1/GPa) = 0.02107770
#
# Stress axis : x y z
#
# Youngs Moduli (GPa) = 81.40104 77.88329 75.01669
#
# Poissons Ratio (x) = 0.32918 0.20948
# Poissons Ratio (y) = 0.34405 0.12525
# Poissons Ratio (z) = 0.22731 0.13003
#
# Static dielectric constant tensor:
#      x y z
#    x 3.691770 0.000000 0.000000 
#    y 0.000000 3.791690 0.000000 
#    z 0.000000 0.000000 3.649500 
# 
# 
# High freq. dielectric constant tensor:
#      x y z
#    x 1.793750 0.000000 0.000000 
#    y 0.000000 1.804520 0.000000 
#    z 0.000000 0.000000 1.785210 
# 
# From -- ./inp_files/34840.got.cif
#   From: 2010.03.12/outbox.cif.g09.slc.cpg/sg51_18_cif.got.tgz:34840.got - 2010.04.16 13:43:02.
