data_PCOD8212749
_publ_section_title
;
Structure prediction by ZEFSAII (Michael W. Deem and Ramdas Pophale) SiO2 
 PCOD8212749
Probable space group: P M M A
;
_chemical_formula_sum "Si O2"
_cell_formula_units_Z 48
_cell_length_a 14.742897
_cell_length_b 18.083570
_cell_length_c 9.031981
_cell_angle_alpha 90.000000
_cell_angle_beta 90.000000
_cell_angle_gamma 90.000000
_cell_volume 2407.964158
_symmetry_space_group_name_H-M "P M M A"
_symmetry_group_IT_number 51
_symmetry_cell_setting 'orthorhombic'
loop_
_space_group_symop_operation_xyz
x,y,z
1/2-x,-y,z
1/2+x,-y,-z
-x,y,-z
-x,-y,-z
1/2+x,y,-z
1/2-x,y,z
x,-y,z
loop_
_atom_site_type_symbol
_atom_site_label
_atom_site_fract_x
_atom_site_fract_y
_atom_site_fract_z
Si Si1 0.146613 0.300654 0.900021
Si Si2 0.647751 0.415103 0.853004
Si Si3 0.989170 0.159057 0.662077
Si Si4 0.648825 0.082378 0.197523
Si Si5 0.648828 0.160402 0.906528
Si Si6 0.506497 0.325458 0.663960
O O1 0.250000 0.281217 0.851983
O O2 0.087501 0.315425 0.753522
O O3 0.141598 0.377613 0.986952
O O4 0.110414 0.234676 0.009476
O O5 0.750000 0.407471 0.789235
O O6 0.619550 0.500000 0.872820
O O7 0.578482 0.376446 0.743845
O O8 0.912257 0.128122 0.772439
O O9 0.000000 0.121044 0.500000
O O10 0.087425 0.147089 0.734660
O O11 0.956085 0.242973 0.643329
O O12 0.750000 0.091710 0.262897
O O13 0.611404 0.000000 0.232770
O O14 0.650686 0.092957 0.021378
O O15 0.750000 0.177826 0.846511
O O16 0.500000 0.360918 0.500000
#
# Coordination Sequence:
#
# PCOD8212749 Si02
#       6
#     8   8   8   8   8   8
#     4  10  20  37  61  86 115 154 199 243 288 343
#     4  10  22  40  62  88 118 155 199 247 296 346
#     4  11  23  36  57  90 124 158 196 239 292 354
#     4  10  22  40  62  88 118 155 199 247 296 346
#     4  10  20  37  61  86 115 154 199 243 288 343
#     4  11  23  36  57  90 124 158 196 239 292 354
#
# _framework density 19.933852999999999
#
# number of rings (size 3 to 8) (size 9 to 14) (size 15 to 20)
#    0.000    1.667    3.333    1.000    0.000    4.667 
#    0.000    3.333    0.000    4.000    0.000    0.000 
#    0.000    0.000    0.000    0.000    0.000    0.000 
#
# Total GULP energy -594817.605049 kJ/mol
# GULP energy per Si atom -12392.033439 kJ/mol
# Density = 1.988848 g / cm^3
# Si number density = 19.933853 Si / 1000 Ang^3
#
#
#
# Elastic Constant Matrix: (Units=GPa)
#
#
# Indices 1 2 3 4 5 6 
#
# 1 104.6640 21.6356 63.0074 0.0000 0.0000 0.0000
# 2 21.6356 77.3929 9.8972 0.0000 0.0000 0.0000
# 3 63.0074 9.8972 118.9990 0.0000 0.0000 0.0000
# 4 0.0000 0.0000 0.0000 15.6755 0.0000 0.0000
# 5 0.0000 0.0000 0.0000 0.0000 9.6664 0.0000
# 6 0.0000 0.0000 0.0000 0.0000 0.0000 28.7638
#
#
#
# Elastic Compliance Matrix: (Units=1/GPa)
#
#
# Indices 1 2 3 4 5 6 
#
# 1 0.014751 -0.003158 -0.007548 0.000000 0.000000 0.000000
# 2 -0.003158 0.013736 0.000530 0.000000 0.000000 0.000000
# 3 -0.007548 0.000530 0.012356 0.000000 0.000000 0.000000
# 4 0.000000 0.000000 0.000000 0.063794 0.000000 0.000000
# 5 0.000000 0.000000 0.000000 0.000000 0.103451 0.000000
# 6 0.000000 0.000000 0.000000 0.000000 0.000000 0.034766
#
#
# Mechanical properties :
#
#
# Convention : Reuss Voigt Hill
#
# Bulk Modulus (GPa) = 48.80313 54.45957 51.63135
# Shear Modulus (GPa) = 18.51602 24.58885 21.55244
#
# Velocity S-wave (km/s) = 3.05105 3.51596 3.29172
# Velocity P-wave (km/s) = 6.07845 6.62285 6.35648
#
# Compressibility (1/GPa) = 0.02049049
#
# Stress axis : x y z
#
# Youngs Moduli (GPa) = 67.79235 72.79983 80.93462
#
# Poissons Ratio (x) = 0.22994 0.61086
# Poissons Ratio (y) = 0.21412 -0.04289
# Poissons Ratio (z) = 0.51167 -0.03858
#
# Static dielectric constant tensor:
#      x y z
#    x 3.693590 0.000000 0.000000 
#    y 0.000000 3.569810 0.000000 
#    z 0.000000 0.000000 3.705140 
# 
# 
# High freq. dielectric constant tensor:
#      x y z
#    x 1.781580 0.000000 0.000000 
#    y 0.000000 1.768620 0.000000 
#    z 0.000000 0.000000 1.762250 
# 
# From -- ./inp_files/8260.got.cif
#   From: 2010.03.12/outbox.cif.g09.slc.cpg/sg51_5_cif.got.tgz:8260.got - 2010.04.16 13:43:02.
