data_PCOD8212443
_publ_section_title
;
Structure prediction by ZEFSAII (Michael W. Deem and Ramdas Pophale) SiO2 
 PCOD8212443
Probable space group: P M M A
;
_chemical_formula_sum "Si O2"
_cell_formula_units_Z 48
_cell_length_a 16.184842
_cell_length_b 8.569242
_cell_length_c 17.248369
_cell_angle_alpha 90.000000
_cell_angle_beta 90.000000
_cell_angle_gamma 90.000000
_cell_volume 2392.207824
_symmetry_space_group_name_H-M "P M M A"
_symmetry_group_IT_number 51
_symmetry_cell_setting 'orthorhombic'
loop_
_space_group_symop_operation_xyz
x,y,z
1/2-x,-y,z
1/2+x,-y,-z
-x,y,-z
-x,-y,-z
1/2+x,y,-z
1/2-x,y,z
x,-y,z
loop_
_atom_site_type_symbol
_atom_site_label
_atom_site_fract_x
_atom_site_fract_y
_atom_site_fract_z
Si Si1 0.928615 0.317030 0.160130
Si Si2 0.909065 0.684763 0.474779
Si Si3 0.250000 0.815093 0.261559
Si Si4 0.250000 0.185050 0.437026
Si Si5 0.395190 0.182309 0.152611
Si Si6 0.845195 0.322636 0.005950
Si Si7 0.657637 0.314545 0.312237
O O1 0.912600 0.500000 0.159632
O O2 0.894747 0.249823 0.078821
O O3 0.881131 0.242827 0.233800
O O4 0.023992 0.280884 0.169096
O O5 0.903744 0.500000 0.484979
O O6 0.834346 0.755826 0.524330
O O7 0.897111 0.737493 0.385731
O O8 0.000000 0.746503 0.500000
O O9 0.250000 0.750959 0.348862
O O10 0.169668 0.754562 0.215850
O O11 0.250000 0.000000 0.259677
O O12 0.250000 0.000000 0.439530
O O13 0.413728 0.000000 0.161910
O O14 0.361108 0.212706 0.066890
O O15 0.750000 0.320369 0.029342
O O16 0.874253 0.500000 0.987042
O O17 0.750000 0.247821 0.322511
O O18 0.659768 0.500000 0.307485
#
# Coordination Sequence:
#
# PCOD8212443 Si02
#       7
#     8   8   4   4   8   8   8
#     4  10  21  35  56  86 114 144 186 231 278 334
#     4  10  21  38  62  92 122 153 193 244 296 349
#     4   9  22  41  57  76 109 150 188 231 283 335
#     4  11  23  41  63  86 117 158 198 241 295 353
#     4  11  22  39  58  78 109 150 189 230 283 334
#     4  10  20  36  57  82 112 146 186 230 276 329
#     4   9  17  34  59  84 115 151 185 229 284 335
#
# _framework density 20.065148000000001
#
# number of rings (size 3 to 8) (size 9 to 14) (size 15 to 20)
#    0.000    2.000    1.667    1.750    2.333    5.000 
#    0.000    3.333    0.000    1.000    0.000    0.000 
#    0.000    0.000    0.000    0.000    0.000    0.000 
#
# Total GULP energy -595203.896229 kJ/mol
# GULP energy per Si atom -12400.081171 kJ/mol
# Density = 2.001948 g / cm^3
# Si number density = 20.065148 Si / 1000 Ang^3
#
#
#
# Elastic Constant Matrix: (Units=GPa)
#
#
# Indices 1 2 3 4 5 6 
#
# 1 144.6061 9.0454 65.5383 0.0000 0.0000 0.0000
# 2 9.0454 17.1312 18.2021 0.0000 0.0000 0.0000
# 3 65.5383 18.2021 163.6026 0.0000 0.0000 0.0000
# 4 0.0000 0.0000 0.0000 21.1665 0.0000 0.0000
# 5 0.0000 0.0000 0.0000 0.0000 296.6638 0.0000
# 6 0.0000 0.0000 0.0000 0.0000 0.0000 18.4634
#
#
#
# Elastic Compliance Matrix: (Units=1/GPa)
#
#
# Indices 1 2 3 4 5 6 
#
# 1 0.008464 -0.000983 -0.003281 0.000000 0.000000 0.000000
# 2 -0.000983 0.066313 -0.006984 0.000000 0.000000 0.000000
# 3 -0.003281 -0.006984 0.008204 0.000000 0.000000 0.000000
# 4 0.000000 0.000000 0.000000 0.047244 0.000000 0.000000
# 5 0.000000 0.000000 0.000000 0.000000 0.003371 0.000000
# 6 0.000000 0.000000 0.000000 0.000000 0.000000 0.054161
#
#
# Mechanical properties :
#
#
# Convention : Reuss Voigt Hill
#
# Bulk Modulus (GPa) = 16.53318 56.76794 36.65056
# Shear Modulus (GPa) = 21.70001 82.76235 52.23118
#
# Velocity S-wave (km/s) = 3.29215 6.42934 5.10757
# Velocity P-wave (km/s) = 4.76536 9.13610 7.28619
#
# Compressibility (1/GPa) = 0.06048441
#
# Stress axis : x y z
#
# Youngs Moduli (GPa) = 118.14820 15.08005 121.89343
#
# Poissons Ratio (x) = 0.01482 0.39997
# Poissons Ratio (y) = 0.11610 0.85133
# Poissons Ratio (z) = 0.38768 0.10532
#
# Static dielectric constant tensor:
#      x y z
#    x 3.785960 0.000000 0.000000 
#    y 0.000000 3.258000 0.000000 
#    z 0.000000 0.000000 3.991720 
# 
# 
# High freq. dielectric constant tensor:
#      x y z
#    x 1.797560 0.000000 0.000000 
#    y 0.000000 1.743710 0.000000 
#    z 0.000000 0.000000 1.799010 
# 
# From -- ./inp_files/29554.got.cif
#   From: 2010.03.12/outbox.cif.g09.slc.cpg/sg51_15_cif.got.tgz:29554.got - 2010.04.16 13:43:02.
