data_PCOD8212461
_publ_section_title
;
Structure prediction by ZEFSAII (Michael W. Deem and Ramdas Pophale) SiO2 
 PCOD8212461
Probable space group: P M M A
;
_chemical_formula_sum "Si O2"
_cell_formula_units_Z 64
_cell_length_a 17.977616
_cell_length_b 18.902878
_cell_length_c 9.835372
_cell_angle_alpha 90.000000
_cell_angle_beta 90.000000
_cell_angle_gamma 90.000000
_cell_volume 3342.341504
_symmetry_space_group_name_H-M "P M M A"
_symmetry_group_IT_number 51
_symmetry_cell_setting 'orthorhombic'
loop_
_space_group_symop_operation_xyz
x,y,z
1/2-x,-y,z
1/2+x,-y,-z
-x,y,-z
-x,-y,-z
1/2+x,y,-z
1/2-x,y,z
x,-y,z
loop_
_atom_site_type_symbol
_atom_site_label
_atom_site_fract_x
_atom_site_fract_y
_atom_site_fract_z
Si Si1 0.334331 0.417332 0.470656
Si Si2 0.605894 0.188525 0.101734
Si Si3 0.060770 0.185629 0.199058
Si Si4 0.428417 0.417323 0.729928
Si Si5 0.335447 0.078264 0.696678
Si Si6 0.837567 0.340973 0.054877
Si Si7 0.419287 0.920212 0.438182
Si Si8 0.413805 0.657073 0.231980
O O1 0.250000 0.396611 0.512958
O O2 0.340046 0.500000 0.441356
O O3 0.392838 0.394820 0.586112
O O4 0.355631 0.377731 0.333423
O O5 0.526811 0.189269 0.175006
O O6 0.653390 0.127986 0.173634
O O7 0.645431 0.264194 0.119111
O O8 0.601587 0.169650 0.942833
O O9 0.086094 0.125111 0.301777
O O10 0.085191 0.259793 0.263833
O O11 0.447470 0.500000 0.733540
O O12 0.366110 0.400579 0.841988
O O13 0.503822 0.374617 0.754767
O O14 0.250000 0.068411 0.671043
O O15 0.367408 0.111574 0.557238
O O16 0.371822 0.000000 0.722873
O O17 0.750000 0.349997 0.028228
O O18 0.884384 0.354657 0.919398
O O19 0.500000 0.917823 0.500000
O O20 0.395299 0.000000 0.399582
#
# Coordination Sequence:
#
# PCOD8212461 Si02
#       8
#     8   8   8   8   8   8   8   8
#     4  10  22  40  60  85 118 152 190 240 295 350
#     4  10  20  38  58  86 117 153 193 240 287 342
#     4  10  21  36  60  86 117 150 195 243 288 336
#     4  11  23  40  61  85 114 151 195 239 289 348
#     4  10  21  38  60  86 119 157 194 235 287 346
#     4  11  23  39  59  85 118 152 190 241 294 343
#     4  10  20  36  57  85 118 152 192 239 287 338
#     4  11  22  39  60  86 116 154 194 240 288 349
#
# _framework density 19.148251999999999
#
# number of rings (size 3 to 8) (size 9 to 14) (size 15 to 20)
#    0.000    1.625    2.500    2.250    0.000    5.750 
#    0.000    6.250    0.000    1.500    0.000    0.000 
#    0.000    0.000    0.000    0.000    0.000    0.000 
#
# Total GULP energy -793690.028388 kJ/mol
# GULP energy per Si atom -12401.406694 kJ/mol
# Density = 1.910467 g / cm^3
# Si number density = 19.148252 Si / 1000 Ang^3
#
#
#
# Elastic Constant Matrix: (Units=GPa)
#
#
# Indices 1 2 3 4 5 6 
#
# 1 98.1004 38.3570 39.1926 0.0000 0.0000 0.0000
# 2 38.3570 73.0976 64.7496 0.0000 0.0000 0.0000
# 3 39.1926 64.7496 106.1524 0.0000 0.0000 0.0000
# 4 0.0000 0.0000 0.0000 42.8005 0.0000 0.0000
# 5 0.0000 0.0000 0.0000 0.0000 31.6237 0.0000
# 6 0.0000 0.0000 0.0000 0.0000 0.0000 26.7025
#
#
#
# Elastic Compliance Matrix: (Units=1/GPa)
#
#
# Indices 1 2 3 4 5 6 
#
# 1 0.012917 -0.005555 -0.001381 0.000000 0.000000 0.000000
# 2 -0.005555 0.032149 -0.017559 0.000000 0.000000 0.000000
# 3 -0.001381 -0.017559 0.020640 0.000000 0.000000 0.000000
# 4 0.000000 0.000000 0.000000 0.023364 0.000000 0.000000
# 5 0.000000 0.000000 0.000000 0.000000 0.031622 0.000000
# 6 0.000000 0.000000 0.000000 0.000000 0.000000 0.037450
#
#
# Mechanical properties :
#
#
# Convention : Reuss Voigt Hill
#
# Bulk Modulus (GPa) = 59.81810 62.43876 61.12843
# Shear Modulus (GPa) = 23.50688 29.22877 26.36783
#
# Velocity S-wave (km/s) = 3.50755 3.91121 3.71487
# Velocity P-wave (km/s) = 6.90733 7.28530 7.09883
#
# Compressibility (1/GPa) = 0.01671735
#
# Stress axis : x y z
#
# Youngs Moduli (GPa) = 77.41552 31.10546 48.44855
#
# Poissons Ratio (x) = 0.17279 0.06690
# Poissons Ratio (y) = 0.43005 0.85069
# Poissons Ratio (z) = 0.10689 0.54617
#
# Static dielectric constant tensor:
#      x y z
#    x 3.467890 0.000000 0.000000 
#    y 0.000000 3.611500 0.000000 
#    z 0.000000 0.000000 3.530750 
# 
# 
# High freq. dielectric constant tensor:
#      x y z
#    x 1.749500 0.000000 0.000000 
#    y 0.000000 1.745130 0.000000 
#    z 0.000000 0.000000 1.750150 
# 
# From -- ./inp_files/10095.got.cif
#   From: 2010.03.12/outbox.cif.g09.slc.cpg/sg51_6_cif.got.tgz:10095.got - 2010.04.16 13:43:02.
