data_PCOD8212796
_publ_section_title
;
Structure prediction by ZEFSAII (Michael W. Deem and Ramdas Pophale) SiO2 
 PCOD8212796
Probable space group: P M M A
;
_chemical_formula_sum "Si O2"
_cell_formula_units_Z 48
_cell_length_a 14.127438
_cell_length_b 18.114933
_cell_length_c 9.636495
_cell_angle_alpha 90.000000
_cell_angle_beta 90.000000
_cell_angle_gamma 90.000000
_cell_volume 2466.148604
_symmetry_space_group_name_H-M "P M M A"
_symmetry_group_IT_number 51
_symmetry_cell_setting 'orthorhombic'
loop_
_space_group_symop_operation_xyz
x,y,z
1/2-x,-y,z
1/2+x,-y,-z
-x,y,-z
-x,-y,-z
1/2+x,y,-z
1/2-x,y,z
x,-y,z
loop_
_atom_site_type_symbol
_atom_site_label
_atom_site_fract_x
_atom_site_fract_y
_atom_site_fract_z
Si Si1 0.483491 0.586352 0.656825
Si Si2 0.061030 0.161886 0.866505
Si Si3 0.857729 0.415242 0.875267
Si Si4 0.250000 0.912437 0.792228
Si Si5 0.861145 0.323544 0.147258
Si Si6 0.944565 0.917999 0.641076
Si Si7 0.750000 0.912300 0.522124
O O1 0.500000 0.613761 0.500000
O O2 0.459467 0.500000 0.659741
O O3 0.577174 0.605565 0.745048
O O4 0.393927 0.629107 0.720239
O O5 0.157785 0.115653 0.873077
O O6 0.082071 0.247893 0.856248
O O7 0.998159 0.140008 0.735524
O O8 0.000000 0.141971 0.000000
O O9 0.750000 0.399478 0.829835
O O10 0.871812 0.500000 0.919816
O O11 0.887027 0.367006 0.007231
O O12 0.250000 0.880341 0.634779
O O13 0.250000 0.000000 0.793247
O O14 0.750000 0.308323 0.160991
O O15 0.840904 0.885101 0.607976
O O16 0.000000 0.926727 0.500000
O O17 0.938543 0.000000 0.710409
O O18 0.750000 0.000000 0.508666
#
# Coordination Sequence:
#
# PCOD8212796 Si02
#       7
#     8   8   8   4   8   8   4
#     4  10  21  37  60  93 128 157 191 243 302 355
#     4  12  25  40  60  89 125 162 201 255 316 368
#     4   9  18  35  62  89 115 156 204 243 284 344
#     4  11  22  41  65  89 122 160 201 255 313 368
#     4  11  23  41  61  83 117 161 208 248 293 355
#     4  10  20  37  64  91 116 155 202 248 301 368
#     4   9  18  37  65  93 117 148 199 251 296 360
#
# _framework density 19.463546000000001
#
# number of rings (size 3 to 8) (size 9 to 14) (size 15 to 20)
#    0.000    1.667    2.500    2.500    0.000    5.667 
#    0.000    2.500    1.833    0.000    0.000    0.000 
#    0.000    0.000    0.000    0.000    0.000    0.000 
#
# Total GULP energy -595361.605117 kJ/mol
# GULP energy per Si atom -12403.366773 kJ/mol
# Density = 1.941925 g / cm^3
# Si number density = 19.463546 Si / 1000 Ang^3
#
#
#
# Elastic Constant Matrix: (Units=GPa)
#
#
# Indices 1 2 3 4 5 6 
#
# 1 145.3380 51.1083 66.7552 0.0000 0.0000 0.0000
# 2 51.1083 87.0599 57.6998 0.0000 0.0000 0.0000
# 3 66.7552 57.6998 133.6529 0.0000 0.0000 0.0000
# 4 0.0000 0.0000 0.0000 8.7970 0.0000 0.0000
# 5 0.0000 0.0000 0.0000 0.0000 30.2609 0.0000
# 6 0.0000 0.0000 0.0000 0.0000 0.0000 32.8903
#
#
#
# Elastic Compliance Matrix: (Units=1/GPa)
#
#
# Indices 1 2 3 4 5 6 
#
# 1 0.009615 -0.003448 -0.003314 0.000000 0.000000 0.000000
# 2 -0.003448 0.017327 -0.005758 0.000000 0.000000 0.000000
# 3 -0.003314 -0.005758 0.011623 0.000000 0.000000 0.000000
# 4 0.000000 0.000000 0.000000 0.113675 0.000000 0.000000
# 5 0.000000 0.000000 0.000000 0.000000 0.033046 0.000000
# 6 0.000000 0.000000 0.000000 0.000000 0.000000 0.030404
#
#
# Mechanical properties :
#
#
# Convention : Reuss Voigt Hill
#
# Bulk Modulus (GPa) = 73.93756 79.68637 76.81197
# Shear Modulus (GPa) = 20.38838 27.08882 23.73860
#
# Velocity S-wave (km/s) = 3.24005 3.73469 3.49613
# Velocity P-wave (km/s) = 7.21577 7.72188 7.47311
#
# Compressibility (1/GPa) = 0.01352493
#
# Stress axis : x y z
#
# Youngs Moduli (GPa) = 104.00229 57.71421 86.03673
#
# Poissons Ratio (x) = 0.19902 0.28511
# Poissons Ratio (y) = 0.35863 0.49539
# Poissons Ratio (z) = 0.34464 0.33231
#
# Static dielectric constant tensor:
#      x y z
#    x 3.893620 0.000000 0.000000 
#    y 0.000000 3.454770 0.000000 
#    z 0.000000 0.000000 3.461200 
# 
# 
# High freq. dielectric constant tensor:
#      x y z
#    x 1.775970 0.000000 0.000000 
#    y 0.000000 1.748570 0.000000 
#    z 0.000000 0.000000 1.750080 
# 
# From -- ./inp_files/8334.got.cif
#   From: 2010.03.12/outbox.cif.g09.slc.cpg/sg51_5_cif.got.tgz:8334.got - 2010.04.16 13:43:02.
