data_PCOD8212154
_publ_section_title
;
Structure prediction by ZEFSAII (Michael W. Deem and Ramdas Pophale) SiO2 
 PCOD8212154
Probable space group: P M M A
;
_chemical_formula_sum "Si O2"
_cell_formula_units_Z 64
_cell_length_a 31.296767
_cell_length_b 9.072894
_cell_length_c 11.982359
_cell_angle_alpha 90.000000
_cell_angle_beta 90.000000
_cell_angle_gamma 90.000000
_cell_volume 3402.417793
_symmetry_space_group_name_H-M "P M M A"
_symmetry_group_IT_number 51
_symmetry_cell_setting 'orthorhombic'
loop_
_space_group_symop_operation_xyz
x,y,z
1/2-x,-y,z
1/2+x,-y,-z
-x,y,-z
-x,-y,-z
1/2+x,y,-z
1/2-x,y,z
x,-y,z
loop_
_atom_site_type_symbol
_atom_site_label
_atom_site_fract_x
_atom_site_fract_y
_atom_site_fract_z
Si Si1 0.103432 0.172128 0.853042
Si Si2 0.514797 0.326436 0.122746
Si Si3 0.297370 0.324826 0.480154
Si Si4 0.374073 0.327625 0.637216
Si Si5 0.134056 0.829877 0.096109
Si Si6 0.557607 0.825154 0.748884
Si Si7 0.451205 0.328991 0.474885
Si Si8 0.700672 0.665559 0.767574
O O1 0.062312 0.273616 0.858991
O O2 0.130435 0.229013 0.747814
O O3 0.091429 0.000000 0.840855
O O4 0.130311 0.200786 0.964809
O O5 0.511768 0.500000 0.142493
O O6 0.486930 0.245536 0.215187
O O7 0.500000 0.279120 0.000000
O O8 0.250000 0.270652 0.520259
O O9 0.296955 0.500000 0.472786
O O10 0.334984 0.269929 0.560758
O O11 0.306788 0.264256 0.355408
O O12 0.368559 0.500000 0.665853
O O13 0.420247 0.299554 0.580185
O O14 0.093435 0.767684 0.164658
O O15 0.177049 0.755659 0.137295
O O16 0.137793 0.000000 0.123243
O O17 0.568156 0.767422 0.625404
O O18 0.553280 0.000000 0.748910
O O19 0.500000 0.280045 0.500000
O O20 0.449794 0.500000 0.440262
O O21 0.750000 0.669213 0.799511
O O22 0.682695 0.500000 0.769648
#
# Coordination Sequence:
#
# PCOD8212154 Si02
#       8
#     8   8   8   8   8   8   8   8
#     4  11  23  39  56  76 111 151 186 226 271 326
#     4  11  22  36  56  81 107 141 186 231 275 322
#     4   8  15  31  56  84 111 139 175 225 283 334
#     4  10  20  35  56  81 110 146 187 233 283 332
#     4  10  22  37  53  78 111 146 179 217 270 325
#     4  11  22  36  56  81 110 143 184 227 271 327
#     4  10  21  36  53  77 111 145 182 230 280 330
#     4   9  18  34  59  88 112 137 175 223 274 329
#
# _framework density 18.810154000000001
#
# number of rings (size 3 to 8) (size 9 to 14) (size 15 to 20)
#    0.000    2.000    1.250    3.375    0.000    5.500 
#    0.000    1.250    0.000    3.375    0.000    0.000 
#    0.000    0.000    0.000    0.000    0.000    0.000 
#
# Total GULP energy -793681.765958 kJ/mol
# GULP energy per Si atom -12401.277593 kJ/mol
# Density = 1.876734 g / cm^3
# Si number density = 18.810154 Si / 1000 Ang^3
#
#
#
# Elastic Constant Matrix: (Units=GPa)
#
#
# Indices 1 2 3 4 5 6 
#
# 1 98.6757 24.8325 50.1620 0.0000 0.0000 0.0000
# 2 24.8325 47.4743 45.8612 0.0000 0.0000 0.0000
# 3 50.1620 45.8612 117.7113 0.0000 0.0000 0.0000
# 4 0.0000 0.0000 0.0000 33.7862 0.0000 0.0000
# 5 0.0000 0.0000 0.0000 0.0000 33.7949 0.0000
# 6 0.0000 0.0000 0.0000 0.0000 0.0000 22.2450
#
#
#
# Elastic Compliance Matrix: (Units=1/GPa)
#
#
# Indices 1 2 3 4 5 6 
#
# 1 0.013097 -0.002340 -0.004670 0.000000 0.000000 0.000000
# 2 -0.002340 0.034194 -0.012325 0.000000 0.000000 0.000000
# 3 -0.004670 -0.012325 0.015287 0.000000 0.000000 0.000000
# 4 0.000000 0.000000 0.000000 0.029598 0.000000 0.000000
# 5 0.000000 0.000000 0.000000 0.000000 0.029590 0.000000
# 6 0.000000 0.000000 0.000000 0.000000 0.000000 0.044954
#
#
# Mechanical properties :
#
#
# Convention : Reuss Voigt Hill
#
# Bulk Modulus (GPa) = 41.82467 56.17473 48.99970
# Shear Modulus (GPa) = 23.43462 27.49893 25.46678
#
# Velocity S-wave (km/s) = 3.53349 3.82765 3.68351
# Velocity P-wave (km/s) = 6.23946 7.03303 6.64809
#
# Compressibility (1/GPa) = 0.02390934
#
# Stress axis : x y z
#
# Youngs Moduli (GPa) = 76.35456 29.24457 65.41373
#
# Poissons Ratio (x) = 0.06842 0.30545
# Poissons Ratio (y) = 0.17864 0.80625
# Poissons Ratio (z) = 0.35654 0.36045
#
# Static dielectric constant tensor:
#      x y z
#    x 3.477650 0.000000 0.000000 
#    y 0.000000 3.282090 0.000000 
#    z 0.000000 0.000000 3.886560 
# 
# 
# High freq. dielectric constant tensor:
#      x y z
#    x 1.727480 0.000000 0.000000 
#    y 0.000000 1.715150 0.000000 
#    z 0.000000 0.000000 1.735150 
# 
# From -- ./inp_files/19638.got.cif
#   From: 2010.03.12/outbox.cif.g09.slc.cpg/sg51_10_cif.got.tgz:19638.got - 2010.04.16 13:43:02.
