data_PCOD8212151
_publ_section_title
;
Structure prediction by ZEFSAII (Michael W. Deem and Ramdas Pophale) SiO2 
 PCOD8212151
Probable space group: P M M A
;
_chemical_formula_sum "Si O2"
_cell_formula_units_Z 48
_cell_length_a 26.606535
_cell_length_b 9.101126
_cell_length_c 10.282956
_cell_angle_alpha 90.000000
_cell_angle_beta 90.000000
_cell_angle_gamma 90.000000
_cell_volume 2490.011908
_symmetry_space_group_name_H-M "P M M A"
_symmetry_group_IT_number 51
_symmetry_cell_setting 'orthorhombic'
loop_
_space_group_symop_operation_xyz
x,y,z
1/2-x,-y,z
1/2+x,-y,-z
-x,y,-z
-x,-y,-z
1/2+x,y,-z
1/2-x,y,z
x,-y,z
loop_
_atom_site_type_symbol
_atom_site_label
_atom_site_fract_x
_atom_site_fract_y
_atom_site_fract_z
Si Si1 0.529483 0.325488 0.624023
Si Si2 0.692100 0.830052 0.847678
Si Si3 0.191349 0.330769 0.659295
Si Si4 0.637867 0.825968 0.108970
Si Si5 0.467951 0.328597 0.873176
Si Si6 0.642619 0.673942 0.610157
O O1 0.500000 0.260750 0.500000
O O2 0.531318 0.500000 0.616254
O O3 0.500884 0.272636 0.752452
O O4 0.586131 0.264032 0.625908
O O5 0.750000 0.800715 0.881524
O O6 0.677698 0.740040 0.720625
O O7 0.681738 0.000000 0.818857
O O8 0.659575 0.774748 0.970116
O O9 0.250000 0.307500 0.635129
O O10 0.178310 0.500000 0.689547
O O11 0.174170 0.233229 0.779452
O O12 0.162599 0.276810 0.530449
O O13 0.582622 0.762696 0.124974
O O14 0.636243 0.000000 0.119724
O O15 0.454298 0.500000 0.861047
O O16 0.500000 0.294469 0.000000
O O17 0.644796 0.500000 0.625133
#
# Coordination Sequence:
#
# PCOD8212151 Si02
#       6
#     8   8   8   8   8   8
#     4   9  17  31  53  79 107 139 173 215 268 322
#     4  10  22  39  56  77 109 147 184 223 271 328
#     4  10  21  37  58  85 114 143 181 231 281 330
#     4  11  23  38  57  81 112 151 191 230 274 328
#     4  10  20  35  56  81 109 143 184 229 278 330
#     4  10  20  36  60  87 111 139 181 230 278 329
#
# _framework density 19.277017000000001
#
# number of rings (size 3 to 8) (size 9 to 14) (size 15 to 20)
#    0.000    2.000    0.000    3.500    0.000    8.333 
#    0.000    0.833    0.000    2.000    0.000    0.000 
#    0.000    0.000    0.000    0.000    0.000    0.000 
#
# Total GULP energy -595409.784001 kJ/mol
# GULP energy per Si atom -12404.370500 kJ/mol
# Density = 1.923314 g / cm^3
# Si number density = 19.277017 Si / 1000 Ang^3
#
#
#
# Elastic Constant Matrix: (Units=GPa)
#
#
# Indices 1 2 3 4 5 6 
#
# 1 92.6911 24.1166 30.8998 0.0000 0.0000 0.0000
# 2 24.1166 38.3537 33.2880 0.0000 0.0000 0.0000
# 3 30.8998 33.2880 128.2873 0.0000 0.0000 0.0000
# 4 0.0000 0.0000 0.0000 29.6011 0.0000 0.0000
# 5 0.0000 0.0000 0.0000 0.0000 40.5310 0.0000
# 6 0.0000 0.0000 0.0000 0.0000 0.0000 39.0242
#
#
#
# Elastic Compliance Matrix: (Units=1/GPa)
#
#
# Indices 1 2 3 4 5 6 
#
# 1 0.013067 -0.007079 -0.001311 0.000000 0.000000 0.000000
# 2 -0.007079 0.037487 -0.008022 0.000000 0.000000 0.000000
# 3 -0.001311 -0.008022 0.010192 0.000000 0.000000 0.000000
# 4 0.000000 0.000000 0.000000 0.033783 0.000000 0.000000
# 5 0.000000 0.000000 0.000000 0.000000 0.024672 0.000000
# 6 0.000000 0.000000 0.000000 0.000000 0.000000 0.025625
#
#
# Mechanical properties :
#
#
# Convention : Reuss Voigt Hill
#
# Bulk Modulus (GPa) = 35.81279 48.43787 42.12533
# Shear Modulus (GPa) = 26.74400 33.23310 29.98855
#
# Velocity S-wave (km/s) = 3.72876 4.15658 3.94847
# Velocity P-wave (km/s) = 6.09561 6.94392 6.53355
#
# Compressibility (1/GPa) = 0.02792298
#
# Stress axis : x y z
#
# Youngs Moduli (GPa) = 76.52692 26.67594 98.11411
#
# Poissons Ratio (x) = 0.18885 0.12858
# Poissons Ratio (y) = 0.54175 0.78707
# Poissons Ratio (z) = 0.10029 0.21399
#
# Static dielectric constant tensor:
#      x y z
#    x 3.690340 0.000000 0.000000 
#    y 0.000000 3.260920 0.000000 
#    z 0.000000 0.000000 3.644310 
# 
# 
# High freq. dielectric constant tensor:
#      x y z
#    x 1.769250 0.000000 0.000000 
#    y 0.000000 1.721400 0.000000 
#    z 0.000000 0.000000 1.767800 
# 
# From -- ./inp_files/12744.got.cif
#   From: 2010.03.12/outbox.cif.g09.slc.cpg/sg51_7_cif.got.tgz:12744.got - 2010.04.16 13:43:02.
