data_PCOD8212344
_publ_section_title
;
Structure prediction by ZEFSAII (Michael W. Deem and Ramdas Pophale) SiO2 
 PCOD8212344
Probable space group: P M M A
;
_chemical_formula_sum "Si O2"
_cell_formula_units_Z 64
_cell_length_a 8.830814
_cell_length_b 23.756828
_cell_length_c 15.201128
_cell_angle_alpha 90.000000
_cell_angle_beta 90.000000
_cell_angle_gamma 90.000000
_cell_volume 3189.077011
_symmetry_space_group_name_H-M "P M M A"
_symmetry_group_IT_number 51
_symmetry_cell_setting 'orthorhombic'
loop_
_space_group_symop_operation_xyz
x,y,z
1/2-x,-y,z
1/2+x,-y,-z
-x,y,-z
-x,-y,-z
1/2+x,y,-z
1/2-x,y,z
x,-y,z
loop_
_atom_site_type_symbol
_atom_site_label
_atom_site_fract_x
_atom_site_fract_y
_atom_site_fract_z
Si Si1 0.074156 0.560296 0.909954
Si Si2 0.930142 0.204197 0.409434
Si Si3 0.919579 0.324814 0.352617
Si Si4 0.574165 0.228074 0.912213
Si Si5 0.071931 0.562206 0.405317
Si Si6 0.081990 0.325694 0.844317
Si Si7 0.929226 0.151128 0.225456
Si Si8 0.927693 0.065228 0.906809
O O1 0.250000 0.553972 0.927523
O O2 0.007710 0.500000 0.877340
O O3 0.038726 0.608189 0.838602
O O4 0.000000 0.579919 0.000000
O O5 0.750000 0.204177 0.414891
O O6 0.987250 0.269700 0.402080
O O7 0.979789 0.163832 0.327057
O O8 0.000000 0.179291 0.500000
O O9 0.750000 0.338764 0.386431
O O10 0.916482 0.302362 0.253547
O O11 0.015731 0.382296 0.354504
O O12 0.750000 0.212769 0.908983
O O13 0.542164 0.294741 0.905246
O O14 0.483335 0.204373 0.829718
O O15 0.500000 0.202502 0.000000
O O16 0.250000 0.566983 0.413601
O O17 0.028565 0.500000 0.363868
O O18 0.000000 0.566233 0.500000
O O19 0.250000 0.317517 0.886858
O O20 0.750000 0.143528 0.219850
O O21 0.006453 0.096807 0.179365
O O22 0.750000 0.077955 0.912809
O O23 0.963569 0.000000 0.891448
O O24 0.000000 0.085367 0.000000
#
# Coordination Sequence:
#
# PCOD8212344 Si02
#       8
#     8   8   8   8   8   8   8   8
#     4   9  18  32  50  70  93 128 173 221 274 334
#     4  10  22  39  60  86 117 154 196 249 305 360
#     4  10  20  36  56  79 108 141 181 235 298 359
#     4  12  24  37  56  82 115 155 194 236 291 348
#     4  10  21  36  53  75 102 133 175 228 289 358
#     4  10  20  36  54  75 106 137 178 232 283 346
#     4  11  22  40  62  88 124 161 204 252 296 345
#     4  10  21  38  62  96 136 175 213 250 292 345
#
# _framework density 20.068503
#
# number of rings (size 3 to 8) (size 9 to 14) (size 15 to 20)
#    0.000    1.750    1.250    3.375    0.000    6.500 
#    0.000    1.250    0.000    1.875    0.000    0.000 
#    0.000    0.000    0.000    0.000    0.000    0.000 
#
# Total GULP energy -792877.664746 kJ/mol
# GULP energy per Si atom -12388.713512 kJ/mol
# Density = 2.002283 g / cm^3
# Si number density = 20.068503 Si / 1000 Ang^3
#
#
#
# Elastic Constant Matrix: (Units=GPa)
#
#
# Indices 1 2 3 4 5 6 
#
# 1 67.8859 40.3495 37.6447 0.0000 0.0000 0.0000
# 2 40.3495 112.0401 48.8227 0.0000 0.0000 0.0000
# 3 37.6447 48.8227 121.7747 0.0000 0.0000 0.0000
# 4 0.0000 0.0000 0.0000 29.3055 0.0000 0.0000
# 5 0.0000 0.0000 0.0000 0.0000 30.2975 0.0000
# 6 0.0000 0.0000 0.0000 0.0000 0.0000 29.5552
#
#
#
# Elastic Compliance Matrix: (Units=1/GPa)
#
#
# Indices 1 2 3 4 5 6 
#
# 1 0.020263 -0.005535 -0.004045 0.000000 0.000000 0.000000
# 2 -0.005535 0.012327 -0.003231 0.000000 0.000000 0.000000
# 3 -0.004045 -0.003231 0.010758 0.000000 0.000000 0.000000
# 4 0.000000 0.000000 0.000000 0.034123 0.000000 0.000000
# 5 0.000000 0.000000 0.000000 0.000000 0.033006 0.000000
# 6 0.000000 0.000000 0.000000 0.000000 0.000000 0.033835
#
#
# Mechanical properties :
#
#
# Convention : Reuss Voigt Hill
#
# Bulk Modulus (GPa) = 56.41463 61.70383 59.05923
# Shear Modulus (GPa) = 28.43447 29.49055 28.96251
#
# Velocity S-wave (km/s) = 3.76822 3.83756 3.80305
# Velocity P-wave (km/s) = 6.86328 7.10276 6.98405
#
# Compressibility (1/GPa) = 0.01772590
#
# Stress axis : x y z
#
# Youngs Moduli (GPa) = 49.34985 81.12500 92.95614
#
# Poissons Ratio (x) = 0.44902 0.37601
# Poissons Ratio (y) = 0.27315 0.30035
# Poissons Ratio (z) = 0.19962 0.26212
#
# Static dielectric constant tensor:
#      x y z
#    x 4.278610 0.000000 0.000000 
#    y 0.000000 3.797040 0.000000 
#    z 0.000000 0.000000 3.636900 
# 
# 
# High freq. dielectric constant tensor:
#      x y z
#    x 1.777000 0.000000 0.000000 
#    y 0.000000 1.783750 0.000000 
#    z 0.000000 0.000000 1.771530 
# 
# From -- ./inp_files/22401.got.cif
#   From: 2010.03.12/outbox.cif.g09.slc.cpg/sg51_12_cif.got.tgz:22401.got - 2010.04.16 13:43:02.
