data_PCOD8212715
_publ_section_title
;
Structure prediction by ZEFSAII (Michael W. Deem and Ramdas Pophale) SiO2 
 PCOD8212715
Probable space group: P M M A
;
_chemical_formula_sum "Si O2"
_cell_formula_units_Z 64
_cell_length_a 15.022764
_cell_length_b 9.327095
_cell_length_c 23.828978
_cell_angle_alpha 90.000000
_cell_angle_beta 90.000000
_cell_angle_gamma 90.000000
_cell_volume 3338.886539
_symmetry_space_group_name_H-M "P M M A"
_symmetry_group_IT_number 51
_symmetry_cell_setting 'orthorhombic'
loop_
_space_group_symop_operation_xyz
x,y,z
1/2-x,-y,z
1/2+x,-y,-z
-x,y,-z
-x,-y,-z
1/2+x,y,-z
1/2-x,y,z
x,-y,z
loop_
_atom_site_type_symbol
_atom_site_label
_atom_site_fract_x
_atom_site_fract_y
_atom_site_fract_z
Si Si1 0.411783 0.659375 0.598137
Si Si2 0.148402 0.829614 0.005430
Si Si3 0.992515 0.169897 0.084364
Si Si4 0.151355 0.336095 0.265518
Si Si5 0.615680 0.340766 0.610298
Si Si6 0.350369 0.665526 0.716551
Si Si7 0.149498 0.839661 0.497568
Si Si8 0.493610 0.829215 0.788437
O O1 0.381837 0.500000 0.579222
O O2 0.511147 0.661068 0.620596
O O3 0.353280 0.712391 0.650916
O O4 0.408720 0.759438 0.543861
O O5 0.250000 0.765572 0.007780
O O6 0.094940 0.776407 0.949809
O O7 0.155804 0.000000 0.005599
O O8 0.086803 0.776243 0.057690
O O9 0.983787 0.225164 0.147732
O O10 0.993951 0.000000 0.081820
O O11 0.250000 0.319834 0.239410
O O12 0.116640 0.500000 0.259467
O O13 0.158485 0.294104 0.331004
O O14 0.087382 0.227367 0.233797
O O15 0.647746 0.500000 0.592670
O O16 0.646101 0.232044 0.562918
O O17 0.250000 0.685277 0.738335
O O18 0.381749 0.500000 0.721685
O O19 0.412114 0.766474 0.753433
O O20 0.250000 0.839094 0.519774
O O21 0.111938 0.000000 0.491837
O O22 0.491979 0.000000 0.783509
#
# Coordination Sequence:
#
# PCOD8212715 Si02
#       8
#     8   8   8   8   8   8   8   8
#     4  10  20  37  60  80  99 131 180 230 272 322
#     4   8  13  25  46  69 101 146 188 224 262 312
#     4   8  16  28  43  72 109 145 183 220 269 326
#     4  10  21  39  61  81 106 146 194 237 275 326
#     4  10  20  37  60  80  99 131 180 230 272 322
#     4  10  21  39  61  81 106 146 194 237 275 326
#     4  11  24  37  50  76 112 141 168 212 275 343
#     4  11  22  35  54  83 121 152 179 228 286 339
#
# _framework density 19.168068000000002
#
# number of rings (size 3 to 8) (size 9 to 14) (size 15 to 20)
#    0.000    2.250    1.250    2.625    0.000    6.500 
#    0.000    2.500    0.000    0.000    0.000    7.000 
#    0.000   12.000    0.000    0.000    0.000    0.000 
#
# Total GULP energy -793396.973449 kJ/mol
# GULP energy per Si atom -12396.827710 kJ/mol
# Density = 1.912444 g / cm^3
# Si number density = 19.168068 Si / 1000 Ang^3
#
#
#
# Elastic Constant Matrix: (Units=GPa)
#
#
# Indices 1 2 3 4 5 6 
#
# 1 111.9157 28.9645 36.1813 0.0000 0.0000 0.0000
# 2 28.9645 76.8419 53.8376 0.0000 0.0000 0.0000
# 3 36.1813 53.8376 114.5806 0.0000 0.0000 0.0000
# 4 0.0000 0.0000 0.0000 -15.6690 0.0000 0.0000
# 5 0.0000 0.0000 0.0000 0.0000 409.9711 0.0000
# 6 0.0000 0.0000 0.0000 0.0000 0.0000 13.5859
#
#
#
# Elastic Compliance Matrix: (Units=1/GPa)
#
#
# Indices 1 2 3 4 5 6 
#
# 1 0.010234 -0.002375 -0.002115 0.000000 0.000000 0.000000
# 2 -0.002375 0.019952 -0.008625 0.000000 0.000000 0.000000
# 3 -0.002115 -0.008625 0.013448 0.000000 0.000000 0.000000
# 4 0.000000 0.000000 0.000000 -0.063820 0.000000 0.000000
# 5 0.000000 0.000000 0.000000 0.000000 0.002439 0.000000
# 6 0.000000 0.000000 0.000000 0.000000 0.000000 0.073606
#
#
# Mechanical properties :
#
#
# Convention : Reuss Voigt Hill
#
# Bulk Modulus (GPa) = 57.46233 60.14500 58.80366
# Shear Modulus (GPa) = 56.88915 93.86790 75.37853
#
# Velocity S-wave (km/s) = 5.45377 7.00552 6.27777
# Velocity P-wave (km/s) = 8.34873 9.84288 9.12643
#
# Compressibility (1/GPa) = 0.01740271
#
# Stress axis : x y z
#
# Youngs Moduli (GPa) = 97.71365 50.12096 74.36112
#
# Poissons Ratio (x) = 0.11906 0.15731
# Poissons Ratio (y) = 0.23211 0.64133
# Poissons Ratio (z) = 0.20671 0.43227
#
# Static dielectric constant tensor:
#      x y z
#    x 3.704590 0.000000 0.000000 
#    y 0.000000 3.229980 0.000000 
#    z 0.000000 0.000000 3.550880 
# 
# 
# High freq. dielectric constant tensor:
#      x y z
#    x 1.760780 0.000000 0.000000 
#    y 0.000000 1.710610 0.000000 
#    z 0.000000 0.000000 1.739900 
# 
# From -- ./inp_files/35833.got.cif
#   From: 2010.03.12/outbox.cif.g09.slc.cpg/sg51_18_cif.got.tgz:35833.got - 2010.04.16 13:43:02.
