data_PCOD8212146
_publ_section_title
;
Structure prediction by ZEFSAII (Michael W. Deem and Ramdas Pophale) SiO2 
 PCOD8212146
Probable space group: P M M A
;
_chemical_formula_sum "Si O2"
_cell_formula_units_Z 64
_cell_length_a 16.266836
_cell_length_b 15.152145
_cell_length_c 13.659938
_cell_angle_alpha 90.000000
_cell_angle_beta 90.000000
_cell_angle_gamma 90.000000
_cell_volume 3366.866791
_symmetry_space_group_name_H-M "P M M A"
_symmetry_group_IT_number 51
_symmetry_cell_setting 'orthorhombic'
loop_
_space_group_symop_operation_xyz
x,y,z
1/2-x,-y,z
1/2+x,-y,-z
-x,y,-z
-x,-y,-z
1/2+x,y,-z
1/2-x,y,z
x,-y,z
loop_
_atom_site_type_symbol
_atom_site_label
_atom_site_fract_x
_atom_site_fract_y
_atom_site_fract_z
Si Si1 0.045641 0.254955 0.397153
Si Si2 0.153954 0.898692 0.447476
Si Si3 0.338256 0.102217 0.665231
Si Si4 0.845560 0.753315 0.042292
Si Si5 0.844909 0.601581 0.682437
Si Si6 0.962086 0.197020 0.212096
Si Si7 0.575237 0.098787 0.927293
Si Si8 0.652549 0.597265 0.902183
O O1 0.098343 0.164991 0.381108
O O2 0.104593 0.339666 0.393855
O O3 0.000000 0.257750 0.500000
O O4 0.983844 0.259374 0.304265
O O5 0.250000 0.888360 0.421292
O O6 0.135418 0.864032 0.557762
O O7 0.125847 0.000000 0.430994
O O8 0.250000 0.144964 0.695429
O O9 0.404748 0.118677 0.748153
O O10 0.324608 0.000000 0.652239
O O11 0.750000 0.742673 0.073222
O O12 0.906914 0.749063 0.134497
O O13 0.853849 0.844560 0.981001
O O14 0.878067 0.672015 0.976384
O O15 0.750000 0.628576 0.673881
O O16 0.857744 0.500000 0.653655
O O17 0.878291 0.619530 0.792615
O O18 0.043806 0.152514 0.167359
O O19 0.608146 0.000000 0.899914
O O20 0.500000 0.088480 0.000000
O O21 0.750000 0.595142 0.899140
O O22 0.620003 0.500000 0.934589
#
# Coordination Sequence:
#
# PCOD8212146 Si02
#       8
#     8   8   8   8   8   8   8   8
#     4  12  23  35  53  82 115 152 184 227 285 331
#     4   9  19  36  55  76 105 143 190 237 273 315
#     4   9  17  31  51  73 100 141 192 234 264 309
#     4  10  20  35  56  81 109 142 180 224 272 335
#     4   9  19  38  63  85 105 139 189 235 275 329
#     4  11  21  34  50  78 114 147 183 222 279 335
#     4   9  19  34  51  72 104 142 178 221 270 321
#     4   8  15  32  59  85 104 127 167 220 274 325
#
# _framework density 19.008770999999999
#
# number of rings (size 3 to 8) (size 9 to 14) (size 15 to 20)
#    0.000    2.375    1.250    3.375    0.000    2.250 
#    0.000    1.250    0.000    4.875    0.000    1.750 
#    0.000    0.000    0.000    0.000    0.000    0.000 
#
# Total GULP energy -793270.474082 kJ/mol
# GULP energy per Si atom -12394.851158 kJ/mol
# Density = 1.896551 g / cm^3
# Si number density = 19.008771 Si / 1000 Ang^3
#
#
#
# Elastic Constant Matrix: (Units=GPa)
#
#
# Indices 1 2 3 4 5 6 
#
# 1 66.1179 41.8190 46.3360 0.0000 0.0000 0.0000
# 2 41.8190 105.8330 46.3674 0.0000 0.0000 0.0000
# 3 46.3360 46.3674 87.9122 0.0000 0.0000 0.0000
# 4 0.0000 0.0000 0.0000 27.0560 0.0000 0.0000
# 5 0.0000 0.0000 0.0000 0.0000 27.8189 0.0000
# 6 0.0000 0.0000 0.0000 0.0000 0.0000 22.5499
#
#
#
# Elastic Compliance Matrix: (Units=1/GPa)
#
#
# Indices 1 2 3 4 5 6 
#
# 1 0.026327 -0.005623 -0.010911 0.000000 0.000000 0.000000
# 2 -0.005623 0.013489 -0.004151 0.000000 0.000000 0.000000
# 3 -0.010911 -0.004151 0.019315 0.000000 0.000000 0.000000
# 4 0.000000 0.000000 0.000000 0.036960 0.000000 0.000000
# 5 0.000000 0.000000 0.000000 0.000000 0.035947 0.000000
# 6 0.000000 0.000000 0.000000 0.000000 0.000000 0.044346
#
#
# Mechanical properties :
#
#
# Convention : Reuss Voigt Hill
#
# Bulk Modulus (GPa) = 56.29828 58.76755 57.53292
# Shear Modulus (GPa) = 22.35391 23.84101 23.09746
#
# Velocity S-wave (km/s) = 3.43297 3.54533 3.48960
# Velocity P-wave (km/s) = 6.73759 6.90958 6.82412
#
# Compressibility (1/GPa) = 0.01776253
#
# Stress axis : x y z
#
# Youngs Moduli (GPa) = 37.98361 74.13283 51.77307
#
# Poissons Ratio (x) = 0.41683 0.56488
# Poissons Ratio (y) = 0.21357 0.21491
# Poissons Ratio (z) = 0.41443 0.30773
#
# Static dielectric constant tensor:
#      x y z
#    x 3.353910 0.000000 0.000000 
#    y 0.000000 3.553040 0.000000 
#    z 0.000000 0.000000 3.516300 
# 
# 
# High freq. dielectric constant tensor:
#      x y z
#    x 1.728970 0.000000 0.000000 
#    y 0.000000 1.725440 0.000000 
#    z 0.000000 0.000000 1.732240 
# 
# From -- ./inp_files/17587.got.cif
#   From: 2010.03.12/outbox.cif.g09.slc.cpg/sg51_9_cif.got.tgz:17587.got - 2010.04.16 13:43:02.
