data_PCOD8212305
_publ_section_title
;
Structure prediction by ZEFSAII (Michael W. Deem and Ramdas Pophale) SiO2 
 PCOD8212305
Probable space group: P M M A
;
_chemical_formula_sum "Si O2"
_cell_formula_units_Z 40
_cell_length_a 7.613928
_cell_length_b 9.081051
_cell_length_c 29.031328
_cell_angle_alpha 90.000000
_cell_angle_beta 90.000000
_cell_angle_gamma 90.000000
_cell_volume 2007.297681
_symmetry_space_group_name_H-M "P M M A"
_symmetry_group_IT_number 51
_symmetry_cell_setting 'orthorhombic'
loop_
_space_group_symop_operation_xyz
x,y,z
1/2-x,-y,z
1/2+x,-y,-z
-x,y,-z
-x,-y,-z
1/2+x,y,-z
1/2-x,y,z
x,-y,z
loop_
_atom_site_type_symbol
_atom_site_label
_atom_site_fract_x
_atom_site_fract_y
_atom_site_fract_z
Si Si1 0.750000 0.824868 0.805537
Si Si2 0.250000 0.327813 0.291114
Si Si3 0.544723 0.167522 0.949129
Si Si4 0.544549 0.163466 0.450741
Si Si5 0.552001 0.669032 0.138952
Si Si6 0.050122 0.328370 0.638286
O O1 0.750000 0.773976 0.753167
O O2 0.574957 0.765735 0.829656
O O3 0.750000 0.000000 0.808844
O O4 0.250000 0.500000 0.277284
O O5 0.425314 0.286508 0.319294
O O6 0.750000 0.175688 0.938990
O O7 0.446966 0.272062 0.913213
O O8 0.475615 0.000000 0.943761
O O9 0.500000 0.226331 0.000000
O O10 0.500000 0.239118 0.500000
O O11 0.750000 0.155103 0.444279
O O12 0.469669 0.254846 0.407778
O O13 0.459872 0.000000 0.449782
O O14 0.750000 0.681597 0.158515
O O15 0.488063 0.500000 0.139505
O O16 0.250000 0.276898 0.649613
O O17 0.044568 0.500000 0.628412
#
# Coordination Sequence:
#
# PCOD8212305 Si02
#       6
#     4   4   8   8   8   8
#     4  12  26  44  66  94 124 158 204 260 315 370
#     4  10  22  40  62  86 114 150 194 244 301 362
#     4  10  20  35  58  90 128 170 210 252 303 362
#     4   9  18  31  48  74 108 146 186 230 280 337
#     4  11  24  42  65  92 125 166 207 254 310 366
#     4   9  19  36  56  80 111 146 186 235 288 345
#
# _framework density 19.927288999999998
#
# number of rings (size 3 to 8) (size 9 to 14) (size 15 to 20)
#    0.000    2.000    1.000    2.100    1.400    4.800 
#    0.000    2.000    0.000    0.000    0.000    0.000 
#    0.000    0.000    0.000    0.000    0.000    0.000 
#
# Total GULP energy -496013.740591 kJ/mol
# GULP energy per Si atom -12400.343515 kJ/mol
# Density = 1.988193 g / cm^3
# Si number density = 19.927289 Si / 1000 Ang^3
#
#
#
# Elastic Constant Matrix: (Units=GPa)
#
#
# Indices 1 2 3 4 5 6 
#
# 1 95.1229 47.7000 52.6592 0.0000 0.0000 0.0000
# 2 47.7000 108.6975 76.7613 0.0000 0.0000 0.0000
# 3 52.6592 76.7613 153.8771 0.0000 0.0000 0.0000
# 4 0.0000 0.0000 0.0000 34.9294 0.0000 0.0000
# 5 0.0000 0.0000 0.0000 0.0000 27.4977 0.0000
# 6 0.0000 0.0000 0.0000 0.0000 0.0000 19.5738
#
#
#
# Elastic Compliance Matrix: (Units=1/GPa)
#
#
# Indices 1 2 3 4 5 6 
#
# 1 0.014169 -0.004313 -0.002697 0.000000 0.000000 0.000000
# 2 -0.004313 0.015516 -0.006264 0.000000 0.000000 0.000000
# 3 -0.002697 -0.006264 0.010547 0.000000 0.000000 0.000000
# 4 0.000000 0.000000 0.000000 0.028629 0.000000 0.000000
# 5 0.000000 0.000000 0.000000 0.000000 0.036367 0.000000
# 6 0.000000 0.000000 0.000000 0.000000 0.000000 0.051089
#
#
# Mechanical properties :
#
#
# Convention : Reuss Voigt Hill
#
# Bulk Modulus (GPa) = 73.08518 79.10428 76.09473
# Shear Modulus (GPa) = 26.67717 28.43863 27.55790
#
# Velocity S-wave (km/s) = 3.66283 3.78182 3.72280
# Velocity P-wave (km/s) = 7.39216 7.67152 7.53313
#
# Compressibility (1/GPa) = 0.01368267
#
# Stress axis : x y z
#
# Youngs Moduli (GPa) = 70.57853 64.44829 94.81640
#
# Poissons Ratio (x) = 0.27796 0.25574
# Poissons Ratio (y) = 0.30440 0.59396
# Poissons Ratio (z) = 0.19037 0.40373
#
# Static dielectric constant tensor:
#      x y z
#    x 3.788340 0.000000 0.000000 
#    y 0.000000 3.689980 0.000000 
#    z 0.000000 0.000000 3.654720 
# 
# 
# High freq. dielectric constant tensor:
#      x y z
#    x 1.785300 0.000000 0.000000 
#    y 0.000000 1.766690 0.000000 
#    z 0.000000 0.000000 1.777470 
# 
# From -- ./inp_files/36006.got.cif
#   From: 2010.03.12/outbox.cif.g09.slc.cpg/sg51_19_cif.got.tgz:36006.got - 2010.04.16 13:43:02.
