data_PCOD8212187
_publ_section_title
;
Structure prediction by ZEFSAII (Michael W. Deem and Ramdas Pophale) SiO2 
 PCOD8212187
Probable space group: P M M A
;
_chemical_formula_sum "Si O2"
_cell_formula_units_Z 52
_cell_length_a 8.583776
_cell_length_b 20.167410
_cell_length_c 14.615301
_cell_angle_alpha 90.000000
_cell_angle_beta 90.000000
_cell_angle_gamma 90.000000
_cell_volume 2530.091732
_symmetry_space_group_name_H-M "P M M A"
_symmetry_group_IT_number 51
_symmetry_cell_setting 'orthorhombic'
loop_
_space_group_symop_operation_xyz
x,y,z
1/2-x,-y,z
1/2+x,-y,-z
-x,y,-z
-x,-y,-z
1/2+x,y,-z
1/2-x,y,z
x,-y,z
loop_
_atom_site_type_symbol
_atom_site_label
_atom_site_fract_x
_atom_site_fract_y
_atom_site_fract_z
Si Si1 0.564779 0.227914 0.596345
Si Si2 0.565770 0.000000 0.602420
Si Si3 0.069926 0.426777 0.771607
Si Si4 0.433913 0.880642 0.720344
Si Si5 0.068683 0.378916 0.406918
Si Si6 0.064940 0.832473 0.099857
Si Si7 0.935484 0.310276 0.097660
O O1 0.500000 0.200151 0.500000
O O2 0.750000 0.217710 0.601373
O O3 0.480407 0.189957 0.678352
O O4 0.510701 0.303684 0.608959
O O5 0.500000 0.000000 0.500000
O O6 0.511036 0.063880 0.657704
O O7 0.750000 0.000000 0.595154
O O8 0.250000 0.413978 0.752114
O O9 0.042345 0.500000 0.815104
O O10 0.005404 0.369218 0.837014
O O11 0.981423 0.425141 0.675920
O O12 0.250000 0.890917 0.722465
O O13 0.499284 0.883629 0.824351
O O14 0.250000 0.379776 0.417949
O O15 0.000000 0.408762 0.500000
O O16 0.250000 0.835610 0.097304
O O17 0.010173 0.758970 0.128903
O O18 0.000000 0.852148 0.000000
O O19 0.750000 0.302626 0.095063
O O20 0.000000 0.331206 0.000000
#
# Coordination Sequence:
#
# PCOD8212187 Si02
#       7
#     8   4   8   8   8   8   8
#     4  10  20  35  56  85 116 148 189 239 293 349
#     4  12  26  46  67  92 127 168 208 246 288 338
#     4  10  22  38  54  75 107 147 190 235 286 346
#     4  12  24  40  62  90 123 161 200 241 290 343
#     4  10  21  36  56  80 107 141 184 235 290 346
#     4  11  22  39  63  92 122 154 194 242 294 347
#     4  10  20  36  59  86 116 150 188 236 292 347
#
# _framework density 20.552613000000001
#
# number of rings (size 3 to 8) (size 9 to 14) (size 15 to 20)
#    0.000    1.385    0.000    7.154    0.000    6.462 
#    0.000    0.385    0.000    0.000    0.000    0.000 
#    0.000    0.000    0.000    0.000    0.000    0.000 
#
# Total GULP energy -644959.954821 kJ/mol
# GULP energy per Si atom -12403.076054 kJ/mol
# Density = 2.050583 g / cm^3
# Si number density = 20.552613 Si / 1000 Ang^3
#
#
#
# Elastic Constant Matrix: (Units=GPa)
#
#
# Indices 1 2 3 4 5 6 
#
# 1 128.6306 36.6725 51.6029 0.0000 0.0000 0.0000
# 2 36.6725 72.9251 56.7893 0.0000 0.0000 0.0000
# 3 51.6029 56.7893 145.9248 0.0000 0.0000 0.0000
# 4 0.0000 0.0000 0.0000 34.4676 0.0000 0.0000
# 5 0.0000 0.0000 0.0000 0.0000 39.7710 0.0000
# 6 0.0000 0.0000 0.0000 0.0000 0.0000 27.4889
#
#
#
# Elastic Compliance Matrix: (Units=1/GPa)
#
#
# Indices 1 2 3 4 5 6 
#
# 1 0.009527 -0.003110 -0.002159 0.000000 0.000000 0.000000
# 2 -0.003110 0.020691 -0.006952 0.000000 0.000000 0.000000
# 3 -0.002159 -0.006952 0.010322 0.000000 0.000000 0.000000
# 4 0.000000 0.000000 0.000000 0.029013 0.000000 0.000000
# 5 0.000000 0.000000 0.000000 0.000000 0.025144 0.000000
# 6 0.000000 0.000000 0.000000 0.000000 0.000000 0.036378
#
#
# Mechanical properties :
#
#
# Convention : Reuss Voigt Hill
#
# Bulk Modulus (GPa) = 62.12145 70.84554 66.48350
# Shear Modulus (GPa) = 31.07865 33.83987 32.45926
#
# Velocity S-wave (km/s) = 3.89286 4.06211 3.97838
# Velocity P-wave (km/s) = 7.10612 7.51972 7.31584
#
# Compressibility (1/GPa) = 0.01609750
#
# Stress axis : x y z
#
# Youngs Moduli (GPa) = 104.96697 48.33098 96.88143
#
# Poissons Ratio (x) = 0.15030 0.20914
# Poissons Ratio (y) = 0.32642 0.67356
# Poissons Ratio (z) = 0.22659 0.33602
#
# Static dielectric constant tensor:
#      x y z
#    x 3.663650 0.000000 0.000000 
#    y 0.000000 3.805890 0.000000 
#    z 0.000000 0.000000 3.617820 
# 
# 
# High freq. dielectric constant tensor:
#      x y z
#    x 1.815020 0.000000 0.000000 
#    y 0.000000 1.793440 0.000000 
#    z 0.000000 0.000000 1.814100 
# 
# From -- ./inp_files/21642.got.cif
#   From: 2010.03.12/outbox.cif.g09.slc.cpg/sg51_11_cif.got.tgz:21642.got - 2010.04.16 13:43:02.
