data_PCOD8212562
_publ_section_title
;
Structure prediction by ZEFSAII (Michael W. Deem and Ramdas Pophale) SiO2 
 PCOD8212562
Probable space group: P M M A
;
_chemical_formula_sum "Si O2"
_cell_formula_units_Z 48
_cell_length_a 9.528879
_cell_length_b 28.765749
_cell_length_c 9.063073
_cell_angle_alpha 90.000000
_cell_angle_beta 90.000000
_cell_angle_gamma 90.000000
_cell_volume 2484.236720
_symmetry_space_group_name_H-M "P M M A"
_symmetry_group_IT_number 51
_symmetry_cell_setting 'orthorhombic'
loop_
_space_group_symop_operation_xyz
x,y,z
1/2-x,-y,z
1/2+x,-y,-z
-x,y,-z
-x,-y,-z
1/2+x,y,-z
1/2-x,y,z
x,-y,z
loop_
_atom_site_type_symbol
_atom_site_label
_atom_site_fract_x
_atom_site_fract_y
_atom_site_fract_z
Si Si1 0.506434 0.397668 0.324238
Si Si2 0.584826 0.880812 0.352219
Si Si3 0.585017 0.691943 0.149924
Si Si4 0.250000 0.556040 0.166889
Si Si5 0.250000 0.446289 0.832291
Si Si6 0.413180 0.051379 0.147963
Si Si7 0.409429 0.774571 0.642568
O O1 0.500000 0.396230 0.500000
O O2 0.533655 0.345780 0.267615
O O3 0.373796 0.420988 0.254252
O O4 0.622035 0.432419 0.267283
O O5 0.500000 0.889602 0.500000
O O6 0.750000 0.894660 0.367622
O O7 0.502754 0.911880 0.237529
O O8 0.569351 0.827313 0.303130
O O9 0.750000 0.685714 0.117502
O O10 0.549734 0.742072 0.219954
O O11 0.500000 0.686271 0.000000
O O12 0.250000 0.500000 0.177079
O O13 0.250000 0.575176 0.997886
O O14 0.250000 0.500000 0.861541
O O15 0.250000 0.067521 0.125095
O O16 0.413086 0.000000 0.222987
O O17 0.500000 0.047611 0.000000
O O18 0.500000 0.762239 0.500000
O O19 0.250000 0.765464 0.593793
#
# Coordination Sequence:
#
# PCOD8212562 Si02
#       7
#     8   8   8   4   4   8   8
#     4  12  25  41  64  92 124 160 201 250 300 356
#     4  10  20  36  59  86 119 158 199 249 303 362
#     4  11  24  42  63  89 121 157 199 246 297 358
#     4  11  25  43  67  93 123 163 201 245 302 359
#     4  11  23  43  65  91 125 161 201 245 298 359
#     4  10  21  37  57  82 115 156 202 253 308 367
#     4   9  20  39  61  88 121 155 197 245 299 358
#
# _framework density 19.321832000000001
#
# number of rings (size 3 to 8) (size 9 to 14) (size 15 to 20)
#    0.000    1.500    0.833    4.000    1.167    6.667 
#    0.000    1.667    0.000    0.000    0.000    0.000 
#    0.000    0.000    0.000    0.000    0.000    0.000 
#
# Total GULP energy -594919.421470 kJ/mol
# GULP energy per Si atom -12394.154614 kJ/mol
# Density = 1.927785 g / cm^3
# Si number density = 19.321832 Si / 1000 Ang^3
#
#
#
# Elastic Constant Matrix: (Units=GPa)
#
#
# Indices 1 2 3 4 5 6 
#
# 1 164.0900 57.7723 72.9261 0.0000 0.0000 0.0000
# 2 57.7723 93.5248 63.1257 0.0000 0.0000 0.0000
# 3 72.9261 63.1257 153.4132 0.0000 0.0000 0.0000
# 4 0.0000 0.0000 0.0000 -48.4374 0.0000 0.0000
# 5 0.0000 0.0000 0.0000 0.0000 38.6711 0.0000
# 6 0.0000 0.0000 0.0000 0.0000 0.0000 35.2464
#
#
#
# Elastic Compliance Matrix: (Units=1/GPa)
#
#
# Indices 1 2 3 4 5 6 
#
# 1 0.008474 -0.003483 -0.002595 0.000000 0.000000 0.000000
# 2 -0.003483 0.016235 -0.005025 0.000000 0.000000 0.000000
# 3 -0.002595 -0.005025 0.009819 0.000000 0.000000 0.000000
# 4 0.000000 0.000000 0.000000 -0.020645 0.000000 0.000000
# 5 0.000000 0.000000 0.000000 0.000000 0.025859 0.000000
# 6 0.000000 0.000000 0.000000 0.000000 0.000000 0.028372
#
#
# Mechanical properties :
#
#
# Convention : Reuss Voigt Hill
#
# Bulk Modulus (GPa) = 81.14751 88.74179 84.94465
# Shear Modulus (GPa) = 52.95084 19.57629 36.26357
#
# Velocity S-wave (km/s) = 5.24063 3.18649 4.33693
# Velocity P-wave (km/s) = 8.87175 7.71792 8.31487
#
# Compressibility (1/GPa) = 0.01232324
#
# Stress axis : x y z
#
# Youngs Moduli (GPa) = 118.01182 61.59377 101.83883
#
# Poissons Ratio (x) = 0.21453 0.26426
# Poissons Ratio (y) = 0.41103 0.51172
# Poissons Ratio (z) = 0.30623 0.30950
#
# Static dielectric constant tensor:
#      x y z
#    x 3.747150 0.000000 0.000000 
#    y 0.000000 3.869570 0.000000 
#    z 0.000000 0.000000 3.372680 
# 
# 
# High freq. dielectric constant tensor:
#      x y z
#    x 1.772980 0.000000 0.000000 
#    y 0.000000 1.765490 0.000000 
#    z 0.000000 0.000000 1.750290 
# 
# From -- ./inp_files/6097.got.cif
#   From: 2010.03.12/outbox.cif.g09.slc.cpg/sg51_4_cif.got.tgz:6097.got - 2010.04.16 13:43:02.
