data_PCOD8212256
_publ_section_title
;
Structure prediction by ZEFSAII (Michael W. Deem and Ramdas Pophale) SiO2 
 PCOD8212256
Probable space group: P M M A
;
_chemical_formula_sum "Si O2"
_cell_formula_units_Z 52
_cell_length_a 9.348740
_cell_length_b 10.497937
_cell_length_c 27.916023
_cell_angle_alpha 90.000000
_cell_angle_beta 90.000000
_cell_angle_gamma 90.000000
_cell_volume 2739.747828
_symmetry_space_group_name_H-M "P M M A"
_symmetry_group_IT_number 51
_symmetry_cell_setting 'orthorhombic'
loop_
_space_group_symop_operation_xyz
x,y,z
1/2-x,-y,z
1/2+x,-y,-z
-x,y,-z
-x,-y,-z
1/2+x,y,-z
1/2-x,y,z
x,-y,z
loop_
_atom_site_type_symbol
_atom_site_label
_atom_site_fract_x
_atom_site_fract_y
_atom_site_fract_z
Si Si1 0.579767 0.148388 0.141407
Si Si2 0.485399 0.256358 0.601282
Si Si3 0.418929 0.351299 0.207832
Si Si4 0.588248 0.850760 0.955426
Si Si5 0.250000 0.848770 0.533245
Si Si6 0.250000 0.139294 0.428175
Si Si7 0.086936 0.500000 0.451468
Si Si8 0.592987 0.644420 0.300052
O O1 0.750000 0.172395 0.137738
O O2 0.508448 0.249905 0.177055
O O3 0.504993 0.178966 0.091183
O O4 0.550693 0.000000 0.156560
O O5 0.385623 0.204122 0.560223
O O6 0.615291 0.158825 0.606027
O O7 0.552825 0.385644 0.583544
O O8 0.414517 0.266441 0.653343
O O9 0.250000 0.323626 0.203212
O O10 0.452170 0.500000 0.193777
O O11 0.468498 0.325196 0.262200
O O12 0.750000 0.792121 0.951693
O O13 0.604590 0.000000 0.963591
O O14 0.500000 0.790622 0.000000
O O15 0.250000 0.785930 0.479635
O O16 0.250000 0.000000 0.535727
O O17 0.250000 0.000000 0.449017
O O18 0.250000 0.500000 0.467099
O O19 0.000000 0.500000 0.500000
O O20 0.750000 0.666711 0.276364
O O21 0.578025 0.500000 0.317986
#
# Coordination Sequence:
#
# PCOD8212256 Si02
#       8
#     8   8   8   8   4   4   4   8
#     4  10  20  35  57  87 122 159 200 249 299 349
#     4  12  23  39  62  87 114 143 184 231 277 333
#     4  10  22  39  63  88 113 149 196 243 294 355
#     4   9  16  27  47  78 118 162 206 251 300 352
#     4  11  24  43  63  83 113 156 193 223 264 331
#     4  11  24  41  59  81 113 154 191 223 266 327
#     4  12  26  38  58  90 120 144 174 226 287 334
#     4  10  21  39  60  85 112 144 180 226 285 346
#
# _framework density 18.979849000000002
#
# number of rings (size 3 to 8) (size 9 to 14) (size 15 to 20)
#    0.000    1.538    2.308    3.231    2.154    4.923 
#    0.000    1.538    0.000    0.462    0.000    0.000 
#    0.000    0.000    0.000    0.000    0.000    0.000 
#
# Total GULP energy -644388.163705 kJ/mol
# GULP energy per Si atom -12392.080071 kJ/mol
# Density = 1.893665 g / cm^3
# Si number density = 18.979849 Si / 1000 Ang^3
#
#
#
# Elastic Constant Matrix: (Units=GPa)
#
#
# Indices 1 2 3 4 5 6 
#
# 1 154.7918 43.7806 51.2842 0.0000 0.0000 0.0000
# 2 43.7806 70.4363 40.3240 0.0000 0.0000 0.0000
# 3 51.2842 40.3240 102.1865 0.0000 0.0000 0.0000
# 4 0.0000 0.0000 0.0000 18.1327 0.0000 0.0000
# 5 0.0000 0.0000 0.0000 0.0000 36.5309 0.0000
# 6 0.0000 0.0000 0.0000 0.0000 0.0000 28.6912
#
#
#
# Elastic Compliance Matrix: (Units=1/GPa)
#
#
# Indices 1 2 3 4 5 6 
#
# 1 0.008411 -0.003632 -0.002788 0.000000 0.000000 0.000000
# 2 -0.003632 0.019909 -0.006034 0.000000 0.000000 0.000000
# 3 -0.002788 -0.006034 0.013566 0.000000 0.000000 0.000000
# 4 0.000000 0.000000 0.000000 0.055149 0.000000 0.000000
# 5 0.000000 0.000000 0.000000 0.000000 0.027374 0.000000
# 6 0.000000 0.000000 0.000000 0.000000 0.000000 0.034854
#
#
# Mechanical properties :
#
#
# Convention : Reuss Voigt Hill
#
# Bulk Modulus (GPa) = 58.89588 66.46578 62.68083
# Shear Modulus (GPa) = 26.33932 29.47268 27.90600
#
# Velocity S-wave (km/s) = 3.72930 3.94488 3.83860
# Velocity P-wave (km/s) = 7.04568 7.47293 7.26245
#
# Compressibility (1/GPa) = 0.01697912
#
# Stress axis : x y z
#
# Youngs Moduli (GPa) = 118.88795 50.22893 73.71259
#
# Poissons Ratio (x) = 0.18243 0.20552
# Poissons Ratio (y) = 0.43180 0.44475
# Poissons Ratio (z) = 0.33148 0.30306
#
# Static dielectric constant tensor:
#      x y z
#    x 3.958880 0.000000 0.000000 
#    y 0.000000 3.618840 0.000000 
#    z 0.000000 0.000000 3.372090 
# 
# 
# High freq. dielectric constant tensor:
#      x y z
#    x 1.761590 0.000000 0.000000 
#    y 0.000000 1.716410 0.000000 
#    z 0.000000 0.000000 1.729110 
# 
# From -- ./inp_files/36283.got.cif
#   From: 2010.03.12/outbox.cif.g09.slc.cpg/sg51_19_cif.got.tgz:36283.got - 2010.04.16 13:43:02.
