data_PCOD8212817
_publ_section_title
;
Structure prediction by ZEFSAII (Michael W. Deem and Ramdas Pophale) SiO2 
 PCOD8212817
Probable space group: P M M A
;
_chemical_formula_sum "Si O2"
_cell_formula_units_Z 48
_cell_length_a 18.174534
_cell_length_b 15.424052
_cell_length_c 9.152188
_cell_angle_alpha 90.000000
_cell_angle_beta 90.000000
_cell_angle_gamma 90.000000
_cell_volume 2565.586712
_symmetry_space_group_name_H-M "P M M A"
_symmetry_group_IT_number 51
_symmetry_cell_setting 'orthorhombic'
loop_
_space_group_symop_operation_xyz
x,y,z
1/2-x,-y,z
1/2+x,-y,-z
-x,y,-z
-x,-y,-z
1/2+x,y,-z
1/2-x,y,z
x,-y,z
loop_
_atom_site_type_symbol
_atom_site_label
_atom_site_fract_x
_atom_site_fract_y
_atom_site_fract_z
Si Si1 0.663177 0.000000 0.196342
Si Si2 0.575766 0.159491 0.695473
Si Si3 0.164829 0.336341 0.625318
Si Si4 0.661975 0.500000 0.204903
Si Si5 0.422888 0.000000 0.087831
Si Si6 0.162711 0.500000 0.124469
Si Si7 0.093900 0.841158 0.635420
Si Si8 0.836267 0.671229 0.711908
O O1 0.627287 0.083240 0.269025
O O2 0.750000 0.000000 0.219808
O O3 0.644383 0.000000 0.025204
O O4 0.490114 0.175618 0.674548
O O5 0.608164 0.135810 0.535246
O O6 0.616722 0.244514 0.758735
O O7 0.587129 0.083081 0.810031
O O8 0.250000 0.333046 0.659370
O O9 0.129141 0.415617 0.714632
O O10 0.132767 0.246836 0.683073
O O11 0.148288 0.350999 0.455830
O O12 0.750000 0.500000 0.212975
O O13 0.633209 0.500000 0.039944
O O14 0.500000 0.000000 0.000000
O O15 0.250000 0.500000 0.134585
O O16 0.133951 0.587899 0.200236
O O17 0.750000 0.690154 0.741374
#
# Coordination Sequence:
#
# PCOD8212817 Si02
#       8
#     4   8   8   4   4   4   8   8
#     4  12  25  39  59  87 115 148 188 234 287 343
#     4  10  21  38  62  83 110 151 193 230 287 344
#     4   9  17  31  52  78 107 139 181 232 283 330
#     4   9  17  29  48  75 106 144 181 221 278 337
#     4  12  23  41  58  81 116 157 185 228 285 353
#     4   9  17  31  50  77 112 148 186 230 280 333
#     4  10  20  38  60  85 110 144 189 239 285 339
#     4   9  18  33  55  81 109 144 187 234 280 333
#
# _framework density 18.70917
#
# number of rings (size 3 to 8) (size 9 to 14) (size 15 to 20)
#    0.000    2.167    1.667    1.500    0.000    6.000 
#    0.000    3.333    0.000    5.000    0.000    0.000 
#    0.000    0.000    0.000    0.000    0.000    0.000 
#
# Total GULP energy -595169.012865 kJ/mol
# GULP energy per Si atom -12399.354435 kJ/mol
# Density = 1.866659 g / cm^3
# Si number density = 18.709170 Si / 1000 Ang^3
#
#
#
# Elastic Constant Matrix: (Units=GPa)
#
#
# Indices 1 2 3 4 5 6 
#
# 1 38.8500 47.0137 30.9233 0.0000 0.0000 0.0000
# 2 47.0137 201.7540 99.9704 0.0000 0.0000 0.0000
# 3 30.9233 99.9704 108.8603 0.0000 0.0000 0.0000
# 4 0.0000 0.0000 0.0000 -8.6256 0.0000 0.0000
# 5 0.0000 0.0000 0.0000 0.0000 22.2887 0.0000
# 6 0.0000 0.0000 0.0000 0.0000 0.0000 32.3783
#
#
#
# Elastic Compliance Matrix: (Units=1/GPa)
#
#
# Indices 1 2 3 4 5 6 
#
# 1 0.037156 -0.006291 -0.004777 0.000000 0.000000 0.000000
# 2 -0.006291 0.010160 -0.007544 0.000000 0.000000 0.000000
# 3 -0.004777 -0.007544 0.017471 0.000000 0.000000 0.000000
# 4 0.000000 0.000000 0.000000 -0.115934 0.000000 0.000000
# 5 0.000000 0.000000 0.000000 0.000000 0.044866 0.000000
# 6 0.000000 0.000000 0.000000 0.000000 0.000000 0.030885
#
#
# Mechanical properties :
#
#
# Convention : Reuss Voigt Hill
#
# Bulk Modulus (GPa) = 36.28076 78.36436 57.32256
# Shear Modulus (GPa) = 70.40789 20.64541 45.52665
#
# Velocity S-wave (km/s) = 6.14122 3.32549 4.93829
# Velocity P-wave (km/s) = 8.34986 7.53138 7.95115
#
# Compressibility (1/GPa) = 0.02756282
#
# Stress axis : x y z
#
# Youngs Moduli (GPa) = 26.91389 98.42140 57.23861
#
# Poissons Ratio (x) = 0.61917 0.27345
# Poissons Ratio (y) = 0.16931 0.43179
# Poissons Ratio (z) = 0.12858 0.74245
#
# Static dielectric constant tensor:
#      x y z
#    x 3.282930 0.000000 0.000000 
#    y 0.000000 3.716980 0.000000 
#    z 0.000000 0.000000 3.539620 
# 
# 
# High freq. dielectric constant tensor:
#      x y z
#    x 1.703750 0.000000 0.000000 
#    y 0.000000 1.741770 0.000000 
#    z 0.000000 0.000000 1.728520 
# 
# From -- ./inp_files/9753.got.cif
#   From: 2010.03.12/outbox.cif.g09.slc.cpg/sg51_5_cif.got.tgz:9753.got - 2010.04.16 13:43:02.
