data_PCOD8212990
_publ_section_title
;
Structure prediction by ZEFSAII (Michael W. Deem and Ramdas Pophale) SiO2 
 PCOD8212990
Probable space group: P M M A
;
_chemical_formula_sum "Si O2"
_cell_formula_units_Z 64
_cell_length_a 15.487331
_cell_length_b 23.595454
_cell_length_c 9.171889
_cell_angle_alpha 90.000000
_cell_angle_beta 90.000000
_cell_angle_gamma 90.000000
_cell_volume 3351.688957
_symmetry_space_group_name_H-M "P M M A"
_symmetry_group_IT_number 51
_symmetry_cell_setting 'orthorhombic'
loop_
_space_group_symop_operation_xyz
x,y,z
1/2-x,-y,z
1/2+x,-y,-z
-x,y,-z
-x,-y,-z
1/2+x,y,-z
1/2-x,y,z
x,-y,z
loop_
_atom_site_type_symbol
_atom_site_label
_atom_site_fract_x
_atom_site_fract_y
_atom_site_fract_z
Si Si1 0.345442 0.852495 0.363590
Si Si2 0.650960 0.750873 0.261997
Si Si3 0.652091 0.436354 0.869554
Si Si4 0.653449 0.873558 0.293401
Si Si5 0.081673 0.653542 0.909227
Si Si6 0.489692 0.936974 0.327259
Si Si7 0.148189 0.274041 0.420529
Si Si8 0.033515 0.377550 0.342385
O O1 0.250000 0.865008 0.298399
O O2 0.344197 0.865176 0.534071
O O3 0.414692 0.892581 0.281532
O O4 0.368758 0.786229 0.341488
O O5 0.750000 0.758016 0.302607
O O6 0.619879 0.814373 0.221905
O O7 0.638353 0.709092 0.125376
O O8 0.610299 0.727458 0.413456
O O9 0.750000 0.428587 0.818540
O O10 0.634569 0.500000 0.927053
O O11 0.593027 0.426155 0.728041
O O12 0.634210 0.393448 0.002327
O O13 0.750000 0.891538 0.238614
O O14 0.581465 0.920352 0.252920
O O15 0.051739 0.627896 0.755750
O O16 0.000000 0.674846 0.000000
O O17 0.500000 0.936203 0.500000
O O18 0.464583 0.000000 0.273035
O O19 0.250000 0.290273 0.413061
O O20 0.090630 0.320271 0.337723
O O21 0.000000 0.396672 0.500000
#
# Coordination Sequence:
#
# PCOD8212990 Si02
#       8
#     8   8   8   8   8   8   8   8
#     4   8  15  25  37  58  89 129 170 212 260 314
#     4   9  16  29  49  72 100 133 173 218 266 321
#     4  10  23  44  62  75 105 152 187 214 259 324
#     4   8  15  25  38  59  87 124 167 217 268 314
#     4  10  21  34  54  82 108 140 178 218 270 326
#     4   9  16  23  34  54  85 131 175 212 255 318
#     4   9  17  29  48  74 105 136 169 214 272 330
#     4  11  21  33  56  88 112 135 172 226 279 320
#
# _framework density 19.094851999999999
#
# number of rings (size 3 to 8) (size 9 to 14) (size 15 to 20)
#    0.000    2.750    1.250    2.250    1.750    3.500 
#    0.000    2.500    0.000    1.500    0.000    0.000 
#    0.000    0.500    0.000    0.000    1.000    0.500 
#
# Total GULP energy -793161.615130 kJ/mol
# GULP energy per Si atom -12393.150236 kJ/mol
# Density = 1.905139 g / cm^3
# Si number density = 19.094852 Si / 1000 Ang^3
#
#
#
# Elastic Constant Matrix: (Units=GPa)
#
#
# Indices 1 2 3 4 5 6 
#
# 1 91.8509 56.3836 20.9099 0.0000 0.0000 0.0000
# 2 56.3836 120.4477 26.3907 0.0000 0.0000 0.0000
# 3 20.9099 26.3907 57.7394 0.0000 0.0000 0.0000
# 4 0.0000 0.0000 0.0000 16.4652 0.0000 0.0000
# 5 0.0000 0.0000 0.0000 0.0000 17.9032 0.0000
# 6 0.0000 0.0000 0.0000 0.0000 0.0000 31.1442
#
#
#
# Elastic Compliance Matrix: (Units=1/GPa)
#
#
# Indices 1 2 3 4 5 6 
#
# 1 0.015613 -0.006746 -0.002571 0.000000 0.000000 0.000000
# 2 -0.006746 0.012141 -0.003106 0.000000 0.000000 0.000000
# 3 -0.002571 -0.003106 0.019670 0.000000 0.000000 0.000000
# 4 0.000000 0.000000 0.000000 0.060734 0.000000 0.000000
# 5 0.000000 0.000000 0.000000 0.000000 0.055856 0.000000
# 6 0.000000 0.000000 0.000000 0.000000 0.000000 0.032109
#
#
# Mechanical properties :
#
#
# Convention : Reuss Voigt Hill
#
# Bulk Modulus (GPa) = 44.29029 53.04516 48.66773
# Shear Modulus (GPa) = 21.88235 24.19277 23.03756
#
# Velocity S-wave (km/s) = 3.38891 3.56333 3.47721
# Velocity P-wave (km/s) = 6.20952 6.69103 6.45477
#
# Compressibility (1/GPa) = 0.02257831
#
# Stress axis : x y z
#
# Youngs Moduli (GPa) = 64.04785 82.36792 50.83873
#
# Poissons Ratio (x) = 0.55562 0.13071
# Poissons Ratio (y) = 0.43204 0.15792
# Poissons Ratio (z) = 0.16467 0.25585
#
# Static dielectric constant tensor:
#      x y z
#    x 3.707800 0.000000 0.000000 
#    y 0.000000 3.562820 0.000000 
#    z 0.000000 0.000000 3.024260 
# 
# 
# High freq. dielectric constant tensor:
#      x y z
#    x 1.751800 0.000000 0.000000 
#    y 0.000000 1.737550 0.000000 
#    z 0.000000 0.000000 1.686720 
# 
# From -- ./inp_files/8736.got.cif
#   From: 2010.03.12/outbox.cif.g09.slc.cpg/sg51_5_cif.got.tgz:8736.got - 2010.04.16 13:43:02.
