data_PCOD8212241
_publ_section_title
;
Structure prediction by ZEFSAII (Michael W. Deem and Ramdas Pophale) SiO2 
 PCOD8212241
Probable space group: P M M A
;
_chemical_formula_sum "Si O2"
_cell_formula_units_Z 48
_cell_length_a 14.879560
_cell_length_b 9.125765
_cell_length_c 18.951278
_cell_angle_alpha 90.000000
_cell_angle_beta 90.000000
_cell_angle_gamma 90.000000
_cell_volume 2573.344157
_symmetry_space_group_name_H-M "P M M A"
_symmetry_group_IT_number 51
_symmetry_cell_setting 'orthorhombic'
loop_
_space_group_symop_operation_xyz
x,y,z
1/2-x,-y,z
1/2+x,-y,-z
-x,y,-z
-x,-y,-z
1/2+x,y,-z
1/2-x,y,z
x,-y,z
loop_
_atom_site_type_symbol
_atom_site_label
_atom_site_fract_x
_atom_site_fract_y
_atom_site_fract_z
Si Si1 0.750000 0.829397 0.582469
Si Si2 0.506423 0.828239 0.920763
Si Si3 0.396062 0.669729 0.671698
Si Si4 0.852718 0.168285 0.185920
Si Si5 0.250000 0.828911 0.582522
Si Si6 0.603211 0.330662 0.669938
Si Si7 0.354189 0.331616 0.173884
O O1 0.750000 0.797395 0.499883
O O2 0.839788 0.760015 0.614108
O O3 0.750000 0.000000 0.599797
O O4 0.414558 0.788152 0.880219
O O5 0.591890 0.757239 0.883996
O O6 0.523986 0.000000 0.921786
O O7 0.500000 0.765811 0.000000
O O8 0.368450 0.500000 0.669623
O O9 0.377654 0.727599 0.749744
O O10 0.338870 0.758072 0.614998
O O11 0.499436 0.692064 0.650995
O O12 0.750000 0.193626 0.162756
O O13 0.869018 0.000000 0.208884
O O14 0.250000 0.000000 0.600909
O O15 0.632432 0.500000 0.665163
O O16 0.623436 0.270245 0.748272
O O17 0.250000 0.310623 0.156988
O O18 0.384303 0.500000 0.169831
#
# Coordination Sequence:
#
# PCOD8212241 Si02
#       7
#     4   8   8   8   4   8   8
#     4  11  25  41  61  89 120 157 198 237 287 354
#     4  10  22  38  57  86 122 157 195 240 291 347
#     4  11  22  37  62  91 115 151 201 244 287 350
#     4  10  20  35  57  84 116 156 196 241 296 346
#     4  11  25  43  59  85 126 159 188 241 299 344
#     4  10  21  39  62  88 120 154 192 245 296 342
#     4  10  20  37  60  85 115 153 195 241 294 346
#
# _framework density 18.652771000000001
#
# number of rings (size 3 to 8) (size 9 to 14) (size 15 to 20)
#    0.000    1.667    3.333    1.000    0.000    5.333 
#    0.000    5.000    0.000    0.000    0.000    0.000 
#    0.000    0.000    0.000    0.000    0.000    0.000 
#
# Total GULP energy -595433.569720 kJ/mol
# GULP energy per Si atom -12404.866036 kJ/mol
# Density = 1.861032 g / cm^3
# Si number density = 18.652771 Si / 1000 Ang^3
#
#
#
# Elastic Constant Matrix: (Units=GPa)
#
#
# Indices 1 2 3 4 5 6 
#
# 1 126.3107 59.2491 73.9992 0.0000 0.0000 0.0000
# 2 59.2491 85.4751 76.0511 0.0000 0.0000 0.0000
# 3 73.9992 76.0511 147.7704 0.0000 0.0000 0.0000
# 4 0.0000 0.0000 0.0000 20.8581 0.0000 0.0000
# 5 0.0000 0.0000 0.0000 0.0000 29.7340 0.0000
# 6 0.0000 0.0000 0.0000 0.0000 0.0000 26.1112
#
#
#
# Elastic Compliance Matrix: (Units=1/GPa)
#
#
# Indices 1 2 3 4 5 6 
#
# 1 0.012565 -0.005739 -0.003338 0.000000 0.000000 0.000000
# 2 -0.005739 0.024204 -0.009582 0.000000 0.000000 0.000000
# 3 -0.003338 -0.009582 0.013371 0.000000 0.000000 0.000000
# 4 0.000000 0.000000 0.000000 0.047943 0.000000 0.000000
# 5 0.000000 0.000000 0.000000 0.000000 0.033631 0.000000
# 6 0.000000 0.000000 0.000000 0.000000 0.000000 0.038298
#
#
# Mechanical properties :
#
#
# Convention : Reuss Voigt Hill
#
# Bulk Modulus (GPa) = 78.00998 86.46168 82.23583
# Shear Modulus (GPa) = 23.62893 25.35779 24.49336
#
# Velocity S-wave (km/s) = 3.56304 3.69109 3.62763
# Velocity P-wave (km/s) = 7.67073 8.03862 7.85683
#
# Compressibility (1/GPa) = 0.01281887
#
# Stress axis : x y z
#
# Youngs Moduli (GPa) = 79.58632 41.31602 74.79050
#
# Poissons Ratio (x) = 0.23713 0.24968
# Poissons Ratio (y) = 0.45678 0.71668
# Poissons Ratio (z) = 0.26569 0.39591
#
# Static dielectric constant tensor:
#      x y z
#    x 3.655040 0.000000 0.000000 
#    y 0.000000 3.450870 0.000000 
#    z 0.000000 0.000000 3.444190 
# 
# 
# High freq. dielectric constant tensor:
#      x y z
#    x 1.740190 0.000000 0.000000 
#    y 0.000000 1.723560 0.000000 
#    z 0.000000 0.000000 1.721680 
# 
# From -- ./inp_files/29534.got.cif
#   From: 2010.03.12/outbox.cif.g09.slc.cpg/sg51_15_cif.got.tgz:29534.got - 2010.04.16 13:43:02.
