data_PCOD8212934
_publ_section_title
;
Structure prediction by ZEFSAII (Michael W. Deem and Ramdas Pophale) SiO2 
 PCOD8212934
Probable space group: P M M A
;
_chemical_formula_sum "Si O2"
_cell_formula_units_Z 44
_cell_length_a 8.937674
_cell_length_b 28.370417
_cell_length_c 9.434268
_cell_angle_alpha 90.000000
_cell_angle_beta 90.000000
_cell_angle_gamma 90.000000
_cell_volume 2392.205245
_symmetry_space_group_name_H-M "P M M A"
_symmetry_group_IT_number 51
_symmetry_cell_setting 'orthorhombic'
loop_
_space_group_symop_operation_xyz
x,y,z
1/2-x,-y,z
1/2+x,-y,-z
-x,y,-z
-x,-y,-z
1/2+x,y,-z
1/2-x,y,z
x,-y,z
loop_
_atom_site_type_symbol
_atom_site_label
_atom_site_fract_x
_atom_site_fract_y
_atom_site_fract_z
Si Si1 0.925596 0.711600 0.152239
Si Si2 0.573847 0.084789 0.152962
Si Si3 0.923488 0.186695 0.148729
Si Si4 0.428067 0.373561 0.652233
Si Si5 0.927395 0.000000 0.347355
Si Si6 0.423198 0.444601 0.145503
O O1 0.750000 0.706556 0.128089
O O2 0.966168 0.763270 0.223067
O O3 0.982757 0.671797 0.259026
O O4 0.000000 0.704331 0.000000
O O5 0.750000 0.078962 0.130281
O O6 0.532962 0.136624 0.222040
O O7 0.514698 0.045893 0.262580
O O8 0.500000 0.077325 0.000000
O O9 0.750000 0.186283 0.117617
O O10 0.000000 0.187271 0.000000
O O11 0.500000 0.368295 0.500000
O O12 0.250000 0.377261 0.640197
O O13 0.492155 0.420411 0.724577
O O14 0.000000 0.000000 0.500000
O O15 0.750000 0.000000 0.364717
O O16 0.250000 0.429553 0.141426
O O17 0.442098 0.500000 0.167892
O O18 0.500000 0.427869 0.000000
#
# Coordination Sequence:
#
# PCOD8212934 Si02
#       6
#     8   8   8   8   4   8
#     4   9  18  32  52  76 100 129 165 204 248 297
#     4   9  17  30  50  73  96 123 159 203 248 294
#     4   8  14  27  47  71  97 123 155 199 247 293
#     4  11  23  37  53  75 105 140 175 212 254 300
#     4  10  21  34  46  66  96 130 165 200 242 292
#     4  10  21  38  60  84 108 135 169 209 252 300
#
# _framework density 18.393069000000001
#
# number of rings (size 3 to 8) (size 9 to 14) (size 15 to 20)
#    0.000    2.545    0.000    1.909    0.000    5.091 
#    0.000    0.909    0.000    0.000    0.000    0.000 
#    0.000    0.000    0.000    0.000    0.000    0.000 
#
# Total GULP energy -545173.063060 kJ/mol
# GULP energy per Si atom -12390.296888 kJ/mol
# Density = 1.835121 g / cm^3
# Si number density = 18.393069 Si / 1000 Ang^3
#
#
#
# Elastic Constant Matrix: (Units=GPa)
#
#
# Indices 1 2 3 4 5 6 
#
# 1 55.3649 45.0788 41.2279 0.0000 0.0000 0.0000
# 2 45.0788 125.9329 71.1174 0.0000 0.0000 0.0000
# 3 41.2279 71.1174 119.4369 0.0000 0.0000 0.0000
# 4 0.0000 0.0000 0.0000 -9.0205 0.0000 0.0000
# 5 0.0000 0.0000 0.0000 0.0000 30.8269 0.0000
# 6 0.0000 0.0000 0.0000 0.0000 0.0000 19.2143
#
#
#
# Elastic Compliance Matrix: (Units=1/GPa)
#
#
# Indices 1 2 3 4 5 6 
#
# 1 0.027708 -0.006805 -0.005512 0.000000 0.000000 0.000000
# 2 -0.006805 0.013635 -0.005770 0.000000 0.000000 0.000000
# 3 -0.005512 -0.005770 0.013711 0.000000 0.000000 0.000000
# 4 0.000000 0.000000 0.000000 -0.110858 0.000000 0.000000
# 5 0.000000 0.000000 0.000000 0.000000 0.032439 0.000000
# 6 0.000000 0.000000 0.000000 0.000000 0.000000 0.052044
#
#
# Mechanical properties :
#
#
# Convention : Reuss Voigt Hill
#
# Bulk Modulus (GPa) = 52.96853 68.39811 60.68332
# Shear Modulus (GPa) = 70.27760 17.75819 44.01789
#
# Velocity S-wave (km/s) = 6.18803 3.11059 4.89732
# Velocity P-wave (km/s) = 8.93959 7.08298 8.06489
#
# Compressibility (1/GPa) = 0.01887914
#
# Stress axis : x y z
#
# Youngs Moduli (GPa) = 36.09117 73.34007 72.93489
#
# Poissons Ratio (x) = 0.49911 0.40202
# Poissons Ratio (y) = 0.24561 0.42082
# Poissons Ratio (z) = 0.19894 0.42315
#
# Static dielectric constant tensor:
#      x y z
#    x 3.385280 0.000000 0.000000 
#    y 0.000000 4.257370 0.000000 
#    z 0.000000 0.000000 3.145350 
# 
# 
# High freq. dielectric constant tensor:
#      x y z
#    x 1.714210 0.000000 0.000000 
#    y 0.000000 1.743020 0.000000 
#    z 0.000000 0.000000 1.677640 
# 
# From -- ./inp_files/5876.got.cif
#   From: 2010.03.12/outbox.cif.g09.slc.cpg/sg51_3_cif.got.tgz:5876.got - 2010.04.16 13:43:02.
