data_PCOD8212402
_publ_section_title
;
Structure prediction by ZEFSAII (Michael W. Deem and Ramdas Pophale) SiO2 
 PCOD8212402
Probable space group: P M M A
;
_chemical_formula_sum "Si O2"
_cell_formula_units_Z 64
_cell_length_a 26.579036
_cell_length_b 12.545312
_cell_length_c 9.183242
_cell_angle_alpha 90.000000
_cell_angle_beta 90.000000
_cell_angle_gamma 90.000000
_cell_volume 3062.081327
_symmetry_space_group_name_H-M "P M M A"
_symmetry_group_IT_number 51
_symmetry_cell_setting 'orthorhombic'
loop_
_space_group_symop_operation_xyz
x,y,z
1/2-x,-y,z
1/2+x,-y,-z
-x,y,-z
-x,-y,-z
1/2+x,y,-z
1/2-x,y,z
x,-y,z
loop_
_atom_site_type_symbol
_atom_site_label
_atom_site_fract_x
_atom_site_fract_y
_atom_site_fract_z
Si Si1 0.954740 0.120530 0.086819
Si Si2 0.458931 0.620443 0.705496
Si Si3 0.858495 0.624303 0.469317
Si Si4 0.900329 0.620776 0.016647
Si Si5 0.985365 0.181005 0.653333
Si Si6 0.693243 0.306957 0.180895
Si Si7 0.881408 0.757510 0.748372
Si Si8 0.844542 0.125774 0.004659
O O1 0.972413 0.121234 0.252364
O O2 0.899746 0.169913 0.056411
O O3 0.948892 0.000000 0.028907
O O4 0.000000 0.179574 0.000000
O O5 0.477985 0.500000 0.720344
O O6 0.415570 0.629188 0.584653
O O7 0.438561 0.667613 0.860154
O O8 0.505710 0.691261 0.655739
O O9 0.842404 0.500000 0.493847
O O10 0.822708 0.680983 0.349947
O O11 0.854028 0.693565 0.617923
O O12 0.916011 0.500000 0.994164
O O13 0.843096 0.623971 0.077478
O O14 0.906355 0.674421 0.860258
O O15 0.000000 0.130984 0.500000
O O16 0.926620 0.164053 0.693383
O O17 0.750000 0.349615 0.165875
O O18 0.692210 0.184348 0.119422
O O19 0.840568 0.831370 0.836862
O O20 0.834928 0.000000 0.014249
#
# Coordination Sequence:
#
# PCOD8212402 Si02
#       8
#     8   8   8   8   8   8   8   8
#     4  10  20  36  57  82 111 149 195 241 288 338
#     4   9  19  33  48  73 110 157 203 237 275 328
#     4  10  20  36  56  83 124 159 188 233 289 347
#     4   9  19  35  55  80 112 148 192 245 294 342
#     4  12  22  31  50  77 115 157 199 242 277 331
#     4  10  21  39  66  90 109 143 194 242 295 361
#     4  11  21  34  54  82 120 158 198 236 293 346
#     4  10  22  41  64  87 118 154 194 250 304 347
#
# _framework density 20.900815999999999
#
# number of rings (size 3 to 8) (size 9 to 14) (size 15 to 20)
#    0.000    1.875    2.500    3.750    0.000    2.750 
#    0.000    4.375    0.000    3.000    0.000    0.000 
#    0.000    0.000    0.000    0.000    0.000    0.000 
#
# Total GULP energy -793123.773900 kJ/mol
# GULP energy per Si atom -12392.558967 kJ/mol
# Density = 2.085325 g / cm^3
# Si number density = 20.900816 Si / 1000 Ang^3
#
#
#
# Elastic Constant Matrix: (Units=GPa)
#
#
# Indices 1 2 3 4 5 6 
#
# 1 63.6156 -7.5924 17.7243 0.0000 0.0000 0.0000
# 2 -7.5924 66.8979 24.1295 0.0000 0.0000 0.0000
# 3 17.7243 24.1295 135.5226 0.0000 0.0000 0.0000
# 4 0.0000 0.0000 0.0000 22.5136 0.0000 0.0000
# 5 0.0000 0.0000 0.0000 0.0000 16.1791 0.0000
# 6 0.0000 0.0000 0.0000 0.0000 0.0000 15.7985
#
#
#
# Elastic Compliance Matrix: (Units=1/GPa)
#
#
# Indices 1 2 3 4 5 6 
#
# 1 0.016820 0.002888 -0.002714 0.000000 0.000000 0.000000
# 2 0.002888 0.016470 -0.003310 0.000000 0.000000 0.000000
# 3 -0.002714 -0.003310 0.008323 0.000000 0.000000 0.000000
# 4 0.000000 0.000000 0.000000 0.044418 0.000000 0.000000
# 5 0.000000 0.000000 0.000000 0.000000 0.061808 0.000000
# 6 0.000000 0.000000 0.000000 0.000000 0.000000 0.063297
#
#
# Mechanical properties :
#
#
# Convention : Reuss Voigt Hill
#
# Bulk Modulus (GPa) = 28.29593 37.17320 32.73456
# Shear Modulus (GPa) = 21.81608 26.34990 24.08299
#
# Velocity S-wave (km/s) = 3.23428 3.55450 3.39817
# Velocity P-wave (km/s) = 5.24547 5.88813 5.57607
#
# Compressibility (1/GPa) = 0.03534077
#
# Stress axis : x y z
#
# Youngs Moduli (GPa) = 59.45217 60.71708 120.14679
#
# Poissons Ratio (x) = -0.17534 0.32608
# Poissons Ratio (y) = -0.17169 0.39770
# Poissons Ratio (z) = 0.16135 0.20098
#
# Static dielectric constant tensor:
#      x y z
#    x 3.397870 0.000000 0.000000 
#    y 0.000000 3.798590 0.000000 
#    z 0.000000 0.000000 3.923860 
# 
# 
# High freq. dielectric constant tensor:
#      x y z
#    x 1.778240 0.000000 0.000000 
#    y 0.000000 1.821980 0.000000 
#    z 0.000000 0.000000 1.824280 
# 
# From -- ./inp_files/13237.got.cif
#   From: 2010.03.12/outbox.cif.g09.slc.cpg/sg51_7_cif.got.tgz:13237.got - 2010.04.16 13:43:02.
