data_PCOD8212335
_publ_section_title
;
Structure prediction by ZEFSAII (Michael W. Deem and Ramdas Pophale) SiO2 
 PCOD8212335
Probable space group: P M M A
;
_chemical_formula_sum "Si O2"
_cell_formula_units_Z 64
_cell_length_a 8.852604
_cell_length_b 14.311920
_cell_length_c 25.575531
_cell_angle_alpha 90.000000
_cell_angle_beta 90.000000
_cell_angle_gamma 90.000000
_cell_volume 3240.362495
_symmetry_space_group_name_H-M "P M M A"
_symmetry_group_IT_number 51
_symmetry_cell_setting 'orthorhombic'
loop_
_space_group_symop_operation_xyz
x,y,z
1/2-x,-y,z
1/2+x,-y,-z
-x,y,-z
-x,-y,-z
1/2+x,y,-z
1/2-x,y,z
x,-y,z
loop_
_atom_site_type_symbol
_atom_site_label
_atom_site_fract_x
_atom_site_fract_y
_atom_site_fract_z
Si Si1 0.573355 0.300298 0.944372
Si Si2 0.572909 0.391403 0.651664
Si Si3 0.922670 0.896056 0.392157
Si Si4 0.424336 0.607676 0.159960
Si Si5 0.573741 0.708200 0.445597
Si Si6 0.426135 0.105512 0.283249
Si Si7 0.427120 0.285486 0.748423
Si Si8 0.927311 0.097908 0.944038
O O1 0.750000 0.303421 0.955045
O O2 0.526556 0.374779 0.900195
O O3 0.522844 0.198137 0.920300
O O4 0.500000 0.325045 0.000000
O O5 0.750000 0.373055 0.646864
O O6 0.535521 0.500000 0.659811
O O7 0.494038 0.356243 0.599331
O O8 0.512180 0.335585 0.701196
O O9 0.750000 0.884656 0.372332
O O10 0.960257 0.818026 0.435308
O O11 0.033159 0.879262 0.343771
O O12 0.948248 0.000000 0.416088
O O13 0.250000 0.637786 0.168572
O O14 0.447865 0.500000 0.173442
O O15 0.531941 0.666569 0.197193
O O16 0.500000 0.678760 0.500000
O O17 0.750000 0.687779 0.448808
O O18 0.250000 0.125773 0.275761
O O19 0.520877 0.177465 0.248045
O O20 0.467284 0.000000 0.265701
O O21 0.250000 0.291818 0.738316
O O22 0.750000 0.099528 0.951501
O O23 0.972511 0.000000 0.913375
O O24 0.000000 0.092434 0.000000
#
# Coordination Sequence:
#
# PCOD8212335 Si02
#       8
#     8   8   8   8   8   8   8   8
#     4   9  18  33  54  80 111 148 190 235 288 348
#     4  11  24  42  64  87 112 147 193 246 301 358
#     4   9  18  34  56  84 118 155 194 236 285 339
#     4  10  22  40  59  81 113 153 196 245 298 350
#     4  11  23  38  58  85 119 159 198 244 295 347
#     4  10  20  35  60  91 120 154 193 231 278 342
#     4  12  24  39  62  90 119 151 188 239 295 349
#     4   8  13  23  42  69 100 134 173 217 265 320
#
# _framework density 19.750876999999999
#
# number of rings (size 3 to 8) (size 9 to 14) (size 15 to 20)
#    0.000    2.000    1.250    2.625    0.000    5.250 
#    0.000    0.625    0.000    2.250    0.000    1.750 
#    0.000    0.000    0.000    0.000    0.000    0.000 
#
# Total GULP energy -793231.612536 kJ/mol
# GULP energy per Si atom -12394.243946 kJ/mol
# Density = 1.970592 g / cm^3
# Si number density = 19.750877 Si / 1000 Ang^3
#
#
#
# Elastic Constant Matrix: (Units=GPa)
#
#
# Indices 1 2 3 4 5 6 
#
# 1 73.2377 45.2709 32.3485 0.0000 0.0000 0.0000
# 2 45.2709 99.9946 38.6742 0.0000 0.0000 0.0000
# 3 32.3485 38.6742 92.6846 0.0000 0.0000 0.0000
# 4 0.0000 0.0000 0.0000 150.2416 0.0000 0.0000
# 5 0.0000 0.0000 0.0000 0.0000 29.9541 0.0000
# 6 0.0000 0.0000 0.0000 0.0000 0.0000 25.0954
#
#
#
# Elastic Compliance Matrix: (Units=1/GPa)
#
#
# Indices 1 2 3 4 5 6 
#
# 1 0.020036 -0.007592 -0.003825 0.000000 0.000000 0.000000
# 2 -0.007592 0.014801 -0.003527 0.000000 0.000000 0.000000
# 3 -0.003825 -0.003527 0.013596 0.000000 0.000000 0.000000
# 4 0.000000 0.000000 0.000000 0.006656 0.000000 0.000000
# 5 0.000000 0.000000 0.000000 0.000000 0.033384 0.000000
# 6 0.000000 0.000000 0.000000 0.000000 0.000000 0.039848
#
#
# Mechanical properties :
#
#
# Convention : Reuss Voigt Hill
#
# Bulk Modulus (GPa) = 53.91774 55.38933 54.65354
# Shear Modulus (GPa) = 30.41520 51.03311 40.72415
#
# Velocity S-wave (km/s) = 3.92847 5.08866 4.54573
# Velocity P-wave (km/s) = 6.92353 7.91397 7.43526
#
# Compressibility (1/GPa) = 0.01854677
#
# Stress axis : x y z
#
# Youngs Moduli (GPa) = 49.90896 67.56073 73.55169
#
# Poissons Ratio (x) = 0.51290 0.28136
# Poissons Ratio (y) = 0.37889 0.25938
# Poissons Ratio (z) = 0.19092 0.23826
#
# Static dielectric constant tensor:
#      x y z
#    x 3.599890 0.000000 0.000000 
#    y 0.000000 4.254280 0.000000 
#    z 0.000000 0.000000 3.150770 
# 
# 
# High freq. dielectric constant tensor:
#      x y z
#    x 1.769210 0.000000 0.000000 
#    y 0.000000 1.791220 0.000000 
#    z 0.000000 0.000000 1.741410 
# 
# From -- ./inp_files/34972.got.cif
#   From: 2010.03.12/outbox.cif.g09.slc.cpg/sg51_18_cif.got.tgz:34972.got - 2010.04.16 13:43:02.
