data_PCOD8212684
_publ_section_title
;
Structure prediction by ZEFSAII (Michael W. Deem and Ramdas Pophale) SiO2 
 PCOD8212684
Probable space group: P M M A
;
_chemical_formula_sum "Si O2"
_cell_formula_units_Z 48
_cell_length_a 13.780951
_cell_length_b 15.732209
_cell_length_c 10.736171
_cell_angle_alpha 90.000000
_cell_angle_beta 90.000000
_cell_angle_gamma 90.000000
_cell_volume 2327.653421
_symmetry_space_group_name_H-M "P M M A"
_symmetry_group_IT_number 51
_symmetry_cell_setting 'orthorhombic'
loop_
_space_group_symop_operation_xyz
x,y,z
1/2-x,-y,z
1/2+x,-y,-z
-x,y,-z
-x,-y,-z
1/2+x,y,-z
1/2-x,y,z
x,-y,z
loop_
_atom_site_type_symbol
_atom_site_label
_atom_site_fract_x
_atom_site_fract_y
_atom_site_fract_z
Si Si1 0.569979 0.000000 0.885657
Si Si2 0.452695 0.753351 0.330528
Si Si3 0.459049 0.402487 0.192424
Si Si4 0.360590 0.338431 0.951373
Si Si5 0.360812 0.178260 0.570653
Si Si6 0.357066 0.819187 0.100771
Si Si7 0.944244 0.000000 0.370779
O O1 0.638531 0.080084 0.912926
O O2 0.515782 0.000000 0.749947
O O3 0.500000 0.000000 0.000000
O O4 0.426346 0.653200 0.313931
O O5 0.566896 0.757367 0.360973
O O6 0.386199 0.808580 0.424415
O O7 0.440713 0.795065 0.196498
O O8 0.459946 0.500000 0.232969
O O9 0.384053 0.388054 0.079887
O O10 0.567244 0.371733 0.154490
O O11 0.250000 0.358731 0.911596
O O12 0.375069 0.236258 0.974804
O O13 0.250000 0.204256 0.595717
O O14 0.377048 0.083479 0.623894
O O15 0.250000 0.794775 0.151361
O O16 0.000000 0.000000 0.500000
#
# Coordination Sequence:
#
# PCOD8212684 Si02
#       7
#     4   8   8   8   8   8   4
#     4  12  25  36  59  91 136 171 206 266 318 364
#     4  10  21  38  61  85 116 152 202 259 306 368
#     4  10  21  36  58  86 118 156 199 254 316 373
#     4   9  19  34  58  86 116 157 205 251 302 371
#     4  11  22  39  62  89 117 155 202 255 308 362
#     4  10  20  37  58  84 120 167 207 245 304 371
#     4  12  21  42  65  92 121 164 219 262 306 360
#
# _framework density 20.621628000000001
#
# number of rings (size 3 to 8) (size 9 to 14) (size 15 to 20)
#    0.000    1.667    3.333    2.000    4.667    2.667 
#    0.000    7.500    0.000    1.000    0.000    0.000 
#    0.000    0.000    0.000    0.000    0.000    0.000 
#
# Total GULP energy -594639.478444 kJ/mol
# GULP energy per Si atom -12388.322468 kJ/mol
# Density = 2.057469 g / cm^3
# Si number density = 20.621628 Si / 1000 Ang^3
#
#
#
# Elastic Constant Matrix: (Units=GPa)
#
#
# Indices 1 2 3 4 5 6 
#
# 1 88.0244 2.5969 2.6251 0.0000 0.0000 0.0000
# 2 2.5969 156.7025 11.9702 0.0000 0.0000 0.0000
# 3 2.6251 11.9702 44.7946 0.0000 0.0000 0.0000
# 4 0.0000 0.0000 0.0000 25.5842 0.0000 0.0000
# 5 0.0000 0.0000 0.0000 0.0000 13.8994 0.0000
# 6 0.0000 0.0000 0.0000 0.0000 0.0000 18.2534
#
#
#
# Elastic Compliance Matrix: (Units=1/GPa)
#
#
# Indices 1 2 3 4 5 6 
#
# 1 0.011383 -0.000141 -0.000630 0.000000 0.000000 0.000000
# 2 -0.000141 0.006516 -0.001733 0.000000 0.000000 0.000000
# 3 -0.000630 -0.001733 0.022824 0.000000 0.000000 0.000000
# 4 0.000000 0.000000 0.000000 0.039087 0.000000 0.000000
# 5 0.000000 0.000000 0.000000 0.000000 0.071946 0.000000
# 6 0.000000 0.000000 0.000000 0.000000 0.000000 0.054784
#
#
# Mechanical properties :
#
#
# Convention : Reuss Voigt Hill
#
# Bulk Modulus (GPa) = 27.99752 35.98954 31.99353
# Shear Modulus (GPa) = 22.37612 29.70267 26.03940
#
# Velocity S-wave (km/s) = 3.29763 3.79933 3.55734
# Velocity P-wave (km/s) = 5.30145 6.06109 5.69395
#
# Compressibility (1/GPa) = 0.03571745
#
# Stress axis : x y z
#
# Youngs Moduli (GPa) = 87.84716 153.46286 43.81333
#
# Poissons Ratio (x) = 0.02157 0.02758
# Poissons Ratio (y) = 0.01235 0.07593
# Poissons Ratio (z) = 0.05530 0.26596
#
# Static dielectric constant tensor:
#      x y z
#    x 3.605710 0.000000 0.000000 
#    y 0.000000 4.062210 0.000000 
#    z 0.000000 0.000000 3.590680 
# 
# 
# High freq. dielectric constant tensor:
#      x y z
#    x 1.807120 0.000000 0.000000 
#    y 0.000000 1.807700 0.000000 
#    z 0.000000 0.000000 1.779350 
# 
# From -- ./inp_files/16533.got.cif
#   From: 2010.03.12/outbox.cif.g09.slc.cpg/sg51_9_cif.got.tgz:16533.got - 2010.04.16 13:43:02.
