data_PCOD8212309
_publ_section_title
;
Structure prediction by ZEFSAII (Michael W. Deem and Ramdas Pophale) SiO2 
 PCOD8212309
Probable space group: P M M A
;
_chemical_formula_sum "Si O2"
_cell_formula_units_Z 40
_cell_length_a 19.807665
_cell_length_b 11.305345
_cell_length_c 9.685838
_cell_angle_alpha 90.000000
_cell_angle_beta 90.000000
_cell_angle_gamma 90.000000
_cell_volume 2168.973787
_symmetry_space_group_name_H-M "P M M A"
_symmetry_group_IT_number 51
_symmetry_cell_setting 'orthorhombic'
loop_
_space_group_symop_operation_xyz
x,y,z
1/2-x,-y,z
1/2+x,-y,-z
-x,y,-z
-x,-y,-z
1/2+x,y,-z
1/2-x,y,z
x,-y,z
loop_
_atom_site_type_symbol
_atom_site_label
_atom_site_fract_x
_atom_site_fract_y
_atom_site_fract_z
Si Si1 0.633872 0.140334 0.643925
Si Si2 0.498960 0.288605 0.345527
Si Si3 0.750000 0.860407 0.153730
Si Si4 0.750000 0.860052 0.845302
Si Si5 0.853867 0.756055 0.356823
Si Si6 0.672594 0.500000 0.268872
Si Si7 0.471888 0.500000 0.846634
O O1 0.561851 0.197965 0.674522
O O2 0.683116 0.182437 0.766004
O O3 0.667412 0.185885 0.501628
O O4 0.625481 0.000000 0.636899
O O5 0.500000 0.345063 0.500000
O O6 0.568010 0.215563 0.327921
O O7 0.495808 0.388310 0.229988
O O8 0.816011 0.814755 0.229810
O O9 0.750000 0.000000 0.150747
O O10 0.750000 0.806544 0.999315
O O11 0.750000 0.000000 0.851794
O O12 0.837536 0.615657 0.364106
O O13 0.750000 0.500000 0.206270
O O14 0.611023 0.500000 0.155856
O O15 0.500000 0.500000 0.000000
#
# Coordination Sequence:
#
# PCOD8212309 Si02
#       7
#     8   8   4   4   8   4   4
#     4  10  20  36  58  84 115 147 186 235 283 340
#     4   9  20  36  58  83 113 147 184 233 288 335
#     4  11  21  34  53  78 110 145 184 229 276 337
#     4   9  21  37  51  74 112 152 181 221 284 333
#     4  10  20  35  59  82 105 146 189 230 277 337
#     4  10  20  37  56  83 116 143 188 239 285 323
#     4  10  21  37  60  85 113 157 196 236 282 346
#
# _framework density 18.441901999999999
#
# number of rings (size 3 to 8) (size 9 to 14) (size 15 to 20)
#    0.000    2.200    1.000    1.500    0.000   10.800 
#    0.000    0.000    0.000    6.600    0.000    0.000 
#    0.000    0.000    0.000    0.000    0.000    0.000 
#
# Total GULP energy -495847.220473 kJ/mol
# GULP energy per Si atom -12396.180512 kJ/mol
# Density = 1.839993 g / cm^3
# Si number density = 18.441902 Si / 1000 Ang^3
#
#
#
# Elastic Constant Matrix: (Units=GPa)
#
#
# Indices 1 2 3 4 5 6 
#
# 1 155.5487 48.7061 83.9791 0.0000 0.0000 0.0000
# 2 48.7061 95.0492 58.8645 0.0000 0.0000 0.0000
# 3 83.9791 58.8645 171.9593 0.0000 0.0000 0.0000
# 4 0.0000 0.0000 0.0000 20.8778 0.0000 0.0000
# 5 0.0000 0.0000 0.0000 0.0000 22.6265 0.0000
# 6 0.0000 0.0000 0.0000 0.0000 0.0000 29.7735
#
#
#
# Elastic Compliance Matrix: (Units=1/GPa)
#
#
# Indices 1 2 3 4 5 6 
#
# 1 0.009156 -0.002440 -0.003636 0.000000 0.000000 0.000000
# 2 -0.002440 0.014001 -0.003601 0.000000 0.000000 0.000000
# 3 -0.003636 -0.003601 0.008824 0.000000 0.000000 0.000000
# 4 0.000000 0.000000 0.000000 0.047898 0.000000 0.000000
# 5 0.000000 0.000000 0.000000 0.000000 0.044196 0.000000
# 6 0.000000 0.000000 0.000000 0.000000 0.000000 0.033587
#
#
# Mechanical properties :
#
#
# Convention : Reuss Voigt Hill
#
# Bulk Modulus (GPa) = 79.19902 89.51740 84.35821
# Shear Modulus (GPa) = 27.58987 30.05608 28.82298
#
# Velocity S-wave (km/s) = 3.87207 4.04142 3.95765
# Velocity P-wave (km/s) = 7.93908 8.39184 8.16860
#
# Compressibility (1/GPa) = 0.01262642
#
# Stress axis : x y z
#
# Youngs Moduli (GPa) = 109.21776 71.42097 113.32745
#
# Poissons Ratio (x) = 0.17426 0.41209
# Poissons Ratio (y) = 0.26647 0.40814
# Poissons Ratio (z) = 0.39715 0.25722
#
# Static dielectric constant tensor:
#      x y z
#    x 3.664160 0.000000 0.000000 
#    y 0.000000 3.322770 0.000000 
#    z 0.000000 0.000000 3.479100 
# 
# 
# High freq. dielectric constant tensor:
#      x y z
#    x 1.732630 0.000000 0.000000 
#    y 0.000000 1.709310 0.000000 
#    z 0.000000 0.000000 1.704180 
# 
# From -- ./inp_files/10735.got.cif
#   From: 2010.03.12/outbox.cif.g09.slc.cpg/sg51_6_cif.got.tgz:10735.got - 2010.04.16 13:43:02.
