data_PCOD8212792
_publ_section_title
;
Structure prediction by ZEFSAII (Michael W. Deem and Ramdas Pophale) SiO2 
 PCOD8212792
Probable space group: P M M A
;
_chemical_formula_sum "Si O2"
_cell_formula_units_Z 64
_cell_length_a 23.566668
_cell_length_b 9.026146
_cell_length_c 15.209792
_cell_angle_alpha 90.000000
_cell_angle_beta 90.000000
_cell_angle_gamma 90.000000
_cell_volume 3235.368946
_symmetry_space_group_name_H-M "P M M A"
_symmetry_group_IT_number 51
_symmetry_cell_setting 'orthorhombic'
loop_
_space_group_symop_operation_xyz
x,y,z
1/2-x,-y,z
1/2+x,-y,-z
-x,y,-z
-x,-y,-z
1/2+x,y,-z
1/2-x,y,z
x,-y,z
loop_
_atom_site_type_symbol
_atom_site_label
_atom_site_fract_x
_atom_site_fract_y
_atom_site_fract_z
Si Si1 0.880527 0.327033 0.115750
Si Si2 0.613619 0.824856 0.800612
Si Si3 0.608217 0.669945 0.615620
Si Si4 0.186022 0.825266 0.729822
Si Si5 0.875274 0.172957 0.445437
Si Si6 0.998972 0.668462 0.828443
Si Si7 0.684109 0.328057 0.942575
Si Si8 0.521595 0.665251 0.372947
O O1 0.869670 0.500000 0.130519
O O2 0.854943 0.245391 0.199149
O O3 0.948142 0.293516 0.107581
O O4 0.850568 0.271147 0.027273
O O5 0.621875 0.756905 0.704438
O O6 0.554465 0.774393 0.845923
O O7 0.665662 0.769160 0.859551
O O8 0.614581 0.000000 0.793137
O O9 0.626366 0.500000 0.629360
O O10 0.642675 0.741067 0.534422
O O11 0.541948 0.683561 0.590781
O O12 0.250000 0.768981 0.744993
O O13 0.167226 0.777578 0.631924
O O14 0.181238 0.000000 0.740103
O O15 0.939259 0.212291 0.417403
O O16 0.871669 0.000000 0.465313
O O17 0.977673 0.500000 0.842552
O O18 0.022447 0.690639 0.730878
O O19 0.750000 0.300236 0.961374
O O20 0.671292 0.500000 0.923161
O O21 0.544390 0.500000 0.395434
#
# Coordination Sequence:
#
# PCOD8212792 Si02
#       8
#     8   8   8   8   8   8   8   8
#     4  10  20  37  63  91 116 148 194 241 285 340
#     4  11  23  39  60  86 118 153 193 240 291 350
#     4  10  21  37  57  80 111 149 189 237 291 341
#     4  10  22  38  54  78 118 161 194 234 290 345
#     4  11  21  32  51  80 112 150 194 236 281 338
#     4   9  18  34  57  86 122 157 188 231 290 347
#     4  10  22  41  64  88 114 148 194 244 291 342
#     4   9  17  31  51  78 112 150 186 226 281 340
#
# _framework density 19.781361
#
# number of rings (size 3 to 8) (size 9 to 14) (size 15 to 20)
#    0.000    2.000    1.250    3.375    0.000    7.000 
#    0.000    3.125    0.000    2.250    0.000    0.000 
#    0.000    0.000    0.000    0.000    0.000    0.000 
#
# Total GULP energy -793731.935038 kJ/mol
# GULP energy per Si atom -12402.061485 kJ/mol
# Density = 1.973634 g / cm^3
# Si number density = 19.781361 Si / 1000 Ang^3
#
#
#
# Elastic Constant Matrix: (Units=GPa)
#
#
# Indices 1 2 3 4 5 6 
#
# 1 48.0077 27.2286 34.4076 0.0000 0.0000 0.0000
# 2 27.2286 94.3635 47.0405 0.0000 0.0000 0.0000
# 3 34.4076 47.0405 69.2184 0.0000 0.0000 0.0000
# 4 0.0000 0.0000 0.0000 25.4830 0.0000 0.0000
# 5 0.0000 0.0000 0.0000 0.0000 25.3408 0.0000
# 6 0.0000 0.0000 0.0000 0.0000 0.0000 20.6228
#
#
#
# Elastic Compliance Matrix: (Units=1/GPa)
#
#
# Indices 1 2 3 4 5 6 
#
# 1 0.032608 -0.002010 -0.014843 0.000000 0.000000 0.000000
# 2 -0.002010 0.016151 -0.009977 0.000000 0.000000 0.000000
# 3 -0.014843 -0.009977 0.028606 0.000000 0.000000 0.000000
# 4 0.000000 0.000000 0.000000 0.039242 0.000000 0.000000
# 5 0.000000 0.000000 0.000000 0.000000 0.039462 0.000000
# 6 0.000000 0.000000 0.000000 0.000000 0.000000 0.048490
#
#
# Mechanical properties :
#
#
# Convention : Reuss Voigt Hill
#
# Bulk Modulus (GPa) = 42.18572 47.66035 44.92303
# Shear Modulus (GPa) = 18.78847 21.15017 19.96932
#
# Velocity S-wave (km/s) = 3.08524 3.27341 3.18071
# Velocity P-wave (km/s) = 5.83643 6.19942 6.02066
#
# Compressibility (1/GPa) = 0.02370470
#
# Stress axis : x y z
#
# Youngs Moduli (GPa) = 30.66707 61.91652 34.95782
#
# Poissons Ratio (x) = 0.12443 0.51889
# Poissons Ratio (y) = 0.06163 0.34878
# Poissons Ratio (z) = 0.45521 0.61774
#
# Static dielectric constant tensor:
#      x y z
#    x 3.542670 0.000000 0.000000 
#    y 0.000000 3.500930 0.000000 
#    z 0.000000 0.000000 3.649840 
# 
# 
# High freq. dielectric constant tensor:
#      x y z
#    x 1.755520 0.000000 0.000000 
#    y 0.000000 1.762550 0.000000 
#    z 0.000000 0.000000 1.778850 
# 
# From -- ./inp_files/26330.got.cif
#   From: 2010.03.12/outbox.cif.g09.slc.cpg/sg51_14_cif.got.tgz:26330.got - 2010.04.16 13:43:02.
