data_PCOD8212230
_publ_section_title
;
Structure prediction by ZEFSAII (Michael W. Deem and Ramdas Pophale) SiO2 
 PCOD8212230
Probable space group: P M M A
;
_chemical_formula_sum "Si O2"
_cell_formula_units_Z 40
_cell_length_a 8.908629
_cell_length_b 9.630225
_cell_length_c 24.320843
_cell_angle_alpha 90.000000
_cell_angle_beta 90.000000
_cell_angle_gamma 90.000000
_cell_volume 2086.536236
_symmetry_space_group_name_H-M "P M M A"
_symmetry_group_IT_number 51
_symmetry_cell_setting 'orthorhombic'
loop_
_space_group_symop_operation_xyz
x,y,z
1/2-x,-y,z
1/2+x,-y,-z
-x,y,-z
-x,-y,-z
1/2+x,y,-z
1/2-x,y,z
x,-y,z
loop_
_atom_site_type_symbol
_atom_site_label
_atom_site_fract_x
_atom_site_fract_y
_atom_site_fract_z
Si Si1 0.073178 0.662511 0.737507
Si Si2 0.079343 0.500000 0.442915
Si Si3 0.073220 0.000000 0.560140
Si Si4 0.426122 0.238688 0.372011
Si Si5 0.927896 0.842080 0.157692
Si Si6 0.427345 0.341741 0.942879
O O1 0.250000 0.677528 0.726254
O O2 0.029284 0.500000 0.743939
O O3 0.021860 0.747583 0.791104
O O4 0.980926 0.736930 0.689598
O O5 0.250000 0.500000 0.459193
O O6 0.033490 0.627646 0.406341
O O7 0.000000 0.500000 0.500000
O O8 0.000000 0.000000 0.500000
O O9 0.024052 0.872949 0.597035
O O10 0.250000 0.000000 0.550849
O O11 0.250000 0.200112 0.371913
O O12 0.750000 0.849281 0.155685
O O13 0.988786 0.763973 0.103378
O O14 0.993014 0.000000 0.161453
O O15 0.250000 0.330263 0.948656
O O16 0.473680 0.500000 0.927549
O O17 0.500000 0.295070 0.000000
#
# Coordination Sequence:
#
# PCOD8212230 Si02
#       6
#     8   4   4   8   8   8
#     4  10  20  35  57  84 112 147 192 240 288 344
#     4  10  22  38  60  86 116 148 187 232 283 340
#     4  12  26  44  64  90 120 156 195 236 287 348
#     4  11  23  41  61  87 119 156 193 237 292 348
#     4   9  18  32  52  79 110 145 189 237 285 337
#     4   9  17  31  52  77 107 144 185 231 281 337
#
# _framework density 19.170527
#
# number of rings (size 3 to 8) (size 9 to 14) (size 15 to 20)
#    0.000    2.000    1.000    2.700    1.400    6.000 
#    0.000    1.000    0.000    3.600    0.000    0.000 
#    0.000    0.000    0.000    0.000    0.000    0.000 
#
# Total GULP energy -495888.542150 kJ/mol
# GULP energy per Si atom -12397.213554 kJ/mol
# Density = 1.912689 g / cm^3
# Si number density = 19.170527 Si / 1000 Ang^3
#
#
#
# Elastic Constant Matrix: (Units=GPa)
#
#
# Indices 1 2 3 4 5 6 
#
# 1 58.3326 49.3453 49.3235 0.0000 0.0000 0.0000
# 2 49.3453 147.8500 89.7499 0.0000 0.0000 0.0000
# 3 49.3235 89.7499 182.1367 0.0000 0.0000 0.0000
# 4 0.0000 0.0000 0.0000 36.8174 0.0000 0.0000
# 5 0.0000 0.0000 0.0000 0.0000 35.1525 0.0000
# 6 0.0000 0.0000 0.0000 0.0000 0.0000 22.4296
#
#
#
# Elastic Compliance Matrix: (Units=1/GPa)
#
#
# Indices 1 2 3 4 5 6 
#
# 1 0.025691 -0.006208 -0.003898 0.000000 0.000000 0.000000
# 2 -0.006208 0.011150 -0.003813 0.000000 0.000000 0.000000
# 3 -0.003898 -0.003813 0.008425 0.000000 0.000000 0.000000
# 4 0.000000 0.000000 0.000000 0.027161 0.000000 0.000000
# 5 0.000000 0.000000 0.000000 0.000000 0.028447 0.000000
# 6 0.000000 0.000000 0.000000 0.000000 0.000000 0.044584
#
#
# Mechanical properties :
#
#
# Convention : Reuss Voigt Hill
#
# Bulk Modulus (GPa) = 57.38146 85.01743 71.19945
# Shear Modulus (GPa) = 27.91635 32.20661 30.06148
#
# Velocity S-wave (km/s) = 3.82017 4.10323 3.96423
# Velocity P-wave (km/s) = 7.03245 8.17881 7.62720
#
# Compressibility (1/GPa) = 0.01742723
#
# Stress axis : x y z
#
# Youngs Moduli (GPa) = 38.92459 89.68310 118.69376
#
# Poissons Ratio (x) = 0.55676 0.46268
# Poissons Ratio (y) = 0.24165 0.45261
# Poissons Ratio (z) = 0.15173 0.34199
#
# Static dielectric constant tensor:
#      x y z
#    x 3.386480 0.000000 0.000000 
#    y 0.000000 3.762900 0.000000 
#    z 0.000000 0.000000 3.659290 
# 
# 
# High freq. dielectric constant tensor:
#      x y z
#    x 1.720930 0.000000 0.000000 
#    y 0.000000 1.760070 0.000000 
#    z 0.000000 0.000000 1.761320 
# 
# From -- ./inp_files/35999.got.cif
#   From: 2010.03.12/outbox.cif.g09.slc.cpg/sg51_18_cif.got.tgz:35999.got - 2010.04.16 13:43:02.
