data_PCOD8212310
_publ_section_title
;
Structure prediction by ZEFSAII (Michael W. Deem and Ramdas Pophale) SiO2 
 PCOD8212310
Probable space group: P M M A
;
_chemical_formula_sum "Si O2"
_cell_formula_units_Z 64
_cell_length_a 18.450313
_cell_length_b 9.192217
_cell_length_c 19.995263
_cell_angle_alpha 90.000000
_cell_angle_beta 90.000000
_cell_angle_gamma 90.000000
_cell_volume 3391.182224
_symmetry_space_group_name_H-M "P M M A"
_symmetry_group_IT_number 51
_symmetry_cell_setting 'orthorhombic'
loop_
_space_group_symop_operation_xyz
x,y,z
1/2-x,-y,z
1/2+x,-y,-z
-x,y,-z
-x,-y,-z
1/2+x,y,-z
1/2-x,y,z
x,-y,z
loop_
_atom_site_type_symbol
_atom_site_label
_atom_site_fract_x
_atom_site_fract_y
_atom_site_fract_z
Si Si1 0.410932 0.834303 0.705844
Si Si2 0.575042 0.833754 0.671347
Si Si3 0.071454 0.827803 0.083791
Si Si4 0.590899 0.827980 0.065688
Si Si5 0.333056 0.668274 0.821668
Si Si6 0.331714 0.826953 0.203868
Si Si7 0.924872 0.672107 0.533458
Si Si8 0.834056 0.831906 0.428931
O O1 0.497031 0.821400 0.705551
O O2 0.382858 0.732687 0.764075
O O3 0.378562 0.779215 0.635669
O O4 0.385981 0.000000 0.719553
O O5 0.633499 0.779710 0.725648
O O6 0.580808 0.729420 0.608340
O O7 0.589822 0.000000 0.648768
O O8 0.121525 0.760340 0.142351
O O9 0.988338 0.775885 0.091284
O O10 0.071832 0.000000 0.088650
O O11 0.102290 0.781264 0.011435
O O12 0.651740 0.747054 0.108260
O O13 0.599932 0.000000 0.074755
O O14 0.250000 0.694121 0.801827
O O15 0.351706 0.500000 0.829811
O O16 0.250000 0.765301 0.199950
O O17 0.331825 0.000000 0.198545
O O18 0.918448 0.500000 0.534336
O O19 0.858229 0.736920 0.491897
O O20 0.000000 0.724304 0.500000
O O21 0.750000 0.804169 0.414957
O O22 0.850632 0.000000 0.444855
#
# Coordination Sequence:
#
# PCOD8212310 Si02
#       8
#     8   8   8   8   8   8   8   8
#     4  10  20  36  59  81 103 137 184 233 276 325
#     4  10  20  35  59  84 108 141 182 229 273 317
#     4   8  15  30  53  81 110 137 174 230 281 320
#     4   9  17  32  56  81 104 137 185 232 273 322
#     4  11  24  37  49  73 112 150 180 219 273 330
#     4   9  17  29  48  79 114 142 173 218 276 332
#     4  11  23  38  57  82 113 148 182 218 268 333
#     4  10  21  37  59  85 109 138 181 231 281 330
#
# _framework density 18.872474
#
# number of rings (size 3 to 8) (size 9 to 14) (size 15 to 20)
#    0.000    2.250    1.250    2.625    0.000    6.250 
#    0.000    3.750    0.000    0.750    0.000    0.000 
#    0.000    0.000    0.000    0.000    0.000    0.000 
#
# Total GULP energy -793730.558336 kJ/mol
# GULP energy per Si atom -12402.039974 kJ/mol
# Density = 1.882952 g / cm^3
# Si number density = 18.872474 Si / 1000 Ang^3
#
#
#
# Elastic Constant Matrix: (Units=GPa)
#
#
# Indices 1 2 3 4 5 6 
#
# 1 85.0322 24.7743 47.9945 0.0000 0.0000 0.0000
# 2 24.7743 52.8739 38.3891 0.0000 0.0000 0.0000
# 3 47.9945 38.3891 123.6034 0.0000 0.0000 0.0000
# 4 0.0000 0.0000 0.0000 0.0887 0.0000 0.0000
# 5 0.0000 0.0000 0.0000 0.0000 29.5959 0.0000
# 6 0.0000 0.0000 0.0000 0.0000 0.0000 19.0603
#
#
#
# Elastic Compliance Matrix: (Units=1/GPa)
#
#
# Indices 1 2 3 4 5 6 
#
# 1 0.015621 -0.003764 -0.004896 0.000000 0.000000 0.000000
# 2 -0.003764 0.025327 -0.006404 0.000000 0.000000 0.000000
# 3 -0.004896 -0.006404 0.011981 0.000000 0.000000 0.000000
# 4 0.000000 0.000000 0.000000 11.277949 0.000000 0.000000
# 5 0.000000 0.000000 0.000000 0.000000 0.033788 0.000000
# 6 0.000000 0.000000 0.000000 0.000000 0.000000 0.052465
#
#
# Mechanical properties :
#
#
# Convention : Reuss Voigt Hill
#
# Bulk Modulus (GPa) = 43.86323 53.75837 48.81080
# Shear Modulus (GPa) = 0.43650 19.77241 10.10445
#
# Velocity S-wave (km/s) = 0.48144 3.24031 2.31640
# Velocity P-wave (km/s) = 4.85813 6.52276 5.75099
#
# Compressibility (1/GPa) = 0.02279814
#
# Stress axis : x y z
#
# Youngs Moduli (GPa) = 64.01832 39.48428 83.46761
#
# Poissons Ratio (x) = 0.14862 0.40868
# Poissons Ratio (y) = 0.24097 0.53456
# Poissons Ratio (z) = 0.31345 0.25287
#
# Static dielectric constant tensor:
#      x y z
#    x 3.577880 0.000000 0.000000 
#    y 0.000000 3.120850 0.000000 
#    z 0.000000 0.000000 3.593860 
# 
# 
# High freq. dielectric constant tensor:
#      x y z
#    x 1.736170 0.000000 0.000000 
#    y 0.000000 1.696330 0.000000 
#    z 0.000000 0.000000 1.745370 
# 
# From -- ./inp_files/33860.got.cif
#   From: 2010.03.12/outbox.cif.g09.slc.cpg/sg51_17_cif.got.tgz:33860.got - 2010.04.16 13:43:02.
