data_PCOD8212489
_publ_section_title
;
Structure prediction by ZEFSAII (Michael W. Deem and Ramdas Pophale) SiO2 
 PCOD8212489
Probable space group: P M M A
;
_chemical_formula_sum "Si O2"
_cell_formula_units_Z 56
_cell_length_a 20.748467
_cell_length_b 14.435987
_cell_length_c 9.617380
_cell_angle_alpha 90.000000
_cell_angle_beta 90.000000
_cell_angle_gamma 90.000000
_cell_volume 2880.641896
_symmetry_space_group_name_H-M "P M M A"
_symmetry_group_IT_number 51
_symmetry_cell_setting 'orthorhombic'
loop_
_space_group_symop_operation_xyz
x,y,z
1/2-x,-y,z
1/2+x,-y,-z
-x,y,-z
-x,-y,-z
1/2+x,y,-z
1/2-x,y,z
x,-y,z
loop_
_atom_site_type_symbol
_atom_site_label
_atom_site_fract_x
_atom_site_fract_y
_atom_site_fract_z
Si Si1 0.943401 0.607927 0.105873
Si Si2 0.986887 0.264742 0.338708
Si Si3 0.676853 0.605017 0.917805
Si Si4 0.393817 0.104421 0.727103
Si Si5 0.375025 0.766695 0.242259
Si Si6 0.323707 0.890284 0.002000
Si Si7 0.175979 0.898707 0.455705
O O1 0.950587 0.500000 0.137817
O O2 0.945338 0.658300 0.256169
O O3 0.873670 0.631618 0.038773
O O4 0.000000 0.640086 0.000000
O O5 0.952132 0.165673 0.331132
O O6 0.000000 0.292751 0.500000
O O7 0.050729 0.259542 0.245965
O O8 0.750000 0.616219 0.974082
O O9 0.664473 0.500000 0.865971
O O10 0.665984 0.673683 0.787468
O O11 0.334414 0.106293 0.620279
O O12 0.420679 0.000000 0.745792
O O13 0.364465 0.143372 0.869548
O O14 0.359374 0.845891 0.131731
O O15 0.359973 0.810894 0.391356
O O16 0.250000 0.854665 0.992122
O O17 0.325014 0.000000 0.017763
O O18 0.250000 0.888985 0.417550
O O19 0.151131 0.000000 0.401597
#
# Coordination Sequence:
#
# PCOD8212489 Si02
#       7
#     8   8   8   8   8   8   8
#     4  10  21  41  68  92 117 155 199 243 295 356
#     4  12  25  40  57  85 122 160 202 244 290 352
#     4  10  21  38  64  96 123 149 190 246 304 358
#     4  10  22  38  57  82 117 159 197 242 295 349
#     4  12  22  36  58  87 118 154 194 246 297 349
#     4  10  21  37  58  86 116 147 193 249 300 350
#     4  10  20  36  58  82 113 158 205 244 294 358
#
# _framework density 19.440111999999999
#
# number of rings (size 3 to 8) (size 9 to 14) (size 15 to 20)
#    0.000    1.429    2.857    3.000    0.000    4.571 
#    0.000    2.143    0.000    0.000    0.000    0.000 
#    0.000    0.000    0.000    0.000    0.000    0.000 
#
# Total GULP energy -694299.597147 kJ/mol
# GULP energy per Si atom -12398.207092 kJ/mol
# Density = 1.939587 g / cm^3
# Si number density = 19.440112 Si / 1000 Ang^3
#
#
#
# Elastic Constant Matrix: (Units=GPa)
#
#
# Indices 1 2 3 4 5 6 
#
# 1 104.4423 28.7611 29.0347 0.0000 0.0000 0.0000
# 2 28.7611 77.2259 28.8220 0.0000 0.0000 0.0000
# 3 29.0347 28.8220 80.8837 0.0000 0.0000 0.0000
# 4 0.0000 0.0000 0.0000 23.9139 0.0000 0.0000
# 5 0.0000 0.0000 0.0000 0.0000 29.3008 0.0000
# 6 0.0000 0.0000 0.0000 0.0000 0.0000 26.7337
#
#
#
# Elastic Compliance Matrix: (Units=1/GPa)
#
#
# Indices 1 2 3 4 5 6 
#
# 1 0.011242 -0.003092 -0.002934 0.000000 0.000000 0.000000
# 2 -0.003092 0.015786 -0.004515 0.000000 0.000000 0.000000
# 3 -0.002934 -0.004515 0.015025 0.000000 0.000000 0.000000
# 4 0.000000 0.000000 0.000000 0.041817 0.000000 0.000000
# 5 0.000000 0.000000 0.000000 0.000000 0.034129 0.000000
# 6 0.000000 0.000000 0.000000 0.000000 0.000000 0.037406
#
#
# Mechanical properties :
#
#
# Convention : Reuss Voigt Hill
#
# Bulk Modulus (GPa) = 47.68389 48.42081 48.05235
# Shear Modulus (GPa) = 27.25153 27.71862 27.48507
#
# Velocity S-wave (km/s) = 3.74815 3.78013 3.76418
# Velocity P-wave (km/s) = 6.58129 6.63433 6.60786
#
# Compressibility (1/GPa) = 0.02097144
#
# Stress axis : x y z
#
# Youngs Moduli (GPa) = 88.95505 63.34879 66.55376
#
# Poissons Ratio (x) = 0.19586 0.19525
# Poissons Ratio (y) = 0.27503 0.30050
# Poissons Ratio (z) = 0.26096 0.28603
#
# Static dielectric constant tensor:
#      x y z
#    x 3.588050 0.000000 0.000000 
#    y 0.000000 3.649970 0.000000 
#    z 0.000000 0.000000 3.501150 
# 
# 
# High freq. dielectric constant tensor:
#      x y z
#    x 1.759590 0.000000 0.000000 
#    y 0.000000 1.762280 0.000000 
#    z 0.000000 0.000000 1.747430 
# 
# From -- ./inp_files/11029.got.cif
#   From: 2010.03.12/outbox.cif.g09.slc.cpg/sg51_6_cif.got.tgz:11029.got - 2010.04.16 13:43:02.
