data_PCOD8212553
_publ_section_title
;
Structure prediction by ZEFSAII (Michael W. Deem and Ramdas Pophale) SiO2 
 PCOD8212553
Probable space group: P M M A
;
_chemical_formula_sum "Si O2"
_cell_formula_units_Z 40
_cell_length_a 18.573847
_cell_length_b 9.221961
_cell_length_c 12.303849
_cell_angle_alpha 90.000000
_cell_angle_beta 90.000000
_cell_angle_gamma 90.000000
_cell_volume 2107.492984
_symmetry_space_group_name_H-M "P M M A"
_symmetry_group_IT_number 51
_symmetry_cell_setting 'orthorhombic'
loop_
_space_group_symop_operation_xyz
x,y,z
1/2-x,-y,z
1/2+x,-y,-z
-x,y,-z
-x,-y,-z
1/2+x,y,-z
1/2-x,y,z
x,-y,z
loop_
_atom_site_type_symbol
_atom_site_label
_atom_site_fract_x
_atom_site_fract_y
_atom_site_fract_z
Si Si1 0.091495 0.328429 0.170775
Si Si2 0.167496 0.330757 0.391981
Si Si3 0.926329 0.829664 0.444264
Si Si4 0.832605 0.165826 0.016856
Si Si5 0.446886 0.168556 0.802022
O O1 0.085780 0.500000 0.159687
O O2 0.121417 0.280793 0.288026
O O3 0.013634 0.258882 0.151569
O O4 0.146349 0.270930 0.080822
O O5 0.250000 0.288981 0.370302
O O6 0.158208 0.500000 0.413651
O O7 0.140520 0.247641 0.498367
O O8 0.927143 0.781040 0.319175
O O9 0.000000 0.777042 0.500000
O O10 0.915425 0.000000 0.457467
O O11 0.750000 0.193483 0.047982
O O12 0.878427 0.202772 0.123696
O O13 0.845851 0.000000 0.980209
O O14 0.468692 0.000000 0.804050
#
# Coordination Sequence:
#
# PCOD8212553 Si02
#       5
#     8   8   8   8   8
#     4  11  22  37  59  85 115 150 190 236 284 334
#     4  10  22  38  56  82 116 152 189 232 285 339
#     4  10  20  36  59  86 114 146 188 235 281 332
#     4  10  22  39  58  81 112 151 190 232 286 341
#     4  10  21  38  60  85 115 148 189 236 282 339
#
# _framework density 18.979897000000001
#
# number of rings (size 3 to 8) (size 9 to 14) (size 15 to 20)
#    0.000    1.800    2.000    1.800    0.000    7.600 
#    0.000    2.000    0.000    0.000    0.000    0.000 
#    0.000    0.000    0.000    0.000    0.000    0.000 
#
# Total GULP energy -496255.918246 kJ/mol
# GULP energy per Si atom -12406.397956 kJ/mol
# Density = 1.893670 g / cm^3
# Si number density = 18.979897 Si / 1000 Ang^3
#
#
#
# Elastic Constant Matrix: (Units=GPa)
#
#
# Indices 1 2 3 4 5 6 
#
# 1 128.7820 45.0326 46.5963 0.0000 0.0000 0.0000
# 2 45.0326 51.9429 36.0347 0.0000 0.0000 0.0000
# 3 46.5963 36.0347 97.6510 0.0000 0.0000 0.0000
# 4 0.0000 0.0000 0.0000 28.5063 0.0000 0.0000
# 5 0.0000 0.0000 0.0000 0.0000 35.4086 0.0000
# 6 0.0000 0.0000 0.0000 0.0000 0.0000 29.3419
#
#
#
# Elastic Compliance Matrix: (Units=1/GPa)
#
#
# Indices 1 2 3 4 5 6 
#
# 1 0.011561 -0.008328 -0.002444 0.000000 0.000000 0.000000
# 2 -0.008328 0.031875 -0.007789 0.000000 0.000000 0.000000
# 3 -0.002444 -0.007789 0.014281 0.000000 0.000000 0.000000
# 4 0.000000 0.000000 0.000000 0.035080 0.000000 0.000000
# 5 0.000000 0.000000 0.000000 0.000000 0.028242 0.000000
# 6 0.000000 0.000000 0.000000 0.000000 0.000000 0.034081
#
#
# Mechanical properties :
#
#
# Convention : Reuss Voigt Hill
#
# Bulk Modulus (GPa) = 48.55105 59.30037 53.92571
# Shear Modulus (GPa) = 25.11226 28.69885 26.90556
#
# Velocity S-wave (km/s) = 3.64139 3.89275 3.76916
# Velocity P-wave (km/s) = 6.58144 7.17748 6.88591
#
# Compressibility (1/GPa) = 0.02059688
#
# Stress axis : x y z
#
# Youngs Moduli (GPa) = 86.49489 31.37230 70.02485
#
# Poissons Ratio (x) = 0.26127 0.17111
# Poissons Ratio (y) = 0.72034 0.54539
# Poissons Ratio (z) = 0.21136 0.24434
#
# Static dielectric constant tensor:
#      x y z
#    x 3.485470 0.000000 0.000000 
#    y 0.000000 3.362520 0.000000 
#    z 0.000000 0.000000 3.558810 
# 
# 
# High freq. dielectric constant tensor:
#      x y z
#    x 1.743870 0.000000 0.000000 
#    y 0.000000 1.730570 0.000000 
#    z 0.000000 0.000000 1.745820 
# 
# From -- ./inp_files/17052.got.cif
#   From: 2010.03.12/outbox.cif.g09.slc.cpg/sg51_9_cif.got.tgz:17052.got - 2010.04.16 13:43:02.
