data_PCOD8212846
_publ_section_title
;
Structure prediction by ZEFSAII (Michael W. Deem and Ramdas Pophale) SiO2 
 PCOD8212846
Probable space group: P M M A
;
_chemical_formula_sum "Si O2"
_cell_formula_units_Z 40
_cell_length_a 15.503773
_cell_length_b 9.066093
_cell_length_c 14.431409
_cell_angle_alpha 90.000000
_cell_angle_beta 90.000000
_cell_angle_gamma 90.000000
_cell_volume 2028.459336
_symmetry_space_group_name_H-M "P M M A"
_symmetry_group_IT_number 51
_symmetry_cell_setting 'orthorhombic'
loop_
_space_group_symop_operation_xyz
x,y,z
1/2-x,-y,z
1/2+x,-y,-z
-x,y,-z
-x,-y,-z
1/2+x,y,-z
1/2-x,y,z
x,-y,z
loop_
_atom_site_type_symbol
_atom_site_label
_atom_site_fract_x
_atom_site_fract_y
_atom_site_fract_z
Si Si1 0.416723 0.674604 0.711508
Si Si2 0.651578 0.828632 0.910529
Si Si3 0.250000 0.326818 0.603330
Si Si4 0.651905 0.672318 0.090967
Si Si5 0.250000 0.675005 0.388978
Si Si6 0.590784 0.825631 0.710361
O O1 0.430420 0.500000 0.697859
O O2 0.336004 0.735368 0.652231
O O3 0.402355 0.716223 0.818858
O O4 0.500163 0.761549 0.674677
O O5 0.750000 0.776956 0.894358
O O6 0.598699 0.786472 0.818986
O O7 0.646744 0.000000 0.931494
O O8 0.610965 0.747666 0.999832
O O9 0.250000 0.500000 0.620014
O O10 0.250000 0.282703 0.496645
O O11 0.750000 0.727157 0.105911
O O12 0.649530 0.500000 0.073956
O O13 0.250000 0.500000 0.373009
O O14 0.334474 0.745246 0.345263
O O15 0.597266 0.000000 0.692694
#
# Coordination Sequence:
#
# PCOD8212846 Si02
#       6
#     8   8   4   8   4   8
#     4  10  20  38  62  88 118 153 193 237 288 345
#     4   9  18  34  54  76 111 159 196 226 277 342
#     4   9  20  41  66  87 114 148 189 243 296 347
#     4   9  17  31  55  85 115 149 191 240 284 326
#     4  11  23  41  66  89 108 146 197 243 294 349
#     4  11  23  40  59  85 122 157 191 237 290 344
#
# _framework density 19.719398999999999
#
# number of rings (size 3 to 8) (size 9 to 14) (size 15 to 20)
#    0.000    2.200    2.000    0.900    0.000    4.000 
#    0.000   10.500    0.000    0.000    0.000    0.000 
#    0.000    0.000    0.000    0.000    0.000    0.000 
#
# Total GULP energy -496045.347001 kJ/mol
# GULP energy per Si atom -12401.133675 kJ/mol
# Density = 1.967452 g / cm^3
# Si number density = 19.719399 Si / 1000 Ang^3
#
#
#
# Elastic Constant Matrix: (Units=GPa)
#
#
# Indices 1 2 3 4 5 6 
#
# 1 148.2525 53.3909 72.8486 0.0000 0.0000 0.0000
# 2 53.3909 64.5585 62.2581 0.0000 0.0000 0.0000
# 3 72.8486 62.2581 127.1725 0.0000 0.0000 0.0000
# 4 0.0000 0.0000 0.0000 -0.3900 0.0000 0.0000
# 5 0.0000 0.0000 0.0000 0.0000 -7.6770 0.0000
# 6 0.0000 0.0000 0.0000 0.0000 0.0000 25.4752
#
#
#
# Elastic Compliance Matrix: (Units=1/GPa)
#
#
# Indices 1 2 3 4 5 6 
#
# 1 0.010277 -0.005346 -0.003270 0.000000 0.000000 0.000000
# 2 -0.005346 0.032124 -0.012664 0.000000 0.000000 0.000000
# 3 -0.003270 -0.012664 0.015936 0.000000 0.000000 0.000000
# 4 0.000000 0.000000 0.000000 -2.564197 0.000000 0.000000
# 5 0.000000 0.000000 0.000000 0.000000 -0.130259 0.000000
# 6 0.000000 0.000000 0.000000 0.000000 0.000000 0.039254
#
#
# Mechanical properties :
#
#
# Convention : Reuss Voigt Hill
#
# Bulk Modulus (GPa) = 63.38226 79.66430 71.52328
# Shear Modulus (GPa) = -1.96152 13.58069 5.80958
#
# Velocity S-wave (km/s) = -0.99844 2.62715 1.71829
# Velocity P-wave (km/s) = 5.55722 7.04906 6.34712
#
# Compressibility (1/GPa) = 0.01577729
#
# Stress axis : x y z
#
# Youngs Moduli (GPa) = 97.30106 31.12945 62.74983
#
# Poissons Ratio (x) = 0.16642 0.20519
# Poissons Ratio (y) = 0.52018 0.79467
# Poissons Ratio (z) = 0.31818 0.39423
#
# Static dielectric constant tensor:
#      x y z
#    x 3.594470 0.000000 0.000000 
#    y 0.000000 3.379500 0.000000 
#    z 0.000000 0.000000 3.703950 
# 
# 
# High freq. dielectric constant tensor:
#      x y z
#    x 1.770690 0.000000 0.000000 
#    y 0.000000 1.751490 0.000000 
#    z 0.000000 0.000000 1.769890 
# 
# From -- ./inp_files/23795.got.cif
#   From: 2010.03.12/outbox.cif.g09.slc.cpg/sg51_12_cif.got.tgz:23795.got - 2010.04.16 13:43:02.
