data_PCOD8212881
_publ_section_title
;
Structure prediction by ZEFSAII (Michael W. Deem and Ramdas Pophale) SiO2 
 PCOD8212881
Probable space group: P M M A
;
_chemical_formula_sum "Si O2"
_cell_formula_units_Z 64
_cell_length_a 24.777225
_cell_length_b 8.926817
_cell_length_c 14.601315
_cell_angle_alpha 90.000000
_cell_angle_beta 90.000000
_cell_angle_gamma 90.000000
_cell_volume 3229.544453
_symmetry_space_group_name_H-M "P M M A"
_symmetry_group_IT_number 51
_symmetry_cell_setting 'orthorhombic'
loop_
_space_group_symop_operation_xyz
x,y,z
1/2-x,-y,z
1/2+x,-y,-z
-x,y,-z
-x,-y,-z
1/2+x,y,-z
1/2-x,y,z
x,-y,z
loop_
_atom_site_type_symbol
_atom_site_label
_atom_site_fract_x
_atom_site_fract_y
_atom_site_fract_z
Si Si1 0.190577 0.829031 0.167818
Si Si2 0.158884 0.677238 0.989880
Si Si3 0.589838 0.822857 0.713480
Si Si4 0.512569 0.669237 0.215317
Si Si5 0.056351 0.830237 0.951041
Si Si6 0.440096 0.323818 0.475229
Si Si7 0.390396 0.331984 0.660940
Si Si8 0.188651 0.173556 0.798235
O O1 0.250000 0.817840 0.213833
O O2 0.146339 0.770847 0.240769
O O3 0.176936 0.000000 0.140042
O O4 0.194262 0.730956 0.075337
O O5 0.159020 0.500000 0.984115
O O6 0.099454 0.741805 0.012205
O O7 0.179224 0.739092 0.892755
O O8 0.541820 0.764198 0.777845
O O9 0.584486 0.754839 0.613330
O O10 0.585748 0.000000 0.706979
O O11 0.498006 0.500000 0.185489
O O12 0.553481 0.745392 0.144706
O O13 0.546768 0.671563 0.308313
O O14 0.075394 0.000000 0.934827
O O15 0.000000 0.822094 0.000000
O O16 0.500000 0.262140 0.500000
O O17 0.443854 0.500000 0.455130
O O18 0.396151 0.286809 0.554505
O O19 0.367409 0.500000 0.672910
O O20 0.350617 0.223836 0.716073
O O21 0.250000 0.201636 0.765865
O O22 0.177527 0.000000 0.817698
#
# Coordination Sequence:
#
# PCOD8212881 Si02
#       8
#     8   8   8   8   8   8   8   8
#     4  10  23  44  64  83 116 161 205 250 299 350
#     4  12  24  38  60  90 120 155 202 252 298 352
#     4  11  23  38  61  93 122 155 200 249 303 361
#     4  11  21  36  58  86 121 158 194 239 299 357
#     4  11  23  37  54  81 119 161 201 243 295 357
#     4  10  20  39  63  88 122 158 194 240 298 362
#     4  10  21  38  61  88 119 157 197 243 299 355
#     4  11  24  41  62  88 121 162 204 250 302 353
#
# _framework density 19.817036999999999
#
# number of rings (size 3 to 8) (size 9 to 14) (size 15 to 20)
#    0.000    1.250    2.500    3.750    0.000    9.000 
#    0.000    0.625    0.000    2.250    0.000    0.000 
#    0.000    0.000    0.000    0.000    0.000    0.000 
#
# Total GULP energy -793618.510606 kJ/mol
# GULP energy per Si atom -12400.289228 kJ/mol
# Density = 1.977193 g / cm^3
# Si number density = 19.817037 Si / 1000 Ang^3
#
#
#
# Elastic Constant Matrix: (Units=GPa)
#
#
# Indices 1 2 3 4 5 6 
#
# 1 122.7559 45.0750 46.3887 0.0000 0.0000 0.0000
# 2 45.0750 109.4555 51.7855 0.0000 0.0000 0.0000
# 3 46.3887 51.7855 89.7988 0.0000 0.0000 0.0000
# 4 0.0000 0.0000 0.0000 31.4311 0.0000 0.0000
# 5 0.0000 0.0000 0.0000 0.0000 18.7322 0.0000
# 6 0.0000 0.0000 0.0000 0.0000 0.0000 13.3429
#
#
#
# Elastic Compliance Matrix: (Units=1/GPa)
#
#
# Indices 1 2 3 4 5 6 
#
# 1 0.010574 -0.002434 -0.004058 0.000000 0.000000 0.000000
# 2 -0.002434 0.013125 -0.006311 0.000000 0.000000 0.000000
# 3 -0.004058 -0.006311 0.016872 0.000000 0.000000 0.000000
# 4 0.000000 0.000000 0.000000 0.031816 0.000000 0.000000
# 5 0.000000 0.000000 0.000000 0.000000 0.053384 0.000000
# 6 0.000000 0.000000 0.000000 0.000000 0.000000 0.074946
#
#
# Mechanical properties :
#
#
# Convention : Reuss Voigt Hill
#
# Bulk Modulus (GPa) = 66.83340 67.61207 67.22274
# Shear Modulus (GPa) = 21.61586 24.61863 23.11724
#
# Velocity S-wave (km/s) = 3.30627 3.52845 3.41916
# Velocity P-wave (km/s) = 6.95512 7.12686 7.04151
#
# Compressibility (1/GPa) = 0.01496258
#
# Stress axis : x y z
#
# Youngs Moduli (GPa) = 94.57380 76.19306 59.26938
#
# Poissons Ratio (x) = 0.18547 0.24054
# Poissons Ratio (y) = 0.23022 0.37406
# Poissons Ratio (z) = 0.38382 0.48087
#
# Static dielectric constant tensor:
#      x y z
#    x 3.788160 0.000000 0.000000 
#    y 0.000000 3.640550 0.000000 
#    z 0.000000 0.000000 3.712600 
# 
# 
# High freq. dielectric constant tensor:
#      x y z
#    x 1.775740 0.000000 0.000000 
#    y 0.000000 1.775660 0.000000 
#    z 0.000000 0.000000 1.768080 
# 
# From -- ./inp_files/26233.got.cif
#   From: 2010.03.12/outbox.cif.g09.slc.cpg/sg51_14_cif.got.tgz:26233.got - 2010.04.16 13:43:02.
