data_PCOD8212853
_publ_section_title
;
Structure prediction by ZEFSAII (Michael W. Deem and Ramdas Pophale) SiO2 
 PCOD8212853
Probable space group: P M M A
;
_chemical_formula_sum "Si O2"
_cell_formula_units_Z 48
_cell_length_a 13.904617
_cell_length_b 18.003283
_cell_length_c 9.791182
_cell_angle_alpha 90.000000
_cell_angle_beta 90.000000
_cell_angle_gamma 90.000000
_cell_volume 2451.014399
_symmetry_space_group_name_H-M "P M M A"
_symmetry_group_IT_number 51
_symmetry_cell_setting 'orthorhombic'
loop_
_space_group_symop_operation_xyz
x,y,z
1/2-x,-y,z
1/2+x,-y,-z
-x,y,-z
-x,-y,-z
1/2+x,y,-z
1/2-x,y,z
x,-y,z
loop_
_atom_site_type_symbol
_atom_site_label
_atom_site_fract_x
_atom_site_fract_y
_atom_site_fract_z
Si Si1 0.250000 0.589913 0.545301
Si Si2 0.434733 0.648719 0.118550
Si Si3 0.062870 0.328398 0.627406
Si Si4 0.363806 0.189692 0.128615
Si Si5 0.638606 0.085191 0.121417
Si Si6 0.980972 0.162159 0.348211
Si Si7 0.250000 0.416231 0.239613
O O1 0.250000 0.500000 0.557252
O O2 0.339355 0.625539 0.624325
O O3 0.250000 0.622850 0.389195
O O4 0.503673 0.644994 0.245347
O O5 0.397856 0.730353 0.075902
O O6 0.341840 0.599955 0.147472
O O7 0.500000 0.613979 0.000000
O O8 0.077585 0.239339 0.634284
O O9 0.000000 0.352326 0.500000
O O10 0.250000 0.188152 0.157754
O O11 0.416711 0.172074 0.271500
O O12 0.394917 0.132306 0.010288
O O13 0.750000 0.099853 0.150579
O O14 0.583182 0.106618 0.259287
O O15 0.617241 0.000000 0.085658
O O16 0.000000 0.128794 0.500000
O O17 0.250000 0.500000 0.283076
#
# Coordination Sequence:
#
# PCOD8212853 Si02
#       7
#     4   8   8   8   8   8   4
#     4  11  24  41  67  95 121 164 212 254 309 367
#     4  11  22  39  62  89 123 160 204 253 309 366
#     4  10  21  39  62  92 122 161 213 254 296 362
#     4  10  20  38  63  87 116 159 210 249 292 362
#     4  10  22  40  62  90 122 160 205 253 300 354
#     4  10  22  36  58  92 123 162 198 247 310 360
#     4  11  24  41  63  89 121 164 200 248 319 369
#
# _framework density 19.583729000000002
#
# number of rings (size 3 to 8) (size 9 to 14) (size 15 to 20)
#    0.000    1.667    2.500    2.500    1.167    4.333 
#    0.000    0.833    0.000    2.000    0.000    0.000 
#    0.000    0.000    0.000    0.000    0.000    0.000 
#
# Total GULP energy -595150.512016 kJ/mol
# GULP energy per Si atom -12398.969000 kJ/mol
# Density = 1.953916 g / cm^3
# Si number density = 19.583729 Si / 1000 Ang^3
#
#
#
# Elastic Constant Matrix: (Units=GPa)
#
#
# Indices 1 2 3 4 5 6 
#
# 1 118.9272 53.2722 51.2868 0.0000 0.0000 0.0000
# 2 53.2722 83.6738 40.8153 0.0000 0.0000 0.0000
# 3 51.2868 40.8153 134.2213 0.0000 0.0000 0.0000
# 4 0.0000 0.0000 0.0000 30.2313 0.0000 0.0000
# 5 0.0000 0.0000 0.0000 0.0000 32.8209 0.0000
# 6 0.0000 0.0000 0.0000 0.0000 0.0000 -157.7657
#
#
#
# Elastic Compliance Matrix: (Units=1/GPa)
#
#
# Indices 1 2 3 4 5 6 
#
# 1 0.012593 -0.006658 -0.002787 0.000000 0.000000 0.000000
# 2 -0.006658 0.017553 -0.002794 0.000000 0.000000 0.000000
# 3 -0.002787 -0.002794 0.009365 0.000000 0.000000 0.000000
# 4 0.000000 0.000000 0.000000 0.033078 0.000000 0.000000
# 5 0.000000 0.000000 0.000000 0.000000 0.030468 0.000000
# 6 0.000000 0.000000 0.000000 0.000000 0.000000 -0.006339
#
#
# Mechanical properties :
#
#
# Convention : Reuss Voigt Hill
#
# Bulk Modulus (GPa) = 66.51986 69.73013 68.12500
# Shear Modulus (GPa) = 39.61753 -6.17950 16.71901
#
# Velocity S-wave (km/s) = 4.50264 -1.77828 2.92502
# Velocity P-wave (km/s) = 7.81488 5.60955 6.80218
#
# Compressibility (1/GPa) = 0.01503310
#
# Stress axis : x y z
#
# Youngs Moduli (GPa) = 79.41065 56.97147 106.78178
#
# Poissons Ratio (x) = 0.37930 0.29762
# Poissons Ratio (y) = 0.52870 0.29830
# Poissons Ratio (z) = 0.22133 0.15916
#
# Static dielectric constant tensor:
#      x y z
#    x 3.662570 0.000000 0.000000 
#    y 0.000000 3.481290 0.000000 
#    z 0.000000 0.000000 3.611780 
# 
# 
# High freq. dielectric constant tensor:
#      x y z
#    x 1.775110 0.000000 0.000000 
#    y 0.000000 1.748500 0.000000 
#    z 0.000000 0.000000 1.768900 
# 
# From -- ./inp_files/8297.got.cif
#   From: 2010.03.12/outbox.cif.g09.slc.cpg/sg51_5_cif.got.tgz:8297.got - 2010.04.16 13:43:02.
