data_PCOD8212502
_publ_section_title
;
Structure prediction by ZEFSAII (Michael W. Deem and Ramdas Pophale) SiO2 
 PCOD8212502
Probable space group: P M M A
;
_chemical_formula_sum "Si O2"
_cell_formula_units_Z 48
_cell_length_a 9.531534
_cell_length_b 28.515028
_cell_length_c 9.468679
_cell_angle_alpha 90.000000
_cell_angle_beta 90.000000
_cell_angle_gamma 90.000000
_cell_volume 2573.510814
_symmetry_space_group_name_H-M "P M M A"
_symmetry_group_IT_number 51
_symmetry_cell_setting 'orthorhombic'
loop_
_space_group_symop_operation_xyz
x,y,z
1/2-x,-y,z
1/2+x,-y,-z
-x,y,-z
-x,-y,-z
1/2+x,y,-z
1/2-x,y,z
x,-y,z
loop_
_atom_site_type_symbol
_atom_site_label
_atom_site_fract_x
_atom_site_fract_y
_atom_site_fract_z
Si Si1 0.085223 0.200676 0.637288
Si Si2 0.992721 0.096084 0.332286
Si Si3 0.250000 0.943522 0.165215
Si Si4 0.250000 0.053906 0.844142
Si Si5 0.591178 0.722662 0.135333
Si Si6 0.913073 0.553438 0.642347
Si Si7 0.584716 0.616242 0.143226
O O1 0.250000 0.198688 0.602414
O O2 0.045026 0.240845 0.746655
O O3 0.000000 0.214759 0.500000
O O4 0.034776 0.150787 0.696067
O O5 0.127408 0.079504 0.252082
O O6 0.000000 0.085334 0.500000
O O7 0.878045 0.066101 0.253875
O O8 0.250000 0.000000 0.174556
O O9 0.250000 0.924052 0.002946
O O10 0.250000 0.000000 0.878878
O O11 0.750000 0.731332 0.088343
O O12 0.572048 0.670009 0.194288
O O13 0.500000 0.732906 0.000000
O O14 0.750000 0.570437 0.625164
O O15 0.913284 0.500000 0.696577
O O16 0.000000 0.557992 0.500000
O O17 0.001339 0.584387 0.748952
O O18 0.750000 0.601790 0.128315
O O19 0.500000 0.609419 0.000000
#
# Coordination Sequence:
#
# PCOD8212502 Si02
#       7
#     8   8   4   4   8   8   8
#     4  10  22  40  60  85 116 149 187 234 283 336
#     4  11  23  40  62  87 118 154 194 239 288 347
#     4  11  25  41  61  89 119 153 193 239 292 347
#     4  11  23  41  61  87 121 153 191 239 288 343
#     4   9  20  38  58  86 117 150 192 235 285 342
#     4  10  21  37  57  82 114 152 196 245 297 354
#     4  10  20  36  58  83 117 154 194 243 290 346
#
# _framework density 18.651561999999998
#
# number of rings (size 3 to 8) (size 9 to 14) (size 15 to 20)
#    0.000    1.833    0.833    2.500    3.500    8.000 
#    0.000    1.667    0.000    0.000    0.000    0.000 
#    0.000    0.000    0.000    0.000    0.000    0.000 
#
# Total GULP energy -594892.526500 kJ/mol
# GULP energy per Si atom -12393.594302 kJ/mol
# Density = 1.860911 g / cm^3
# Si number density = 18.651562 Si / 1000 Ang^3
#
#
#
# Elastic Constant Matrix: (Units=GPa)
#
#
# Indices 1 2 3 4 5 6 
#
# 1 156.8245 62.0535 71.2804 0.0000 0.0000 0.0000
# 2 62.0535 99.5935 72.2424 0.0000 0.0000 0.0000
# 3 71.2804 72.2424 123.7146 0.0000 0.0000 0.0000
# 4 0.0000 0.0000 0.0000 38.8669 0.0000 0.0000
# 5 0.0000 0.0000 0.0000 0.0000 65.4967 0.0000
# 6 0.0000 0.0000 0.0000 0.0000 0.0000 22.2151
#
#
#
# Elastic Compliance Matrix: (Units=1/GPa)
#
#
# Indices 1 2 3 4 5 6 
#
# 1 0.009218 -0.003280 -0.003395 0.000000 0.000000 0.000000
# 2 -0.003280 0.018587 -0.008963 0.000000 0.000000 0.000000
# 3 -0.003395 -0.008963 0.015274 0.000000 0.000000 0.000000
# 4 0.000000 0.000000 0.000000 0.025729 0.000000 0.000000
# 5 0.000000 0.000000 0.000000 0.000000 0.015268 0.000000
# 6 0.000000 0.000000 0.000000 0.000000 0.000000 0.045014
#
#
# Mechanical properties :
#
#
# Convention : Reuss Voigt Hill
#
# Bulk Modulus (GPa) = 84.74981 87.92060 86.33521
# Shear Modulus (GPa) = 30.43194 36.95285 33.69239
#
# Velocity S-wave (km/s) = 4.04369 4.45592 4.25480
# Velocity P-wave (km/s) = 8.20604 8.58571 8.39802
#
# Compressibility (1/GPa) = 0.01179944
#
# Stress axis : x y z
#
# Youngs Moduli (GPa) = 108.48470 53.80233 65.47221
#
# Poissons Ratio (x) = 0.17649 0.22231
# Poissons Ratio (y) = 0.35587 0.58686
# Poissons Ratio (z) = 0.36836 0.48226
#
# Static dielectric constant tensor:
#      x y z
#    x 3.714560 0.000000 0.000000 
#    y 0.000000 3.607380 0.000000 
#    z 0.000000 0.000000 2.844030 
# 
# 
# High freq. dielectric constant tensor:
#      x y z
#    x 1.746700 0.000000 0.000000 
#    y 0.000000 1.729050 0.000000 
#    z 0.000000 0.000000 1.728140 
# 
# From -- ./inp_files/6244.got.cif
#   From: 2010.03.12/outbox.cif.g09.slc.cpg/sg51_4_cif.got.tgz:6244.got - 2010.04.16 13:43:02.
