data_PCOD8212571
_publ_section_title
;
Structure prediction by ZEFSAII (Michael W. Deem and Ramdas Pophale) SiO2 
 PCOD8212571
Probable space group: P M M A
;
_chemical_formula_sum "Si O2"
_cell_formula_units_Z 48
_cell_length_a 16.049348
_cell_length_b 9.265126
_cell_length_c 16.504322
_cell_angle_alpha 90.000000
_cell_angle_beta 90.000000
_cell_angle_gamma 90.000000
_cell_volume 2454.179997
_symmetry_space_group_name_H-M "P M M A"
_symmetry_group_IT_number 51
_symmetry_cell_setting 'orthorhombic'
loop_
_space_group_symop_operation_xyz
x,y,z
1/2-x,-y,z
1/2+x,-y,-z
-x,y,-z
-x,-y,-z
1/2+x,y,-z
1/2-x,y,z
x,-y,z
loop_
_atom_site_type_symbol
_atom_site_label
_atom_site_fract_x
_atom_site_fract_y
_atom_site_fract_z
Si Si1 0.919983 0.329015 0.951705
Si Si2 0.348114 0.160251 0.369290
Si Si3 0.653030 0.664613 0.478672
Si Si4 0.750000 0.329067 0.039799
Si Si5 0.750000 0.171525 0.209722
Si Si6 0.389755 0.664225 0.698850
Si Si7 0.071886 0.334522 0.230791
O O1 0.927788 0.500000 0.950925
O O2 0.922139 0.270854 0.859885
O O3 0.832703 0.281193 0.991393
O O4 0.000000 0.264544 0.000000
O O5 0.250000 0.154170 0.378748
O O6 0.384754 0.240076 0.448587
O O7 0.367467 0.243494 0.287030
O O8 0.386705 0.000000 0.365410
O O9 0.750000 0.696379 0.462022
O O10 0.638905 0.500000 0.505191
O O11 0.603620 0.701395 0.396386
O O12 0.750000 0.500000 0.057112
O O13 0.750000 0.243689 0.122603
O O14 0.830876 0.221656 0.258066
O O15 0.750000 0.000000 0.201352
O O16 0.355816 0.500000 0.709923
O O17 0.478663 0.681960 0.738720
O O18 0.101889 0.500000 0.233232
#
# Coordination Sequence:
#
# PCOD8212571 Si02
#       7
#     8   8   8   4   4   8   8
#     4   9  18  34  57  87 114 140 185 242 296 345
#     4  10  22  38  55  78 115 160 197 233 285 342
#     4   9  17  33  57  82 109 146 193 237 279 334
#     4  10  20  36  60  81 108 151 190 235 292 349
#     4  12  24  36  56  87 118 149 190 233 282 349
#     4  10  20  37  60  86 116 150 188 236 294 343
#     4  10  21  36  60  89 114 145 190 245 292 339
#
# _framework density 19.558467
#
# number of rings (size 3 to 8) (size 9 to 14) (size 15 to 20)
#    0.000    2.167    0.833    2.250    1.167    5.667 
#    0.000    4.167    0.000    2.000    0.000    0.000 
#    0.000    0.000    0.000    0.000    0.000    0.000 
#
# Total GULP energy -595256.211916 kJ/mol
# GULP energy per Si atom -12401.171082 kJ/mol
# Density = 1.951395 g / cm^3
# Si number density = 19.558467 Si / 1000 Ang^3
#
#
#
# Elastic Constant Matrix: (Units=GPa)
#
#
# Indices 1 2 3 4 5 6 
#
# 1 71.5072 29.9204 49.1327 0.0000 0.0000 0.0000
# 2 29.9204 87.3999 64.2978 0.0000 0.0000 0.0000
# 3 49.1327 64.2978 178.1299 0.0000 0.0000 0.0000
# 4 0.0000 0.0000 0.0000 7.7618 0.0000 0.0000
# 5 0.0000 0.0000 0.0000 0.0000 13.2993 0.0000
# 6 0.0000 0.0000 0.0000 0.0000 0.0000 -4.9863
#
#
#
# Elastic Compliance Matrix: (Units=1/GPa)
#
#
# Indices 1 2 3 4 5 6 
#
# 1 0.017972 -0.003412 -0.003726 0.000000 0.000000 0.000000
# 2 -0.003412 0.016226 -0.004916 0.000000 0.000000 0.000000
# 3 -0.003726 -0.004916 0.008416 0.000000 0.000000 0.000000
# 4 0.000000 0.000000 0.000000 0.128836 0.000000 0.000000
# 5 0.000000 0.000000 0.000000 0.000000 0.075192 0.000000
# 6 0.000000 0.000000 0.000000 0.000000 0.000000 -0.200551
#
#
# Mechanical properties :
#
#
# Convention : Reuss Voigt Hill
#
# Bulk Modulus (GPa) = 54.03190 69.30430 61.66810
# Shear Modulus (GPa) = 65.47351 16.12738 40.80044
#
# Velocity S-wave (km/s) = 5.79210 2.87465 4.57231
# Velocity P-wave (km/s) = 8.50982 6.82125 7.71189
#
# Compressibility (1/GPa) = 0.01850758
#
# Stress axis : x y z
#
# Youngs Moduli (GPa) = 55.64201 61.62894 118.82158
#
# Poissons Ratio (x) = 0.21026 0.44269
# Poissons Ratio (y) = 0.18983 0.58412
# Poissons Ratio (z) = 0.20730 0.30297
#
# Static dielectric constant tensor:
#      x y z
#    x 3.491100 0.000000 0.000000 
#    y 0.000000 3.488400 0.000000 
#    z 0.000000 0.000000 3.794520 
# 
# 
# High freq. dielectric constant tensor:
#      x y z
#    x 1.757750 0.000000 0.000000 
#    y 0.000000 1.730970 0.000000 
#    z 0.000000 0.000000 1.779960 
# 
# From -- ./inp_files/24932.got.cif
#   From: 2010.03.12/outbox.cif.g09.slc.cpg/sg51_13_cif.got.tgz:24932.got - 2010.04.16 13:43:02.
