data_PCOD8212797
_publ_section_title
;
Structure prediction by ZEFSAII (Michael W. Deem and Ramdas Pophale) SiO2 
 PCOD8212797
Probable space group: P M M A
;
_chemical_formula_sum "Si O2"
_cell_formula_units_Z 28
_cell_length_a 9.071951
_cell_length_b 7.709868
_cell_length_c 19.890033
_cell_angle_alpha 90.000000
_cell_angle_beta 90.000000
_cell_angle_gamma 90.000000
_cell_volume 1391.179412
_symmetry_space_group_name_H-M "P M M A"
_symmetry_group_IT_number 51
_symmetry_cell_setting 'orthorhombic'
loop_
_space_group_symop_operation_xyz
x,y,z
1/2-x,-y,z
1/2+x,-y,-z
-x,y,-z
-x,-y,-z
1/2+x,y,-z
1/2-x,y,z
x,-y,z
loop_
_atom_site_type_symbol
_atom_site_label
_atom_site_fract_x
_atom_site_fract_y
_atom_site_fract_z
Si Si1 0.074383 0.500000 0.927976
Si Si2 0.075683 0.307969 0.292245
Si Si3 0.078941 0.805851 0.149375
Si Si4 0.413751 0.292619 0.436547
O O1 0.250000 0.500000 0.934952
O O2 0.024236 0.673425 0.889963
O O3 0.000000 0.500000 0.000000
O O4 0.250000 0.319690 0.301395
O O5 0.011717 0.500000 0.277733
O O6 0.033896 0.190445 0.228312
O O7 0.015245 0.234563 0.364098
O O8 0.250000 0.748942 0.141254
O O9 0.054228 0.000000 0.120939
O O10 0.500000 0.213591 0.500000
O O11 0.250000 0.218045 0.443286
O O12 0.414351 0.500000 0.438339
#
# Coordination Sequence:
#
# PCOD8212797 Si02
#       4
#     4   8   8   8
#     4  12  26  44  66  90 121 156 187 228 279 338
#     4   8  13  25  48  74 105 143 185 232 283 337
#     4  10  20  37  64  93 119 151 193 240 287 339
#     4   8  13  21  36  61  94 136 182 230 278 327
#
# _framework density 20.126809000000002
#
# number of rings (size 3 to 8) (size 9 to 14) (size 15 to 20)
#    0.000    2.857    1.429    3.000    0.000    1.143 
#    0.000    1.429    0.000    0.857    0.000    0.000 
#    0.000    0.000    0.000    0.000    0.000    0.000 
#
# Total GULP energy -346881.117091 kJ/mol
# GULP energy per Si atom -12388.611325 kJ/mol
# Density = 2.008100 g / cm^3
# Si number density = 20.126809 Si / 1000 Ang^3
#
#
#
# Elastic Constant Matrix: (Units=GPa)
#
#
# Indices 1 2 3 4 5 6 
#
# 1 88.2777 36.5060 61.5770 0.0000 0.0000 0.0000
# 2 36.5060 80.0467 43.6290 0.0000 0.0000 0.0000
# 3 61.5770 43.6290 160.4182 0.0000 0.0000 0.0000
# 4 0.0000 0.0000 0.0000 0.4682 0.0000 0.0000
# 5 0.0000 0.0000 0.0000 0.0000 32.0880 0.0000
# 6 0.0000 0.0000 0.0000 0.0000 0.0000 11.7427
#
#
#
# Elastic Compliance Matrix: (Units=1/GPa)
#
#
# Indices 1 2 3 4 5 6 
#
# 1 0.016974 -0.004919 -0.005178 0.000000 0.000000 0.000000
# 2 -0.004919 0.016092 -0.002488 0.000000 0.000000 0.000000
# 3 -0.005178 -0.002488 0.008898 0.000000 0.000000 0.000000
# 4 0.000000 0.000000 0.000000 2.135813 0.000000 0.000000
# 5 0.000000 0.000000 0.000000 0.000000 0.031164 0.000000
# 6 0.000000 0.000000 0.000000 0.000000 0.000000 0.085160
#
#
# Mechanical properties :
#
#
# Convention : Reuss Voigt Hill
#
# Bulk Modulus (GPa) = 59.54546 68.01850 63.78198
# Shear Modulus (GPa) = 2.15066 21.32848 11.73957
#
# Velocity S-wave (km/s) = 1.03483 3.25884 2.41774
# Velocity P-wave (km/s) = 5.57469 6.93025 6.28910
#
# Compressibility (1/GPa) = 0.01679389
#
# Stress axis : x y z
#
# Youngs Moduli (GPa) = 58.91502 62.14119 112.38579
#
# Poissons Ratio (x) = 0.30567 0.58188
# Poissons Ratio (y) = 0.28980 0.27967
# Poissons Ratio (z) = 0.30504 0.15464
#
# Static dielectric constant tensor:
#      x y z
#    x 3.269430 0.000000 0.000000 
#    y 0.000000 3.348780 0.000000 
#    z 0.000000 0.000000 4.126340 
# 
# 
# High freq. dielectric constant tensor:
#      x y z
#    x 1.731250 0.000000 0.000000 
#    y 0.000000 1.763710 0.000000 
#    z 0.000000 0.000000 1.804180 
# 
# From -- ./inp_files/31059.got.cif
#   From: 2010.03.12/outbox.cif.g09.slc.cpg/sg51_16_cif.got.tgz:31059.got - 2010.04.16 13:43:02.
