data_PCOD8212327
_publ_section_title
;
Structure prediction by ZEFSAII (Michael W. Deem and Ramdas Pophale) SiO2 
 PCOD8212327
Probable space group: P M M A
;
_chemical_formula_sum "Si O2"
_cell_formula_units_Z 56
_cell_length_a 8.669781
_cell_length_b 19.720904
_cell_length_c 15.700013
_cell_angle_alpha 90.000000
_cell_angle_beta 90.000000
_cell_angle_gamma 90.000000
_cell_volume 2684.324148
_symmetry_space_group_name_H-M "P M M A"
_symmetry_group_IT_number 51
_symmetry_cell_setting 'orthorhombic'
loop_
_space_group_symop_operation_xyz
x,y,z
1/2-x,-y,z
1/2+x,-y,-z
-x,y,-z
-x,-y,-z
1/2+x,y,-z
1/2-x,y,z
x,-y,z
loop_
_atom_site_type_symbol
_atom_site_label
_atom_site_fract_x
_atom_site_fract_y
_atom_site_fract_z
Si Si1 0.570458 0.072704 0.254869
Si Si2 0.081735 0.922704 0.079464
Si Si3 0.072706 0.576524 0.642292
Si Si4 0.430941 0.712821 0.091378
Si Si5 0.928793 0.704057 0.585821
Si Si6 0.072709 0.424465 0.177393
Si Si7 0.566831 0.780473 0.257708
O O1 0.750000 0.065954 0.271206
O O2 0.537875 0.081840 0.155774
O O3 0.511222 0.144455 0.292813
O O4 0.494550 0.000000 0.287577
O O5 0.250000 0.889175 0.100036
O O6 0.112765 0.000000 0.054193
O O7 0.000000 0.884695 0.000000
O O8 0.250000 0.597711 0.627501
O O9 0.040884 0.500000 0.612621
O O10 0.961705 0.623549 0.585126
O O11 0.036516 0.585040 0.741838
O O12 0.250000 0.724117 0.087896
O O13 0.472379 0.633803 0.110000
O O14 0.495561 0.761755 0.165911
O O15 0.500000 0.732829 0.000000
O O16 0.750000 0.721485 0.589579
O O17 0.000000 0.737006 0.500000
O O18 0.012342 0.729279 0.670565
O O19 0.250000 0.415269 0.207250
O O20 0.048106 0.500000 0.137442
O O21 0.750000 0.778380 0.248031
#
# Coordination Sequence:
#
# PCOD8212327 Si02
#       7
#     8   8   8   8   8   8   8
#     4   9  19  36  58  83 110 144 185 231 291 358
#     4   9  16  26  43  69 102 139 179 225 275 330
#     4  10  20  35  59  91 125 161 201 246 298 354
#     4  11  23  38  58  85 119 163 210 257 304 358
#     4  12  25  42  65  92 123 161 202 246 296 357
#     4   9  18  34  56  82 115 158 205 253 304 353
#     4  11  23  41  64  89 121 156 195 248 302 361
#
# _framework density 20.861861999999999
#
# number of rings (size 3 to 8) (size 9 to 14) (size 15 to 20)
#    0.000    1.857    1.429    3.000    0.000    5.429 
#    0.000    0.000    0.000    0.429    0.000    0.000 
#    0.000    0.000    0.000    0.000    0.000    0.000 
#
# Total GULP energy -693842.568504 kJ/mol
# GULP energy per Si atom -12390.045866 kJ/mol
# Density = 2.081438 g / cm^3
# Si number density = 20.861862 Si / 1000 Ang^3
#
#
#
# Elastic Constant Matrix: (Units=GPa)
#
#
# Indices 1 2 3 4 5 6 
#
# 1 66.1010 29.2708 19.7238 0.0000 0.0000 0.0000
# 2 29.2708 121.1372 22.1538 0.0000 0.0000 0.0000
# 3 19.7238 22.1538 78.6775 0.0000 0.0000 0.0000
# 4 0.0000 0.0000 0.0000 -8.2562 0.0000 0.0000
# 5 0.0000 0.0000 0.0000 0.0000 29.9899 0.0000
# 6 0.0000 0.0000 0.0000 0.0000 0.0000 16.1710
#
#
#
# Elastic Compliance Matrix: (Units=1/GPa)
#
#
# Indices 1 2 3 4 5 6 
#
# 1 0.017774 -0.003669 -0.003423 0.000000 0.000000 0.000000
# 2 -0.003669 0.009461 -0.001744 0.000000 0.000000 0.000000
# 3 -0.003423 -0.001744 0.014059 0.000000 0.000000 0.000000
# 4 0.000000 0.000000 0.000000 -0.121121 0.000000 0.000000
# 5 0.000000 0.000000 0.000000 0.000000 0.033345 0.000000
# 6 0.000000 0.000000 0.000000 0.000000 0.000000 0.061839
#
#
# Mechanical properties :
#
#
# Convention : Reuss Voigt Hill
#
# Bulk Modulus (GPa) = 42.33241 45.35695 43.84468
# Shear Modulus (GPa) = 122.24005 20.56540 71.40272
#
# Velocity S-wave (km/s) = 7.66304 3.14313 5.85668
# Velocity P-wave (km/s) = 9.93137 5.91280 8.17292
#
# Compressibility (1/GPa) = 0.02362256
#
# Stress axis : x y z
#
# Youngs Moduli (GPa) = 56.26082 105.70149 71.12730
#
# Poissons Ratio (x) = 0.38781 0.24346
# Poissons Ratio (y) = 0.20642 0.12406
# Poissons Ratio (z) = 0.19257 0.18436
#
# Static dielectric constant tensor:
#      x y z
#    x 3.820410 0.000000 0.000000 
#    y 0.000000 4.355870 0.000000 
#    z 0.000000 0.000000 3.451820 
# 
# 
# High freq. dielectric constant tensor:
#      x y z
#    x 1.817350 0.000000 0.000000 
#    y 0.000000 1.830350 0.000000 
#    z 0.000000 0.000000 1.779080 
# 
# From -- ./inp_files/21768.got.cif
#   From: 2010.03.12/outbox.cif.g09.slc.cpg/sg51_11_cif.got.tgz:21768.got - 2010.04.16 13:43:02.
