data_PCOD8212231
_publ_section_title
;
Structure prediction by ZEFSAII (Michael W. Deem and Ramdas Pophale) SiO2 
 PCOD8212231
Probable space group: P M M A
;
_chemical_formula_sum "Si O2"
_cell_formula_units_Z 40
_cell_length_a 15.572169
_cell_length_b 9.373168
_cell_length_c 14.490713
_cell_angle_alpha 90.000000
_cell_angle_beta 90.000000
_cell_angle_gamma 90.000000
_cell_volume 2115.072529
_symmetry_space_group_name_H-M "P M M A"
_symmetry_group_IT_number 51
_symmetry_cell_setting 'orthorhombic'
loop_
_space_group_symop_operation_xyz
x,y,z
1/2-x,-y,z
1/2+x,-y,-z
-x,y,-z
-x,-y,-z
1/2+x,y,-z
1/2-x,y,z
x,-y,z
loop_
_atom_site_type_symbol
_atom_site_label
_atom_site_fract_x
_atom_site_fract_y
_atom_site_fract_z
Si Si1 0.346350 0.333867 0.792805
Si Si2 0.505228 0.831791 0.105716
Si Si3 0.344866 0.836251 0.226379
Si Si4 0.907154 0.667721 0.401370
Si Si5 0.601330 0.331132 0.602904
O O1 0.250000 0.305812 0.829097
O O2 0.371423 0.500000 0.801113
O O3 0.411853 0.243068 0.852164
O O4 0.349270 0.285268 0.685212
O O5 0.417741 0.780009 0.155882
O O6 0.518344 0.000000 0.115210
O O7 0.500000 0.783989 0.000000
O O8 0.250000 0.819360 0.180617
O O9 0.342597 0.747388 0.320699
O O10 0.363590 0.000000 0.251145
O O11 0.912935 0.500000 0.411207
O O12 0.869176 0.720442 0.499947
O O13 0.003603 0.721960 0.383514
O O14 0.612791 0.500000 0.616692
#
# Coordination Sequence:
#
# PCOD8212231 Si02
#       5
#     8   8   8   8   8
#     4  10  20  35  57  84 113 143 175 218 271 319
#     4  10  22  40  60  79 102 139 183 226 274 324
#     4  10  21  36  53  77 109 140 174 222 276 321
#     4   8  15  29  51  80 111 141 175 215 257 306
#     4   9  16  30  54  80 106 142 183 217 253 309
#
# _framework density 18.91188
#
# number of rings (size 3 to 8) (size 9 to 14) (size 15 to 20)
#    0.000    2.600    2.000    1.200    0.000    2.800 
#    0.000    7.000    0.000    0.000    0.000    0.000 
#    0.000    0.000    0.000    0.000    0.000    0.000 
#
# Total GULP energy -495766.744688 kJ/mol
# GULP energy per Si atom -12394.168617 kJ/mol
# Density = 1.886884 g / cm^3
# Si number density = 18.911880 Si / 1000 Ang^3
#
#
#
# Elastic Constant Matrix: (Units=GPa)
#
#
# Indices 1 2 3 4 5 6 
#
# 1 113.5630 31.8996 63.8312 0.0000 0.0000 0.0000
# 2 31.8996 35.6603 40.2218 0.0000 0.0000 0.0000
# 3 63.8312 40.2218 135.4627 0.0000 0.0000 0.0000
# 4 0.0000 0.0000 0.0000 26.5419 0.0000 0.0000
# 5 0.0000 0.0000 0.0000 0.0000 10.8466 0.0000
# 6 0.0000 0.0000 0.0000 0.0000 0.0000 26.0819
#
#
#
# Elastic Compliance Matrix: (Units=1/GPa)
#
#
# Indices 1 2 3 4 5 6 
#
# 1 0.013086 -0.007143 -0.004045 0.000000 0.000000 0.000000
# 2 -0.007143 0.046062 -0.010311 0.000000 0.000000 0.000000
# 3 -0.004045 -0.010311 0.012350 0.000000 0.000000 0.000000
# 4 0.000000 0.000000 0.000000 0.037676 0.000000 0.000000
# 5 0.000000 0.000000 0.000000 0.000000 0.092195 0.000000
# 6 0.000000 0.000000 0.000000 0.000000 0.000000 0.038341
#
#
# Mechanical properties :
#
#
# Convention : Reuss Voigt Hill
#
# Bulk Modulus (GPa) = 35.08881 61.84348 48.46614
# Shear Modulus (GPa) = 17.11109 22.60964 19.86036
#
# Velocity S-wave (km/s) = 3.01122 3.46139 3.24412
# Velocity P-wave (km/s) = 5.53932 6.98189 6.30202
#
# Compressibility (1/GPa) = 0.02849912
#
# Stress axis : x y z
#
# Youngs Moduli (GPa) = 76.41792 21.70984 80.97308
#
# Poissons Ratio (x) = 0.15508 0.32755
# Poissons Ratio (y) = 0.54587 0.83490
# Poissons Ratio (z) = 0.30913 0.22385
#
# Static dielectric constant tensor:
#      x y z
#    x 3.487200 0.000000 0.000000 
#    y 0.000000 3.128790 0.000000 
#    z 0.000000 0.000000 3.680960 
# 
# 
# High freq. dielectric constant tensor:
#      x y z
#    x 1.737370 0.000000 0.000000 
#    y 0.000000 1.700070 0.000000 
#    z 0.000000 0.000000 1.735880 
# 
# From -- ./inp_files/23683.got.cif
#   From: 2010.03.12/outbox.cif.g09.slc.cpg/sg51_12_cif.got.tgz:23683.got - 2010.04.16 13:43:02.
