data_PCOD8212234
_publ_section_title
;
Structure prediction by ZEFSAII (Michael W. Deem and Ramdas Pophale) SiO2 
 PCOD8212234
Probable space group: P M M A
;
_chemical_formula_sum "Si O2"
_cell_formula_units_Z 48
_cell_length_a 17.919889
_cell_length_b 8.940608
_cell_length_c 15.297085
_cell_angle_alpha 90.000000
_cell_angle_beta 90.000000
_cell_angle_gamma 90.000000
_cell_volume 2450.817929
_symmetry_space_group_name_H-M "P M M A"
_symmetry_group_IT_number 51
_symmetry_cell_setting 'orthorhombic'
loop_
_space_group_symop_operation_xyz
x,y,z
1/2-x,-y,z
1/2+x,-y,-z
-x,y,-z
-x,-y,-z
1/2+x,y,-z
1/2-x,y,z
x,-y,z
loop_
_atom_site_type_symbol
_atom_site_label
_atom_site_fract_x
_atom_site_fract_y
_atom_site_fract_z
Si Si1 0.335628 0.328407 0.012933
Si Si2 0.661651 0.164801 0.498227
Si Si3 0.162414 0.327449 0.330579
Si Si4 0.664029 0.175678 0.303845
Si Si5 0.088409 0.176444 0.169056
Si Si6 0.570043 0.676343 0.154560
O O1 0.250000 0.307252 0.986173
O O2 0.353100 0.500000 0.037971
O O3 0.352477 0.226174 0.096180
O O4 0.384046 0.275318 0.930805
O O5 0.750000 0.153228 0.495530
O O6 0.635628 0.281555 0.572061
O O7 0.635695 0.216414 0.401788
O O8 0.628894 0.000000 0.520096
O O9 0.250000 0.295632 0.317898
O O10 0.143182 0.500000 0.315532
O O11 0.116407 0.228864 0.263191
O O12 0.750000 0.223017 0.290172
O O13 0.612857 0.270267 0.240088
O O14 0.653924 0.000000 0.285843
O O15 0.009482 0.247324 0.146153
O O16 0.080732 0.000000 0.169795
O O17 0.559289 0.500000 0.159827
#
# Coordination Sequence:
#
# PCOD8212234 Si02
#       6
#     8   8   8   8   8   8
#     4  10  22  41  63  86 112 143 181 226 276 330
#     4   8  15  30  53  81 113 148 185 227 276 327
#     4  10  20  35  57  84 113 146 186 233 281 330
#     4   9  18  34  57  85 117 151 187 230 278 328
#     4  12  25  39  57  82 113 149 187 229 279 333
#     4  11  23  39  59  83 114 151 188 228 276 330
#
# _framework density 19.585298999999999
#
# number of rings (size 3 to 8) (size 9 to 14) (size 15 to 20)
#    0.000    2.000    0.000    5.000    0.000    8.333 
#    0.000    2.500    0.000    5.000    0.000    0.000 
#    0.000    0.000    0.000    0.000    0.000    0.000 
#
# Total GULP energy -595309.994009 kJ/mol
# GULP energy per Si atom -12402.291542 kJ/mol
# Density = 1.954072 g / cm^3
# Si number density = 19.585299 Si / 1000 Ang^3
#
#
#
# Elastic Constant Matrix: (Units=GPa)
#
#
# Indices 1 2 3 4 5 6 
#
# 1 64.3343 29.7640 26.3015 0.0000 0.0000 0.0000
# 2 29.7640 81.8567 42.7366 0.0000 0.0000 0.0000
# 3 26.3015 42.7366 114.1907 0.0000 0.0000 0.0000
# 4 0.0000 0.0000 0.0000 33.6307 0.0000 0.0000
# 5 0.0000 0.0000 0.0000 0.0000 26.1752 0.0000
# 6 0.0000 0.0000 0.0000 0.0000 0.0000 29.8123
#
#
#
# Elastic Compliance Matrix: (Units=1/GPa)
#
#
# Indices 1 2 3 4 5 6 
#
# 1 0.019138 -0.005788 -0.002242 0.000000 0.000000 0.000000
# 2 -0.005788 0.016934 -0.005004 0.000000 0.000000 0.000000
# 3 -0.002242 -0.005004 0.011147 0.000000 0.000000 0.000000
# 4 0.000000 0.000000 0.000000 0.029735 0.000000 0.000000
# 5 0.000000 0.000000 0.000000 0.000000 0.038204 0.000000
# 6 0.000000 0.000000 0.000000 0.000000 0.000000 0.033543
#
#
# Mechanical properties :
#
#
# Convention : Reuss Voigt Hill
#
# Bulk Modulus (GPa) = 47.28228 50.88733 49.08481
# Shear Modulus (GPa) = 27.49974 28.69562 28.09768
#
# Velocity S-wave (km/s) = 3.75120 3.83190 3.79176
# Velocity P-wave (km/s) = 6.55409 6.75401 6.65480
#
# Compressibility (1/GPa) = 0.02114957
#
# Stress axis : x y z
#
# Youngs Moduli (GPa) = 52.25123 59.05292 89.71385
#
# Poissons Ratio (x) = 0.34183 0.20112
# Poissons Ratio (y) = 0.30246 0.44896
# Poissons Ratio (z) = 0.11713 0.29552
#
# Static dielectric constant tensor:
#      x y z
#    x 3.435880 0.000000 0.000000 
#    y 0.000000 3.566470 0.000000 
#    z 0.000000 0.000000 3.818010 
# 
# 
# High freq. dielectric constant tensor:
#      x y z
#    x 1.748110 0.000000 0.000000 
#    y 0.000000 1.762030 0.000000 
#    z 0.000000 0.000000 1.779000 
# 
# From -- ./inp_files/24766.got.cif
#   From: 2010.03.12/outbox.cif.g09.slc.cpg/sg51_13_cif.got.tgz:24766.got - 2010.04.16 13:43:02.
