data_PCOD8212554
_publ_section_title
;
Structure prediction by ZEFSAII (Michael W. Deem and Ramdas Pophale) SiO2 
 PCOD8212554
Probable space group: P M M A
;
_chemical_formula_sum "Si O2"
_cell_formula_units_Z 64
_cell_length_a 8.643466
_cell_length_b 23.884708
_cell_length_c 15.249216
_cell_angle_alpha 90.000000
_cell_angle_beta 90.000000
_cell_angle_gamma 90.000000
_cell_volume 3148.149734
_symmetry_space_group_name_H-M "P M M A"
_symmetry_group_IT_number 51
_symmetry_cell_setting 'orthorhombic'
loop_
_space_group_symop_operation_xyz
x,y,z
1/2-x,-y,z
1/2+x,-y,-z
-x,y,-z
-x,-y,-z
1/2+x,y,-z
1/2-x,y,z
x,-y,z
loop_
_atom_site_type_symbol
_atom_site_label
_atom_site_fract_x
_atom_site_fract_y
_atom_site_fract_z
Si Si1 0.431905 0.851653 0.592967
Si Si2 0.570477 0.935387 0.728024
Si Si3 0.570000 0.559904 0.235256
Si Si4 0.567148 0.240053 0.909070
Si Si5 0.919119 0.435990 0.582881
Si Si6 0.934030 0.319532 0.235904
Si Si7 0.566461 0.732378 0.595109
Si Si8 0.568977 0.112117 0.910701
O O1 0.500000 0.871150 0.500000
O O2 0.250000 0.842564 0.583733
O O3 0.466620 0.899622 0.662841
O O4 0.508181 0.793724 0.624245
O O5 0.750000 0.918220 0.717371
O O6 0.513874 0.923799 0.827335
O O7 0.543799 0.000000 0.705630
O O8 0.750000 0.553342 0.219819
O O9 0.492905 0.500000 0.201695
O O10 0.536421 0.568145 0.337139
O O11 0.515026 0.619369 0.194078
O O12 0.750000 0.247515 0.907708
O O13 0.494218 0.272357 0.828260
O O14 0.513631 0.176001 0.897826
O O15 0.500000 0.264379 0.000000
O O16 0.750000 0.408028 0.602612
O O17 0.888483 0.500000 0.558004
O O18 0.000000 0.405307 0.500000
O O19 0.750000 0.315973 0.245587
O O20 0.009315 0.312093 0.332262
O O21 0.500000 0.716118 0.500000
O O22 0.750000 0.732961 0.590957
O O23 0.750000 0.109335 0.921427
O O24 0.500000 0.086281 0.000000
#
# Coordination Sequence:
#
# PCOD8212554 Si02
#       8
#     8   8   8   8   8   8   8   8
#     4  11  22  38  60  83 110 146 190 240 292 341
#     4  10  21  37  56  81 116 156 196 236 278 328
#     4   9  19  35  52  71 100 139 179 219 267 325
#     4  10  20  36  59  86 115 145 182 231 286 341
#     4   9  16  26  42  63  88 122 166 213 256 301
#     4  11  22  36  57  85 114 145 184 230 281 336
#     4  11  22  38  59  84 115 149 188 233 285 342
#     4   9  19  35  56  82 112 147 183 223 273 329
#
# _framework density 20.329402999999999
#
# number of rings (size 3 to 8) (size 9 to 14) (size 15 to 20)
#    0.000    2.000    0.000    4.875    0.000    5.750 
#    0.000    0.000    0.000    0.375    0.000    0.000 
#    0.000    0.000    0.000    0.000    0.000    0.000 
#
# Total GULP energy -793224.793807 kJ/mol
# GULP energy per Si atom -12394.137403 kJ/mol
# Density = 2.028313 g / cm^3
# Si number density = 20.329403 Si / 1000 Ang^3
#
#
#
# Elastic Constant Matrix: (Units=GPa)
#
#
# Indices 1 2 3 4 5 6 
#
# 1 89.8355 33.7242 25.0631 0.0000 0.0000 0.0000
# 2 33.7242 92.8440 27.6535 0.0000 0.0000 0.0000
# 3 25.0631 27.6535 68.9481 0.0000 0.0000 0.0000
# 4 0.0000 0.0000 0.0000 8.1291 0.0000 0.0000
# 5 0.0000 0.0000 0.0000 0.0000 34.0837 0.0000
# 6 0.0000 0.0000 0.0000 0.0000 0.0000 17.0008
#
#
#
# Elastic Compliance Matrix: (Units=1/GPa)
#
#
# Indices 1 2 3 4 5 6 
#
# 1 0.013537 -0.003920 -0.003349 0.000000 0.000000 0.000000
# 2 -0.003920 0.013367 -0.003936 0.000000 0.000000 0.000000
# 3 -0.003349 -0.003936 0.017300 0.000000 0.000000 0.000000
# 4 0.000000 0.000000 0.000000 0.123015 0.000000 0.000000
# 5 0.000000 0.000000 0.000000 0.000000 0.029340 0.000000
# 6 0.000000 0.000000 0.000000 0.000000 0.000000 0.058821
#
#
# Mechanical properties :
#
#
# Convention : Reuss Voigt Hill
#
# Bulk Modulus (GPa) = 45.88367 47.16768 46.52567
# Shear Modulus (GPa) = 17.54057 22.85516 20.19787
#
# Velocity S-wave (km/s) = 2.94056 3.35661 3.15545
# Velocity P-wave (km/s) = 5.84366 6.18664 6.01759
#
# Compressibility (1/GPa) = 0.02179425
#
# Stress axis : x y z
#
# Youngs Moduli (GPa) = 73.87055 74.81112 57.80436
#
# Poissons Ratio (x) = 0.29324 0.19357
# Poissons Ratio (y) = 0.28956 0.22754
# Poissons Ratio (z) = 0.24737 0.29448
#
# Static dielectric constant tensor:
#      x y z
#    x 3.770740 0.000000 0.000000 
#    y 0.000000 3.966150 0.000000 
#    z 0.000000 0.000000 3.480480 
# 
# 
# High freq. dielectric constant tensor:
#      x y z
#    x 1.795430 0.000000 0.000000 
#    y 0.000000 1.801150 0.000000 
#    z 0.000000 0.000000 1.772990 
# 
# From -- ./inp_files/22298.got.cif
#   From: 2010.03.12/outbox.cif.g09.slc.cpg/sg51_12_cif.got.tgz:22298.got - 2010.04.16 13:43:02.
