data_PCOD8212297
_publ_section_title
;
Structure prediction by ZEFSAII (Michael W. Deem and Ramdas Pophale) SiO2 
 PCOD8212297
Probable space group: P M M A
;
_chemical_formula_sum "Si O2"
_cell_formula_units_Z 64
_cell_length_a 15.411023
_cell_length_b 23.430494
_cell_length_c 8.057152
_cell_angle_alpha 90.000000
_cell_angle_beta 90.000000
_cell_angle_gamma 90.000000
_cell_volume 2909.339950
_symmetry_space_group_name_H-M "P M M A"
_symmetry_group_IT_number 51
_symmetry_cell_setting 'orthorhombic'
loop_
_space_group_symop_operation_xyz
x,y,z
1/2-x,-y,z
1/2+x,-y,-z
-x,y,-z
-x,-y,-z
1/2+x,y,-z
1/2-x,y,z
x,-y,z
loop_
_atom_site_type_symbol
_atom_site_label
_atom_site_fract_x
_atom_site_fract_y
_atom_site_fract_z
Si Si1 0.851752 0.135255 0.893129
Si Si2 0.647555 0.864030 0.519497
Si Si3 0.065568 0.246459 0.625341
Si Si4 0.846418 0.359281 0.710913
Si Si5 0.853616 0.064729 0.206191
Si Si6 0.345988 0.355239 0.679245
Si Si7 0.567719 0.749138 0.873619
Si Si8 0.503290 0.564216 0.195245
O O1 0.750000 0.126616 0.893291
O O2 0.886366 0.119953 0.705883
O O3 0.871693 0.200760 0.945209
O O4 0.891181 0.095265 0.039283
O O5 0.750000 0.866270 0.520995
O O6 0.621856 0.799458 0.473433
O O7 0.610748 0.906120 0.376512
O O8 0.123044 0.291614 0.730931
O O9 0.000000 0.280828 0.500000
O O10 0.997102 0.216769 0.748764
O O11 0.750000 0.375611 0.777967
O O12 0.841476 0.350813 0.516701
O O13 0.874135 0.300264 0.795765
O O14 0.913299 0.409825 0.742969
O O15 0.750000 0.067949 0.206005
O O16 0.887129 0.000000 0.204609
O O17 0.250000 0.367843 0.753683
O O18 0.412011 0.402699 0.742140
O O19 0.500000 0.719440 0.000000
O O20 0.510150 0.500000 0.264888
O O21 0.500000 0.564983 0.000000
#
# Coordination Sequence:
#
# PCOD8212297 Si02
#       8
#     8   8   8   8   8   8   8   8
#     4  10  20  36  58  87 120 160 212 267 326 393
#     4  10  20  35  58  88 119 159 210 264 327 393
#     4  12  20  36  60  88 128 163 204 256 321 393
#     4  11  23  41  65  95 130 168 216 267 322 384
#     4   9  19  36  57  85 121 158 208 271 326 386
#     4  11  23  41  67  97 129 167 213 266 321 384
#     4  12  23  37  59  91 129 167 208 259 326 393
#     4  11  25  46  67  93 132 173 218 268 319 380
#
# _framework density 21.998117000000001
#
# number of rings (size 3 to 8) (size 9 to 14) (size 15 to 20)
#    0.000    1.250    3.750    2.250    0.000    4.500 
#    0.000    6.250    0.000    3.750    0.000    0.000 
#    0.000    0.000    0.000    0.000    0.000    0.000 
#
# Total GULP energy -792967.866580 kJ/mol
# GULP energy per Si atom -12390.122915 kJ/mol
# Density = 2.194805 g / cm^3
# Si number density = 21.998117 Si / 1000 Ang^3
#
#
#
# Elastic Constant Matrix: (Units=GPa)
#
#
# Indices 1 2 3 4 5 6 
#
# 1 104.0186 50.8793 35.5932 0.0000 0.0000 0.0000
# 2 50.8793 163.2021 50.7014 0.0000 0.0000 0.0000
# 3 35.5932 50.7014 85.6205 0.0000 0.0000 0.0000
# 4 0.0000 0.0000 0.0000 33.9499 0.0000 0.0000
# 5 0.0000 0.0000 0.0000 0.0000 18.7627 0.0000
# 6 0.0000 0.0000 0.0000 0.0000 0.0000 25.1376
#
#
#
# Elastic Compliance Matrix: (Units=1/GPa)
#
#
# Indices 1 2 3 4 5 6 
#
# 1 0.012113 -0.002711 -0.003430 0.000000 0.000000 0.000000
# 2 -0.002711 0.008115 -0.003679 0.000000 0.000000 0.000000
# 3 -0.003430 -0.003679 0.015284 0.000000 0.000000 0.000000
# 4 0.000000 0.000000 0.000000 0.029455 0.000000 0.000000
# 5 0.000000 0.000000 0.000000 0.000000 0.053297 0.000000
# 6 0.000000 0.000000 0.000000 0.000000 0.000000 0.039781
#
#
# Mechanical properties :
#
#
# Convention : Reuss Voigt Hill
#
# Bulk Modulus (GPa) = 63.00068 69.68766 66.34417
# Shear Modulus (GPa) = 27.32586 29.94786 28.63686
#
# Velocity S-wave (km/s) = 3.52830 3.69369 3.61194
# Velocity P-wave (km/s) = 6.73051 7.06674 6.90068
#
# Compressibility (1/GPa) = 0.01587285
#
# Stress axis : x y z
#
# Youngs Moduli (GPa) = 82.55306 123.22385 65.42812
#
# Poissons Ratio (x) = 0.33402 0.22445
# Poissons Ratio (y) = 0.22378 0.24069
# Poissons Ratio (z) = 0.28320 0.45331
#
# Static dielectric constant tensor:
#      x y z
#    x 4.166470 0.000000 0.000000 
#    y 0.000000 3.872850 0.000000 
#    z 0.000000 0.000000 4.569960 
# 
# 
# High freq. dielectric constant tensor:
#      x y z
#    x 1.864640 0.000000 0.000000 
#    y 0.000000 1.843740 0.000000 
#    z 0.000000 0.000000 1.880930 
# 
# From -- ./inp_files/8707.got.cif
#   From: 2010.03.12/outbox.cif.g09.slc.cpg/sg51_5_cif.got.tgz:8707.got - 2010.04.16 13:43:02.
