data_PCOD8212814
_publ_section_title
;
Structure prediction by ZEFSAII (Michael W. Deem and Ramdas Pophale) SiO2 
 PCOD8212814
Probable space group: P M M A
;
_chemical_formula_sum "Si O2"
_cell_formula_units_Z 56
_cell_length_a 19.830719
_cell_length_b 14.570299
_cell_length_c 9.982024
_cell_angle_alpha 90.000000
_cell_angle_beta 90.000000
_cell_angle_gamma 90.000000
_cell_volume 2884.201076
_symmetry_space_group_name_H-M "P M M A"
_symmetry_group_IT_number 51
_symmetry_cell_setting 'orthorhombic'
loop_
_space_group_symop_operation_xyz
x,y,z
1/2-x,-y,z
1/2+x,-y,-z
-x,y,-z
-x,-y,-z
1/2+x,y,-z
1/2-x,y,z
x,-y,z
loop_
_atom_site_type_symbol
_atom_site_label
_atom_site_fract_x
_atom_site_fract_y
_atom_site_fract_z
Si Si1 0.827878 0.600098 0.458870
Si Si2 0.555495 0.782779 0.813779
Si Si3 0.927322 0.891603 0.553804
Si Si4 0.096164 0.227558 0.897160
Si Si5 0.670384 0.206796 0.354020
Si Si6 0.324828 0.602897 0.965794
Si Si7 0.122277 0.601313 0.249456
O O1 0.750000 0.592501 0.426396
O O2 0.861173 0.500000 0.420959
O O3 0.855527 0.687556 0.375794
O O4 0.837111 0.621139 0.615447
O O5 0.583055 0.851545 0.702111
O O6 0.476210 0.791189 0.834135
O O7 0.565018 0.677545 0.769225
O O8 0.596488 0.809268 0.949856
O O9 0.867302 0.858122 0.458828
O O10 0.000000 0.858340 0.500000
O O11 0.923550 0.000000 0.563687
O O12 0.149493 0.177512 0.797892
O O13 0.116851 0.334838 0.901877
O O14 0.750000 0.194704 0.375927
O O15 0.250000 0.635912 0.919697
O O16 0.338161 0.500000 0.913618
O O17 0.325357 0.606905 0.127009
O O18 0.088060 0.500000 0.253247
#
# Coordination Sequence:
#
# PCOD8212814 Si02
#       7
#     8   8   8   8   8   8   8
#     4   9  17  29  49  80 116 154 195 238 288 347
#     4  10  20  38  59  85 120 155 203 246 292 358
#     4  11  23  43  69  91 114 150 198 253 308 371
#     4  10  21  35  55  83 121 157 196 245 298 356
#     4  11  22  38  61  90 125 159 194 249 307 356
#     4   9  17  29  47  74 113 162 208 242 284 350
#     4   9  16  28  50  79 113 153 196 243 290 338
#
# _framework density 19.416121
#
# number of rings (size 3 to 8) (size 9 to 14) (size 15 to 20)
#    0.000    2.143    2.857    0.857    0.000    3.143 
#    0.000    7.143    0.000    2.571    0.000    0.000 
#    0.000    0.000    0.000    0.000    0.000    0.000 
#
# Total GULP energy -693933.182377 kJ/mol
# GULP energy per Si atom -12391.663971 kJ/mol
# Density = 1.937193 g / cm^3
# Si number density = 19.416121 Si / 1000 Ang^3
#
#
#
# Elastic Constant Matrix: (Units=GPa)
#
#
# Indices 1 2 3 4 5 6 
#
# 1 74.1841 34.8268 45.2053 0.0000 0.0000 0.0000
# 2 34.8268 70.3229 44.8443 0.0000 0.0000 0.0000
# 3 45.2053 44.8443 130.2842 0.0000 0.0000 0.0000
# 4 0.0000 0.0000 0.0000 6.2561 0.0000 0.0000
# 5 0.0000 0.0000 0.0000 0.0000 22.8172 0.0000
# 6 0.0000 0.0000 0.0000 0.0000 0.0000 23.1688
#
#
#
# Elastic Compliance Matrix: (Units=1/GPa)
#
#
# Indices 1 2 3 4 5 6 
#
# 1 0.019329 -0.006785 -0.004371 0.000000 0.000000 0.000000
# 2 -0.006785 0.020601 -0.004737 0.000000 0.000000 0.000000
# 3 -0.004371 -0.004737 0.010823 0.000000 0.000000 0.000000
# 4 0.000000 0.000000 0.000000 0.159845 0.000000 0.000000
# 5 0.000000 0.000000 0.000000 0.000000 0.043826 0.000000
# 6 0.000000 0.000000 0.000000 0.000000 0.000000 0.043162
#
#
# Mechanical properties :
#
#
# Convention : Reuss Voigt Hill
#
# Bulk Modulus (GPa) = 52.72421 58.28270 55.50346
# Shear Modulus (GPa) = 14.89455 20.44274 17.66865
#
# Velocity S-wave (km/s) = 2.77270 3.24832 3.01989
# Velocity P-wave (km/s) = 6.12081 6.64467 6.38811
#
# Compressibility (1/GPa) = 0.01896662
#
# Stress axis : x y z
#
# Youngs Moduli (GPa) = 51.73576 48.54163 92.39909
#
# Poissons Ratio (x) = 0.32936 0.40390
# Poissons Ratio (y) = 0.35103 0.43766
# Poissons Ratio (z) = 0.22615 0.22993
#
# Static dielectric constant tensor:
#      x y z
#    x 3.340680 0.000000 0.000000 
#    y 0.000000 3.495090 0.000000 
#    z 0.000000 0.000000 3.796100 
# 
# 
# High freq. dielectric constant tensor:
#      x y z
#    x 1.733250 0.000000 0.000000 
#    y 0.000000 1.731700 0.000000 
#    z 0.000000 0.000000 1.774960 
# 
# From -- ./inp_files/11042.got.cif
#   From: 2010.03.12/outbox.cif.g09.slc.cpg/sg51_6_cif.got.tgz:11042.got - 2010.04.16 13:43:02.
