data_PCOD8212178
_publ_section_title
;
Structure prediction by ZEFSAII (Michael W. Deem and Ramdas Pophale) SiO2 
 PCOD8212178
Probable space group: P M M A
;
_chemical_formula_sum "Si O2"
_cell_formula_units_Z 64
_cell_length_a 18.926505
_cell_length_b 14.443205
_cell_length_c 12.256188
_cell_angle_alpha 90.000000
_cell_angle_beta 90.000000
_cell_angle_gamma 90.000000
_cell_volume 3350.344096
_symmetry_space_group_name_H-M "P M M A"
_symmetry_group_IT_number 51
_symmetry_cell_setting 'orthorhombic'
loop_
_space_group_symop_operation_xyz
x,y,z
1/2-x,-y,z
1/2+x,-y,-z
-x,y,-z
-x,-y,-z
1/2+x,y,-z
1/2-x,y,z
x,-y,z
loop_
_atom_site_type_symbol
_atom_site_label
_atom_site_fract_x
_atom_site_fract_y
_atom_site_fract_z
Si Si1 0.969959 0.894983 0.890021
Si Si2 0.830159 0.264893 0.091639
Si Si3 0.973668 0.605795 0.611681
Si Si4 0.895124 0.609902 0.260736
Si Si5 0.169585 0.237749 0.597257
Si Si6 0.172047 0.309941 0.367239
Si Si7 0.892057 0.891922 0.232591
Si Si8 0.672061 0.202895 0.857003
O O1 0.892382 0.867090 0.851095
O O2 0.024340 0.881514 0.790334
O O3 0.960942 0.000000 0.923823
O O4 0.000000 0.843468 0.000000
O O5 0.750000 0.286095 0.125582
O O6 0.878520 0.345844 0.143023
O O7 0.850002 0.162814 0.137577
O O8 0.839906 0.269175 0.961535
O O9 0.990471 0.500000 0.593662
O O10 0.890897 0.616393 0.635647
O O11 0.000000 0.657336 0.500000
O O12 0.022931 0.636398 0.713398
O O13 0.879299 0.500000 0.261097
O O14 0.847983 0.660687 0.353180
O O15 0.250000 0.213713 0.625955
O O16 0.157579 0.238681 0.466855
O O17 0.122424 0.156246 0.650676
O O18 0.250000 0.356416 0.384501
O O19 0.170910 0.259920 0.252875
O O20 0.868954 0.000000 0.232948
O O21 0.750000 0.154601 0.868574
#
# Coordination Sequence:
#
# PCOD8212178 Si02
#       8
#     8   8   8   8   8   8   8   8
#     4  10  20  35  56  84 112 144 188 234 284 336
#     4  10  21  36  56  87 116 148 193 231 285 349
#     4  10  20  35  56  84 112 144 188 234 284 336
#     4  10  20  35  57  87 115 142 183 236 291 339
#     4  10  21  36  56  87 116 148 193 231 285 349
#     4  10  22  38  56  80 112 152 193 230 276 338
#     4  10  20  35  57  87 115 142 183 236 291 339
#     4  10  22  38  56  80 112 152 193 230 276 338
#
# _framework density 19.102515
#
# number of rings (size 3 to 8) (size 9 to 14) (size 15 to 20)
#    0.000    2.000    2.500    1.500    3.500    2.500 
#    0.000    3.750    0.000    7.500    0.000    0.000 
#    0.000    0.000    0.000    0.000    0.000    0.000 
#
# Total GULP energy -792978.517967 kJ/mol
# GULP energy per Si atom -12390.289343 kJ/mol
# Density = 1.905904 g / cm^3
# Si number density = 19.102515 Si / 1000 Ang^3
#
#
#
# Elastic Constant Matrix: (Units=GPa)
#
#
# Indices 1 2 3 4 5 6 
#
# 1 139.0601 33.0666 40.5702 0.0000 0.0000 0.0000
# 2 33.0666 87.2459 37.2945 0.0000 0.0000 0.0000
# 3 40.5702 37.2945 132.2337 0.0000 0.0000 0.0000
# 4 0.0000 0.0000 0.0000 14.3881 0.0000 0.0000
# 5 0.0000 0.0000 0.0000 0.0000 28.6853 0.0000
# 6 0.0000 0.0000 0.0000 0.0000 0.0000 26.2037
#
#
#
# Elastic Compliance Matrix: (Units=1/GPa)
#
#
# Indices 1 2 3 4 5 6 
#
# 1 0.008297 -0.002339 -0.001886 0.000000 0.000000 0.000000
# 2 -0.002339 0.013692 -0.003144 0.000000 0.000000 0.000000
# 3 -0.001886 -0.003144 0.009028 0.000000 0.000000 0.000000
# 4 0.000000 0.000000 0.000000 0.069502 0.000000 0.000000
# 5 0.000000 0.000000 0.000000 0.000000 0.034861 0.000000
# 6 0.000000 0.000000 0.000000 0.000000 0.000000 0.038163
#
#
# Mechanical properties :
#
#
# Convention : Reuss Voigt Hill
#
# Bulk Modulus (GPa) = 61.42611 64.48915 62.95763
# Shear Modulus (GPa) = 25.81215 30.36264 28.08740
#
# Velocity S-wave (km/s) = 3.67991 3.99113 3.83868
# Velocity P-wave (km/s) = 7.09095 7.42102 7.25786
#
# Compressibility (1/GPa) = 0.01627972
#
# Stress axis : x y z
#
# Youngs Moduli (GPa) = 120.51843 73.03433 110.76842
#
# Poissons Ratio (x) = 0.17079 0.20893
# Poissons Ratio (y) = 0.28183 0.34828
# Poissons Ratio (z) = 0.22732 0.22964
#
# Static dielectric constant tensor:
#      x y z
#    x 3.956150 0.000000 0.000000 
#    y 0.000000 3.167440 0.000000 
#    z 0.000000 0.000000 3.636100 
# 
# 
# High freq. dielectric constant tensor:
#      x y z
#    x 1.761780 0.000000 0.000000 
#    y 0.000000 1.703220 0.000000 
#    z 0.000000 0.000000 1.746500 
# 
# From -- ./inp_files/17577.got.cif
#   From: 2010.03.12/outbox.cif.g09.slc.cpg/sg51_9_cif.got.tgz:17577.got - 2010.04.16 13:43:02.
