data_PCOD8212137
_publ_section_title
;
Structure prediction by ZEFSAII (Michael W. Deem and Ramdas Pophale) SiO2 
 PCOD8212137
Probable space group: P M M A
;
_chemical_formula_sum "Si O2"
_cell_formula_units_Z 64
_cell_length_a 8.977879
_cell_length_b 23.554818
_cell_length_c 15.504381
_cell_angle_alpha 90.000000
_cell_angle_beta 90.000000
_cell_angle_gamma 90.000000
_cell_volume 3278.747201
_symmetry_space_group_name_H-M "P M M A"
_symmetry_group_IT_number 51
_symmetry_cell_setting 'orthorhombic'
loop_
_space_group_symop_operation_xyz
x,y,z
1/2-x,-y,z
1/2+x,-y,-z
-x,y,-z
-x,-y,-z
1/2+x,y,-z
1/2-x,y,z
x,-y,z
loop_
_atom_site_type_symbol
_atom_site_label
_atom_site_fract_x
_atom_site_fract_y
_atom_site_fract_z
Si Si1 0.424645 0.435059 0.587188
Si Si2 0.577585 0.371771 0.241882
Si Si3 0.574408 0.177792 0.414172
Si Si4 0.076619 0.064277 0.853577
Si Si5 0.577788 0.761488 0.240277
Si Si6 0.926647 0.061301 0.343505
Si Si7 0.075327 0.565153 0.087484
Si Si8 0.426242 0.173238 0.086107
O O1 0.500000 0.411944 0.500000
O O2 0.250000 0.429470 0.573787
O O3 0.472743 0.500000 0.605309
O O4 0.478999 0.397003 0.667224
O O5 0.750000 0.387676 0.227115
O O6 0.550592 0.305133 0.241000
O O7 0.480515 0.398028 0.166549
O O8 0.500000 0.203135 0.500000
O O9 0.750000 0.179188 0.426448
O O10 0.525651 0.215484 0.333029
O O11 0.513119 0.113313 0.400697
O O12 0.250000 0.080434 0.864070
O O13 0.024428 0.070763 0.754884
O O14 0.977109 0.107639 0.907946
O O15 0.047421 0.000000 0.885890
O O16 0.750000 0.777330 0.223358
O O17 0.478942 0.790229 0.167281
O O18 0.750000 0.060385 0.345983
O O19 0.988607 0.000000 0.376897
O O20 0.250000 0.573073 0.077144
O O21 0.030352 0.500000 0.104420
O O22 0.000000 0.587691 0.000000
O O23 0.250000 0.176706 0.078514
O O24 0.500000 0.199681 0.000000
#
# Coordination Sequence:
#
# PCOD8212137 Si02
#       8
#     8   8   8   8   8   8   8   8
#     4   9  18  33  54  83 118 153 189 230 280 336
#     4  10  21  37  60  85 112 151 196 241 286 335
#     4  10  20  35  56  80 111 147 188 234 282 341
#     4   9  17  34  61  87 113 147 185 228 283 344
#     4  10  22  42  61  80 111 151 196 243 289 335
#     4   8  14  28  53  80 107 143 181 221 276 336
#     4  10  21  37  59  88 121 154 187 227 278 336
#     4  12  25  40  61  85 113 148 189 237 289 345
#
# _framework density 19.519649999999999
#
# number of rings (size 3 to 8) (size 9 to 14) (size 15 to 20)
#    0.000    2.250    1.250    2.625    0.000    4.500 
#    0.000    1.250    0.000    0.000    0.000    0.000 
#    0.000    0.000    0.000    0.000    0.000    0.000 
#
# Total GULP energy -793622.401755 kJ/mol
# GULP energy per Si atom -12400.350027 kJ/mol
# Density = 1.947522 g / cm^3
# Si number density = 19.519650 Si / 1000 Ang^3
#
#
#
# Elastic Constant Matrix: (Units=GPa)
#
#
# Indices 1 2 3 4 5 6 
#
# 1 78.2237 44.9882 63.5468 0.0000 0.0000 0.0000
# 2 44.9882 92.6757 63.2507 0.0000 0.0000 0.0000
# 3 63.5468 63.2507 154.7920 0.0000 0.0000 0.0000
# 4 0.0000 0.0000 0.0000 9.5504 0.0000 0.0000
# 5 0.0000 0.0000 0.0000 0.0000 35.5107 0.0000
# 6 0.0000 0.0000 0.0000 0.0000 0.0000 26.2778
#
#
#
# Elastic Compliance Matrix: (Units=1/GPa)
#
#
# Indices 1 2 3 4 5 6 
#
# 1 0.021403 -0.006092 -0.006297 0.000000 0.000000 0.000000
# 2 -0.006092 0.016697 -0.004322 0.000000 0.000000 0.000000
# 3 -0.006297 -0.004322 0.010812 0.000000 0.000000 0.000000
# 4 0.000000 0.000000 0.000000 0.104707 0.000000 0.000000
# 5 0.000000 0.000000 0.000000 0.000000 0.028161 0.000000
# 6 0.000000 0.000000 0.000000 0.000000 0.000000 0.038055
#
#
# Mechanical properties :
#
#
# Convention : Reuss Voigt Hill
#
# Bulk Modulus (GPa) = 64.55948 74.36255 69.46101
# Shear Modulus (GPa) = 19.34831 24.52817 21.93824
#
# Velocity S-wave (km/s) = 3.15178 3.54868 3.35611
# Velocity P-wave (km/s) = 6.81109 7.41416 7.11901
#
# Compressibility (1/GPa) = 0.01548959
#
# Stress axis : x y z
#
# Youngs Moduli (GPa) = 46.72162 59.89015 92.49377
#
# Poissons Ratio (x) = 0.36485 0.58247
# Poissons Ratio (y) = 0.28463 0.39974
# Poissons Ratio (z) = 0.29423 0.25883
#
# Static dielectric constant tensor:
#      x y z
#    x 3.336020 0.000000 0.000000 
#    y 0.000000 3.754000 0.000000 
#    z 0.000000 0.000000 3.635800 
# 
# 
# High freq. dielectric constant tensor:
#      x y z
#    x 1.737240 0.000000 0.000000 
#    y 0.000000 1.760800 0.000000 
#    z 0.000000 0.000000 1.767520 
# 
# From -- ./inp_files/22360.got.cif
#   From: 2010.03.12/outbox.cif.g09.slc.cpg/sg51_12_cif.got.tgz:22360.got - 2010.04.16 13:43:02.
