data_PCOD8212843
_publ_section_title
;
Structure prediction by ZEFSAII (Michael W. Deem and Ramdas Pophale) SiO2 
 PCOD8212843
Probable space group: P M M A
;
_chemical_formula_sum "Si O2"
_cell_formula_units_Z 40
_cell_length_a 25.423963
_cell_length_b 8.612221
_cell_length_c 9.198394
_cell_angle_alpha 90.000000
_cell_angle_beta 90.000000
_cell_angle_gamma 90.000000
_cell_volume 2014.050805
_symmetry_space_group_name_H-M "P M M A"
_symmetry_group_IT_number 51
_symmetry_cell_setting 'orthorhombic'
loop_
_space_group_symop_operation_xyz
x,y,z
1/2-x,-y,z
1/2+x,-y,-z
-x,y,-z
-x,-y,-z
1/2+x,y,-z
1/2-x,y,z
x,-y,z
loop_
_atom_site_type_symbol
_atom_site_label
_atom_site_fract_x
_atom_site_fract_y
_atom_site_fract_z
Si Si1 0.946754 0.318239 0.843940
Si Si2 0.750000 0.181392 0.838152
Si Si3 0.150316 0.683658 0.668744
Si Si4 0.250000 0.815013 0.834350
Si Si5 0.441938 0.817394 0.847763
Si Si6 0.345474 0.319336 0.334952
O O1 0.959958 0.500000 0.845155
O O2 0.902744 0.275891 0.726128
O O3 0.998898 0.224421 0.800173
O O4 0.926486 0.268160 0.002738
O O5 0.698132 0.229838 0.754182
O O6 0.750000 0.000000 0.852338
O O7 0.750000 0.249799 0.001125
O O8 0.146614 0.500000 0.687968
O O9 0.198720 0.749281 0.757911
O O10 0.096647 0.761080 0.722070
O O11 0.157703 0.731851 0.501726
O O12 0.250000 0.000000 0.825051
O O13 0.436693 0.000000 0.872011
O O14 0.333719 0.500000 0.316035
#
# Coordination Sequence:
#
# PCOD8212843 Si02
#       6
#     8   4   8   4   8   8
#     4  10  20  38  62  86 113 152 196 240 286 339
#     4  11  24  39  60  86 116 149 186 233 286 340
#     4  11  23  40  60  85 116 153 192 235 284 340
#     4  11  24  41  60  88 118 149 190 237 286 342
#     4  11  22  37  58  87 119 152 191 239 286 339
#     4  10  23  40  60  85 115 149 192 238 283 337
#
# _framework density 19.860472999999999
#
# number of rings (size 3 to 8) (size 9 to 14) (size 15 to 20)
#    0.000    1.400    0.000    6.600    0.000   11.200 
#    0.000    4.000    0.000    0.000    0.000    0.000 
#    0.000    0.000    0.000    0.000    0.000    0.000 
#
# Total GULP energy -496215.934340 kJ/mol
# GULP energy per Si atom -12405.398358 kJ/mol
# Density = 1.981527 g / cm^3
# Si number density = 19.860473 Si / 1000 Ang^3
#
#
#
# Elastic Constant Matrix: (Units=GPa)
#
#
# Indices 1 2 3 4 5 6 
#
# 1 109.8753 40.1402 85.8876 0.0000 0.0000 0.0000
# 2 40.1402 61.8366 37.9130 0.0000 0.0000 0.0000
# 3 85.8876 37.9130 148.2496 0.0000 0.0000 0.0000
# 4 0.0000 0.0000 0.0000 18.0761 0.0000 0.0000
# 5 0.0000 0.0000 0.0000 0.0000 60.2762 0.0000
# 6 0.0000 0.0000 0.0000 0.0000 0.0000 54.3429
#
#
#
# Elastic Compliance Matrix: (Units=1/GPa)
#
#
# Indices 1 2 3 4 5 6 
#
# 1 0.018594 -0.006482 -0.009115 0.000000 0.000000 0.000000
# 2 -0.006482 0.021438 -0.001727 0.000000 0.000000 0.000000
# 3 -0.009115 -0.001727 0.012468 0.000000 0.000000 0.000000
# 4 0.000000 0.000000 0.000000 0.055322 0.000000 0.000000
# 5 0.000000 0.000000 0.000000 0.000000 0.016590 0.000000
# 6 0.000000 0.000000 0.000000 0.000000 0.000000 0.018402
#
#
# Mechanical properties :
#
#
# Convention : Reuss Voigt Hill
#
# Bulk Modulus (GPa) = 56.01513 71.98255 63.99884
# Shear Modulus (GPa) = 27.26106 36.94042 32.10074
#
# Velocity S-wave (km/s) = 3.70892 4.31745 4.02470
# Velocity P-wave (km/s) = 6.82693 7.82155 7.34110
#
# Compressibility (1/GPa) = 0.01785232
#
# Stress axis : x y z
#
# Youngs Moduli (GPa) = 53.78106 46.64563 80.20717
#
# Poissons Ratio (x) = 0.30234 0.73106
# Poissons Ratio (y) = 0.34859 0.13856
# Poissons Ratio (z) = 0.49020 0.08058
#
# Static dielectric constant tensor:
#      x y z
#    x 3.797750 0.000000 0.000000 
#    y 0.000000 3.685970 0.000000 
#    z 0.000000 0.000000 3.778090 
# 
# 
# High freq. dielectric constant tensor:
#      x y z
#    x 1.789820 0.000000 0.000000 
#    y 0.000000 1.783590 0.000000 
#    z 0.000000 0.000000 1.781330 
# 
# From -- ./inp_files/12201.got.cif
#   From: 2010.03.12/outbox.cif.g09.slc.cpg/sg51_7_cif.got.tgz:12201.got - 2010.04.16 13:43:02.
