data_PCOD8212141
_publ_section_title
;
Structure prediction by ZEFSAII (Michael W. Deem and Ramdas Pophale) SiO2 
 PCOD8212141
Probable space group: P M M A
;
_chemical_formula_sum "Si O2"
_cell_formula_units_Z 56
_cell_length_a 19.183222
_cell_length_b 8.541829
_cell_length_c 17.829311
_cell_angle_alpha 90.000000
_cell_angle_beta 90.000000
_cell_angle_gamma 90.000000
_cell_volume 2921.507370
_symmetry_space_group_name_H-M "P M M A"
_symmetry_group_IT_number 51
_symmetry_cell_setting 'orthorhombic'
loop_
_space_group_symop_operation_xyz
x,y,z
1/2-x,-y,z
1/2+x,-y,-z
-x,y,-z
-x,-y,-z
1/2+x,y,-z
1/2-x,y,z
x,-y,z
loop_
_atom_site_type_symbol
_atom_site_label
_atom_site_fract_x
_atom_site_fract_y
_atom_site_fract_z
Si Si1 0.829251 0.180951 0.572907
Si Si2 0.427897 0.181295 0.704128
Si Si3 0.331276 0.680124 0.582532
Si Si4 0.425430 0.684587 0.132187
Si Si5 0.076968 0.317635 0.300796
Si Si6 0.328527 0.313353 0.001579
Si Si7 0.917935 0.314165 0.138922
O O1 0.750000 0.226462 0.593135
O O2 0.855961 0.280261 0.501797
O O3 0.876057 0.216657 0.644400
O O4 0.836001 0.000000 0.551580
O O5 0.370977 0.210244 0.640589
O O6 0.495966 0.282875 0.685022
O O7 0.395247 0.233147 0.783620
O O8 0.448456 0.000000 0.706097
O O9 0.250000 0.718614 0.590730
O O10 0.348070 0.500000 0.599820
O O11 0.424161 0.500000 0.123331
O O12 0.402494 0.732470 0.216074
O O13 0.371863 0.757614 0.071854
O O14 0.504237 0.742132 0.116081
O O15 0.090941 0.500000 0.314904
O O16 0.250000 0.246717 0.004542
O O17 0.327962 0.500000 0.005005
O O18 0.364734 0.257206 0.924869
O O19 0.915775 0.500000 0.150563
#
# Coordination Sequence:
#
# PCOD8212141 Si02
#       7
#     8   8   8   8   8   8   8
#     4  10  21  37  56  80 112 146 178 214 262 319
#     4  11  22  36  55  79 108 140 176 220 271 323
#     4  10  21  38  59  81 106 138 178 221 264 314
#     4   8  15  28  47  71 100 133 169 214 263 307
#     4  10  20  35  56  81 108 140 182 227 267 311
#     4   9  16  26  45  75 104 129 166 217 265 306
#     4   9  17  31  50  72 100 135 173 212 259 314
#
# _framework density 19.168188000000001
#
# number of rings (size 3 to 8) (size 9 to 14) (size 15 to 20)
#    0.000    2.429    0.000    3.857    0.000    5.143 
#    0.000    5.714    0.000    7.714    0.000    0.000 
#    0.000    0.000    0.000    0.000    0.000    0.000 
#
# Total GULP energy -694468.116266 kJ/mol
# GULP energy per Si atom -12401.216362 kJ/mol
# Density = 1.912456 g / cm^3
# Si number density = 19.168188 Si / 1000 Ang^3
#
#
#
# Elastic Constant Matrix: (Units=GPa)
#
#
# Indices 1 2 3 4 5 6 
#
# 1 94.9380 11.8335 75.1056 0.0000 0.0000 0.0000
# 2 11.8335 36.9462 19.0157 0.0000 0.0000 0.0000
# 3 75.1056 19.0157 135.6461 0.0000 0.0000 0.0000
# 4 0.0000 0.0000 0.0000 10.5145 0.0000 0.0000
# 5 0.0000 0.0000 0.0000 0.0000 30.1357 0.0000
# 6 0.0000 0.0000 0.0000 0.0000 0.0000 20.7968
#
#
#
# Elastic Compliance Matrix: (Units=1/GPa)
#
#
# Indices 1 2 3 4 5 6 
#
# 1 0.018761 -0.000714 -0.010287 0.000000 0.000000 0.000000
# 2 -0.000714 0.029198 -0.003698 0.000000 0.000000 0.000000
# 3 -0.010287 -0.003698 0.013587 0.000000 0.000000 0.000000
# 4 0.000000 0.000000 0.000000 0.095107 0.000000 0.000000
# 5 0.000000 0.000000 0.000000 0.000000 0.033183 0.000000
# 6 0.000000 0.000000 0.000000 0.000000 0.000000 0.048084
#
#
# Mechanical properties :
#
#
# Convention : Reuss Voigt Hill
#
# Bulk Modulus (GPa) = 31.10729 53.27110 42.18920
# Shear Modulus (GPa) = 17.98342 23.06110 20.52226
#
# Velocity S-wave (km/s) = 3.06631 3.47233 3.27562
# Velocity P-wave (km/s) = 5.36658 6.62781 6.03026
#
# Compressibility (1/GPa) = 0.03214681
#
# Stress axis : x y z
#
# Youngs Moduli (GPa) = 53.30337 34.24860 73.60246
#
# Poissons Ratio (x) = 0.02445 0.75718
# Poissons Ratio (y) = 0.03806 0.27217
# Poissons Ratio (z) = 0.54835 0.12665
#
# Static dielectric constant tensor:
#      x y z
#    x 3.553250 0.000000 0.000000 
#    y 0.000000 3.174290 0.000000 
#    z 0.000000 0.000000 3.634860 
# 
# 
# High freq. dielectric constant tensor:
#      x y z
#    x 1.739950 0.000000 0.000000 
#    y 0.000000 1.719720 0.000000 
#    z 0.000000 0.000000 1.755910 
# 
# From -- ./inp_files/25663.got.cif
#   From: 2010.03.12/outbox.cif.g09.slc.cpg/sg51_13_cif.got.tgz:25663.got - 2010.04.16 13:43:02.
