data_PCOD8212955
_publ_section_title
;
Structure prediction by ZEFSAII (Michael W. Deem and Ramdas Pophale) SiO2 
 PCOD8212955
Probable space group: P M M A
;
_chemical_formula_sum "Si O2"
_cell_formula_units_Z 40
_cell_length_a 9.607689
_cell_length_b 25.008058
_cell_length_c 9.566327
_cell_angle_alpha 90.000000
_cell_angle_beta 90.000000
_cell_angle_gamma 90.000000
_cell_volume 2298.497980
_symmetry_space_group_name_H-M "P M M A"
_symmetry_group_IT_number 51
_symmetry_cell_setting 'orthorhombic'
loop_
_space_group_symop_operation_xyz
x,y,z
1/2-x,-y,z
1/2+x,-y,-z
-x,y,-z
-x,-y,-z
1/2+x,y,-z
1/2-x,y,z
x,-y,z
loop_
_atom_site_type_symbol
_atom_site_label
_atom_site_fract_x
_atom_site_fract_y
_atom_site_fract_z
Si Si1 0.412349 0.147959 0.641111
Si Si2 0.910673 0.642518 0.132261
Si Si3 0.090024 0.439741 0.634432
Si Si4 0.410820 0.764627 0.865090
Si Si5 0.410896 0.061403 0.867325
O O1 0.500000 0.147800 0.500000
O O2 0.250000 0.148710 0.601110
O O3 0.453562 0.199747 0.732442
O O4 0.450734 0.095486 0.731011
O O5 0.750000 0.633751 0.094403
O O6 0.960553 0.602760 0.252374
O O7 0.940022 0.703443 0.178340
O O8 0.000000 0.626291 0.000000
O O9 0.250000 0.430478 0.594058
O O10 0.065795 0.500000 0.690927
O O11 0.000000 0.428000 0.500000
O O12 0.250000 0.774248 0.904713
O O13 0.500000 0.781445 0.000000
O O14 0.250000 0.070090 0.907108
O O15 0.444457 0.000000 0.831016
O O16 0.500000 0.081011 0.000000
#
# Coordination Sequence:
#
# PCOD8212955 Si02
#       5
#     8   8   8   8   8
#     4  10  21  34  48  70  99 127 156 192 233 276
#     4   9  18  32  49  70  95 121 152 192 235 276
#     4   9  18  32  48  67  93 124 156 190 229 274
#     4   9  18  33  51  70  93 122 156 193 232 276
#     4   9  18  33  52  73  96 123 157 195 233 275
#
# _framework density 17.402671000000002
#
# number of rings (size 3 to 8) (size 9 to 14) (size 15 to 20)
#    0.000    2.800    0.000    0.600    0.000    4.000 
#    0.000    0.000    0.000    0.000    0.000    0.000 
#    0.000    0.000    0.000    0.000    0.000    0.000 
#
# Total GULP energy -496036.824110 kJ/mol
# GULP energy per Si atom -12400.920603 kJ/mol
# Density = 1.736306 g / cm^3
# Si number density = 17.402671 Si / 1000 Ang^3
#
#
#
# Elastic Constant Matrix: (Units=GPa)
#
#
# Indices 1 2 3 4 5 6 
#
# 1 66.3430 53.3384 77.4715 0.0000 0.0000 0.0000
# 2 53.3384 116.3169 94.4331 0.0000 0.0000 0.0000
# 3 77.4715 94.4331 157.9172 0.0000 0.0000 0.0000
# 4 0.0000 0.0000 0.0000 28.9562 0.0000 0.0000
# 5 0.0000 0.0000 0.0000 0.0000 39.4946 0.0000
# 6 0.0000 0.0000 0.0000 0.0000 0.0000 22.8212
#
#
#
# Elastic Compliance Matrix: (Units=1/GPa)
#
#
# Indices 1 2 3 4 5 6 
#
# 1 0.036343 -0.004258 -0.015283 0.000000 0.000000 0.000000
# 2 -0.004258 0.017208 -0.008202 0.000000 0.000000 0.000000
# 3 -0.015283 -0.008202 0.018735 0.000000 0.000000 0.000000
# 4 0.000000 0.000000 0.000000 0.034535 0.000000 0.000000
# 5 0.000000 0.000000 0.000000 0.000000 0.025320 0.000000
# 6 0.000000 0.000000 0.000000 0.000000 0.000000 0.043819
#
#
# Mechanical properties :
#
#
# Convention : Reuss Voigt Hill
#
# Bulk Modulus (GPa) = 59.52065 87.89592 73.70829
# Shear Modulus (GPa) = 21.09300 25.94333 23.51816
#
# Velocity S-wave (km/s) = 3.48524 3.86523 3.68014
# Velocity P-wave (km/s) = 7.10437 8.39862 7.77846
#
# Compressibility (1/GPa) = 0.01680089
#
# Stress axis : x y z
#
# Youngs Moduli (GPa) = 27.51536 58.11199 53.37693
#
# Poissons Ratio (x) = 0.24742 0.81578
# Poissons Ratio (y) = 0.11715 0.43778
# Poissons Ratio (z) = 0.42053 0.47661
#
# Static dielectric constant tensor:
#      x y z
#    x 3.226810 0.000000 0.000000 
#    y 0.000000 3.478210 0.000000 
#    z 0.000000 0.000000 3.090280 
# 
# 
# High freq. dielectric constant tensor:
#      x y z
#    x 1.671080 0.000000 0.000000 
#    y 0.000000 1.687300 0.000000 
#    z 0.000000 0.000000 1.659660 
# 
# From -- ./inp_files/886.got.cif
#   From: 2010.03.12/outbox.cif.g09.slc.cpg/sg51_1_cif.got.tgz:886.got - 2010.04.16 13:43:02.
