data_PCOD8212659
_publ_section_title
;
Structure prediction by ZEFSAII (Michael W. Deem and Ramdas Pophale) SiO2 
 PCOD8212659
Probable space group: P M M A
;
_chemical_formula_sum "Si O2"
_cell_formula_units_Z 48
_cell_length_a 18.797639
_cell_length_b 9.183299
_cell_length_c 14.926097
_cell_angle_alpha 90.000000
_cell_angle_beta 90.000000
_cell_angle_gamma 90.000000
_cell_volume 2576.607635
_symmetry_space_group_name_H-M "P M M A"
_symmetry_group_IT_number 51
_symmetry_cell_setting 'orthorhombic'
loop_
_space_group_symop_operation_xyz
x,y,z
1/2-x,-y,z
1/2+x,-y,-z
-x,y,-z
-x,-y,-z
1/2+x,y,-z
1/2-x,y,z
x,-y,z
loop_
_atom_site_type_symbol
_atom_site_label
_atom_site_fract_x
_atom_site_fract_y
_atom_site_fract_z
Si Si1 0.071836 0.667406 0.550752
Si Si2 0.912060 0.169363 0.767768
Si Si3 0.332530 0.831112 0.055535
Si Si4 0.833721 0.667739 0.122435
Si Si5 0.926268 0.829619 0.265697
Si Si6 0.330446 0.331542 0.386871
O O1 0.067408 0.500000 0.583457
O O2 0.082345 0.772795 0.633973
O O3 0.138703 0.692777 0.485898
O O4 0.000000 0.712041 0.500000
O O5 0.877125 0.225772 0.859686
O O6 0.878155 0.248464 0.683858
O O7 0.995393 0.203870 0.771828
O O8 0.896269 0.000000 0.754984
O O9 0.250000 0.802910 0.076794
O O10 0.347697 0.000000 0.035220
O O11 0.358793 0.740066 0.970320
O O12 0.750000 0.686866 0.135098
O O13 0.856736 0.500000 0.121225
O O14 0.869993 0.747583 0.204749
O O15 0.909226 0.000000 0.264477
O O16 0.250000 0.271568 0.385305
O O17 0.333041 0.500000 0.360503
#
# Coordination Sequence:
#
# PCOD8212659 Si02
#       6
#     8   8   8   8   8   8
#     4  10  20  37  58  79 110 152 191 230 282 337
#     4  10  21  36  56  84 117 151 185 226 279 339
#     4   9  18  35  58  81 110 149 188 228 277 331
#     4  10  22  40  60  82 110 146 189 236 284 336
#     4  11  23  37  58  86 115 148 188 234 283 338
#     4  10  21  36  56  83 112 145 189 238 283 332
#
# _framework density 18.629145999999999
#
# number of rings (size 3 to 8) (size 9 to 14) (size 15 to 20)
#    0.000    2.000    1.667    1.500    0.000    5.667 
#    0.000    6.667    0.000    0.000    0.000    0.000 
#    0.000    0.000    0.000    0.000    0.000    0.000 
#
# Total GULP energy -595428.753399 kJ/mol
# GULP energy per Si atom -12404.765696 kJ/mol
# Density = 1.858675 g / cm^3
# Si number density = 18.629146 Si / 1000 Ang^3
#
#
#
# Elastic Constant Matrix: (Units=GPa)
#
#
# Indices 1 2 3 4 5 6 
#
# 1 52.3198 39.1247 36.3238 0.0000 0.0000 0.0000
# 2 39.1247 84.4164 63.4062 0.0000 0.0000 0.0000
# 3 36.3238 63.4062 125.5907 0.0000 0.0000 0.0000
# 4 0.0000 0.0000 0.0000 47.9099 0.0000 0.0000
# 5 0.0000 0.0000 0.0000 0.0000 33.5799 0.0000
# 6 0.0000 0.0000 0.0000 0.0000 0.0000 26.7796
#
#
#
# Elastic Compliance Matrix: (Units=1/GPa)
#
#
# Indices 1 2 3 4 5 6 
#
# 1 0.029789 -0.011816 -0.002650 0.000000 0.000000 0.000000
# 2 -0.011816 0.023769 -0.008583 0.000000 0.000000 0.000000
# 3 -0.002650 -0.008583 0.013062 0.000000 0.000000 0.000000
# 4 0.000000 0.000000 0.000000 0.020873 0.000000 0.000000
# 5 0.000000 0.000000 0.000000 0.000000 0.029780 0.000000
# 6 0.000000 0.000000 0.000000 0.000000 0.000000 0.037342
#
#
# Mechanical properties :
#
#
# Convention : Reuss Voigt Hill
#
# Bulk Modulus (GPa) = 48.72714 60.00402 54.36558
# Shear Modulus (GPa) = 24.09037 29.88537 26.98787
#
# Velocity S-wave (km/s) = 3.59995 4.00963 3.81030
# Velocity P-wave (km/s) = 6.59490 7.32911 6.97167
#
# Compressibility (1/GPa) = 0.02052244
#
# Stress axis : x y z
#
# Youngs Moduli (GPa) = 33.56946 42.07208 76.55810
#
# Poissons Ratio (x) = 0.49711 0.20291
# Poissons Ratio (y) = 0.39664 0.65707
# Poissons Ratio (z) = 0.08897 0.36109
#
# Static dielectric constant tensor:
#      x y z
#    x 3.514530 0.000000 0.000000 
#    y 0.000000 3.445440 0.000000 
#    z 0.000000 0.000000 3.444020 
# 
# 
# High freq. dielectric constant tensor:
#      x y z
#    x 1.726970 0.000000 0.000000 
#    y 0.000000 1.722960 0.000000 
#    z 0.000000 0.000000 1.730800 
# 
# From -- ./inp_files/24679.got.cif
#   From: 2010.03.12/outbox.cif.g09.slc.cpg/sg51_13_cif.got.tgz:24679.got - 2010.04.16 13:43:02.
