data_PCOD8212861
_publ_section_title
;
Structure prediction by ZEFSAII (Michael W. Deem and Ramdas Pophale) SiO2 
 PCOD8212861
Probable space group: P M M A
;
_chemical_formula_sum "Si O2"
_cell_formula_units_Z 40
_cell_length_a 15.917764
_cell_length_b 9.105243
_cell_length_c 13.708877
_cell_angle_alpha 90.000000
_cell_angle_beta 90.000000
_cell_angle_gamma 90.000000
_cell_volume 1986.897586
_symmetry_space_group_name_H-M "P M M A"
_symmetry_group_IT_number 51
_symmetry_cell_setting 'orthorhombic'
loop_
_space_group_symop_operation_xyz
x,y,z
1/2-x,-y,z
1/2+x,-y,-z
-x,y,-z
-x,-y,-z
1/2+x,y,-z
1/2-x,y,z
x,-y,z
loop_
_atom_site_type_symbol
_atom_site_label
_atom_site_fract_x
_atom_site_fract_y
_atom_site_fract_z
Si Si1 0.250000 0.829463 0.245880
Si Si2 0.345427 0.667027 0.557415
Si Si3 0.092087 0.830299 0.377433
Si Si4 0.588237 0.827036 0.049456
Si Si5 0.250000 0.675125 0.043126
Si Si6 0.078931 0.828992 0.725443
O O1 0.169820 0.790448 0.309764
O O2 0.250000 0.721707 0.155017
O O3 0.250000 0.000000 0.211998
O O4 0.250000 0.681684 0.521166
O O5 0.374029 0.500000 0.567463
O O6 0.405811 0.743554 0.478928
O O7 0.351911 0.742045 0.663445
O O8 0.011406 0.783680 0.316087
O O9 0.091440 0.000000 0.406545
O O10 0.583210 0.782787 0.162360
O O11 0.604440 0.000000 0.033907
O O12 0.500000 0.780991 0.000000
O O13 0.665803 0.738628 0.005178
O O14 0.250000 0.500000 0.033388
O O15 0.097127 0.000000 0.713238
#
# Coordination Sequence:
#
# PCOD8212861 Si02
#       6
#     4   8   8   8   4   8
#     4  10  20  38  65  90 117 156 205 254 306 360
#     4  11  24  39  56  84 125 166 201 240 296 368
#     4  10  20  38  64  92 117 151 201 256 303 354
#     4  10  22  44  70  94 123 163 216 270 316 369
#     4  12  26  40  61  94 133 168 205 256 320 386
#     4  10  22  38  62  91 118 153 203 255 304 357
#
# _framework density 20.131888
#
# number of rings (size 3 to 8) (size 9 to 14) (size 15 to 20)
#    0.000    1.600    1.000    3.300    1.400    9.600 
#    0.000    2.000    0.000    0.000    0.000    0.000 
#    0.000    0.000    0.000    0.000    0.000    0.000 
#
# Total GULP energy -496161.565527 kJ/mol
# GULP energy per Si atom -12404.039138 kJ/mol
# Density = 2.008607 g / cm^3
# Si number density = 20.131888 Si / 1000 Ang^3
#
#
#
# Elastic Constant Matrix: (Units=GPa)
#
#
# Indices 1 2 3 4 5 6 
#
# 1 96.8826 47.5959 39.7968 0.0000 0.0000 0.0000
# 2 47.5959 81.4689 60.1935 0.0000 0.0000 0.0000
# 3 39.7968 60.1935 140.1724 0.0000 0.0000 0.0000
# 4 0.0000 0.0000 0.0000 15.9474 0.0000 0.0000
# 5 0.0000 0.0000 0.0000 0.0000 20.3421 0.0000
# 6 0.0000 0.0000 0.0000 0.0000 0.0000 22.9559
#
#
#
# Elastic Compliance Matrix: (Units=1/GPa)
#
#
# Indices 1 2 3 4 5 6 
#
# 1 0.014524 -0.007966 -0.000703 0.000000 0.000000 0.000000
# 2 -0.007966 0.022348 -0.007335 0.000000 0.000000 0.000000
# 3 -0.000703 -0.007335 0.010484 0.000000 0.000000 0.000000
# 4 0.000000 0.000000 0.000000 0.062706 0.000000 0.000000
# 5 0.000000 0.000000 0.000000 0.000000 0.049159 0.000000
# 6 0.000000 0.000000 0.000000 0.000000 0.000000 0.043562
#
#
# Mechanical properties :
#
#
# Convention : Reuss Voigt Hill
#
# Bulk Modulus (GPa) = 65.15617 68.18847 66.67232
# Shear Modulus (GPa) = 20.84148 23.24495 22.04321
#
# Velocity S-wave (km/s) = 3.22102 3.40168 3.31258
# Velocity P-wave (km/s) = 6.80207 7.02659 6.91524
#
# Compressibility (1/GPa) = 0.01534774
#
# Stress axis : x y z
#
# Youngs Moduli (GPa) = 68.85200 44.74638 95.38787
#
# Poissons Ratio (x) = 0.35645 0.06703
# Poissons Ratio (y) = 0.54847 0.69969
# Poissons Ratio (z) = 0.04839 0.32822
#
# Static dielectric constant tensor:
#      x y z
#    x 4.043680 0.000000 0.000000 
#    y 0.000000 3.518370 0.000000 
#    z 0.000000 0.000000 3.787340 
# 
# 
# High freq. dielectric constant tensor:
#      x y z
#    x 1.799760 0.000000 0.000000 
#    y 0.000000 1.771660 0.000000 
#    z 0.000000 0.000000 1.799740 
# 
# From -- ./inp_files/23757.got.cif
#   From: 2010.03.12/outbox.cif.g09.slc.cpg/sg51_12_cif.got.tgz:23757.got - 2010.04.16 13:43:02.
