data_PCOD8212339
_publ_section_title
;
Structure prediction by ZEFSAII (Michael W. Deem and Ramdas Pophale) SiO2 
 PCOD8212339
Probable space group: P M M A
;
_chemical_formula_sum "Si O2"
_cell_formula_units_Z 44
_cell_length_a 9.460878
_cell_length_b 17.203620
_cell_length_c 15.046225
_cell_angle_alpha 90.000000
_cell_angle_beta 90.000000
_cell_angle_gamma 90.000000
_cell_volume 2448.943893
_symmetry_space_group_name_H-M "P M M A"
_symmetry_group_IT_number 51
_symmetry_cell_setting 'orthorhombic'
loop_
_space_group_symop_operation_xyz
x,y,z
1/2-x,-y,z
1/2+x,-y,-z
-x,y,-z
-x,-y,-z
1/2+x,y,-z
1/2-x,y,z
x,-y,z
loop_
_atom_site_type_symbol
_atom_site_label
_atom_site_fract_x
_atom_site_fract_y
_atom_site_fract_z
Si Si1 0.086568 0.408773 0.586525
Si Si2 0.582832 0.866695 0.725781
Si Si3 0.918034 0.000000 0.592379
Si Si4 0.906689 0.875956 0.920570
Si Si5 0.595799 0.691900 0.922981
Si Si6 0.917400 0.690959 0.723541
O O1 0.250000 0.383362 0.576005
O O2 0.073929 0.500000 0.603565
O O3 0.000000 0.383139 0.500000
O O4 0.013964 0.366330 0.668126
O O5 0.750000 0.867672 0.736704
O O6 0.524584 0.893667 0.823007
O O7 0.535715 0.779386 0.700883
O O8 0.533013 0.924469 0.648087
O O9 0.000000 0.000000 0.500000
O O10 0.750000 0.000000 0.575080
O O11 0.750000 0.912543 0.927909
O O12 0.897086 0.784086 0.932259
O O13 0.000000 0.912744 0.000000
O O14 0.750000 0.655701 0.937397
O O15 0.542015 0.670573 0.824836
O O16 0.500000 0.654613 0.000000
O O17 0.750000 0.678666 0.705370
#
# Coordination Sequence:
#
# PCOD8212339 Si02
#       6
#     8   8   4   8   8   8
#     4  10  21  36  53  74  99 126 156 193 241 295
#     4   8  16  31  50  70  95 128 163 196 235 286
#     4  10  20  36  53  66  88 126 165 202 245 286
#     4   8  13  24  42  65  92 122 154 188 230 278
#     4   8  14  24  41  66  96 127 158 193 231 274
#     4   9  17  31  51  75 100 127 162 201 239 282
#
# _framework density 17.966927999999999
#
# number of rings (size 3 to 8) (size 9 to 14) (size 15 to 20)
#    0.000    3.273    0.000    2.727    0.000    2.545 
#    0.000    6.818    0.000    0.545    0.000    0.000 
#    0.000    0.000    0.000    0.000    0.000    0.000 
#
# Total GULP energy -545262.730242 kJ/mol
# GULP energy per Si atom -12392.334778 kJ/mol
# Density = 1.792603 g / cm^3
# Si number density = 17.966928 Si / 1000 Ang^3
#
#
#
# Elastic Constant Matrix: (Units=GPa)
#
#
# Indices 1 2 3 4 5 6 
#
# 1 88.1315 33.6353 75.5266 0.0000 0.0000 0.0000
# 2 33.6353 36.6091 46.7043 0.0000 0.0000 0.0000
# 3 75.5266 46.7043 160.8658 0.0000 0.0000 0.0000
# 4 0.0000 0.0000 0.0000 -26.8540 0.0000 0.0000
# 5 0.0000 0.0000 0.0000 0.0000 36.9642 0.0000
# 6 0.0000 0.0000 0.0000 0.0000 0.0000 10.6319
#
#
#
# Elastic Compliance Matrix: (Units=1/GPa)
#
#
# Indices 1 2 3 4 5 6 
#
# 1 0.021402 -0.010871 -0.006892 0.000000 0.000000 0.000000
# 2 -0.010871 0.048907 -0.009095 0.000000 0.000000 0.000000
# 3 -0.006892 -0.009095 0.012093 0.000000 0.000000 0.000000
# 4 0.000000 0.000000 0.000000 -0.037238 0.000000 0.000000
# 5 0.000000 0.000000 0.000000 0.000000 0.027053 0.000000
# 6 0.000000 0.000000 0.000000 0.000000 0.000000 0.094057
#
#
# Mechanical properties :
#
#
# Convention : Reuss Voigt Hill
#
# Bulk Modulus (GPa) = 34.86126 66.37096 50.61611
# Shear Modulus (GPa) = 21.78167 12.79776 17.28972
#
# Velocity S-wave (km/s) = 3.48562 2.67178 3.10547
# Velocity P-wave (km/s) = 5.97030 6.82193 6.41027
#
# Compressibility (1/GPa) = 0.02868514
#
# Stress axis : x y z
#
# Youngs Moduli (GPa) = 46.72500 20.44714 82.69365
#
# Poissons Ratio (x) = 0.22227 0.56993
# Poissons Ratio (y) = 0.50793 0.75212
# Poissons Ratio (z) = 0.32203 0.18597
#
# Static dielectric constant tensor:
#      x y z
#    x 3.445390 0.000000 0.000000 
#    y 0.000000 3.125740 0.000000 
#    z 0.000000 0.000000 3.516790 
# 
# 
# High freq. dielectric constant tensor:
#      x y z
#    x 1.673960 0.000000 0.000000 
#    y 0.000000 1.666570 0.000000 
#    z 0.000000 0.000000 1.706180 
# 
# From -- ./inp_files/20920.got.cif
#   From: 2010.03.12/outbox.cif.g09.slc.cpg/sg51_11_cif.got.tgz:20920.got - 2010.04.16 13:43:02.
