data_PCOD8212159
_publ_section_title
;
Structure prediction by ZEFSAII (Michael W. Deem and Ramdas Pophale) SiO2 
 PCOD8212159
Probable space group: P M M A
;
_chemical_formula_sum "Si O2"
_cell_formula_units_Z 40
_cell_length_a 20.253128
_cell_length_b 9.555411
_cell_length_c 11.343510
_cell_angle_alpha 90.000000
_cell_angle_beta 90.000000
_cell_angle_gamma 90.000000
_cell_volume 2195.275030
_symmetry_space_group_name_H-M "P M M A"
_symmetry_group_IT_number 51
_symmetry_cell_setting 'orthorhombic'
loop_
_space_group_symop_operation_xyz
x,y,z
1/2-x,-y,z
1/2+x,-y,-z
-x,y,-z
-x,-y,-z
1/2+x,y,-z
1/2-x,y,z
x,-y,z
loop_
_atom_site_type_symbol
_atom_site_label
_atom_site_fract_x
_atom_site_fract_y
_atom_site_fract_z
Si Si1 0.875867 0.838166 0.218246
Si Si2 0.877793 0.337944 0.749676
Si Si3 0.750000 0.160221 0.371670
Si Si4 0.673521 0.336274 0.007598
Si Si5 0.750000 0.338443 0.602525
Si Si6 0.505816 0.164094 0.635857
O O1 0.813374 0.801052 0.296629
O O2 0.871205 0.745378 0.101479
O O3 0.939168 0.798130 0.295354
O O4 0.876922 0.000000 0.180167
O O5 0.896845 0.500000 0.733906
O O6 0.813610 0.297193 0.676602
O O7 0.936907 0.244350 0.703147
O O8 0.861397 0.302943 0.884373
O O9 0.750000 0.252826 0.485108
O O10 0.750000 0.000000 0.411912
O O11 0.750000 0.285028 0.006897
O O12 0.671101 0.500000 0.036643
O O13 0.750000 0.500000 0.568750
O O14 0.500000 0.214213 0.500000
O O15 0.521805 0.000000 0.639999
#
# Coordination Sequence:
#
# PCOD8212159 Si02
#       6
#     8   8   4   8   4   8
#     4  10  21  37  58  83 113 148 189 235 279 332
#     4  10  21  38  59  83 113 149 189 234 282 334
#     4  10  20  35  56  82 110 145 189 234 281 332
#     4  10  20  37  60  84 114 149 187 234 285 337
#     4  10  20  35  56  82 110 143 187 236 281 328
#     4  10  22  40  59  82 116 154 189 231 284 339
#
# _framework density 18.220953000000002
#
# number of rings (size 3 to 8) (size 9 to 14) (size 15 to 20)
#    0.000    2.000    2.000    1.200    0.000    6.000 
#    0.000    4.000    0.000    0.000    0.000    0.000 
#    0.000    0.000    0.000    0.000    0.000    0.000 
#
# Total GULP energy -496094.723992 kJ/mol
# GULP energy per Si atom -12402.368100 kJ/mol
# Density = 1.817948 g / cm^3
# Si number density = 18.220953 Si / 1000 Ang^3
#
#
#
# Elastic Constant Matrix: (Units=GPa)
#
#
# Indices 1 2 3 4 5 6 
#
# 1 154.5971 57.1723 69.4237 0.0000 0.0000 0.0000
# 2 57.1723 65.1563 82.9497 0.0000 0.0000 0.0000
# 3 69.4237 82.9497 179.6909 0.0000 0.0000 0.0000
# 4 0.0000 0.0000 0.0000 41.4859 0.0000 0.0000
# 5 0.0000 0.0000 0.0000 0.0000-1554.3511 0.0000
# 6 0.0000 0.0000 0.0000 0.0000 0.0000 35.7098
#
#
#
# Elastic Compliance Matrix: (Units=1/GPa)
#
#
# Indices 1 2 3 4 5 6 
#
# 1 0.009590 -0.008969 0.000435 0.000000 0.000000 0.000000
# 2 -0.008969 0.045611 -0.017590 0.000000 0.000000 0.000000
# 3 0.000435 -0.017590 0.013517 0.000000 0.000000 0.000000
# 4 0.000000 0.000000 0.000000 0.024105 0.000000 0.000000
# 5 0.000000 0.000000 0.000000 0.000000 -0.000643 0.000000
# 6 0.000000 0.000000 0.000000 0.000000 0.000000 0.028003
#
#
# Mechanical properties :
#
#
# Convention : Reuss Voigt Hill
#
# Bulk Modulus (GPa) = 60.71403 90.94841 75.83122
# Shear Modulus (GPa) = 28.10239 -282.77116 -127.33438
#
# Velocity S-wave (km/s) = 3.93149 -12.47105 -8.36870
# Velocity P-wave (km/s) = 7.34861 12.54380 7.18835
#
# Compressibility (1/GPa) = 0.01647066
#
# Stress axis : x y z
#
# Youngs Moduli (GPa) = 104.27789 21.92434 73.98034
#
# Poissons Ratio (x) = 0.19663 -0.03219
# Poissons Ratio (y) = 0.93523 1.30134
# Poissons Ratio (z) = -0.04538 0.38566
#
# Static dielectric constant tensor:
#      x y z
#    x 3.385560 0.000000 0.000000 
#    y 0.000000 3.248710 0.000000 
#    z 0.000000 0.000000 3.387940 
# 
# 
# High freq. dielectric constant tensor:
#      x y z
#    x 1.715880 0.000000 0.000000 
#    y 0.000000 1.700480 0.000000 
#    z 0.000000 0.000000 1.719530 
# 
# From -- ./inp_files/17967.got.cif
#   From: 2010.03.12/outbox.cif.g09.slc.cpg/sg51_9_cif.got.tgz:17967.got - 2010.04.16 13:43:02.
