data_PCOD8212051
_publ_section_title
;
Structure prediction by ZEFSAII (Michael W. Deem and Ramdas Pophale) SiO2 
 PCOD8212051
Probable space group: P M M A
;
_chemical_formula_sum "Si O2"
_cell_formula_units_Z 40
_cell_length_a 9.058403
_cell_length_b 24.864437
_cell_length_c 9.694175
_cell_angle_alpha 90.000000
_cell_angle_beta 90.000000
_cell_angle_gamma 90.000000
_cell_volume 2183.439303
_symmetry_space_group_name_H-M "P M M A"
_symmetry_group_IT_number 51
_symmetry_cell_setting 'orthorhombic'
loop_
_space_group_symop_operation_xyz
x,y,z
1/2-x,-y,z
1/2+x,-y,-z
-x,y,-z
-x,-y,-z
1/2+x,y,-z
1/2-x,y,z
x,-y,z
loop_
_atom_site_type_symbol
_atom_site_label
_atom_site_fract_x
_atom_site_fract_y
_atom_site_fract_z
Si Si1 0.076170 0.349411 0.147112
Si Si2 0.576632 0.863011 0.641748
Si Si3 0.421555 0.260252 0.359425
Si Si4 0.577030 0.561126 0.639905
Si Si5 0.579946 0.939185 0.144532
O O1 0.250000 0.348779 0.122376
O O2 0.023988 0.296978 0.232683
O O3 0.026300 0.402170 0.232189
O O4 0.000000 0.349579 0.000000
O O5 0.500000 0.879291 0.500000
O O6 0.750000 0.874230 0.629972
O O7 0.542293 0.801195 0.679356
O O8 0.506239 0.899631 0.756932
O O9 0.500000 0.278102 0.500000
O O10 0.250000 0.269424 0.386559
O O11 0.500000 0.581180 0.500000
O O12 0.750000 0.566853 0.614483
O O13 0.530827 0.500000 0.674996
O O14 0.750000 0.921190 0.129821
O O15 0.569618 0.000000 0.201964
O O16 0.500000 0.934841 0.000000
#
# Coordination Sequence:
#
# PCOD8212051 Si02
#       5
#     8   8   8   8   8
#     4  10  21  35  50  73 105 136 169 209 253 301
#     4  10  20  35  55  79 106 135 171 214 259 306
#     4   9  19  35  54  76 101 132 170 211 254 302
#     4   9  18  33  53  76 101 131 169 211 253 300
#     4  10  21  37  56  78 105 138 174 211 255 307
#
# _framework density 18.319723
#
# number of rings (size 3 to 8) (size 9 to 14) (size 15 to 20)
#    0.000    2.400    0.000    1.800    0.000    5.200 
#    0.000    2.000    0.000    0.000    0.000    0.000 
#    0.000    0.000    0.000    0.000    0.000    0.000 
#
# Total GULP energy -496056.726711 kJ/mol
# GULP energy per Si atom -12401.418168 kJ/mol
# Density = 1.827803 g / cm^3
# Si number density = 18.319723 Si / 1000 Ang^3
#
#
#
# Elastic Constant Matrix: (Units=GPa)
#
#
# Indices 1 2 3 4 5 6 
#
# 1 78.3897 49.8002 61.2754 0.0000 0.0000 0.0000
# 2 49.8002 108.3584 86.4973 0.0000 0.0000 0.0000
# 3 61.2754 86.4973 153.4862 0.0000 0.0000 0.0000
# 4 0.0000 0.0000 0.0000 43.5785 0.0000 0.0000
# 5 0.0000 0.0000 0.0000 0.0000 41.3174 0.0000
# 6 0.0000 0.0000 0.0000 0.0000 0.0000 26.3807
#
#
#
# Elastic Compliance Matrix: (Units=1/GPa)
#
#
# Indices 1 2 3 4 5 6 
#
# 1 0.019993 -0.005121 -0.005096 0.000000 0.000000 0.000000
# 2 -0.005121 0.018087 -0.008148 0.000000 0.000000 0.000000
# 3 -0.005096 -0.008148 0.013142 0.000000 0.000000 0.000000
# 4 0.000000 0.000000 0.000000 0.022947 0.000000 0.000000
# 5 0.000000 0.000000 0.000000 0.000000 0.024203 0.000000
# 6 0.000000 0.000000 0.000000 0.000000 0.000000 0.037906
#
#
# Mechanical properties :
#
#
# Convention : Reuss Voigt Hill
#
# Bulk Modulus (GPa) = 69.00689 81.70889 75.35789
# Shear Modulus (GPa) = 28.11536 31.76609 29.94072
#
# Velocity S-wave (km/s) = 3.92178 4.16863 4.04709
# Velocity P-wave (km/s) = 7.63263 8.23823 7.94120
#
# Compressibility (1/GPa) = 0.01449131
#
# Stress axis : x y z
#
# Youngs Moduli (GPa) = 50.01650 55.28984 76.09387
#
# Poissons Ratio (x) = 0.28313 0.38777
# Poissons Ratio (y) = 0.25613 0.62004
# Poissons Ratio (z) = 0.25488 0.45052
#
# Static dielectric constant tensor:
#      x y z
#    x 3.393570 0.000000 0.000000 
#    y 0.000000 3.648160 0.000000 
#    z 0.000000 0.000000 3.320530 
# 
# 
# High freq. dielectric constant tensor:
#      x y z
#    x 1.713180 0.000000 0.000000 
#    y 0.000000 1.721040 0.000000 
#    z 0.000000 0.000000 1.707650 
# 
# From -- ./inp_files/5198.got.cif
#   From: 2010.03.12/outbox.cif.g09.slc.cpg/sg51_3_cif.got.tgz:5198.got - 2010.04.16 13:43:02.
