data_PCOD8212869
_publ_section_title
;
Structure prediction by ZEFSAII (Michael W. Deem and Ramdas Pophale) SiO2 
 PCOD8212869
Probable space group: P M M A
;
_chemical_formula_sum "Si O2"
_cell_formula_units_Z 52
_cell_length_a 9.632191
_cell_length_b 10.331942
_cell_length_c 28.560999
_cell_angle_alpha 90.000000
_cell_angle_beta 90.000000
_cell_angle_gamma 90.000000
_cell_volume 2842.368878
_symmetry_space_group_name_H-M "P M M A"
_symmetry_group_IT_number 51
_symmetry_cell_setting 'orthorhombic'
loop_
_space_group_symop_operation_xyz
x,y,z
1/2-x,-y,z
1/2+x,-y,-z
-x,y,-z
-x,-y,-z
1/2+x,y,-z
1/2-x,y,z
x,-y,z
loop_
_atom_site_type_symbol
_atom_site_label
_atom_site_fract_x
_atom_site_fract_y
_atom_site_fract_z
Si Si1 0.487567 0.259680 0.100860
Si Si2 0.750000 0.139189 0.945667
Si Si3 0.588704 0.649747 0.801868
Si Si4 0.750000 0.844921 0.049233
Si Si5 0.592096 0.847864 0.369804
Si Si6 0.090283 0.851100 0.280347
Si Si7 0.090171 0.154086 0.455766
Si Si8 0.598864 0.500000 0.957169
O O1 0.380591 0.146704 0.088753
O O2 0.502918 0.293199 0.155633
O O3 0.628098 0.218310 0.077997
O O4 0.418543 0.380123 0.076147
O O5 0.750000 0.000000 0.968876
O O6 0.750000 0.215627 0.996027
O O7 0.750000 0.656544 0.816041
O O8 0.547519 0.500000 0.790145
O O9 0.556742 0.745598 0.759139
O O10 0.750000 0.000000 0.053725
O O11 0.750000 0.789658 0.370702
O O12 0.515697 0.814826 0.321448
O O13 0.494116 0.790862 0.410911
O O14 0.603758 0.000000 0.377039
O O15 0.250000 0.837179 0.297559
O O16 0.065408 0.000000 0.263060
O O17 0.250000 0.207532 0.457178
O O18 0.000000 0.202060 0.500000
O O19 0.097337 0.000000 0.454418
O O20 0.750000 0.500000 0.979340
O O21 0.500000 0.500000 0.000000
#
# Coordination Sequence:
#
# PCOD8212869 Si02
#       8
#     8   4   8   4   8   8   8   4
#     4  12  23  40  61  83 113 145 181 222 272 327
#     4  11  22  39  63  85 111 148 183 219 266 325
#     4  10  20  39  60  82 110 139 178 227 278 332
#     4  11  26  43  57  85 119 148 181 223 270 325
#     4   9  16  27  43  65  97 135 175 222 273 323
#     4   9  18  32  53  77  99 131 178 224 270 325
#     4   9  15  22  35  59  95 139 184 225 268 319
#     4  12  24  38  62  90 114 142 182 222 263 324
#
# _framework density 18.294599999999999
#
# number of rings (size 3 to 8) (size 9 to 14) (size 15 to 20)
#    0.000    1.846    2.308    2.769    1.077    6.154 
#    1.385    0.000    0.000    0.000    0.000    0.000 
#    0.000    0.615    0.000    1.692    0.000    3.077 
#
# Total GULP energy -644254.778194 kJ/mol
# GULP energy per Si atom -12389.514965 kJ/mol
# Density = 1.825296 g / cm^3
# Si number density = 18.294600 Si / 1000 Ang^3
#
#
#
# Elastic Constant Matrix: (Units=GPa)
#
#
# Indices 1 2 3 4 5 6 
#
# 1 144.3778 29.4618 67.3978 0.0000 0.0000 0.0000
# 2 29.4618 62.1140 43.0790 0.0000 0.0000 0.0000
# 3 67.3978 43.0790 136.0130 0.0000 0.0000 0.0000
# 4 0.0000 0.0000 0.0000 15.3696 0.0000 0.0000
# 5 0.0000 0.0000 0.0000 0.0000 10.7629 0.0000
# 6 0.0000 0.0000 0.0000 0.0000 0.0000 32.5895
#
#
#
# Elastic Compliance Matrix: (Units=1/GPa)
#
#
# Indices 1 2 3 4 5 6 
#
# 1 0.009122 -0.001527 -0.004037 0.000000 0.000000 0.000000
# 2 -0.001527 0.020887 -0.005859 0.000000 0.000000 0.000000
# 3 -0.004037 -0.005859 0.011208 0.000000 0.000000 0.000000
# 4 0.000000 0.000000 0.000000 0.065064 0.000000 0.000000
# 5 0.000000 0.000000 0.000000 0.000000 0.092912 0.000000
# 6 0.000000 0.000000 0.000000 0.000000 0.000000 0.030685
#
#
# Mechanical properties :
#
#
# Convention : Reuss Voigt Hill
#
# Bulk Modulus (GPa) = 54.42968 69.15355 61.79162
# Shear Modulus (GPa) = 19.31644 25.24880 22.28262
#
# Velocity S-wave (km/s) = 3.25292 3.71903 3.49376
# Velocity P-wave (km/s) = 6.62759 7.50491 7.07985
#
# Compressibility (1/GPa) = 0.01837233
#
# Stress axis : x y z
#
# Youngs Moduli (GPa) = 109.62184 47.87630 89.22137
#
# Poissons Ratio (x) = 0.07312 0.36015
# Poissons Ratio (y) = 0.16743 0.52272
# Poissons Ratio (z) = 0.44250 0.28049
#
# Static dielectric constant tensor:
#      x y z
#    x 3.357530 0.000000 0.000000 
#    y 0.000000 3.226930 0.000000 
#    z 0.000000 0.000000 3.410630 
# 
# 
# High freq. dielectric constant tensor:
#      x y z
#    x 1.714530 0.000000 0.000000 
#    y 0.000000 1.674140 0.000000 
#    z 0.000000 0.000000 1.709690 
# 
# From -- ./inp_files/36271.got.cif
#   From: 2010.03.12/outbox.cif.g09.slc.cpg/sg51_19_cif.got.tgz:36271.got - 2010.04.16 13:43:02.
