data_PCOD8212033
_publ_section_title
;
Structure prediction by ZEFSAII (Michael W. Deem and Ramdas Pophale) SiO2 
 PCOD8212033
Probable space group: P M M A
;
_chemical_formula_sum "Si O2"
_cell_formula_units_Z 48
_cell_length_a 8.666284
_cell_length_b 16.350217
_cell_length_c 18.434230
_cell_angle_alpha 90.000000
_cell_angle_beta 90.000000
_cell_angle_gamma 90.000000
_cell_volume 2612.049723
_symmetry_space_group_name_H-M "P M M A"
_symmetry_group_IT_number 51
_symmetry_cell_setting 'orthorhombic'
loop_
_space_group_symop_operation_xyz
x,y,z
1/2-x,-y,z
1/2+x,-y,-z
-x,y,-z
-x,-y,-z
1/2+x,y,-z
1/2-x,y,z
x,-y,z
loop_
_atom_site_type_symbol
_atom_site_label
_atom_site_fract_x
_atom_site_fract_y
_atom_site_fract_z
Si Si1 0.931162 0.807285 0.575135
Si Si2 0.067810 0.500000 0.857965
Si Si3 0.430108 0.500000 0.300178
Si Si4 0.429456 0.662519 0.656841
Si Si5 0.068605 0.336064 0.077003
Si Si6 0.571608 0.234791 0.200140
Si Si7 0.569451 0.093471 0.716136
O O1 0.750000 0.793753 0.568349
O O2 0.972959 0.873876 0.636209
O O3 0.000000 0.840882 0.500000
O O4 0.010602 0.720891 0.593162
O O5 0.250000 0.500000 0.864986
O O6 0.025376 0.500000 0.773911
O O7 0.003890 0.420721 0.897390
O O8 0.250000 0.500000 0.281830
O O9 0.474950 0.578838 0.347424
O O10 0.250000 0.644330 0.645173
O O11 0.462620 0.703550 0.734294
O O12 0.250000 0.347268 0.071246
O O13 0.029077 0.263181 0.132164
O O14 0.000000 0.310488 0.000000
O O15 0.750000 0.235421 0.178102
O O16 0.522184 0.143569 0.222723
O O17 0.750000 0.103781 0.731185
O O18 0.515711 0.000000 0.721292
#
# Coordination Sequence:
#
# PCOD8212033 Si02
#       7
#     8   4   4   8   8   8   8
#     4  10  20  35  55  80 112 146 183 223 274 331
#     4  12  23  37  54  79 114 149 188 233 277 323
#     4  12  22  33  54  81 108 143 187 231 277 323
#     4  10  20  35  55  77 106 143 185 230 275 322
#     4  12  24  38  56  80 113 151 189 230 278 330
#     4  10  20  35  56  81 110 143 183 228 274 328
#     4   9  19  36  58  84 113 145 182 224 271 328
#
# _framework density 18.376373000000001
#
# number of rings (size 3 to 8) (size 9 to 14) (size 15 to 20)
#    0.000    1.500    1.667    4.750    0.000    2.667 
#    0.000    0.417    0.000    0.500    0.000    0.000 
#    0.000    0.000    0.000    0.000    0.000    0.000 
#
# Total GULP energy -595481.915954 kJ/mol
# GULP energy per Si atom -12405.873249 kJ/mol
# Density = 1.833455 g / cm^3
# Si number density = 18.376373 Si / 1000 Ang^3
#
#
#
# Elastic Constant Matrix: (Units=GPa)
#
#
# Indices 1 2 3 4 5 6 
#
# 1 115.4794 45.6127 39.0688 0.0000 0.0000 0.0000
# 2 45.6127 127.5490 39.4752 0.0000 0.0000 0.0000
# 3 39.0688 39.4752 84.3479 0.0000 0.0000 0.0000
# 4 0.0000 0.0000 0.0000 -11.5373 0.0000 0.0000
# 5 0.0000 0.0000 0.0000 0.0000 32.6901 0.0000
# 6 0.0000 0.0000 0.0000 0.0000 0.0000 28.9179
#
#
#
# Elastic Compliance Matrix: (Units=1/GPa)
#
#
# Indices 1 2 3 4 5 6 
#
# 1 0.011045 -0.002767 -0.003821 0.000000 0.000000 0.000000
# 2 -0.002767 0.009861 -0.003333 0.000000 0.000000 0.000000
# 3 -0.003821 -0.003333 0.015185 0.000000 0.000000 0.000000
# 4 0.000000 0.000000 0.000000 -0.086676 0.000000 0.000000
# 5 0.000000 0.000000 0.000000 0.000000 0.030590 0.000000
# 6 0.000000 0.000000 0.000000 0.000000 0.000000 0.034581
#
#
# Mechanical properties :
#
#
# Convention : Reuss Voigt Hill
#
# Bulk Modulus (GPa) = 61.54259 63.96553 62.75406
# Shear Modulus (GPa) = 125.48004 23.56212 74.52108
#
# Velocity S-wave (km/s) = 8.27234 3.58466 6.37501
# Velocity P-wave (km/s) = 11.17161 7.21230 9.40271
#
# Compressibility (1/GPa) = 0.01624891
#
# Stress axis : x y z
#
# Youngs Moduli (GPa) = 90.53622 101.40532 65.85241
#
# Poissons Ratio (x) = 0.28063 0.25161
# Poissons Ratio (y) = 0.25055 0.21951
# Poissons Ratio (z) = 0.34593 0.33802
#
# Static dielectric constant tensor:
#      x y z
#    x 3.472930 0.000000 0.000000 
#    y 0.000000 3.404390 0.000000 
#    z 0.000000 0.000000 3.369980 
# 
# 
# High freq. dielectric constant tensor:
#      x y z
#    x 1.728330 0.000000 0.000000 
#    y 0.000000 1.705840 0.000000 
#    z 0.000000 0.000000 1.700370 
# 
# From -- ./inp_files/27628.got.cif
#   From: 2010.03.12/outbox.cif.g09.slc.cpg/sg51_14_cif.got.tgz:27628.got - 2010.04.16 13:43:02.
