data_PCOD8212191
_publ_section_title
;
Structure prediction by ZEFSAII (Michael W. Deem and Ramdas Pophale) SiO2 
 PCOD8212191
Probable space group: P M M A
;
_chemical_formula_sum "Si O2"
_cell_formula_units_Z 56
_cell_length_a 18.915611
_cell_length_b 9.160459
_cell_length_c 17.723900
_cell_angle_alpha 90.000000
_cell_angle_beta 90.000000
_cell_angle_gamma 90.000000
_cell_volume 3071.120807
_symmetry_space_group_name_H-M "P M M A"
_symmetry_group_IT_number 51
_symmetry_cell_setting 'orthorhombic'
loop_
_space_group_symop_operation_xyz
x,y,z
1/2-x,-y,z
1/2+x,-y,-z
-x,y,-z
-x,-y,-z
1/2+x,y,-z
1/2-x,y,z
x,-y,z
loop_
_atom_site_type_symbol
_atom_site_label
_atom_site_fract_x
_atom_site_fract_y
_atom_site_fract_z
Si Si1 0.667113 0.330010 0.581265
Si Si2 0.167443 0.329693 0.120929
Si Si3 0.665912 0.835380 0.026402
Si Si4 0.934430 0.329722 0.307069
Si Si5 0.574248 0.172689 0.463583
Si Si6 0.907804 0.671166 0.730762
Si Si7 0.831292 0.669339 0.173086
O O1 0.750000 0.303966 0.587887
O O2 0.648435 0.500000 0.569792
O O3 0.638318 0.241150 0.510321
O O4 0.630743 0.265225 0.656669
O O5 0.250000 0.299578 0.133729
O O6 0.152051 0.500000 0.109052
O O7 0.126368 0.263566 0.193168
O O8 0.137466 0.247586 0.047423
O O9 0.750000 0.828995 0.026438
O O10 0.637769 0.757550 0.101933
O O11 0.637247 0.000000 0.025093
O O12 0.931345 0.500000 0.329546
O O13 0.920311 0.232699 0.379584
O O14 0.874998 0.287286 0.246821
O O15 0.009856 0.289223 0.271141
O O16 0.500000 0.221505 0.500000
O O17 0.582653 0.000000 0.462248
O O18 0.893478 0.500000 0.731802
O O19 0.750000 0.709655 0.189552
O O20 0.840218 0.500000 0.153322
#
# Coordination Sequence:
#
# PCOD8212191 Si02
#       7
#     8   8   8   8   8   8   8
#     4  10  20  35  58  84 107 136 178 226 271 316
#     4   9  16  28  49  75 102 132 168 212 259 308
#     4   9  17  30  49  73 101 135 173 210 254 308
#     4  10  20  35  57  79 102 136 176 219 268 318
#     4  11  23  38  55  77 108 146 182 215 261 322
#     4   9  17  31  52  78 105 134 171 215 264 315
#     4   9  18  33  53  77 102 129 169 219 265 310
#
# _framework density 18.234385
#
# number of rings (size 3 to 8) (size 9 to 14) (size 15 to 20)
#    0.000    2.429    1.429    1.286    0.000    5.429 
#    0.000    3.571    0.000    6.000    0.000    0.000 
#    0.000    0.000    0.000    0.000    0.000    0.000 
#
# Total GULP energy -694514.064375 kJ/mol
# GULP energy per Si atom -12402.036864 kJ/mol
# Density = 1.819288 g / cm^3
# Si number density = 18.234385 Si / 1000 Ang^3
#
#
#
# Elastic Constant Matrix: (Units=GPa)
#
#
# Indices 1 2 3 4 5 6 
#
# 1 80.4601 36.4248 60.2598 0.0000 0.0000 0.0000
# 2 36.4248 67.4099 64.0362 0.0000 0.0000 0.0000
# 3 60.2598 64.0362 164.6138 0.0000 0.0000 0.0000
# 4 0.0000 0.0000 0.0000 8.5563 0.0000 0.0000
# 5 0.0000 0.0000 0.0000 0.0000 29.0604 0.0000
# 6 0.0000 0.0000 0.0000 0.0000 0.0000 15.0628
#
#
#
# Elastic Compliance Matrix: (Units=1/GPa)
#
#
# Indices 1 2 3 4 5 6 
#
# 1 0.018371 -0.005612 -0.004542 0.000000 0.000000 0.000000
# 2 -0.005612 0.025244 -0.007766 0.000000 0.000000 0.000000
# 3 -0.004542 -0.007766 0.010758 0.000000 0.000000 0.000000
# 4 0.000000 0.000000 0.000000 0.116873 0.000000 0.000000
# 5 0.000000 0.000000 0.000000 0.000000 0.034411 0.000000
# 6 0.000000 0.000000 0.000000 0.000000 0.000000 0.066389
#
#
# Mechanical properties :
#
#
# Convention : Reuss Voigt Hill
#
# Bulk Modulus (GPa) = 53.95505 70.43616 62.19560
# Shear Modulus (GPa) = 15.92035 20.65344 18.28690
#
# Velocity S-wave (km/s) = 2.95802 3.36916 3.17026
# Velocity P-wave (km/s) = 6.42810 7.33805 6.89810
#
# Compressibility (1/GPa) = 0.01853395
#
# Stress axis : x y z
#
# Youngs Moduli (GPa) = 54.43462 39.61293 92.95074
#
# Poissons Ratio (x) = 0.22231 0.42216
# Poissons Ratio (y) = 0.30549 0.72184
# Poissons Ratio (z) = 0.24723 0.30763
#
# Static dielectric constant tensor:
#      x y z
#    x 3.240900 0.000000 0.000000 
#    y 0.000000 3.196570 0.000000 
#    z 0.000000 0.000000 3.541640 
# 
# 
# High freq. dielectric constant tensor:
#      x y z
#    x 1.691820 0.000000 0.000000 
#    y 0.000000 1.686080 0.000000 
#    z 0.000000 0.000000 1.720810 
# 
# From -- ./inp_files/25731.got.cif
#   From: 2010.03.12/outbox.cif.g09.slc.cpg/sg51_13_cif.got.tgz:25731.got - 2010.04.16 13:43:02.
