data_PCOD8212737
_publ_section_title
;
Structure prediction by ZEFSAII (Michael W. Deem and Ramdas Pophale) SiO2 
 PCOD8212737
Probable space group: P M M A
;
_chemical_formula_sum "Si O2"
_cell_formula_units_Z 40
_cell_length_a 9.777719
_cell_length_b 14.501342
_cell_length_c 13.670490
_cell_angle_alpha 90.000000
_cell_angle_beta 90.000000
_cell_angle_gamma 90.000000
_cell_volume 1938.339422
_symmetry_space_group_name_H-M "P M M A"
_symmetry_group_IT_number 51
_symmetry_cell_setting 'orthorhombic'
loop_
_space_group_symop_operation_xyz
x,y,z
1/2-x,-y,z
1/2+x,-y,-z
-x,y,-z
-x,-y,-z
1/2+x,y,-z
1/2-x,y,z
x,-y,z
loop_
_atom_site_type_symbol
_atom_site_label
_atom_site_fract_x
_atom_site_fract_y
_atom_site_fract_z
Si Si1 0.750000 0.109129 0.422708
Si Si2 0.406685 0.390493 0.411758
Si Si3 0.471501 0.108990 0.729702
Si Si4 0.750000 0.109568 0.640514
Si Si5 0.596091 0.233483 0.090460
Si Si6 0.906855 0.394093 0.231417
O O1 0.618199 0.141820 0.362438
O O2 0.750000 0.153308 0.531283
O O3 0.750000 0.000000 0.433698
O O4 0.500000 0.351053 0.500000
O O5 0.250000 0.350864 0.412926
O O6 0.399005 0.500000 0.420172
O O7 0.485687 0.361272 0.313241
O O8 0.621859 0.143986 0.702802
O O9 0.421531 0.154997 0.828622
O O10 0.461369 0.000000 0.745710
O O11 0.750000 0.000000 0.630493
O O12 0.750000 0.230267 0.050633
O O13 0.563324 0.333698 0.135526
O O14 0.500000 0.211761 0.000000
O O15 0.750000 0.379059 0.268590
O O16 0.931275 0.500000 0.202440
#
# Coordination Sequence:
#
# PCOD8212737 Si02
#       6
#     4   8   8   4   8   8
#     4   9  16  32  59  87 120 157 191 231 283 339
#     4   9  16  28  51  83 116 151 188 228 281 345
#     4  10  20  37  60  88 122 156 192 236 284 343
#     4   9  18  32  57  91 122 157 195 231 279 341
#     4  11  25  42  61  84 113 151 196 247 299 346
#     4   9  19  38  61  82 110 148 192 244 297 348
#
# _framework density 20.636220999999999
#
# number of rings (size 3 to 8) (size 9 to 14) (size 15 to 20)
#    0.000    2.400    1.000    1.200    1.400    6.400 
#    0.000    2.000    0.000    0.000    0.000    0.000 
#    0.000    0.000    0.000    0.000    0.000    0.000 
#
# Total GULP energy -495956.529128 kJ/mol
# GULP energy per Si atom -12398.913228 kJ/mol
# Density = 2.058925 g / cm^3
# Si number density = 20.636221 Si / 1000 Ang^3
#
#
#
# Elastic Constant Matrix: (Units=GPa)
#
#
# Indices 1 2 3 4 5 6 
#
# 1 123.8329 18.0011 30.4133 0.0000 0.0000 0.0000
# 2 18.0011 46.8539 25.1353 0.0000 0.0000 0.0000
# 3 30.4133 25.1353 88.9899 0.0000 0.0000 0.0000
# 4 0.0000 0.0000 0.0000 16.0483 0.0000 0.0000
# 5 0.0000 0.0000 0.0000 0.0000 31.0406 0.0000
# 6 0.0000 0.0000 0.0000 0.0000 0.0000 16.7004
#
#
#
# Elastic Compliance Matrix: (Units=1/GPa)
#
#
# Indices 1 2 3 4 5 6 
#
# 1 0.008992 -0.002129 -0.002472 0.000000 0.000000 0.000000
# 2 -0.002129 0.025658 -0.006520 0.000000 0.000000 0.000000
# 3 -0.002472 -0.006520 0.013924 0.000000 0.000000 0.000000
# 4 0.000000 0.000000 0.000000 0.062312 0.000000 0.000000
# 5 0.000000 0.000000 0.000000 0.000000 0.032216 0.000000
# 6 0.000000 0.000000 0.000000 0.000000 0.000000 0.059879
#
#
# Mechanical properties :
#
#
# Convention : Reuss Voigt Hill
#
# Bulk Modulus (GPa) = 37.97468 45.19735 41.58602
# Shear Modulus (GPa) = 21.36766 25.16633 23.26699
#
# Velocity S-wave (km/s) = 3.22132 3.49595 3.36144
# Velocity P-wave (km/s) = 5.68136 6.18426 5.93813
#
# Compressibility (1/GPa) = 0.02633333
#
# Stress axis : x y z
#
# Youngs Moduli (GPa) = 111.21106 38.97372 71.82096
#
# Poissons Ratio (x) = 0.08296 0.17753
# Poissons Ratio (y) = 0.23673 0.46825
# Poissons Ratio (z) = 0.27490 0.25410
#
# Static dielectric constant tensor:
#      x y z
#    x 4.042870 0.000000 0.000000 
#    y 0.000000 3.511030 0.000000 
#    z 0.000000 0.000000 3.527800 
# 
# 
# High freq. dielectric constant tensor:
#      x y z
#    x 1.822380 0.000000 0.000000 
#    y 0.000000 1.796980 0.000000 
#    z 0.000000 0.000000 1.789340 
# 
# From -- ./inp_files/20553.got.cif
#   From: 2010.03.12/outbox.cif.g09.slc.cpg/sg51_11_cif.got.tgz:20553.got - 2010.04.16 13:43:02.
