data_PCOD8212395
_publ_section_title
;
Structure prediction by ZEFSAII (Michael W. Deem and Ramdas Pophale) SiO2 
 PCOD8212395
Probable space group: P M M A
;
_chemical_formula_sum "Si O2"
_cell_formula_units_Z 64
_cell_length_a 8.544146
_cell_length_b 23.024171
_cell_length_c 15.692456
_cell_angle_alpha 90.000000
_cell_angle_beta 90.000000
_cell_angle_gamma 90.000000
_cell_volume 3087.049423
_symmetry_space_group_name_H-M "P M M A"
_symmetry_group_IT_number 51
_symmetry_cell_setting 'orthorhombic'
loop_
_space_group_symop_operation_xyz
x,y,z
1/2-x,-y,z
1/2+x,-y,-z
-x,y,-z
-x,-y,-z
1/2+x,y,-z
1/2-x,y,z
x,-y,z
loop_
_atom_site_type_symbol
_atom_site_label
_atom_site_fract_x
_atom_site_fract_y
_atom_site_fract_z
Si Si1 0.066512 0.272401 0.589727
Si Si2 0.933419 0.645207 0.907760
Si Si3 0.569123 0.766517 0.139650
Si Si4 0.435612 0.935403 0.736789
Si Si5 0.064780 0.388039 0.405754
Si Si6 0.069677 0.820060 0.304619
Si Si7 0.430747 0.892045 0.915233
Si Si8 0.570100 0.434590 0.241610
O O1 0.250000 0.259041 0.593564
O O2 0.000000 0.292837 0.500000
O O3 0.017649 0.330937 0.639333
O O4 0.965863 0.215021 0.609967
O O5 0.750000 0.634534 0.908772
O O6 0.964496 0.713670 0.892456
O O7 0.005874 0.608091 0.831448
O O8 0.000000 0.626401 0.000000
O O9 0.750000 0.748167 0.133176
O O10 0.534105 0.785145 0.236405
O O11 0.530675 0.823448 0.083801
O O12 0.250000 0.927661 0.732274
O O13 0.515638 0.886445 0.678387
O O14 0.501054 0.923630 0.832130
O O15 0.485842 0.000000 0.707194
O O16 0.250000 0.379060 0.414453
O O17 0.000000 0.406499 0.500000
O O18 0.024015 0.434119 0.331781
O O19 0.250000 0.818487 0.278344
O O20 0.250000 0.904840 0.914820
O O21 0.500000 0.920870 0.000000
O O22 0.750000 0.418196 0.259346
O O23 0.554127 0.500000 0.205964
#
# Coordination Sequence:
#
# PCOD8212395 Si02
#       8
#     8   8   8   8   8   8   8   8
#     4  11  21  36  58  86 119 150 182 220 270 330
#     4  12  25  41  62  88 118 154 197 246 301 356
#     4  10  20  36  56  80 111 146 186 231 283 339
#     4   9  19  36  53  70  98 140 187 230 275 327
#     4  11  22  39  64  95 129 161 194 235 288 349
#     4  11  21  34  54  82 113 145 184 229 281 338
#     4   9  18  30  47  72 102 136 172 217 270 324
#     4  11  25  45  66  88 117 156 202 249 295 345
#
# _framework density 20.731769
#
# number of rings (size 3 to 8) (size 9 to 14) (size 15 to 20)
#    0.000    1.500    0.000    7.875    0.000    5.500 
#    0.000    0.000    0.000    0.375    0.000    0.000 
#    0.000    0.000    0.000    0.000    0.000    0.000 
#
# Total GULP energy -793268.975324 kJ/mol
# GULP energy per Si atom -12394.827739 kJ/mol
# Density = 2.068458 g / cm^3
# Si number density = 20.731769 Si / 1000 Ang^3
#
#
#
# Elastic Constant Matrix: (Units=GPa)
#
#
# Indices 1 2 3 4 5 6 
#
# 1 86.5796 34.0593 27.5588 0.0000 0.0000 0.0000
# 2 34.0593 83.2538 22.0653 0.0000 0.0000 0.0000
# 3 27.5588 22.0653 66.4204 0.0000 0.0000 0.0000
# 4 0.0000 0.0000 0.0000 41.3274 0.0000 0.0000
# 5 0.0000 0.0000 0.0000 0.0000 33.4827 0.0000
# 6 0.0000 0.0000 0.0000 0.0000 0.0000 27.5878
#
#
#
# Elastic Compliance Matrix: (Units=1/GPa)
#
#
# Indices 1 2 3 4 5 6 
#
# 1 0.014931 -0.004897 -0.004568 0.000000 0.000000 0.000000
# 2 -0.004897 0.014778 -0.002877 0.000000 0.000000 0.000000
# 3 -0.004568 -0.002877 0.017907 0.000000 0.000000 0.000000
# 4 0.000000 0.000000 0.000000 0.024197 0.000000 0.000000
# 5 0.000000 0.000000 0.000000 0.000000 0.029866 0.000000
# 6 0.000000 0.000000 0.000000 0.000000 0.000000 0.036248
#
#
# Mechanical properties :
#
#
# Convention : Reuss Voigt Hill
#
# Bulk Modulus (GPa) = 43.61150 44.84675 44.22913
# Shear Modulus (GPa) = 29.36777 30.65094 30.00935
#
# Velocity S-wave (km/s) = 3.76780 3.84924 3.80874
# Velocity P-wave (km/s) = 6.32536 6.43695 6.38140
#
# Compressibility (1/GPa) = 0.02292973
#
# Stress axis : x y z
#
# Youngs Moduli (GPa) = 66.97619 67.67000 55.84487
#
# Poissons Ratio (x) = 0.33141 0.25510
# Poissons Ratio (y) = 0.32802 0.16068
# Poissons Ratio (z) = 0.30595 0.19470
#
# Static dielectric constant tensor:
#      x y z
#    x 3.648480 0.000000 0.000000 
#    y 0.000000 3.782660 0.000000 
#    z 0.000000 0.000000 3.928960 
# 
# 
# High freq. dielectric constant tensor:
#      x y z
#    x 1.814650 0.000000 0.000000 
#    y 0.000000 1.811600 0.000000 
#    z 0.000000 0.000000 1.797610 
# 
# From -- ./inp_files/22215.got.cif
#   From: 2010.03.12/outbox.cif.g09.slc.cpg/sg51_12_cif.got.tgz:22215.got - 2010.04.16 13:43:02.
