data_PCOD8212787
_publ_section_title
;
Structure prediction by ZEFSAII (Michael W. Deem and Ramdas Pophale) SiO2 
 PCOD8212787
Probable space group: P M M A
;
_chemical_formula_sum "Si O2"
_cell_formula_units_Z 40
_cell_length_a 17.650666
_cell_length_b 7.686691
_cell_length_c 14.500510
_cell_angle_alpha 90.000000
_cell_angle_beta 90.000000
_cell_angle_gamma 90.000000
_cell_volume 1967.359819
_symmetry_space_group_name_H-M "P M M A"
_symmetry_group_IT_number 51
_symmetry_cell_setting 'orthorhombic'
loop_
_space_group_symop_operation_xyz
x,y,z
1/2-x,-y,z
1/2+x,-y,-z
-x,y,-z
-x,-y,-z
1/2+x,y,-z
1/2-x,y,z
x,-y,z
loop_
_atom_site_type_symbol
_atom_site_label
_atom_site_fract_x
_atom_site_fract_y
_atom_site_fract_z
Si Si1 0.663125 0.203965 0.484552
Si Si2 0.837207 0.805046 0.143488
Si Si3 0.839769 0.500000 0.013586
Si Si4 0.568053 0.696991 0.315200
Si Si5 0.600095 0.197500 0.681195
Si Si6 0.840062 0.500000 0.805894
O O1 0.750000 0.258628 0.471414
O O2 0.613167 0.305874 0.410860
O O3 0.636779 0.261570 0.585838
O O4 0.650812 0.000000 0.469740
O O5 0.750000 0.761806 0.166906
O O6 0.869011 0.671782 0.067005
O O7 0.882855 0.791567 0.237860
O O8 0.845914 0.000000 0.103708
O O9 0.750000 0.500000 0.008719
O O10 0.872025 0.500000 0.910262
O O11 0.550793 0.500000 0.284997
O O12 0.490218 0.799650 0.327812
O O13 0.628892 0.324360 0.760691
O O14 0.625835 0.000000 0.704258
O O15 0.750000 0.500000 0.801276
#
# Coordination Sequence:
#
# PCOD8212787 Si02
#       6
#     8   8   4   8   8   4
#     4  10  22  39  60  89 123 162 207 250 294 353
#     4  10  20  37  62  91 124 160 200 249 304 362
#     4   9  20  39  62  91 122 151 195 254 308 359
#     4  12  23  37  60  91 126 164 203 246 303 361
#     4  11  24  43  63  88 125 166 204 247 299 355
#     4  11  24  43  67  93 120 153 202 256 302 359
#
# _framework density 20.331817000000001
#
# number of rings (size 3 to 8) (size 9 to 14) (size 15 to 20)
#    0.000    1.400    2.000    3.600    1.400    7.200 
#    0.000    4.000    0.000    2.400    0.000    0.000 
#    0.000    0.000    0.000    0.000    0.000    0.000 
#
# Total GULP energy -496210.249478 kJ/mol
# GULP energy per Si atom -12405.256237 kJ/mol
# Density = 2.028554 g / cm^3
# Si number density = 20.331817 Si / 1000 Ang^3
#
#
#
# Elastic Constant Matrix: (Units=GPa)
#
#
# Indices 1 2 3 4 5 6 
#
# 1 76.7230 16.6481 21.7824 0.0000 0.0000 0.0000
# 2 16.6481 118.8150 49.3762 0.0000 0.0000 0.0000
# 3 21.7824 49.3762 111.5913 0.0000 0.0000 0.0000
# 4 0.0000 0.0000 0.0000 24.9733 0.0000 0.0000
# 5 0.0000 0.0000 0.0000 0.0000 -72.5333 0.0000
# 6 0.0000 0.0000 0.0000 0.0000 0.0000 22.7961
#
#
#
# Elastic Compliance Matrix: (Units=1/GPa)
#
#
# Indices 1 2 3 4 5 6 
#
# 1 0.013896 -0.001005 -0.002268 0.000000 0.000000 0.000000
# 2 -0.001005 0.010385 -0.004399 0.000000 0.000000 0.000000
# 3 -0.002268 -0.004399 0.011350 0.000000 0.000000 0.000000
# 4 0.000000 0.000000 0.000000 0.040043 0.000000 0.000000
# 5 0.000000 0.000000 0.000000 0.000000 -0.013787 0.000000
# 6 0.000000 0.000000 0.000000 0.000000 0.000000 0.043867
#
#
# Mechanical properties :
#
#
# Convention : Reuss Voigt Hill
#
# Bulk Modulus (GPa) = 49.28947 53.63809 51.46378
# Shear Modulus (GPa) = 39.10500 9.66872 24.38686
#
# Velocity S-wave (km/s) = 4.39035 2.18307 3.46706
# Velocity P-wave (km/s) = 7.07074 5.72652 6.43383
#
# Compressibility (1/GPa) = 0.02028831
#
# Stress axis : x y z
#
# Youngs Moduli (GPa) = 71.96437 96.28933 88.10198
#
# Poissons Ratio (x) = 0.09673 0.19981
# Poissons Ratio (y) = 0.07229 0.38758
# Poissons Ratio (z) = 0.16321 0.42359
#
# Static dielectric constant tensor:
#      x y z
#    x 3.641290 0.000000 0.000000 
#    y 0.000000 3.794410 0.000000 
#    z 0.000000 0.000000 3.698550 
# 
# 
# High freq. dielectric constant tensor:
#      x y z
#    x 1.790090 0.000000 0.000000 
#    y 0.000000 1.807410 0.000000 
#    z 0.000000 0.000000 1.788820 
# 
# From -- ./inp_files/23814.got.cif
#   From: 2010.03.12/outbox.cif.g09.slc.cpg/sg51_12_cif.got.tgz:23814.got - 2010.04.16 13:43:02.
