data_PCOD8212723
_publ_section_title
;
Structure prediction by ZEFSAII (Michael W. Deem and Ramdas Pophale) SiO2 
 PCOD8212723
Probable space group: P M M A
;
_chemical_formula_sum "Si O2"
_cell_formula_units_Z 40
_cell_length_a 14.909973
_cell_length_b 8.984559
_cell_length_c 15.176249
_cell_angle_alpha 90.000000
_cell_angle_beta 90.000000
_cell_angle_gamma 90.000000
_cell_volume 2033.003215
_symmetry_space_group_name_H-M "P M M A"
_symmetry_group_IT_number 51
_symmetry_cell_setting 'orthorhombic'
loop_
_space_group_symop_operation_xyz
x,y,z
1/2-x,-y,z
1/2+x,-y,-z
-x,y,-z
-x,-y,-z
1/2+x,y,-z
1/2-x,y,z
x,-y,z
loop_
_atom_site_type_symbol
_atom_site_label
_atom_site_fract_x
_atom_site_fract_y
_atom_site_fract_z
Si Si1 0.750000 0.674998 0.501555
Si Si2 0.750000 0.823615 0.689579
Si Si3 0.389861 0.176080 0.169634
Si Si4 0.750000 0.675838 0.161484
Si Si5 0.750000 0.823253 0.972608
Si Si6 0.921450 0.170031 0.435227
Si Si7 0.577181 0.829025 0.233025
O O1 0.750000 0.500000 0.509289
O O2 0.750000 0.743626 0.597492
O O3 0.663813 0.726113 0.447401
O O4 0.837012 0.768880 0.743856
O O5 0.750000 0.000000 0.674144
O O6 0.339148 0.228826 0.080841
O O7 0.493242 0.229773 0.173921
O O8 0.386974 0.000000 0.171605
O O9 0.750000 0.500000 0.156925
O O10 0.662681 0.728487 0.213962
O O11 0.750000 0.740534 0.064170
O O12 0.750000 0.000000 0.988005
O O13 0.953152 0.184464 0.334461
O O14 0.000000 0.225273 0.500000
O O15 0.895360 0.000000 0.458221
O O16 0.600904 0.000000 0.209585
#
# Coordination Sequence:
#
# PCOD8212723 Si02
#       7
#     4   4   8   4   4   8   8
#     4  12  24  34  49  78 118 157 188 225 276 333
#     4   9  16  33  59  85 112 142 181 228 277 330
#     4   8  16  33  62  91 109 131 174 232 283 327
#     4  12  26  40  53  76 114 155 190 223 264 319
#     4   9  18  37  63  89 112 136 171 220 277 334
#     4  10  21  38  61  85 109 143 190 239 281 326
#     4  10  20  37  60  84 108 140 183 229 277 325
#
# _framework density 19.675325999999998
#
# number of rings (size 3 to 8) (size 9 to 14) (size 15 to 20)
#    0.000    2.200    0.000    4.800    0.000    7.600 
#    0.000   10.000    0.000    0.000    0.000    0.000 
#    0.000    0.000    0.000    0.000    0.000    0.000 
#
# Total GULP energy -495961.026466 kJ/mol
# GULP energy per Si atom -12399.025662 kJ/mol
# Density = 1.963054 g / cm^3
# Si number density = 19.675326 Si / 1000 Ang^3
#
#
#
# Elastic Constant Matrix: (Units=GPa)
#
#
# Indices 1 2 3 4 5 6 
#
# 1 143.7593 41.4671 45.4150 0.0000 0.0000 0.0000
# 2 41.4671 76.1460 30.3036 0.0000 0.0000 0.0000
# 3 45.4150 30.3036 97.1309 0.0000 0.0000 0.0000
# 4 0.0000 0.0000 0.0000 -0.8239 0.0000 0.0000
# 5 0.0000 0.0000 0.0000 0.0000 17.1128 0.0000
# 6 0.0000 0.0000 0.0000 0.0000 0.0000 -18.6992
#
#
#
# Elastic Compliance Matrix: (Units=1/GPa)
#
#
# Indices 1 2 3 4 5 6 
#
# 1 0.008981 -0.003676 -0.003052 0.000000 0.000000 0.000000
# 2 -0.003676 0.016499 -0.003429 0.000000 0.000000 0.000000
# 3 -0.003052 -0.003429 0.012792 0.000000 0.000000 0.000000
# 4 0.000000 0.000000 0.000000 -1.213692 0.000000 0.000000
# 5 0.000000 0.000000 0.000000 0.000000 0.058436 0.000000
# 6 0.000000 0.000000 0.000000 0.000000 0.000000 -0.053478
#
#
# Mechanical properties :
#
#
# Convention : Reuss Voigt Hill
#
# Bulk Modulus (GPa) = 55.68512 61.26750 58.47631
# Shear Modulus (GPa) = -4.37001 12.84130 4.23565
#
# Velocity S-wave (km/s) = -1.49194 2.55749 1.46882
# Velocity P-wave (km/s) = 5.03941 6.31885 5.71505
#
# Compressibility (1/GPa) = 0.01795812
#
# Stress axis : x y z
#
# Youngs Moduli (GPa) = 111.35115 60.60976 78.17266
#
# Poissons Ratio (x) = 0.22280 0.23860
# Poissons Ratio (y) = 0.40932 0.26803
# Poissons Ratio (z) = 0.33986 0.20781
#
# Static dielectric constant tensor:
#      x y z
#    x 4.047300 0.000000 0.000000 
#    y 0.000000 3.234630 0.000000 
#    z 0.000000 0.000000 3.633740 
# 
# 
# High freq. dielectric constant tensor:
#      x y z
#    x 1.778910 0.000000 0.000000 
#    y 0.000000 1.724640 0.000000 
#    z 0.000000 0.000000 1.774910 
# 
# From -- ./inp_files/23858.got.cif
#   From: 2010.03.12/outbox.cif.g09.slc.cpg/sg51_12_cif.got.tgz:23858.got - 2010.04.16 13:43:02.
