data_PCOD8212399
_publ_section_title
;
Structure prediction by ZEFSAII (Michael W. Deem and Ramdas Pophale) SiO2 
 PCOD8212399
Probable space group: P M M A
;
_chemical_formula_sum "Si O2"
_cell_formula_units_Z 52
_cell_length_a 8.798370
_cell_length_b 14.509386
_cell_length_c 20.332488
_cell_angle_alpha 90.000000
_cell_angle_beta 90.000000
_cell_angle_gamma 90.000000
_cell_volume 2595.623998
_symmetry_space_group_name_H-M "P M M A"
_symmetry_group_IT_number 51
_symmetry_cell_setting 'orthorhombic'
loop_
_space_group_symop_operation_xyz
x,y,z
1/2-x,-y,z
1/2+x,-y,-z
-x,y,-z
-x,-y,-z
1/2+x,y,-z
1/2-x,y,z
x,-y,z
loop_
_atom_site_type_symbol
_atom_site_label
_atom_site_fract_x
_atom_site_fract_y
_atom_site_fract_z
Si Si1 0.928025 0.699158 0.571899
Si Si2 0.428556 0.289284 0.933616
Si Si3 0.422657 0.500000 0.431835
Si Si4 0.929772 0.392393 0.808715
Si Si5 0.580645 0.101767 0.912385
Si Si6 0.074096 0.267488 0.701248
Si Si7 0.582017 0.898409 0.757530
O O1 0.750000 0.721509 0.566630
O O2 0.962282 0.596355 0.602843
O O3 0.000000 0.715533 0.500000
O O4 0.008471 0.757321 0.628558
O O5 0.250000 0.306632 0.932379
O O6 0.499772 0.338889 0.870418
O O7 0.462602 0.179671 0.935248
O O8 0.500000 0.333589 0.000000
O O9 0.250000 0.500000 0.451472
O O10 0.500000 0.500000 0.500000
O O11 0.750000 0.379167 0.811052
O O12 0.975473 0.500000 0.811038
O O13 0.989363 0.349276 0.740403
O O14 0.750000 0.126584 0.938828
O O15 0.586232 0.098048 0.834912
O O16 0.530106 0.000000 0.938355
O O17 0.250000 0.293149 0.697131
O O18 0.050625 0.171372 0.738263
O O19 0.750000 0.866489 0.732085
O O20 0.544273 0.000000 0.729154
#
# Coordination Sequence:
#
# PCOD8212399 Si02
#       7
#     8   8   4   8   8   8   8
#     4  10  20  36  56  82 117 159 203 247 297 353
#     4  12  25  41  63  89 120 158 198 245 298 357
#     4   8  16  30  50  74 104 144 189 232 281 336
#     4  11  25  45  66  87 116 155 201 252 301 348
#     4   9  18  35  60  88 120 156 194 240 295 354
#     4  12  24  37  59  92 125 159 197 243 296 354
#     4   9  18  35  61  89 118 155 196 241 294 351
#
# _framework density 20.033719000000001
#
# number of rings (size 3 to 8) (size 9 to 14) (size 15 to 20)
#    0.000    1.692    1.538    4.615    1.077    3.077 
#    0.000    1.538    0.000    0.462    0.000    0.000 
#    0.000    0.000    0.000    0.000    0.000    0.000 
#
# Total GULP energy -644329.611978 kJ/mol
# GULP energy per Si atom -12390.954076 kJ/mol
# Density = 1.998812 g / cm^3
# Si number density = 20.033719 Si / 1000 Ang^3
#
#
#
# Elastic Constant Matrix: (Units=GPa)
#
#
# Indices 1 2 3 4 5 6 
#
# 1 118.9524 36.6824 50.4283 0.0000 0.0000 0.0000
# 2 36.6824 86.8954 29.7353 0.0000 0.0000 0.0000
# 3 50.4283 29.7353 115.4259 0.0000 0.0000 0.0000
# 4 0.0000 0.0000 0.0000 4.3992 0.0000 0.0000
# 5 0.0000 0.0000 0.0000 0.0000 33.7578 0.0000
# 6 0.0000 0.0000 0.0000 0.0000 0.0000 -15.5654
#
#
#
# Elastic Compliance Matrix: (Units=1/GPa)
#
#
# Indices 1 2 3 4 5 6 
#
# 1 0.011131 -0.003328 -0.004006 0.000000 0.000000 0.000000
# 2 -0.003328 0.013616 -0.002054 0.000000 0.000000 0.000000
# 3 -0.004006 -0.002054 0.010943 0.000000 0.000000 0.000000
# 4 0.000000 0.000000 0.000000 0.227312 0.000000 0.000000
# 5 0.000000 0.000000 0.000000 0.000000 0.029623 0.000000
# 6 0.000000 0.000000 0.000000 0.000000 0.000000 -0.064245
#
#
# Mechanical properties :
#
#
# Convention : Reuss Voigt Hill
#
# Bulk Modulus (GPa) = 59.12026 61.66286 60.39156
# Shear Modulus (GPa) = 19.77902 18.14684 18.96293
#
# Velocity S-wave (km/s) = 3.14552 3.01294 3.07994
# Velocity P-wave (km/s) = 6.53964 6.55363 6.54664
#
# Compressibility (1/GPa) = 0.01691468
#
# Stress axis : x y z
#
# Youngs Moduli (GPa) = 89.83702 73.44402 91.38560
#
# Poissons Ratio (x) = 0.24444 0.36607
# Poissons Ratio (y) = 0.29900 0.18766
# Poissons Ratio (z) = 0.35986 0.15082
#
# Static dielectric constant tensor:
#      x y z
#    x 3.663380 0.000000 0.000000 
#    y 0.000000 4.022250 0.000000 
#    z 0.000000 0.000000 3.569330 
# 
# 
# High freq. dielectric constant tensor:
#      x y z
#    x 1.783890 0.000000 0.000000 
#    y 0.000000 1.773240 0.000000 
#    z 0.000000 0.000000 1.780790 
# 
# From -- ./inp_files/31782.got.cif
#   From: 2010.03.12/outbox.cif.g09.slc.cpg/sg51_16_cif.got.tgz:31782.got - 2010.04.16 13:43:02.
