data_PCOD8212730
_publ_section_title
;
Structure prediction by ZEFSAII (Michael W. Deem and Ramdas Pophale) SiO2 
 PCOD8212730
Probable space group: P M M A
;
_chemical_formula_sum "Si O2"
_cell_formula_units_Z 40
_cell_length_a 19.436258
_cell_length_b 11.021124
_cell_length_c 10.018311
_cell_angle_alpha 90.000000
_cell_angle_beta 90.000000
_cell_angle_gamma 90.000000
_cell_volume 2146.016484
_symmetry_space_group_name_H-M "P M M A"
_symmetry_group_IT_number 51
_symmetry_cell_setting 'orthorhombic'
loop_
_space_group_symop_operation_xyz
x,y,z
1/2-x,-y,z
1/2+x,-y,-z
-x,y,-z
-x,-y,-z
1/2+x,y,-z
1/2-x,y,z
x,-y,z
loop_
_atom_site_type_symbol
_atom_site_label
_atom_site_fract_x
_atom_site_fract_y
_atom_site_fract_z
Si Si1 0.567720 0.139016 0.141569
Si Si2 0.670944 0.859930 0.623784
Si Si3 0.829196 0.500000 0.218697
Si Si4 0.170472 0.755120 0.657024
Si Si5 0.421463 0.500000 0.043494
Si Si6 0.921322 0.760022 0.858040
O O1 0.626652 0.156377 0.250070
O O2 0.501517 0.220629 0.177140
O O3 0.544083 0.000000 0.138495
O O4 0.597577 0.177128 0.998142
O O5 0.750000 0.838700 0.663381
O O6 0.650263 0.779593 0.495971
O O7 0.625300 0.819170 0.746543
O O8 0.656606 0.000000 0.589547
O O9 0.750000 0.500000 0.172617
O O10 0.846320 0.615897 0.309697
O O11 0.874774 0.500000 0.087386
O O12 0.250000 0.787682 0.681871
O O13 0.405321 0.382949 0.133477
O O14 0.500000 0.500000 0.000000
#
# Coordination Sequence:
#
# PCOD8212730 Si02
#       6
#     8   8   4   8   4   8
#     4  11  21  36  59  86 115 151 197 239 283 343
#     4  10  22  40  59  85 122 156 190 236 288 343
#     4  10  20  37  60  85 114 147 196 247 282 332
#     4  10  21  38  60  84 115 156 196 238 287 340
#     4  12  20  39  62  84 116 154 188 241 290 340
#     4  11  22  37  59  86 117 150 191 238 294 340
#
# _framework density 18.639187
#
# number of rings (size 3 to 8) (size 9 to 14) (size 15 to 20)
#    0.000    1.400    4.000    3.000    0.000    4.400 
#    0.000    3.000    0.000    3.600    0.000    0.000 
#    0.000    0.000    0.000    0.000    0.000    0.000 
#
# Total GULP energy -496182.389232 kJ/mol
# GULP energy per Si atom -12404.559731 kJ/mol
# Density = 1.859676 g / cm^3
# Si number density = 18.639187 Si / 1000 Ang^3
#
#
#
# Elastic Constant Matrix: (Units=GPa)
#
#
# Indices 1 2 3 4 5 6 
#
# 1 82.4848 38.8670 76.3341 0.0000 0.0000 0.0000
# 2 38.8670 126.2873 47.4642 0.0000 0.0000 0.0000
# 3 76.3341 47.4642 116.5072 0.0000 0.0000 0.0000
# 4 0.0000 0.0000 0.0000 35.0683 0.0000 0.0000
# 5 0.0000 0.0000 0.0000 0.0000 30.3012 0.0000
# 6 0.0000 0.0000 0.0000 0.0000 0.0000 27.2776
#
#
#
# Elastic Compliance Matrix: (Units=1/GPa)
#
#
# Indices 1 2 3 4 5 6 
#
# 1 0.031341 -0.002277 -0.019607 0.000000 0.000000 0.000000
# 2 -0.002277 0.009515 -0.002385 0.000000 0.000000 0.000000
# 3 -0.019607 -0.002385 0.022401 0.000000 0.000000 0.000000
# 4 0.000000 0.000000 0.000000 0.028516 0.000000 0.000000
# 5 0.000000 0.000000 0.000000 0.000000 0.033002 0.000000
# 6 0.000000 0.000000 0.000000 0.000000 0.000000 0.036660
#
#
# Mechanical properties :
#
#
# Convention : Reuss Voigt Hill
#
# Bulk Modulus (GPa) = 67.93153 72.29000 70.11077
# Shear Modulus (GPa) = 23.26900 29.37035 26.31968
#
# Velocity S-wave (km/s) = 3.53709 3.97385 3.76182
# Velocity P-wave (km/s) = 7.29425 7.74102 7.52095
#
# Compressibility (1/GPa) = 0.01472070
#
# Stress axis : x y z
#
# Youngs Moduli (GPa) = 31.90731 105.09193 44.64135
#
# Poissons Ratio (x) = 0.23926 0.87527
# Poissons Ratio (y) = 0.07264 0.10647
# Poissons Ratio (z) = 0.62559 0.25063
#
# Static dielectric constant tensor:
#      x y z
#    x 3.406740 0.000000 0.000000 
#    y 0.000000 3.810450 0.000000 
#    z 0.000000 0.000000 3.361370 
# 
# 
# High freq. dielectric constant tensor:
#      x y z
#    x 1.722700 0.000000 0.000000 
#    y 0.000000 1.740010 0.000000 
#    z 0.000000 0.000000 1.718160 
# 
# From -- ./inp_files/10666.got.cif
#   From: 2010.03.12/outbox.cif.g09.slc.cpg/sg51_6_cif.got.tgz:10666.got - 2010.04.16 13:43:02.
