data_PCOD8212948
_publ_section_title
;
Structure prediction by ZEFSAII (Michael W. Deem and Ramdas Pophale) SiO2 
 PCOD8212948
Probable space group: P M M A
;
_chemical_formula_sum "Si O2"
_cell_formula_units_Z 48
_cell_length_a 14.447489
_cell_length_b 9.373171
_cell_length_c 18.971398
_cell_angle_alpha 90.000000
_cell_angle_beta 90.000000
_cell_angle_gamma 90.000000
_cell_volume 2569.083665
_symmetry_space_group_name_H-M "P M M A"
_symmetry_group_IT_number 51
_symmetry_cell_setting 'orthorhombic'
loop_
_space_group_symop_operation_xyz
x,y,z
1/2-x,-y,z
1/2+x,-y,-z
-x,y,-z
-x,-y,-z
1/2+x,y,-z
1/2-x,y,z
x,-y,z
loop_
_atom_site_type_symbol
_atom_site_label
_atom_site_fract_x
_atom_site_fract_y
_atom_site_fract_z
Si Si1 0.146484 0.669158 0.984005
Si Si2 0.480722 0.668771 0.110957
Si Si3 0.640020 0.338744 0.482009
Si Si4 0.520448 0.835899 0.747577
Si Si5 0.641941 0.835280 0.615616
Si Si6 0.854752 0.836036 0.348443
O O1 0.250000 0.735226 0.976448
O O2 0.151958 0.500000 0.982967
O O3 0.080497 0.719591 0.919729
O O4 0.100429 0.717553 0.057627
O O5 0.479888 0.500000 0.121419
O O6 0.460116 0.741064 0.184877
O O7 0.750000 0.334036 0.483039
O O8 0.602043 0.500000 0.481680
O O9 0.601957 0.258625 0.551208
O O10 0.604987 0.258630 0.412088
O O11 0.591102 0.787693 0.686764
O O12 0.415915 0.809462 0.720802
O O13 0.536441 0.000000 0.768114
O O14 0.750000 0.807576 0.627189
O O15 0.620906 0.000000 0.598021
O O16 0.750000 0.793014 0.328773
O O17 0.861136 0.000000 0.373237
#
# Coordination Sequence:
#
# PCOD8212948 Si02
#       6
#     8   8   8   8   8   8
#     4   8  15  31  54  76  98 126 158 190 228 278
#     4   9  18  32  51  75  99 124 158 195 230 276
#     4   9  17  30  49  72  95 119 156 209 253 280
#     4  10  21  34  48  70 100 130 159 194 236 282
#     4   9  18  33  50  66  90 128 166 196 235 289
#     4   9  18  33  50  66  90 128 166 196 235 289
#
# _framework density 18.683703999999999
#
# number of rings (size 3 to 8) (size 9 to 14) (size 15 to 20)
#    0.000    3.000    0.000    1.500    0.000    5.333 
#    0.000    5.000    0.000    1.000    0.000    0.000 
#    0.000    0.000    0.000    0.000    0.000    0.000 
#
# Total GULP energy -595105.901305 kJ/mol
# GULP energy per Si atom -12398.039611 kJ/mol
# Density = 1.864118 g / cm^3
# Si number density = 18.683704 Si / 1000 Ang^3
#
#
#
# Elastic Constant Matrix: (Units=GPa)
#
#
# Indices 1 2 3 4 5 6 
#
# 1 44.0783 -3.4254 -13.7711 0.0000 0.0000 0.0000
# 2 -3.4254 54.7690 28.7825 0.0000 0.0000 0.0000
# 3 -13.7711 28.7825 73.3078 0.0000 0.0000 0.0000
# 4 0.0000 0.0000 0.0000 33.5612 0.0000 0.0000
# 5 0.0000 0.0000 0.0000 0.0000 20.7193 0.0000
# 6 0.0000 0.0000 0.0000 0.0000 0.0000 12.8543
#
#
#
# Elastic Compliance Matrix: (Units=1/GPa)
#
#
# Indices 1 2 3 4 5 6 
#
# 1 0.024154 -0.001101 0.004970 0.000000 0.000000 0.000000
# 2 -0.001101 0.023055 -0.009259 0.000000 0.000000 0.000000
# 3 0.004970 -0.009259 0.018210 0.000000 0.000000 0.000000
# 4 0.000000 0.000000 0.000000 0.029796 0.000000 0.000000
# 5 0.000000 0.000000 0.000000 0.000000 0.048264 0.000000
# 6 0.000000 0.000000 0.000000 0.000000 0.000000 0.077795
#
#
# Mechanical properties :
#
#
# Convention : Reuss Voigt Hill
#
# Bulk Modulus (GPa) = 18.30201 21.70301 20.00251
# Shear Modulus (GPa) = 19.97854 24.13157 22.05505
#
# Velocity S-wave (km/s) = 3.27357 3.59776 3.43949
# Velocity P-wave (km/s) = 4.90971 5.37585 5.14806
#
# Compressibility (1/GPa) = 0.05463880
#
# Stress axis : x y z
#
# Youngs Moduli (GPa) = 41.40099 43.37363 54.91480
#
# Poissons Ratio (x) = 0.04776 -0.27291
# Poissons Ratio (y) = 0.04559 0.50846
# Poissons Ratio (z) = -0.20575 0.40160
#
# Static dielectric constant tensor:
#      x y z
#    x 3.695710 0.000000 0.000000 
#    y 0.000000 3.242540 0.000000 
#    z 0.000000 0.000000 3.299050 
# 
# 
# High freq. dielectric constant tensor:
#      x y z
#    x 1.732280 0.000000 0.000000 
#    y 0.000000 1.700660 0.000000 
#    z 0.000000 0.000000 1.717230 
# 
# From -- ./inp_files/29437.got.cif
#   From: 2010.03.12/outbox.cif.g09.slc.cpg/sg51_15_cif.got.tgz:29437.got - 2010.04.16 13:43:02.
