data_PCOD8212448
_publ_section_title
;
Structure prediction by ZEFSAII (Michael W. Deem and Ramdas Pophale) SiO2 
 PCOD8212448
Probable space group: P M M A
;
_chemical_formula_sum "Si O2"
_cell_formula_units_Z 44
_cell_length_a 8.605981
_cell_length_b 28.020325
_cell_length_c 9.386252
_cell_angle_alpha 90.000000
_cell_angle_beta 90.000000
_cell_angle_gamma 90.000000
_cell_volume 2263.423189
_symmetry_space_group_name_H-M "P M M A"
_symmetry_group_IT_number 51
_symmetry_cell_setting 'orthorhombic'
loop_
_space_group_symop_operation_xyz
x,y,z
1/2-x,-y,z
1/2+x,-y,-z
-x,y,-z
-x,-y,-z
1/2+x,y,-z
1/2-x,y,z
x,-y,z
loop_
_atom_site_type_symbol
_atom_site_label
_atom_site_fract_x
_atom_site_fract_y
_atom_site_fract_z
Si Si1 0.066342 0.553472 0.349358
Si Si2 0.934102 0.361185 0.843464
Si Si3 0.434507 0.916876 0.845600
Si Si4 0.934439 0.000000 0.656969
Si Si5 0.432840 0.726578 0.343393
Si Si6 0.434210 0.185138 0.151865
O O1 0.250000 0.554875 0.361369
O O2 0.007010 0.500000 0.312336
O O3 0.007358 0.589319 0.227006
O O4 0.000000 0.570889 0.500000
O O5 0.750000 0.359364 0.852252
O O6 0.998813 0.317493 0.748849
O O7 0.000000 0.356816 0.000000
O O8 0.250000 0.920592 0.848191
O O9 0.486809 0.864064 0.799984
O O10 0.503875 0.952840 0.732311
O O11 0.500000 0.930455 0.000000
O O12 0.000000 0.000000 0.500000
O O13 0.750000 0.000000 0.656194
O O14 0.500000 0.724908 0.500000
O O15 0.250000 0.722308 0.354643
O O16 0.482109 0.775752 0.268134
O O17 0.250000 0.178073 0.139386
O O18 0.500000 0.202137 0.000000
#
# Coordination Sequence:
#
# PCOD8212448 Si02
#       6
#     8   8   8   4   8   8
#     4   9  18  33  53  77 106 139 177 221 269 323
#     4  10  21  36  53  77 107 140 179 224 271 321
#     4  11  22  39  62  88 116 151 190 230 276 328
#     4  12  25  42  61  86 118 152 190 234 281 330
#     4  10  22  37  55  79 108 141 180 224 271 326
#     4  10  20  36  57  83 111 142 182 227 273 325
#
# _framework density 19.439582000000001
#
# number of rings (size 3 to 8) (size 9 to 14) (size 15 to 20)
#    0.000    1.818    0.000    5.455    0.000    4.000 
#    0.000    1.818    0.000    0.000    0.000    0.000 
#    0.000    0.000    0.000    0.000    0.000    0.000 
#
# Total GULP energy -545717.472247 kJ/mol
# GULP energy per Si atom -12402.669824 kJ/mol
# Density = 1.939534 g / cm^3
# Si number density = 19.439582 Si / 1000 Ang^3
#
#
#
# Elastic Constant Matrix: (Units=GPa)
#
#
# Indices 1 2 3 4 5 6 
#
# 1 89.0610 53.3683 49.7254 0.0000 0.0000 0.0000
# 2 53.3683 149.9397 117.9989 0.0000 0.0000 0.0000
# 3 49.7254 117.9989 185.9985 0.0000 0.0000 0.0000
# 4 0.0000 0.0000 0.0000 17.9226 0.0000 0.0000
# 5 0.0000 0.0000 0.0000 0.0000 37.5120 0.0000
# 6 0.0000 0.0000 0.0000 0.0000 0.0000 9.3066
#
#
#
# Elastic Compliance Matrix: (Units=1/GPa)
#
#
# Indices 1 2 3 4 5 6 
#
# 1 0.014404 -0.004187 -0.001195 0.000000 0.000000 0.000000
# 2 -0.004187 0.014536 -0.008102 0.000000 0.000000 0.000000
# 3 -0.001195 -0.008102 0.010836 0.000000 0.000000 0.000000
# 4 0.000000 0.000000 0.000000 0.055796 0.000000 0.000000
# 5 0.000000 0.000000 0.000000 0.000000 0.026658 0.000000
# 6 0.000000 0.000000 0.000000 0.000000 0.000000 0.107450
#
#
# Mechanical properties :
#
#
# Convention : Reuss Voigt Hill
#
# Bulk Modulus (GPa) = 78.07392 96.35383 87.21387
# Shear Modulus (GPa) = 19.16317 26.54202 22.85259
#
# Velocity S-wave (km/s) = 3.14312 3.69909 3.43238
# Velocity P-wave (km/s) = 7.30902 8.24122 7.78908
#
# Compressibility (1/GPa) = 0.01280837
#
# Stress axis : x y z
#
# Youngs Moduli (GPa) = 69.42464 68.79513 92.28438
#
# Poissons Ratio (x) = 0.28802 0.11027
# Poissons Ratio (y) = 0.29065 0.74773
# Poissons Ratio (z) = 0.08295 0.55741
#
# Static dielectric constant tensor:
#      x y z
#    x 3.537010 0.000000 0.000000 
#    y 0.000000 3.922770 0.000000 
#    z 0.000000 0.000000 3.331940 
# 
# 
# High freq. dielectric constant tensor:
#      x y z
#    x 1.757310 0.000000 0.000000 
#    y 0.000000 1.775140 0.000000 
#    z 0.000000 0.000000 1.758650 
# 
# From -- ./inp_files/5801.got.cif
#   From: 2010.03.12/outbox.cif.g09.slc.cpg/sg51_3_cif.got.tgz:5801.got - 2010.04.16 13:43:02.
