data_PCOD8212356
_publ_section_title
;
Structure prediction by ZEFSAII (Michael W. Deem and Ramdas Pophale) SiO2 
 PCOD8212356
Probable space group: P M M A
;
_chemical_formula_sum "Si O2"
_cell_formula_units_Z 48
_cell_length_a 8.624358
_cell_length_b 29.133228
_cell_length_c 10.201320
_cell_angle_alpha 90.000000
_cell_angle_beta 90.000000
_cell_angle_gamma 90.000000
_cell_volume 2563.136614
_symmetry_space_group_name_H-M "P M M A"
_symmetry_group_IT_number 51
_symmetry_cell_setting 'orthorhombic'
loop_
_space_group_symop_operation_xyz
x,y,z
1/2-x,-y,z
1/2+x,-y,-z
-x,y,-z
-x,-y,-z
1/2+x,y,-z
1/2-x,y,z
x,-y,z
loop_
_atom_site_type_symbol
_atom_site_label
_atom_site_fract_x
_atom_site_fract_y
_atom_site_fract_z
Si Si1 0.566452 0.551929 0.637186
Si Si2 0.567622 0.382692 0.863717
Si Si3 0.428677 0.054102 0.862608
Si Si4 0.066576 0.277525 0.138871
Si Si5 0.432999 0.114612 0.360557
Si Si6 0.933590 0.212933 0.359478
O O1 0.500000 0.569780 0.500000
O O2 0.750000 0.554677 0.630999
O O3 0.510128 0.500000 0.665951
O O4 0.499101 0.585256 0.749190
O O5 0.750000 0.387520 0.871180
O O6 0.518408 0.330280 0.837501
O O7 0.500000 0.400846 0.000000
O O8 0.250000 0.069316 0.856342
O O9 0.524395 0.076913 0.746334
O O10 0.447959 0.000000 0.846330
O O11 0.500000 0.070822 0.000000
O O12 0.250000 0.270053 0.141464
O O13 0.986619 0.249366 0.253156
O O14 0.000000 0.260286 0.000000
O O15 0.500000 0.098381 0.500000
O O16 0.250000 0.119680 0.372662
O O17 0.503926 0.163201 0.317722
O O18 0.750000 0.211225 0.367991
O O19 0.000000 0.228011 0.500000
#
# Coordination Sequence:
#
# PCOD8212356 Si02
#       6
#     8   8   8   8   8   8
#     4   9  18  33  51  73 102 135 172 214 259 308
#     4   9  19  34  52  75 104 136 171 214 260 310
#     4  10  21  38  59  84 114 147 184 226 271 319
#     4  10  20  36  55  78 107 139 177 219 266 317
#     4  11  22  38  59  83 112 145 182 224 270 319
#     4  11  22  38  58  81 109 141 178 220 268 319
#
# _framework density 18.727055
#
# number of rings (size 3 to 8) (size 9 to 14) (size 15 to 20)
#    0.000    2.000    0.000    5.000    0.000    4.333 
#    0.000    5.000    0.000    0.000    0.000    0.000 
#    0.000    0.000    0.000    0.000    0.000    0.000 
#
# Total GULP energy -595373.477301 kJ/mol
# GULP energy per Si atom -12403.614110 kJ/mol
# Density = 1.868443 g / cm^3
# Si number density = 18.727055 Si / 1000 Ang^3
#
#
#
# Elastic Constant Matrix: (Units=GPa)
#
#
# Indices 1 2 3 4 5 6 
#
# 1 109.3751 38.3457 53.8174 0.0000 0.0000 0.0000
# 2 38.3457 70.5864 76.8266 0.0000 0.0000 0.0000
# 3 53.8174 76.8266 156.6015 0.0000 0.0000 0.0000
# 4 0.0000 0.0000 0.0000 38.6799 0.0000 0.0000
# 5 0.0000 0.0000 0.0000 0.0000 38.0099 0.0000
# 6 0.0000 0.0000 0.0000 0.0000 0.0000 42.6530
#
#
#
# Elastic Compliance Matrix: (Units=1/GPa)
#
#
# Indices 1 2 3 4 5 6 
#
# 1 0.011555 -0.004195 -0.001913 0.000000 0.000000 0.000000
# 2 -0.004195 0.031922 -0.014219 0.000000 0.000000 0.000000
# 3 -0.001913 -0.014219 0.014018 0.000000 0.000000 0.000000
# 4 0.000000 0.000000 0.000000 0.025853 0.000000 0.000000
# 5 0.000000 0.000000 0.000000 0.000000 0.026309 0.000000
# 6 0.000000 0.000000 0.000000 0.000000 0.000000 0.023445
#
#
# Mechanical properties :
#
#
# Convention : Reuss Voigt Hill
#
# Bulk Modulus (GPa) = 59.37643 74.94915 67.16279
# Shear Modulus (GPa) = 27.87545 35.04011 31.45778
#
# Velocity S-wave (km/s) = 3.86231 4.33031 4.10299
# Velocity P-wave (km/s) = 7.18784 8.06913 7.64120
#
# Compressibility (1/GPa) = 0.01684170
#
# Stress axis : x y z
#
# Youngs Moduli (GPa) = 86.54398 31.32666 71.33451
#
# Poissons Ratio (x) = 0.13142 0.13645
# Poissons Ratio (y) = 0.36307 1.01428
# Poissons Ratio (z) = 0.16554 0.44542
#
# Static dielectric constant tensor:
#      x y z
#    x 3.490230 0.000000 0.000000 
#    y 0.000000 3.489270 0.000000 
#    z 0.000000 0.000000 3.257110 
# 
# 
# High freq. dielectric constant tensor:
#      x y z
#    x 1.737520 0.000000 0.000000 
#    y 0.000000 1.723360 0.000000 
#    z 0.000000 0.000000 1.737590 
# 
# From -- ./inp_files/6003.got.cif
#   From: 2010.03.12/outbox.cif.g09.slc.cpg/sg51_4_cif.got.tgz:6003.got - 2010.04.16 13:43:02.
