data_PCOD8212184
_publ_section_title
;
Structure prediction by ZEFSAII (Michael W. Deem and Ramdas Pophale) SiO2 
 PCOD8212184
Probable space group: P M M A
;
_chemical_formula_sum "Si O2"
_cell_formula_units_Z 64
_cell_length_a 23.785289
_cell_length_b 8.981589
_cell_length_c 15.409601
_cell_angle_alpha 90.000000
_cell_angle_beta 90.000000
_cell_angle_gamma 90.000000
_cell_volume 3291.948285
_symmetry_space_group_name_H-M "P M M A"
_symmetry_group_IT_number 51
_symmetry_cell_setting 'orthorhombic'
loop_
_space_group_symop_operation_xyz
x,y,z
1/2-x,-y,z
1/2+x,-y,-z
-x,y,-z
-x,-y,-z
1/2+x,y,-z
1/2-x,y,z
x,-y,z
loop_
_atom_site_type_symbol
_atom_site_label
_atom_site_fract_x
_atom_site_fract_y
_atom_site_fract_z
Si Si1 0.903790 0.169866 0.119275
Si Si2 0.122810 0.171131 0.066210
Si Si3 0.185690 0.672745 0.214456
Si Si4 0.686868 0.676127 0.454023
Si Si5 0.384526 0.323689 0.382567
Si Si6 0.512778 0.825470 0.682090
Si Si7 0.116079 0.828843 0.688136
Si Si8 0.017417 0.323791 0.136995
O O1 0.873953 0.211244 0.210236
O O2 0.956523 0.276864 0.103267
O O3 0.926486 0.000000 0.127478
O O4 0.861599 0.185600 0.036915
O O5 0.171001 0.240486 0.126232
O O6 0.064157 0.256617 0.074298
O O7 0.115148 0.000000 0.092850
O O8 0.250000 0.705493 0.239212
O O9 0.175423 0.500000 0.195583
O O10 0.147533 0.725484 0.294767
O O11 0.750000 0.740822 0.459334
O O12 0.688523 0.500000 0.454345
O O13 0.652135 0.734388 0.536691
O O14 0.658349 0.727936 0.365328
O O15 0.393824 0.500000 0.386354
O O16 0.444809 0.240300 0.390247
O O17 0.447943 0.792496 0.658971
O O18 0.530142 0.738444 0.768149
O O19 0.522850 0.000000 0.694773
O O20 0.130325 0.000000 0.669469
O O21 0.022680 0.500000 0.137771
#
# Coordination Sequence:
#
# PCOD8212184 Si02
#       8
#     8   8   8   8   8   8   8   8
#     4   9  20  37  55  78 111 149 187 230 282 332
#     4  11  21  34  54  79 110 148 190 233 277 331
#     4  10  21  37  56  79 111 150 190 234 283 338
#     4  10  22  40  61  85 112 145 188 236 285 336
#     4  10  20  36  59  85 114 148 185 228 283 345
#     4  10  20  35  56  84 119 153 185 227 282 340
#     4   9  20  39  59  81 112 149 189 233 283 336
#     4  11  20  31  51  82 116 149 185 226 275 333
#
# _framework density 19.441374
#
# number of rings (size 3 to 8) (size 9 to 14) (size 15 to 20)
#    0.000    2.000    1.250    3.375    0.000    8.000 
#    0.000    3.125    0.000    6.000    0.000    0.000 
#    0.000    0.000    0.000    0.000    0.000    0.000 
#
# Total GULP energy -793546.544822 kJ/mol
# GULP energy per Si atom -12399.164763 kJ/mol
# Density = 1.939712 g / cm^3
# Si number density = 19.441374 Si / 1000 Ang^3
#
#
#
# Elastic Constant Matrix: (Units=GPa)
#
#
# Indices 1 2 3 4 5 6 
#
# 1 62.7468 24.2198 42.9022 0.0000 0.0000 0.0000
# 2 24.2198 69.1294 30.3341 0.0000 0.0000 0.0000
# 3 42.9022 30.3341 96.8290 0.0000 0.0000 0.0000
# 4 0.0000 0.0000 0.0000 29.4736 0.0000 0.0000
# 5 0.0000 0.0000 0.0000 0.0000 25.2496 0.0000
# 6 0.0000 0.0000 0.0000 0.0000 0.0000 25.7644
#
#
#
# Elastic Compliance Matrix: (Units=1/GPa)
#
#
# Indices 1 2 3 4 5 6 
#
# 1 0.023930 -0.004326 -0.009247 0.000000 0.000000 0.000000
# 2 -0.004326 0.017553 -0.003582 0.000000 0.000000 0.000000
# 3 -0.009247 -0.003582 0.015547 0.000000 0.000000 0.000000
# 4 0.000000 0.000000 0.000000 0.033929 0.000000 0.000000
# 5 0.000000 0.000000 0.000000 0.000000 0.039605 0.000000
# 6 0.000000 0.000000 0.000000 0.000000 0.000000 0.038813
#
#
# Mechanical properties :
#
#
# Convention : Reuss Voigt Hill
#
# Bulk Modulus (GPa) = 44.01697 47.06861 45.54279
# Shear Modulus (GPa) = 23.66749 24.84745 24.25747
#
# Velocity S-wave (km/s) = 3.49288 3.57889 3.53615
# Velocity P-wave (km/s) = 6.24155 6.42970 6.33632
#
# Compressibility (1/GPa) = 0.02271851
#
# Stress axis : x y z
#
# Youngs Moduli (GPa) = 41.78924 56.96976 64.32154
#
# Poissons Ratio (x) = 0.24646 0.59480
# Poissons Ratio (y) = 0.18079 0.23041
# Poissons Ratio (z) = 0.38644 0.20408
#
# Static dielectric constant tensor:
#      x y z
#    x 3.457410 0.000000 0.000000 
#    y 0.000000 3.447160 0.000000 
#    z 0.000000 0.000000 3.624390 
# 
# 
# High freq. dielectric constant tensor:
#      x y z
#    x 1.739940 0.000000 0.000000 
#    y 0.000000 1.752380 0.000000 
#    z 0.000000 0.000000 1.761700 
# 
# From -- ./inp_files/26349.got.cif
#   From: 2010.03.12/outbox.cif.g09.slc.cpg/sg51_14_cif.got.tgz:26349.got - 2010.04.16 13:43:02.
