data_PCOD8212365
_publ_section_title
;
Structure prediction by ZEFSAII (Michael W. Deem and Ramdas Pophale) SiO2 
 PCOD8212365
Probable space group: P M M A
;
_chemical_formula_sum "Si O2"
_cell_formula_units_Z 56
_cell_length_a 15.488075
_cell_length_b 9.200269
_cell_length_c 19.727407
_cell_angle_alpha 90.000000
_cell_angle_beta 90.000000
_cell_angle_gamma 90.000000
_cell_volume 2811.046135
_symmetry_space_group_name_H-M "P M M A"
_symmetry_group_IT_number 51
_symmetry_cell_setting 'orthorhombic'
loop_
_space_group_symop_operation_xyz
x,y,z
1/2-x,-y,z
1/2+x,-y,-z
-x,y,-z
-x,-y,-z
1/2+x,y,-z
1/2-x,y,z
x,-y,z
loop_
_atom_site_type_symbol
_atom_site_label
_atom_site_fract_x
_atom_site_fract_y
_atom_site_fract_z
Si Si1 0.843866 0.338364 0.122310
Si Si2 0.504529 0.828412 0.924008
Si Si3 0.250000 0.170694 0.643030
Si Si4 0.066381 0.172100 0.439626
Si Si5 0.151037 0.829969 0.179898
Si Si6 0.933620 0.667776 0.701092
Si Si7 0.376465 0.658278 0.727362
Si Si8 0.250000 0.828358 0.493911
O O1 0.750000 0.301243 0.089041
O O2 0.874500 0.500000 0.098846
O O3 0.827417 0.336781 0.202114
O O4 0.913733 0.216549 0.107351
O O5 0.586788 0.771225 0.879820
O O6 0.510185 0.000000 0.926390
O O7 0.500000 0.763100 0.000000
O O8 0.162374 0.220107 0.678840
O O9 0.250000 0.239434 0.568536
O O10 0.250000 0.000000 0.641151
O O11 0.046736 0.257048 0.370820
O O12 0.163499 0.223282 0.456636
O O13 0.000000 0.216636 0.500000
O O14 0.059732 0.000000 0.426563
O O15 0.250000 0.801265 0.156920
O O16 0.136363 0.748495 0.251670
O O17 0.134543 0.000000 0.193046
O O18 0.905444 0.500000 0.690607
O O19 0.022714 0.683086 0.741849
O O20 0.362282 0.500000 0.692964
O O21 0.250000 0.000000 0.499630
#
# Coordination Sequence:
#
# PCOD8212365 Si02
#       8
#     8   8   4   8   8   8   8   4
#     4  10  20  37  59  84 119 159 196 232 282 349
#     4  10  22  40  63  92 124 157 195 243 296 350
#     4  11  21  33  57  89 115 146 197 246 285 351
#     4  10  21  39  60  81 114 157 198 244 298 357
#     4  10  22  40  62  88 120 160 202 245 300 362
#     4  11  23  38  60  87 117 153 200 254 301 350
#     4  10  20  36  55  80 118 157 186 233 299 348
#     4   9  20  37  55  79 111 148 191 236 291 353
#
# _framework density 19.921408
#
# number of rings (size 3 to 8) (size 9 to 14) (size 15 to 20)
#    0.000    1.857    2.143    1.500    1.000    4.571 
#    0.000    2.857    0.000    0.000    0.000    0.000 
#    0.000    0.000    0.000    0.000    0.000    0.000 
#
# Total GULP energy -694081.342305 kJ/mol
# GULP energy per Si atom -12394.309684 kJ/mol
# Density = 1.987607 g / cm^3
# Si number density = 19.921408 Si / 1000 Ang^3
#
#
#
# Elastic Constant Matrix: (Units=GPa)
#
#
# Indices 1 2 3 4 5 6 
#
# 1 126.9643 25.5171 40.7960 0.0000 0.0000 0.0000
# 2 25.5171 50.5635 37.1080 0.0000 0.0000 0.0000
# 3 40.7960 37.1080 103.5298 0.0000 0.0000 0.0000
# 4 0.0000 0.0000 0.0000 16.4558 0.0000 0.0000
# 5 0.0000 0.0000 0.0000 0.0000 18.7013 0.0000
# 6 0.0000 0.0000 0.0000 0.0000 0.0000 23.4430
#
#
#
# Elastic Compliance Matrix: (Units=1/GPa)
#
#
# Indices 1 2 3 4 5 6 
#
# 1 0.009285 -0.002715 -0.002686 0.000000 0.000000 0.000000
# 2 -0.002715 0.027630 -0.008834 0.000000 0.000000 0.000000
# 3 -0.002686 -0.008834 0.013884 0.000000 0.000000 0.000000
# 4 0.000000 0.000000 0.000000 0.060769 0.000000 0.000000
# 5 0.000000 0.000000 0.000000 0.000000 0.053472 0.000000
# 6 0.000000 0.000000 0.000000 0.000000 0.000000 0.042657
#
#
# Mechanical properties :
#
#
# Convention : Reuss Voigt Hill
#
# Bulk Modulus (GPa) = 44.78195 54.21110 49.49652
# Shear Modulus (GPa) = 20.52481 23.56244 22.04362
#
# Velocity S-wave (km/s) = 3.21329 3.44287 3.33006
# Velocity P-wave (km/s) = 6.02454 6.56324 6.29965
#
# Compressibility (1/GPa) = 0.02233043
#
# Stress axis : x y z
#
# Youngs Moduli (GPa) = 107.70329 36.19253 72.02753
#
# Poissons Ratio (x) = 0.09825 0.19344
# Poissons Ratio (y) = 0.29237 0.63627
# Poissons Ratio (z) = 0.28926 0.31971
#
# Static dielectric constant tensor:
#      x y z
#    x 3.772530 0.000000 0.000000 
#    y 0.000000 3.431860 0.000000 
#    z 0.000000 0.000000 3.626110 
# 
# 
# High freq. dielectric constant tensor:
#      x y z
#    x 1.791320 0.000000 0.000000 
#    y 0.000000 1.760330 0.000000 
#    z 0.000000 0.000000 1.770040 
# 
# From -- ./inp_files/33546.got.cif
#   From: 2010.03.12/outbox.cif.g09.slc.cpg/sg51_17_cif.got.tgz:33546.got - 2010.04.16 13:43:02.
