data_PCOD8212588
_publ_section_title
;
Structure prediction by ZEFSAII (Michael W. Deem and Ramdas Pophale) SiO2 
 PCOD8212588
Probable space group: P M M A
;
_chemical_formula_sum "Si O2"
_cell_formula_units_Z 48
_cell_length_a 15.022688
_cell_length_b 8.678153
_cell_length_c 18.966912
_cell_angle_alpha 90.000000
_cell_angle_beta 90.000000
_cell_angle_gamma 90.000000
_cell_volume 2472.700858
_symmetry_space_group_name_H-M "P M M A"
_symmetry_group_IT_number 51
_symmetry_cell_setting 'orthorhombic'
loop_
_space_group_symop_operation_xyz
x,y,z
1/2-x,-y,z
1/2+x,-y,-z
-x,y,-z
-x,-y,-z
1/2+x,y,-z
1/2-x,y,z
x,-y,z
loop_
_atom_site_type_symbol
_atom_site_label
_atom_site_fract_x
_atom_site_fract_y
_atom_site_fract_z
Si Si1 0.750000 0.816973 0.581407
Si Si2 0.509339 0.820248 0.919528
Si Si3 0.399729 0.679311 0.671296
Si Si4 0.850924 0.176825 0.182819
Si Si5 0.250000 0.818388 0.576728
Si Si6 0.588000 0.181155 0.675806
Si Si7 0.352703 0.322266 0.180532
O O1 0.750000 0.749459 0.502449
O O2 0.836841 0.757250 0.622566
O O3 0.750000 0.000000 0.582007
O O4 0.416522 0.780718 0.880893
O O5 0.589900 0.722319 0.887455
O O6 0.532841 0.000000 0.913112
O O7 0.500000 0.768375 0.000000
O O8 0.387192 0.500000 0.658854
O O9 0.373195 0.717139 0.751057
O O10 0.337884 0.766565 0.616514
O O11 0.499827 0.728122 0.654966
O O12 0.750000 0.206828 0.157123
O O13 0.864026 0.000000 0.206662
O O14 0.250000 0.000000 0.572742
O O15 0.616642 0.215304 0.755446
O O16 0.570630 0.000000 0.668596
O O17 0.250000 0.290842 0.162469
O O18 0.369369 0.500000 0.200687
#
# Coordination Sequence:
#
# PCOD8212588 Si02
#       7
#     4   8   8   8   4   8   8
#     4   9  22  41  65  93 120 155 206 255 301 354
#     4  10  22  39  61  91 124 159 203 255 305 356
#     4  12  24  38  59  92 125 159 201 248 303 366
#     4  10  20  36  60  87 117 158 204 248 298 358
#     4  11  23  43  65  89 122 161 202 253 303 356
#     4  11  21  39  65  92 119 157 206 254 300 358
#     4  11  23  38  59  90 125 162 201 247 305 367
#
# _framework density 19.411971999999999
#
# number of rings (size 3 to 8) (size 9 to 14) (size 15 to 20)
#    0.000    1.333    3.333    2.750    0.000    2.667 
#    0.000    8.333    0.000    0.000    0.000    0.000 
#    0.000    0.000    0.000    0.000    0.000    0.000 
#
# Total GULP energy -595463.816652 kJ/mol
# GULP energy per Si atom -12405.496180 kJ/mol
# Density = 1.936779 g / cm^3
# Si number density = 19.411972 Si / 1000 Ang^3
#
#
#
# Elastic Constant Matrix: (Units=GPa)
#
#
# Indices 1 2 3 4 5 6 
#
# 1 155.0423 24.4342 62.3210 0.0000 0.0000 0.0000
# 2 24.4342 54.2114 21.1044 0.0000 0.0000 0.0000
# 3 62.3210 21.1044 139.7477 0.0000 0.0000 0.0000
# 4 0.0000 0.0000 0.0000 0.5386 0.0000 0.0000
# 5 0.0000 0.0000 0.0000 0.0000 168.3119 0.0000
# 6 0.0000 0.0000 0.0000 0.0000 0.0000 26.5104
#
#
#
# Elastic Compliance Matrix: (Units=1/GPa)
#
#
# Indices 1 2 3 4 5 6 
#
# 1 0.008142 -0.002397 -0.003269 0.000000 0.000000 0.000000
# 2 -0.002397 0.020304 -0.001997 0.000000 0.000000 0.000000
# 3 -0.003269 -0.001997 0.008915 0.000000 0.000000 0.000000
# 4 0.000000 0.000000 0.000000 1.856823 0.000000 0.000000
# 5 0.000000 0.000000 0.000000 0.000000 0.005941 0.000000
# 6 0.000000 0.000000 0.000000 0.000000 0.000000 0.037721
#
#
# Mechanical properties :
#
#
# Convention : Reuss Voigt Hill
#
# Bulk Modulus (GPa) = 45.38310 62.74673 54.06491
# Shear Modulus (GPa) = 2.55035 55.14827 28.84931
#
# Velocity S-wave (km/s) = 1.14746 5.33583 3.85926
# Velocity P-wave (km/s) = 5.01849 8.38781 6.91160
#
# Compressibility (1/GPa) = 0.02203464
#
# Stress axis : x y z
#
# Youngs Moduli (GPa) = 122.82705 49.25074 112.16920
#
# Poissons Ratio (x) = 0.11806 0.36665
# Poissons Ratio (y) = 0.29442 0.22404
# Poissons Ratio (z) = 0.40149 0.09837
#
# Static dielectric constant tensor:
#      x y z
#    x 3.906820 0.000000 0.000000 
#    y 0.000000 3.461520 0.000000 
#    z 0.000000 0.000000 3.555440 
# 
# 
# High freq. dielectric constant tensor:
#      x y z
#    x 1.774980 0.000000 0.000000 
#    y 0.000000 1.749790 0.000000 
#    z 0.000000 0.000000 1.750590 
# 
# From -- ./inp_files/29538.got.cif
#   From: 2010.03.12/outbox.cif.g09.slc.cpg/sg51_15_cif.got.tgz:29538.got - 2010.04.16 13:43:02.
