data_PCOD8212212
_publ_section_title
;
Structure prediction by ZEFSAII (Michael W. Deem and Ramdas Pophale) SiO2 
 PCOD8212212
Probable space group: P M M A
;
_chemical_formula_sum "Si O2"
_cell_formula_units_Z 64
_cell_length_a 20.886164
_cell_length_b 9.035241
_cell_length_c 16.759329
_cell_angle_alpha 90.000000
_cell_angle_beta 90.000000
_cell_angle_gamma 90.000000
_cell_volume 3162.678539
_symmetry_space_group_name_H-M "P M M A"
_symmetry_group_IT_number 51
_symmetry_cell_setting 'orthorhombic'
loop_
_space_group_symop_operation_xyz
x,y,z
1/2-x,-y,z
1/2+x,-y,-z
-x,y,-z
-x,-y,-z
1/2+x,y,-z
1/2-x,y,z
x,-y,z
loop_
_atom_site_type_symbol
_atom_site_label
_atom_site_fract_x
_atom_site_fract_y
_atom_site_fract_z
Si Si1 0.925168 0.175199 0.505145
Si Si2 0.823263 0.326708 0.389008
Si Si3 0.896896 0.828343 0.919219
Si Si4 0.998442 0.174177 0.204466
Si Si5 0.179515 0.669016 0.955027
Si Si6 0.576823 0.667627 0.665315
Si Si7 0.630210 0.667835 0.214280
Si Si8 0.821082 0.663062 0.796998
O O1 0.878876 0.241223 0.436974
O O2 0.902356 0.239741 0.588697
O O3 0.000000 0.222370 0.500000
O O4 0.917529 0.000000 0.502118
O O5 0.750000 0.277484 0.411400
O O6 0.831532 0.500000 0.406705
O O7 0.833198 0.291173 0.295497
O O8 0.962068 0.773077 0.874774
O O9 0.839394 0.789330 0.859633
O O10 0.901299 0.000000 0.936807
O O11 0.880433 0.752987 0.003749
O O12 0.020178 0.254901 0.285495
O O13 0.925382 0.216442 0.193849
O O14 0.007712 0.000000 0.216752
O O15 0.250000 0.727791 0.982703
O O16 0.172092 0.500000 0.980798
O O17 0.178443 0.685007 0.859455
O O18 0.555794 0.500000 0.643276
O O19 0.640217 0.670979 0.716444
O O20 0.602904 0.500000 0.218929
O O21 0.750000 0.693894 0.769159
O O22 0.829501 0.500000 0.836942
#
# Coordination Sequence:
#
# PCOD8212212 Si02
#       8
#     8   8   8   8   8   8   8   8
#     4  11  24  40  59  86 120 155 192 237 290 349
#     4  10  22  41  64  89 118 153 196 247 300 354
#     4  10  21  35  52  78 112 148 185 226 274 330
#     4  10  21  37  56  81 116 152 186 231 286 340
#     4  10  21  37  57  81 110 144 184 233 286 338
#     4  10  20  35  57  83 110 143 185 229 275 332
#     4  10  21  38  61  85 109 143 189 238 288 344
#     4   9  18  33  53  77 106 140 177 219 268 322
#
# _framework density 20.236011000000001
#
# number of rings (size 3 to 8) (size 9 to 14) (size 15 to 20)
#    0.000    2.000    0.000    3.000    0.000   10.750 
#    0.000    3.750    0.000    2.250    0.000    0.000 
#    0.000    0.000    0.000    0.000    0.000    0.000 
#
# Total GULP energy -793300.797558 kJ/mol
# GULP energy per Si atom -12395.324962 kJ/mol
# Density = 2.018995 g / cm^3
# Si number density = 20.236011 Si / 1000 Ang^3
#
#
#
# Elastic Constant Matrix: (Units=GPa)
#
#
# Indices 1 2 3 4 5 6 
#
# 1 106.6482 42.7273 33.9338 0.0000 0.0000 0.0000
# 2 42.7273 68.6193 37.4093 0.0000 0.0000 0.0000
# 3 33.9338 37.4093 109.4095 0.0000 0.0000 0.0000
# 4 0.0000 0.0000 0.0000 21.5659 0.0000 0.0000
# 5 0.0000 0.0000 0.0000 0.0000 22.4797 0.0000
# 6 0.0000 0.0000 0.0000 0.0000 0.0000 25.2275
#
#
#
# Elastic Compliance Matrix: (Units=1/GPa)
#
#
# Indices 1 2 3 4 5 6 
#
# 1 0.012695 -0.007078 -0.001517 0.000000 0.000000 0.000000
# 2 -0.007078 0.021858 -0.005278 0.000000 0.000000 0.000000
# 3 -0.001517 -0.005278 0.011415 0.000000 0.000000 0.000000
# 4 0.000000 0.000000 0.000000 0.046370 0.000000 0.000000
# 5 0.000000 0.000000 0.000000 0.000000 0.044485 0.000000
# 6 0.000000 0.000000 0.000000 0.000000 0.000000 0.039639
#
#
# Mechanical properties :
#
#
# Convention : Reuss Voigt Hill
#
# Bulk Modulus (GPa) = 54.88086 56.97973 55.93029
# Shear Modulus (GPa) = 23.77754 25.22838 24.50296
#
# Velocity S-wave (km/s) = 3.43156 3.53470 3.48352
# Velocity P-wave (km/s) = 6.54829 6.69907 6.62411
#
# Compressibility (1/GPa) = 0.01822129
#
# Stress axis : x y z
#
# Youngs Moduli (GPa) = 78.77133 45.75022 87.60066
#
# Poissons Ratio (x) = 0.32380 0.13293
# Poissons Ratio (y) = 0.55751 0.46240
# Poissons Ratio (z) = 0.11953 0.24149
#
# Static dielectric constant tensor:
#      x y z
#    x 3.693290 0.000000 0.000000 
#    y 0.000000 3.666660 0.000000 
#    z 0.000000 0.000000 3.684600 
# 
# 
# High freq. dielectric constant tensor:
#      x y z
#    x 1.791360 0.000000 0.000000 
#    y 0.000000 1.783050 0.000000 
#    z 0.000000 0.000000 1.794880 
# 
# From -- ./inp_files/26324.got.cif
#   From: 2010.03.12/outbox.cif.g09.slc.cpg/sg51_14_cif.got.tgz:26324.got - 2010.04.16 13:43:02.
