data_PCOD8212008
_publ_section_title
;
Structure prediction by ZEFSAII (Michael W. Deem and Ramdas Pophale) SiO2 
 PCOD8212008
Probable space group: P M M A
;
_chemical_formula_sum "Si O2"
_cell_formula_units_Z 40
_cell_length_a 24.339235
_cell_length_b 7.738896
_cell_length_c 11.733102
_cell_angle_alpha 90.000000
_cell_angle_beta 90.000000
_cell_angle_gamma 90.000000
_cell_volume 2210.033111
_symmetry_space_group_name_H-M "P M M A"
_symmetry_group_IT_number 51
_symmetry_cell_setting 'orthorhombic'
loop_
_space_group_symop_operation_xyz
x,y,z
1/2-x,-y,z
1/2+x,-y,-z
-x,y,-z
-x,-y,-z
1/2+x,y,-z
1/2-x,y,z
x,-y,z
loop_
_atom_site_type_symbol
_atom_site_label
_atom_site_fract_x
_atom_site_fract_y
_atom_site_fract_z
Si Si1 0.685827 0.301222 0.842538
Si Si2 0.510112 0.802115 0.372882
Si Si3 0.185131 0.000000 0.992508
Si Si4 0.124499 0.303372 0.613599
Si Si5 0.184878 0.000000 0.736894
Si Si6 0.894129 0.298338 0.643086
O O1 0.750000 0.277050 0.816050
O O2 0.672580 0.500000 0.876769
O O3 0.654078 0.243215 0.728574
O O4 0.665713 0.174710 0.943261
O O5 0.500000 0.732656 0.500000
O O6 0.563775 0.700588 0.326800
O O7 0.452445 0.773078 0.307219
O O8 0.527594 0.000000 0.369822
O O9 0.250000 0.000000 0.985691
O O10 0.160703 0.000000 0.865474
O O11 0.147333 0.500000 0.619243
O O12 0.120059 0.230518 0.483728
O O13 0.165680 0.176268 0.677548
O O14 0.250000 0.000000 0.735583
O O15 0.900353 0.500000 0.635808
#
# Coordination Sequence:
#
# PCOD8212008 Si02
#       6
#     8   8   4   8   4   8
#     4   9  18  33  53  77 104 132 166 213 264 310
#     4   9  16  28  50  77 107 140 174 206 244 299
#     4   9  20  37  54  71  94 131 181 223 254 296
#     4  10  20  35  54  78 110 142 170 207 256 305
#     4  11  24  39  53  75 103 135 181 220 251 305
#     4   9  18  30  51  83 111 137 170 206 254 314
#
# _framework density 18.099277000000001
#
# number of rings (size 3 to 8) (size 9 to 14) (size 15 to 20)
#    0.000    2.600    1.000    0.600    2.800    4.400 
#    0.000    5.000    0.000    2.400    0.000    4.200 
#    0.000    0.000    0.000    0.000    0.000    0.000 
#
# Total GULP energy -495737.176285 kJ/mol
# GULP energy per Si atom -12393.429407 kJ/mol
# Density = 1.805808 g / cm^3
# Si number density = 18.099277 Si / 1000 Ang^3
#
#
#
# Elastic Constant Matrix: (Units=GPa)
#
#
# Indices 1 2 3 4 5 6 
#
# 1 84.3824 41.6785 44.3349 0.0000 0.0000 0.0000
# 2 41.6785 87.7850 52.0197 0.0000 0.0000 0.0000
# 3 44.3349 52.0197 95.1130 0.0000 0.0000 0.0000
# 4 0.0000 0.0000 0.0000 22.8922 0.0000 0.0000
# 5 0.0000 0.0000 0.0000 0.0000 2.7422 0.0000
# 6 0.0000 0.0000 0.0000 0.0000 0.0000 26.6168
#
#
#
# Elastic Compliance Matrix: (Units=1/GPa)
#
#
# Indices 1 2 3 4 5 6 
#
# 1 0.017066 -0.005013 -0.005213 0.000000 0.000000 0.000000
# 2 -0.005013 0.018327 -0.007686 0.000000 0.000000 0.000000
# 3 -0.005213 -0.007686 0.017148 0.000000 0.000000 0.000000
# 4 0.000000 0.000000 0.000000 0.043683 0.000000 0.000000
# 5 0.000000 0.000000 0.000000 0.000000 0.364676 0.000000
# 6 0.000000 0.000000 0.000000 0.000000 0.000000 0.037570
#
#
# Mechanical properties :
#
#
# Convention : Reuss Voigt Hill
#
# Bulk Modulus (GPa) = 59.82797 60.37183 60.09990
# Shear Modulus (GPa) = 9.26156 19.06673 14.16414
#
# Velocity S-wave (km/s) = 2.26455 3.24921 2.80050
# Velocity P-wave (km/s) = 6.32177 6.89238 6.61323
#
# Compressibility (1/GPa) = 0.01671459
#
# Stress axis : x y z
#
# Youngs Moduli (GPa) = 58.59609 54.56571 58.31742
#
# Poissons Ratio (x) = 0.27356 0.30400
# Poissons Ratio (y) = 0.29377 0.44825
# Poissons Ratio (z) = 0.30546 0.41941
#
# Static dielectric constant tensor:
#      x y z
#    x 3.404560 0.000000 0.000000 
#    y 0.000000 3.364010 0.000000 
#    z 0.000000 0.000000 3.304880 
# 
# 
# High freq. dielectric constant tensor:
#      x y z
#    x 1.697890 0.000000 0.000000 
#    y 0.000000 1.714050 0.000000 
#    z 0.000000 0.000000 1.657470 
# 
# From -- ./inp_files/18002.got.cif
#   From: 2010.03.12/outbox.cif.g09.slc.cpg/sg51_10_cif.got.tgz:18002.got - 2010.04.16 13:43:02.
