data_PCOD8212289
_publ_section_title
;
Structure prediction by ZEFSAII (Michael W. Deem and Ramdas Pophale) SiO2 
 PCOD8212289
Probable space group: P M M A
;
_chemical_formula_sum "Si O2"
_cell_formula_units_Z 48
_cell_length_a 7.807673
_cell_length_b 16.998855
_cell_length_c 17.722718
_cell_angle_alpha 90.000000
_cell_angle_beta 90.000000
_cell_angle_gamma 90.000000
_cell_volume 2352.185739
_symmetry_space_group_name_H-M "P M M A"
_symmetry_group_IT_number 51
_symmetry_cell_setting 'orthorhombic'
loop_
_space_group_symop_operation_xyz
x,y,z
1/2-x,-y,z
1/2+x,-y,-z
-x,y,-z
-x,-y,-z
1/2+x,y,-z
1/2-x,y,z
x,-y,z
loop_
_atom_site_type_symbol
_atom_site_label
_atom_site_fract_x
_atom_site_fract_y
_atom_site_fract_z
Si Si1 0.945150 0.000000 0.177778
Si Si2 0.941505 0.694628 0.856510
Si Si3 0.558367 0.695532 0.682382
Si Si4 0.052089 0.000000 0.346445
Si Si5 0.750000 0.587990 0.320621
Si Si6 0.550444 0.837153 0.415023
Si Si7 0.250000 0.412328 0.858767
Si Si8 0.548465 0.143547 0.082973
O O1 0.026171 0.920910 0.142064
O O2 0.750000 0.000000 0.150945
O O3 0.952949 0.000000 0.267716
O O4 0.750000 0.659518 0.866497
O O5 0.981645 0.713959 0.769436
O O6 0.079216 0.631936 0.887705
O O7 0.952783 0.774715 0.903041
O O8 0.750000 0.660391 0.672440
O O9 0.420327 0.633086 0.650369
O O10 0.549050 0.777769 0.639057
O O11 0.003395 0.074544 0.396352
O O12 0.250000 0.000000 0.326402
O O13 0.750000 0.500000 0.355145
O O14 0.750000 0.583077 0.231028
O O15 0.500000 0.817384 0.500000
O O16 0.750000 0.825307 0.401662
O O17 0.250000 0.500000 0.893228
O O18 0.750000 0.157208 0.093359
O O19 0.500000 0.113223 0.000000
#
# Coordination Sequence:
#
# PCOD8212289 Si02
#       8
#     4   8   8   4   4   8   4   8
#     4  10  23  40  60  84 117 158 196 245 296 339
#     4  10  20  35  58  87 118 153 197 242 292 351
#     4  10  20  36  59  89 119 155 200 244 295 354
#     4  12  25  40  59  86 119 154 199 247 292 346
#     4   9  18  34  58  89 121 155 191 243 301 349
#     4  12  24  40  60  85 117 158 198 246 294 350
#     4   9  18  34  58  87 119 151 189 241 297 349
#     4  11  22  37  57  84 117 157 199 244 291 348
#
# _framework density 20.406552000000001
#
# number of rings (size 3 to 8) (size 9 to 14) (size 15 to 20)
#    0.000    1.500    1.667    4.250    0.000    4.667 
#    0.000    3.333    0.000    1.000    0.000    0.000 
#    0.000    0.000    0.000    0.000    0.000    0.000 
#
# Total GULP energy -595359.098775 kJ/mol
# GULP energy per Si atom -12403.314558 kJ/mol
# Density = 2.036011 g / cm^3
# Si number density = 20.406552 Si / 1000 Ang^3
#
#
#
# Elastic Constant Matrix: (Units=GPa)
#
#
# Indices 1 2 3 4 5 6 
#
# 1 127.6460 44.3937 11.0905 0.0000 0.0000 0.0000
# 2 44.3937 110.8908 7.1202 0.0000 0.0000 0.0000
# 3 11.0905 7.1202 44.9625 0.0000 0.0000 0.0000
# 4 0.0000 0.0000 0.0000 5.8720 0.0000 0.0000
# 5 0.0000 0.0000 0.0000 0.0000 26.2490 0.0000
# 6 0.0000 0.0000 0.0000 0.0000 0.0000 17.2295
#
#
#
# Elastic Compliance Matrix: (Units=1/GPa)
#
#
# Indices 1 2 3 4 5 6 
#
# 1 0.009230 -0.003585 -0.001709 0.000000 0.000000 0.000000
# 2 -0.003585 0.010503 -0.000779 0.000000 0.000000 0.000000
# 3 -0.001709 -0.000779 0.022786 0.000000 0.000000 0.000000
# 4 0.000000 0.000000 0.000000 0.170300 0.000000 0.000000
# 5 0.000000 0.000000 0.000000 0.000000 0.038097 0.000000
# 6 0.000000 0.000000 0.000000 0.000000 0.000000 0.058040
#
#
# Mechanical properties :
#
#
# Convention : Reuss Voigt Hill
#
# Bulk Modulus (GPa) = 32.92461 45.41200 39.16830
# Shear Modulus (GPa) = 15.09546 24.59642 19.84594
#
# Velocity S-wave (km/s) = 2.72276 3.47554 3.12192
# Velocity P-wave (km/s) = 5.10430 6.19740 5.67722
#
# Compressibility (1/GPa) = 0.03037242
#
# Stress axis : x y z
#
# Youngs Moduli (GPa) = 108.34794 95.20920 43.88732
#
# Poissons Ratio (x) = 0.34134 0.07499
# Poissons Ratio (y) = 0.38845 0.03419
# Poissons Ratio (z) = 0.18515 0.07416
#
# Static dielectric constant tensor:
#      x y z
#    x 3.885130 0.000000 0.000000 
#    y 0.000000 3.738080 0.000000 
#    z 0.000000 0.000000 3.412920 
# 
# 
# High freq. dielectric constant tensor:
#      x y z
#    x 1.812520 0.000000 0.000000 
#    y 0.000000 1.791770 0.000000 
#    z 0.000000 0.000000 1.776110 
# 
# From -- ./inp_files/27720.got.cif
#   From: 2010.03.12/outbox.cif.g09.slc.cpg/sg51_14_cif.got.tgz:27720.got - 2010.04.16 13:43:02.
