data_PCOD8212905
_publ_section_title
;
Structure prediction by ZEFSAII (Michael W. Deem and Ramdas Pophale) SiO2 
 PCOD8212905
Probable space group: P M M A
;
_chemical_formula_sum "Si O2"
_cell_formula_units_Z 48
_cell_length_a 8.983842
_cell_length_b 17.257108
_cell_length_c 14.919259
_cell_angle_alpha 90.000000
_cell_angle_beta 90.000000
_cell_angle_gamma 90.000000
_cell_volume 2313.009283
_symmetry_space_group_name_H-M "P M M A"
_symmetry_group_IT_number 51
_symmetry_cell_setting 'orthorhombic'
loop_
_space_group_symop_operation_xyz
x,y,z
1/2-x,-y,z
1/2+x,-y,-z
-x,y,-z
-x,-y,-z
1/2+x,y,-z
1/2-x,y,z
x,-y,z
loop_
_atom_site_type_symbol
_atom_site_label
_atom_site_fract_x
_atom_site_fract_y
_atom_site_fract_z
Si Si1 0.085834 0.588453 0.345366
Si Si2 0.428664 0.000000 0.598834
Si Si3 0.916693 0.351671 0.844924
Si Si4 0.928438 0.196321 0.092640
Si Si5 0.924599 0.142454 0.282954
Si Si6 0.923448 0.724985 0.413303
Si Si7 0.924477 0.500000 0.093503
O O1 0.250000 0.584050 0.389640
O O2 0.030021 0.500000 0.325783
O O3 0.099009 0.646665 0.261351
O O4 0.971559 0.634477 0.408364
O O5 0.500000 0.000000 0.500000
O O6 0.490076 0.072914 0.656846
O O7 0.250000 0.000000 0.588094
O O8 0.750000 0.357816 0.888248
O O9 0.001593 0.279909 0.888287
O O10 0.021556 0.424546 0.856992
O O11 0.750000 0.202557 0.083179
O O12 0.974994 0.141968 0.177755
O O13 0.000000 0.163275 0.000000
O O14 0.750000 0.132071 0.284069
O O15 0.970800 0.224613 0.326556
O O16 0.750000 0.728602 0.428725
O O17 0.000000 0.763493 0.500000
O O18 0.750000 0.500000 0.085090
O O19 0.000000 0.500000 0.000000
#
# Coordination Sequence:
#
# PCOD8212905 Si02
#       7
#     8   4   8   8   8   8   4
#     4  10  21  38  58  81 111 149 196 249 302 358
#     4  10  20  40  67  98 130 164 197 244 301 358
#     4  11  21  37  57  81 111 149 197 253 308 360
#     4  11  22  39  59  87 119 158 204 247 295 357
#     4   9  20  38  63  91 125 160 199 243 298 362
#     4  11  22  38  59  87 116 153 199 246 299 362
#     4  12  24  36  52  76 109 150 197 252 310 366
#
# _framework density 20.752185000000001
#
# number of rings (size 3 to 8) (size 9 to 14) (size 15 to 20)
#    0.000    1.500    2.500    3.250    0.000    1.333 
#    0.000    2.917    0.000    0.000    0.000    0.000 
#    0.000    0.000    0.000    0.000    0.000    0.000 
#
# Total GULP energy -594637.390581 kJ/mol
# GULP energy per Si atom -12388.278970 kJ/mol
# Density = 2.070495 g / cm^3
# Si number density = 20.752185 Si / 1000 Ang^3
#
#
#
# Elastic Constant Matrix: (Units=GPa)
#
#
# Indices 1 2 3 4 5 6 
#
# 1 111.6114 39.5951 49.3773 0.0000 0.0000 0.0000
# 2 39.5951 105.3424 52.3552 0.0000 0.0000 0.0000
# 3 49.3773 52.3552 148.1064 0.0000 0.0000 0.0000
# 4 0.0000 0.0000 0.0000 26.6018 0.0000 0.0000
# 5 0.0000 0.0000 0.0000 0.0000 33.2781 0.0000
# 6 0.0000 0.0000 0.0000 0.0000 0.0000 18.9948
#
#
#
# Elastic Compliance Matrix: (Units=1/GPa)
#
#
# Indices 1 2 3 4 5 6 
#
# 1 0.011173 -0.002849 -0.002718 0.000000 0.000000 0.000000
# 2 -0.002849 0.012242 -0.003378 0.000000 0.000000 0.000000
# 3 -0.002718 -0.003378 0.008852 0.000000 0.000000 0.000000
# 4 0.000000 0.000000 0.000000 0.037591 0.000000 0.000000
# 5 0.000000 0.000000 0.000000 0.000000 0.030050 0.000000
# 6 0.000000 0.000000 0.000000 0.000000 0.000000 0.052646
#
#
# Mechanical properties :
#
#
# Convention : Reuss Voigt Hill
#
# Bulk Modulus (GPa) = 69.54968 71.96838 70.75903
# Shear Modulus (GPa) = 28.53293 30.69044 29.61168
#
# Velocity S-wave (km/s) = 3.71204 3.84982 3.78156
# Velocity P-wave (km/s) = 7.20829 7.38354 7.29644
#
# Compressibility (1/GPa) = 0.01437821
#
# Stress axis : x y z
#
# Youngs Moduli (GPa) = 89.50433 81.68309 112.96749
#
# Poissons Ratio (x) = 0.23269 0.30703
# Poissons Ratio (y) = 0.25497 0.38160
# Poissons Ratio (z) = 0.24326 0.27592
#
# Static dielectric constant tensor:
#      x y z
#    x 3.641310 0.000000 0.000000 
#    y 0.000000 3.582150 0.000000 
#    z 0.000000 0.000000 4.068430 
# 
# 
# High freq. dielectric constant tensor:
#      x y z
#    x 1.801640 0.000000 0.000000 
#    y 0.000000 1.793670 0.000000 
#    z 0.000000 0.000000 1.822750 
# 
# From -- ./inp_files/21155.got.cif
#   From: 2010.03.12/outbox.cif.g09.slc.cpg/sg51_11_cif.got.tgz:21155.got - 2010.04.16 13:43:02.
