data_PCOD8212982
_publ_section_title
;
Structure prediction by ZEFSAII (Michael W. Deem and Ramdas Pophale) SiO2 
 PCOD8212982
Probable space group: P M M A
;
_chemical_formula_sum "Si O2"
_cell_formula_units_Z 64
_cell_length_a 18.593410
_cell_length_b 9.414897
_cell_length_c 20.258693
_cell_angle_alpha 90.000000
_cell_angle_beta 90.000000
_cell_angle_gamma 90.000000
_cell_volume 3546.386314
_symmetry_space_group_name_H-M "P M M A"
_symmetry_group_IT_number 51
_symmetry_cell_setting 'orthorhombic'
loop_
_space_group_symop_operation_xyz
x,y,z
1/2-x,-y,z
1/2+x,-y,-z
-x,y,-z
-x,-y,-z
1/2+x,y,-z
1/2-x,y,z
x,-y,z
loop_
_atom_site_type_symbol
_atom_site_label
_atom_site_fract_x
_atom_site_fract_y
_atom_site_fract_z
Si Si1 0.166988 0.163060 0.784731
Si Si2 0.402621 0.830748 0.281879
Si Si3 0.076849 0.841856 0.532300
Si Si4 0.830917 0.830669 0.584554
Si Si5 0.667934 0.832340 0.852420
Si Si6 0.582763 0.834186 0.983203
Si Si7 0.164927 0.338572 0.909372
Si Si8 0.443544 0.832445 0.675629
O O1 0.250000 0.190299 0.769268
O O2 0.138161 0.260914 0.843433
O O3 0.124744 0.207257 0.719456
O O4 0.151956 0.000000 0.804616
O O5 0.361823 0.772376 0.346504
O O6 0.364533 0.768850 0.215899
O O7 0.484644 0.774509 0.288414
O O8 0.399971 0.000000 0.278209
O O9 0.128681 0.763907 0.479351
O O10 0.070675 0.762816 0.603299
O O11 0.000000 0.850771 0.500000
O O12 0.107699 0.000000 0.544947
O O13 0.750000 0.779048 0.579179
O O14 0.839729 0.000000 0.584086
O O15 0.750000 0.773130 0.864782
O O16 0.610026 0.792953 0.909637
O O17 0.673683 0.000000 0.846792
O O18 0.596188 0.000000 0.997101
O O19 0.500000 0.795105 0.000000
O O20 0.632891 0.741728 0.029037
O O21 0.250000 0.329573 0.915380
O O22 0.137438 0.500000 0.907827
O O23 0.454046 0.000000 0.665823
#
# Coordination Sequence:
#
# PCOD8212982 Si02
#       8
#     8   8   8   8   8   8   8   8
#     4   9  18  31  48  71  97 126 162 204 247 291
#     4   9  15  23  36  55  79 113 153 193 234 279
#     4   9  14  22  32  48  76 116 158 190 228 279
#     4   9  15  21  31  48  73 109 152 192 229 276
#     4   9  17  28  42  62  90 120 152 194 240 284
#     4  10  21  34  52  78 103 129 163 204 249 299
#     4  10  21  37  56  75  98 132 168 202 247 302
#     4   9  16  24  39  58  85 121 157 197 238 285
#
# _framework density 18.046538999999999
#
# number of rings (size 3 to 8) (size 9 to 14) (size 15 to 20)
#    0.000    2.750    1.250    1.125    1.750    3.500 
#    0.000    2.500    0.000    0.000    0.000    0.000 
#    0.000    0.500    0.000    0.250    0.000   11.625 
#
# Total GULP energy -793130.031538 kJ/mol
# GULP energy per Si atom -12392.656743 kJ/mol
# Density = 1.800546 g / cm^3
# Si number density = 18.046539 Si / 1000 Ang^3
#
#
#
# Elastic Constant Matrix: (Units=GPa)
#
#
# Indices 1 2 3 4 5 6 
#
# 1 94.4617 9.0708 72.2671 0.0000 0.0000 0.0000
# 2 9.0708 22.0899 26.2353 0.0000 0.0000 0.0000
# 3 72.2671 26.2353 169.4910 0.0000 0.0000 0.0000
# 4 0.0000 0.0000 0.0000 -5.8763 0.0000 0.0000
# 5 0.0000 0.0000 0.0000 0.0000 39.0525 0.0000
# 6 0.0000 0.0000 0.0000 0.0000 0.0000 8.7459
#
#
#
# Elastic Compliance Matrix: (Units=1/GPa)
#
#
# Indices 1 2 3 4 5 6 
#
# 1 0.015773 0.001851 -0.007012 0.000000 0.000000 0.000000
# 2 0.001851 0.055683 -0.009408 0.000000 0.000000 0.000000
# 3 -0.007012 -0.009408 0.010346 0.000000 0.000000 0.000000
# 4 0.000000 0.000000 0.000000 -0.170176 0.000000 0.000000
# 5 0.000000 0.000000 0.000000 0.000000 0.025607 0.000000
# 6 0.000000 0.000000 0.000000 0.000000 0.000000 0.114339
#
#
# Mechanical properties :
#
#
# Convention : Reuss Voigt Hill
#
# Bulk Modulus (GPa) = 18.98845 55.68769 37.33807
# Shear Modulus (GPa) = 50.88270 20.28238 35.58254
#
# Velocity S-wave (km/s) = 5.31568 3.35609 4.44521
# Velocity P-wave (km/s) = 6.94407 6.77810 6.86158
#
# Compressibility (1/GPa) = 0.05266359
#
# Stress axis : x y z
#
# Youngs Moduli (GPa) = 63.40049 17.95869 96.65670
#
# Poissons Ratio (x) = -0.03324 0.67772
# Poissons Ratio (y) = -0.11733 0.90937
# Poissons Ratio (z) = 0.44454 0.16896
#
# Static dielectric constant tensor:
#      x y z
#    x 3.473880 0.000000 0.000000 
#    y 0.000000 2.687010 0.000000 
#    z 0.000000 0.000000 3.697030 
# 
# 
# High freq. dielectric constant tensor:
#      x y z
#    x 1.708340 0.000000 0.000000 
#    y 0.000000 1.611700 0.000000 
#    z 0.000000 0.000000 1.718090 
# 
# From -- ./inp_files/33827.got.cif
#   From: 2010.03.12/outbox.cif.g09.slc.cpg/sg51_17_cif.got.tgz:33827.got - 2010.04.16 13:43:02.
