data_PCOD8212000
_publ_section_title
;
Structure prediction by ZEFSAII (Michael W. Deem and Ramdas Pophale) SiO2 
 PCOD8212000
Probable space group: P M M A
;
_chemical_formula_sum "Si O2"
_cell_formula_units_Z 48
_cell_length_a 8.696697
_cell_length_b 29.022762
_cell_length_c 10.200936
_cell_angle_alpha 90.000000
_cell_angle_beta 90.000000
_cell_angle_gamma 90.000000
_cell_volume 2574.738354
_symmetry_space_group_name_H-M "P M M A"
_symmetry_group_IT_number 51
_symmetry_cell_setting 'orthorhombic'
loop_
_space_group_symop_operation_xyz
x,y,z
1/2-x,-y,z
1/2+x,-y,-z
-x,y,-z
-x,-y,-z
1/2+x,y,-z
1/2-x,y,z
x,-y,z
loop_
_atom_site_type_symbol
_atom_site_label
_atom_site_fract_x
_atom_site_fract_y
_atom_site_fract_z
Si Si1 0.931462 0.947908 0.135849
Si Si2 0.932921 0.120796 0.360957
Si Si3 0.428263 0.719599 0.862350
Si Si4 0.069041 0.552195 0.363668
Si Si5 0.072889 0.388540 0.863730
Si Si6 0.067721 0.219344 0.360694
O O1 0.750000 0.945951 0.124541
O O2 0.989859 0.916017 0.253999
O O3 0.989280 0.000000 0.162531
O O4 0.000000 0.928911 0.000000
O O5 0.750000 0.123852 0.370087
O O6 0.000000 0.104655 0.500000
O O7 0.999155 0.170143 0.319384
O O8 0.250000 0.733991 0.858420
O O9 0.450754 0.665488 0.842128
O O10 0.521396 0.743575 0.746908
O O11 0.500000 0.735719 0.000000
O O12 0.250000 0.555113 0.374039
O O13 0.013597 0.500000 0.334904
O O14 0.000000 0.570146 0.500000
O O15 0.013004 0.585356 0.250620
O O16 0.250000 0.402663 0.863786
O O17 0.000000 0.404759 0.000000
O O18 0.250000 0.215684 0.372074
O O19 0.000000 0.235417 0.500000
#
# Coordination Sequence:
#
# PCOD8212000 Si02
#       6
#     8   8   8   8   8   8
#     4   9  19  35  54  77 105 137 174 216 261 311
#     4  10  20  35  54  77 107 139 175 219 264 314
#     4  10  21  38  58  82 110 141 179 221 268 319
#     4  10  21  37  57  81 110 144 182 224 269 318
#     4  10  21  37  58  82 110 143 179 222 268 318
#     4  11  22  37  57  80 108 142 180 222 268 318
#
# _framework density 18.642672999999998
#
# number of rings (size 3 to 8) (size 9 to 14) (size 15 to 20)
#    0.000    2.000    0.000    4.500    0.000    6.333 
#    0.000    1.667    0.000    0.000    0.000    0.000 
#    0.000    0.000    0.000    0.000    0.000    0.000 
#
# Total GULP energy -595385.549190 kJ/mol
# GULP energy per Si atom -12403.865608 kJ/mol
# Density = 1.860024 g / cm^3
# Si number density = 18.642673 Si / 1000 Ang^3
#
#
#
# Elastic Constant Matrix: (Units=GPa)
#
#
# Indices 1 2 3 4 5 6 
#
# 1 94.8036 32.8538 51.0455 0.0000 0.0000 0.0000
# 2 32.8538 55.2228 63.9459 0.0000 0.0000 0.0000
# 3 51.0455 63.9459 147.7969 0.0000 0.0000 0.0000
# 4 0.0000 0.0000 0.0000 41.3245 0.0000 0.0000
# 5 0.0000 0.0000 0.0000 0.0000 39.0049 0.0000
# 6 0.0000 0.0000 0.0000 0.0000 0.0000 30.2580
#
#
#
# Elastic Compliance Matrix: (Units=1/GPa)
#
#
# Indices 1 2 3 4 5 6 
#
# 1 0.013705 -0.005356 -0.002416 0.000000 0.000000 0.000000
# 2 -0.005356 0.038383 -0.014757 0.000000 0.000000 0.000000
# 3 -0.002416 -0.014757 0.013985 0.000000 0.000000 0.000000
# 4 0.000000 0.000000 0.000000 0.024199 0.000000 0.000000
# 5 0.000000 0.000000 0.000000 0.000000 0.025638 0.000000
# 6 0.000000 0.000000 0.000000 0.000000 0.000000 0.033049
#
#
# Mechanical properties :
#
#
# Convention : Reuss Voigt Hill
#
# Bulk Modulus (GPa) = 47.58421 65.94595 56.76508
# Shear Modulus (GPa) = 24.87293 32.11602 28.49447
#
# Velocity S-wave (km/s) = 3.65662 4.15506 3.91379
# Velocity P-wave (km/s) = 6.58845 7.64656 7.13714
#
# Compressibility (1/GPa) = 0.02101537
#
# Stress axis : x y z
#
# Youngs Moduli (GPa) = 72.96554 26.05335 71.50370
#
# Poissons Ratio (x) = 0.13953 0.17277
# Poissons Ratio (y) = 0.39078 1.05518
# Poissons Ratio (z) = 0.17630 0.38447
#
# Static dielectric constant tensor:
#      x y z
#    x 3.478770 0.000000 0.000000 
#    y 0.000000 3.454110 0.000000 
#    z 0.000000 0.000000 3.527520 
# 
# 
# High freq. dielectric constant tensor:
#      x y z
#    x 1.738610 0.000000 0.000000 
#    y 0.000000 1.719220 0.000000 
#    z 0.000000 0.000000 1.734320 
# 
# From -- ./inp_files/5955.got.cif
#   From: 2010.03.12/outbox.cif.g09.slc.cpg/sg51_3_cif.got.tgz:5955.got - 2010.04.16 13:43:02.
