data_PCOD8212691
_publ_section_title
;
Structure prediction by ZEFSAII (Michael W. Deem and Ramdas Pophale) SiO2 
 PCOD8212691
Probable space group: P M M A
;
_chemical_formula_sum "Si O2"
_cell_formula_units_Z 48
_cell_length_a 29.950758
_cell_length_b 8.810084
_cell_length_c 9.531145
_cell_angle_alpha 90.000000
_cell_angle_beta 90.000000
_cell_angle_gamma 90.000000
_cell_volume 2514.970782
_symmetry_space_group_name_H-M "P M M A"
_symmetry_group_IT_number 51
_symmetry_cell_setting 'orthorhombic'
loop_
_space_group_symop_operation_xyz
x,y,z
1/2-x,-y,z
1/2+x,-y,-z
-x,y,-z
-x,-y,-z
1/2+x,y,-z
1/2-x,y,z
x,-y,z
loop_
_atom_site_type_symbol
_atom_site_label
_atom_site_fract_x
_atom_site_fract_y
_atom_site_fract_z
Si Si1 0.199382 0.321669 0.349361
Si Si2 0.379466 0.177499 0.836500
Si Si3 0.046503 0.820657 0.353564
Si Si4 0.452390 0.679525 0.647580
Si Si5 0.699705 0.177102 0.363630
Si Si6 0.371770 0.176855 0.158396
O O1 0.250000 0.265552 0.324721
O O2 0.196240 0.500000 0.357512
O O3 0.181168 0.257221 0.496639
O O4 0.170241 0.264485 0.220456
O O5 0.418405 0.276999 0.769515
O O6 0.332185 0.219352 0.765684
O O7 0.390847 0.000000 0.818370
O O8 0.376746 0.225515 0.997766
O O9 0.063098 0.760295 0.504042
O O10 0.083190 0.777272 0.238624
O O11 0.001170 0.737822 0.307744
O O12 0.038166 0.000000 0.362679
O O13 0.453549 0.500000 0.624844
O O14 0.750000 0.232316 0.326724
O O15 0.698850 0.000000 0.395005
O O16 0.361810 0.000000 0.174096
#
# Coordination Sequence:
#
# PCOD8212691 Si02
#       6
#     8   8   8   8   8   8
#     4  10  21  36  55  80 110 143 178 219 267 316
#     4  10  21  37  55  79 111 143 176 218 269 319
#     4  10  20  37  59  81 106 139 180 225 271 316
#     4  11  22  36  56  82 108 139 180 222 267 319
#     4   9  18  34  57  81 104 136 179 221 260 308
#     4  10  22  37  56  81 108 142 181 221 266 318
#
# _framework density 19.085708
#
# number of rings (size 3 to 8) (size 9 to 14) (size 15 to 20)
#    0.000    2.000    0.000    4.500    0.000    9.000 
#    0.000    5.000    0.000    2.000    0.000    0.000 
#    0.000    0.000    0.000    0.000    0.000    0.000 
#
# Total GULP energy -595404.822415 kJ/mol
# GULP energy per Si atom -12404.267134 kJ/mol
# Density = 1.904227 g / cm^3
# Si number density = 19.085708 Si / 1000 Ang^3
#
#
#
# Elastic Constant Matrix: (Units=GPa)
#
#
# Indices 1 2 3 4 5 6 
#
# 1 108.7760 41.7522 84.3662 0.0000 0.0000 0.0000
# 2 41.7522 59.7037 41.2138 0.0000 0.0000 0.0000
# 3 84.3662 41.2138 145.8381 0.0000 0.0000 0.0000
# 4 0.0000 0.0000 0.0000 3.2257 0.0000 0.0000
# 5 0.0000 0.0000 0.0000 0.0000 19.1000 0.0000
# 6 0.0000 0.0000 0.0000 0.0000 0.0000 25.9556
#
#
#
# Elastic Compliance Matrix: (Units=1/GPa)
#
#
# Indices 1 2 3 4 5 6 
#
# 1 0.018763 -0.006993 -0.008878 0.000000 0.000000 0.000000
# 2 -0.006993 0.023415 -0.002572 0.000000 0.000000 0.000000
# 3 -0.008878 -0.002572 0.012720 0.000000 0.000000 0.000000
# 4 0.000000 0.000000 0.000000 0.310010 0.000000 0.000000
# 5 0.000000 0.000000 0.000000 0.000000 0.052356 0.000000
# 6 0.000000 0.000000 0.000000 0.000000 0.000000 0.038527
#
#
# Mechanical properties :
#
#
# Convention : Reuss Voigt Hill
#
# Bulk Modulus (GPa) = 55.51789 72.10914 63.81351
# Shear Modulus (GPa) = 10.02646 19.45529 14.74087
#
# Velocity S-wave (km/s) = 2.29451 3.19621 2.78214
# Velocity P-wave (km/s) = 6.01428 7.17529 6.62029
#
# Compressibility (1/GPa) = 0.01801221
#
# Stress axis : x y z
#
# Youngs Moduli (GPa) = 53.29578 42.70776 78.61845
#
# Poissons Ratio (x) = 0.29865 0.69799
# Poissons Ratio (y) = 0.37269 0.20219
# Poissons Ratio (z) = 0.47317 0.10983
#
# Static dielectric constant tensor:
#      x y z
#    x 3.653210 0.000000 0.000000 
#    y 0.000000 3.434290 0.000000 
#    z 0.000000 0.000000 3.473780 
# 
# 
# High freq. dielectric constant tensor:
#      x y z
#    x 1.752820 0.000000 0.000000 
#    y 0.000000 1.740550 0.000000 
#    z 0.000000 0.000000 1.738180 
# 
# From -- ./inp_files/12836.got.cif
#   From: 2010.03.12/outbox.cif.g09.slc.cpg/sg51_7_cif.got.tgz:12836.got - 2010.04.16 13:43:02.
