data_PCOD8212565
_publ_section_title
;
Structure prediction by ZEFSAII (Michael W. Deem and Ramdas Pophale) SiO2 
 PCOD8212565
Probable space group: P M M A
;
_chemical_formula_sum "Si O2"
_cell_formula_units_Z 48
_cell_length_a 18.969620
_cell_length_b 9.043182
_cell_length_c 14.900711
_cell_angle_alpha 90.000000
_cell_angle_beta 90.000000
_cell_angle_gamma 90.000000
_cell_volume 2556.153288
_symmetry_space_group_name_H-M "P M M A"
_symmetry_group_IT_number 51
_symmetry_cell_setting 'orthorhombic'
loop_
_space_group_symop_operation_xyz
x,y,z
1/2-x,-y,z
1/2+x,-y,-z
-x,y,-z
-x,-y,-z
1/2+x,y,-z
1/2-x,y,z
x,-y,z
loop_
_atom_site_type_symbol
_atom_site_label
_atom_site_fract_x
_atom_site_fract_y
_atom_site_fract_z
Si Si1 0.329583 0.825549 0.130580
Si Si2 0.420964 0.329643 0.480352
Si Si3 0.423708 0.669692 0.272909
Si Si4 0.079728 0.675271 0.777740
Si Si5 0.667507 0.827823 0.373423
Si Si6 0.922952 0.172925 0.035755
O O1 0.250000 0.765512 0.127526
O O2 0.367800 0.761228 0.216932
O O3 0.332238 0.000000 0.140162
O O4 0.367618 0.776002 0.039369
O O5 0.500000 0.275028 0.500000
O O6 0.413083 0.500000 0.511009
O O7 0.403641 0.308772 0.376226
O O8 0.366684 0.230439 0.534993
O O9 0.418514 0.500000 0.243338
O O10 0.502567 0.728359 0.254430
O O11 0.086583 0.500000 0.775171
O O12 0.137465 0.742929 0.712153
O O13 0.095143 0.733183 0.876966
O O14 0.750000 0.796006 0.378869
O O15 0.650572 0.000000 0.362850
O O16 0.916845 0.000000 0.058986
O O17 0.000000 0.213526 0.000000
#
# Coordination Sequence:
#
# PCOD8212565 Si02
#       6
#     8   8   8   8   8   8
#     4  10  22  39  58  83 118 156 194 242 297 352
#     4  10  20  39  63  88 118 154 196 242 294 351
#     4  10  21  37  60  88 118 152 194 242 290 348
#     4  11  22  38  62  90 119 154 199 247 295 352
#     4  11  25  42  60  88 124 158 196 245 298 353
#     4  10  20  36  59  87 117 154 199 243 295 354
#
# _framework density 18.778217000000001
#
# number of rings (size 3 to 8) (size 9 to 14) (size 15 to 20)
#    0.000    1.667    3.333    1.000    0.000    5.667 
#    0.000    5.000    0.000    0.000    0.000    0.000 
#    0.000    0.000    0.000    0.000    0.000    0.000 
#
# Total GULP energy -595463.449886 kJ/mol
# GULP energy per Si atom -12405.488539 kJ/mol
# Density = 1.873548 g / cm^3
# Si number density = 18.778217 Si / 1000 Ang^3
#
#
#
# Elastic Constant Matrix: (Units=GPa)
#
#
# Indices 1 2 3 4 5 6 
#
# 1 141.2195 59.0351 69.0819 0.0000 0.0000 0.0000
# 2 59.0351 63.7086 53.5990 0.0000 0.0000 0.0000
# 3 69.0819 53.5990 129.9626 0.0000 0.0000 0.0000
# 4 0.0000 0.0000 0.0000 40.2758 0.0000 0.0000
# 5 0.0000 0.0000 0.0000 0.0000 33.3741 0.0000
# 6 0.0000 0.0000 0.0000 0.0000 0.0000 28.5197
#
#
#
# Elastic Compliance Matrix: (Units=1/GPa)
#
#
# Indices 1 2 3 4 5 6 
#
# 1 0.012184 -0.008945 -0.002787 0.000000 0.000000 0.000000
# 2 -0.008945 0.030604 -0.007867 0.000000 0.000000 0.000000
# 3 -0.002787 -0.007867 0.012421 0.000000 0.000000 0.000000
# 4 0.000000 0.000000 0.000000 0.024829 0.000000 0.000000
# 5 0.000000 0.000000 0.000000 0.000000 0.029963 0.000000
# 6 0.000000 0.000000 0.000000 0.000000 0.000000 0.035063
#
#
# Mechanical properties :
#
#
# Convention : Reuss Voigt Hill
#
# Bulk Modulus (GPa) = 62.46135 77.59143 70.02639
# Shear Modulus (GPa) = 26.37132 30.64556 28.50844
#
# Velocity S-wave (km/s) = 3.75154 4.04415 3.90059
# Velocity P-wave (km/s) = 7.21805 7.95088 7.59331
#
# Compressibility (1/GPa) = 0.01600990
#
# Stress axis : x y z
#
# Youngs Moduli (GPa) = 82.07360 32.67536 80.51203
#
# Poissons Ratio (x) = 0.29229 0.22441
# Poissons Ratio (y) = 0.73418 0.63337
# Poissons Ratio (z) = 0.22876 0.25705
#
# Static dielectric constant tensor:
#      x y z
#    x 3.539830 0.000000 0.000000 
#    y 0.000000 3.400200 0.000000 
#    z 0.000000 0.000000 3.498540 
# 
# 
# High freq. dielectric constant tensor:
#      x y z
#    x 1.730810 0.000000 0.000000 
#    y 0.000000 1.725740 0.000000 
#    z 0.000000 0.000000 1.743740 
# 
# From -- ./inp_files/24704.got.cif
#   From: 2010.03.12/outbox.cif.g09.slc.cpg/sg51_13_cif.got.tgz:24704.got - 2010.04.16 13:43:02.
