data_PCOD8212961
_publ_section_title
;
Structure prediction by ZEFSAII (Michael W. Deem and Ramdas Pophale) SiO2 
 PCOD8212961
Probable space group: P M M A
;
_chemical_formula_sum "Si O2"
_cell_formula_units_Z 44
_cell_length_a 8.827908
_cell_length_b 27.882288
_cell_length_c 9.394320
_cell_angle_alpha 90.000000
_cell_angle_beta 90.000000
_cell_angle_gamma 90.000000
_cell_volume 2312.339281
_symmetry_space_group_name_H-M "P M M A"
_symmetry_group_IT_number 51
_symmetry_cell_setting 'orthorhombic'
loop_
_space_group_symop_operation_xyz
x,y,z
1/2-x,-y,z
1/2+x,-y,-z
-x,y,-z
-x,-y,-z
1/2+x,y,-z
1/2-x,y,z
x,-y,z
loop_
_atom_site_type_symbol
_atom_site_label
_atom_site_fract_x
_atom_site_fract_y
_atom_site_fract_z
Si Si1 0.931569 0.000000 0.157568
Si Si2 0.928827 0.722634 0.852888
Si Si3 0.071600 0.446187 0.148894
Si Si4 0.429028 0.638488 0.347324
Si Si5 0.426472 0.169735 0.146110
Si Si6 0.929455 0.083570 0.655990
O O1 0.989987 0.953870 0.241239
O O2 0.750000 0.000000 0.149494
O O3 0.000000 0.000000 0.000000
O O4 0.750000 0.720105 0.869014
O O5 0.986185 0.686538 0.731534
O O6 0.983971 0.776658 0.815541
O O7 0.000000 0.705091 0.000000
O O8 0.250000 0.442480 0.130660
O O9 0.021831 0.500000 0.193965
O O10 0.012232 0.408938 0.266311
O O11 0.000000 0.431193 0.000000
O O12 0.500000 0.638249 0.500000
O O13 0.250000 0.638059 0.360464
O O14 0.250000 0.169667 0.115585
O O15 0.466432 0.135808 0.279076
O O16 0.500000 0.150612 0.000000
O O17 0.750000 0.073295 0.648592
O O18 0.000000 0.080064 0.500000
#
# Coordination Sequence:
#
# PCOD8212961 Si02
#       6
#     4   8   8   8   8   8
#     4  12  25  42  63  86 112 144 182 224 267 314
#     4   9  18  34  54  77 103 134 174 218 261 308
#     4   9  18  33  52  74  99 129 168 213 258 306
#     4  10  21  34  49  72 104 137 170 211 258 309
#     4   9  19  35  56  80 107 138 175 218 263 312
#     4  11  23  39  58  83 114 147 181 220 267 317
#
# _framework density 19.028351000000001
#
# number of rings (size 3 to 8) (size 9 to 14) (size 15 to 20)
#    0.000    2.182    0.000    2.727    0.000    5.455 
#    0.000    0.000    0.000    0.000    0.000    0.000 
#    0.000    0.000    0.000    0.000    0.000    0.000 
#
# Total GULP energy -545613.797834 kJ/mol
# GULP energy per Si atom -12400.313587 kJ/mol
# Density = 1.898504 g / cm^3
# Si number density = 19.028351 Si / 1000 Ang^3
#
#
#
# Elastic Constant Matrix: (Units=GPa)
#
#
# Indices 1 2 3 4 5 6 
#
# 1 55.5655 45.6178 53.8185 0.0000 0.0000 0.0000
# 2 45.6178 135.9246 100.4539 0.0000 0.0000 0.0000
# 3 53.8185 100.4539 183.2538 0.0000 0.0000 0.0000
# 4 0.0000 0.0000 0.0000 26.2667 0.0000 0.0000
# 5 0.0000 0.0000 0.0000 0.0000 38.4825 0.0000
# 6 0.0000 0.0000 0.0000 0.0000 0.0000 16.3595
#
#
#
# Elastic Compliance Matrix: (Units=1/GPa)
#
#
# Indices 1 2 3 4 5 6 
#
# 1 0.027361 -0.005453 -0.005046 0.000000 0.000000 0.000000
# 2 -0.005453 0.013454 -0.005774 0.000000 0.000000 0.000000
# 3 -0.005046 -0.005774 0.010104 0.000000 0.000000 0.000000
# 4 0.000000 0.000000 0.000000 0.038071 0.000000 0.000000
# 5 0.000000 0.000000 0.000000 0.000000 0.025986 0.000000
# 6 0.000000 0.000000 0.000000 0.000000 0.000000 0.061127
#
#
# Mechanical properties :
#
#
# Convention : Reuss Voigt Hill
#
# Bulk Modulus (GPa) = 54.42775 86.05827 70.24301
# Shear Modulus (GPa) = 23.28033 27.87865 25.57949
#
# Velocity S-wave (km/s) = 3.50159 3.83183 3.67042
# Velocity P-wave (km/s) = 6.70923 8.05616 7.41335
#
# Compressibility (1/GPa) = 0.01837298
#
# Stress axis : x y z
#
# Youngs Moduli (GPa) = 36.54776 74.32648 98.97304
#
# Poissons Ratio (x) = 0.40534 0.49943
# Poissons Ratio (y) = 0.19931 0.57143
# Poissons Ratio (z) = 0.18443 0.42913
#
# Static dielectric constant tensor:
#      x y z
#    x 3.430790 0.000000 0.000000 
#    y 0.000000 4.034810 0.000000 
#    z 0.000000 0.000000 3.411770 
# 
# 
# High freq. dielectric constant tensor:
#      x y z
#    x 1.734370 0.000000 0.000000 
#    y 0.000000 1.757720 0.000000 
#    z 0.000000 0.000000 1.738520 
# 
# From -- ./inp_files/5791.got.cif
#   From: 2010.03.12/outbox.cif.g09.slc.cpg/sg51_3_cif.got.tgz:5791.got - 2010.04.16 13:43:02.
