data_PCOD8212466
_publ_section_title
;
Structure prediction by ZEFSAII (Michael W. Deem and Ramdas Pophale) SiO2 
 PCOD8212466
Probable space group: P M M A
;
_chemical_formula_sum "Si O2"
_cell_formula_units_Z 48
_cell_length_a 8.870140
_cell_length_b 14.403365
_cell_length_c 20.836130
_cell_angle_alpha 90.000000
_cell_angle_beta 90.000000
_cell_angle_gamma 90.000000
_cell_volume 2662.021136
_symmetry_space_group_name_H-M "P M M A"
_symmetry_group_IT_number 51
_symmetry_cell_setting 'orthorhombic'
loop_
_space_group_symop_operation_xyz
x,y,z
1/2-x,-y,z
1/2+x,-y,-z
-x,y,-z
-x,-y,-z
1/2+x,y,-z
1/2-x,y,z
x,-y,z
loop_
_atom_site_type_symbol
_atom_site_label
_atom_site_fract_x
_atom_site_fract_y
_atom_site_fract_z
Si Si1 0.071076 0.600490 0.739682
Si Si2 0.925264 0.605203 0.113717
Si Si3 0.572117 0.106555 0.434761
Si Si4 0.570605 0.208016 0.309421
Si Si5 0.574076 0.891392 0.180607
Si Si6 0.427582 0.217585 0.064966
O O1 0.250000 0.598028 0.737315
O O2 0.008372 0.500000 0.715228
O O3 0.021583 0.616960 0.812846
O O4 0.010167 0.685730 0.696601
O O5 0.750000 0.631610 0.106435
O O6 0.954851 0.500000 0.090307
O O7 0.023910 0.674909 0.071540
O O8 0.500000 0.146120 0.500000
O O9 0.750000 0.117421 0.439982
O O10 0.505381 0.164656 0.374928
O O11 0.524632 0.000000 0.424109
O O12 0.750000 0.205098 0.311829
O O13 0.515566 0.148397 0.248524
O O14 0.750000 0.868937 0.171058
O O15 0.482688 0.843187 0.124296
O O16 0.540682 0.000000 0.179546
O O17 0.250000 0.210579 0.059515
O O18 0.500000 0.176591 0.000000
#
# Coordination Sequence:
#
# PCOD8212466 Si02
#       6
#     8   8   8   8   8   8
#     4   8  13  23  46  78 104 125 156 203 252 298
#     4   9  17  33  57  81 105 132 166 211 260 310
#     4   9  17  29  46  71 102 136 171 207 248 295
#     4   9  15  27  51  78 103 130 167 209 252 303
#     4  10  20  36  58  80 101 128 168 219 268 313
#     4  12  25  39  55  74 103 139 174 213 259 314
#
# _framework density 18.031413000000001
#
# number of rings (size 3 to 8) (size 9 to 14) (size 15 to 20)
#    0.000    2.500    1.667    3.000    0.000    3.333 
#    0.000    0.833    0.000    2.500    0.000    0.000 
#    0.000    0.000    0.000    0.000    0.000    0.000 
#
# Total GULP energy -595057.397720 kJ/mol
# GULP energy per Si atom -12397.029119 kJ/mol
# Density = 1.799037 g / cm^3
# Si number density = 18.031413 Si / 1000 Ang^3
#
#
#
# Elastic Constant Matrix: (Units=GPa)
#
#
# Indices 1 2 3 4 5 6 
#
# 1 53.5313 36.9930 41.4631 0.0000 0.0000 0.0000
# 2 36.9930 115.5303 69.9436 0.0000 0.0000 0.0000
# 3 41.4631 69.9436 146.9689 0.0000 0.0000 0.0000
# 4 0.0000 0.0000 0.0000 27.4444 0.0000 0.0000
# 5 0.0000 0.0000 0.0000 0.0000 23.6195 0.0000
# 6 0.0000 0.0000 0.0000 0.0000 0.0000 17.7304
#
#
#
# Elastic Compliance Matrix: (Units=1/GPa)
#
#
# Indices 1 2 3 4 5 6 
#
# 1 0.026170 -0.005492 -0.004769 0.000000 0.000000 0.000000
# 2 -0.005492 0.013312 -0.004786 0.000000 0.000000 0.000000
# 3 -0.004769 -0.004786 0.010427 0.000000 0.000000 0.000000
# 4 0.000000 0.000000 0.000000 0.036437 0.000000 0.000000
# 5 0.000000 0.000000 0.000000 0.000000 0.042338 0.000000
# 6 0.000000 0.000000 0.000000 0.000000 0.000000 0.056400
#
#
# Mechanical properties :
#
#
# Convention : Reuss Voigt Hill
#
# Bulk Modulus (GPa) = 50.46793 68.09220 59.28006
# Shear Modulus (GPa) = 22.54442 24.93424 23.73933
#
# Velocity S-wave (km/s) = 3.53977 3.72267 3.63237
# Velocity P-wave (km/s) = 6.69002 7.50485 7.10912
#
# Compressibility (1/GPa) = 0.01981456
#
# Stress axis : x y z
#
# Youngs Moduli (GPa) = 38.21117 75.12206 95.90287
#
# Poissons Ratio (x) = 0.41260 0.45740
# Poissons Ratio (y) = 0.20987 0.45895
# Poissons Ratio (z) = 0.18224 0.35950
#
# Static dielectric constant tensor:
#      x y z
#    x 2.935020 0.000000 0.000000 
#    y 0.000000 3.709330 0.000000 
#    z 0.000000 0.000000 3.401900 
# 
# 
# High freq. dielectric constant tensor:
#      x y z
#    x 1.655880 0.000000 0.000000 
#    y 0.000000 1.706800 0.000000 
#    z 0.000000 0.000000 1.689310 
# 
# From -- ./inp_files/31561.got.cif
#   From: 2010.03.12/outbox.cif.g09.slc.cpg/sg51_16_cif.got.tgz:31561.got - 2010.04.16 13:43:02.
