data_PCOD8212415
_publ_section_title
;
Structure prediction by ZEFSAII (Michael W. Deem and Ramdas Pophale) SiO2 
 PCOD8212415
Probable space group: P M M A
;
_chemical_formula_sum "Si O2"
_cell_formula_units_Z 40
_cell_length_a 15.031839
_cell_length_b 8.927291
_cell_length_c 15.323032
_cell_angle_alpha 90.000000
_cell_angle_beta 90.000000
_cell_angle_gamma 90.000000
_cell_volume 2056.252843
_symmetry_space_group_name_H-M "P M M A"
_symmetry_group_IT_number 51
_symmetry_cell_setting 'orthorhombic'
loop_
_space_group_symop_operation_xyz
x,y,z
1/2-x,-y,z
1/2+x,-y,-z
-x,y,-z
-x,-y,-z
1/2+x,y,-z
1/2-x,y,z
x,-y,z
loop_
_atom_site_type_symbol
_atom_site_label
_atom_site_fract_x
_atom_site_fract_y
_atom_site_fract_z
Si Si1 0.112971 0.827052 0.337529
Si Si2 0.750000 0.178555 0.351581
Si Si3 0.750000 0.675375 0.990092
Si Si4 0.069519 0.177481 0.737747
Si Si5 0.750000 0.323057 0.539768
Si Si6 0.250000 0.167359 0.187900
Si Si7 0.922814 0.177057 0.065651
O O1 0.160682 0.728137 0.410694
O O2 0.162260 0.809490 0.245371
O O3 0.012277 0.767720 0.323355
O O4 0.116055 0.000000 0.368442
O O5 0.837060 0.237173 0.300039
O O6 0.750000 0.250186 0.445806
O O7 0.750000 0.000000 0.360229
O O8 0.750000 0.500000 0.002689
O O9 0.750000 0.711686 0.887809
O O10 0.665788 0.743306 0.036971
O O11 0.054653 0.233379 0.836674
O O12 0.069138 0.000000 0.737599
O O13 0.750000 0.500000 0.531775
O O14 0.250000 0.000000 0.147094
O O15 0.907782 0.000000 0.062346
O O16 0.000000 0.227784 0.000000
#
# Coordination Sequence:
#
# PCOD8212415 Si02
#       7
#     8   4   4   8   4   4   8
#     4   9  18  36  61  85 107 135 178 229 280 329
#     4  10  20  36  57  80 110 145 182 223 266 319
#     4  12  24  34  49  78 118 157 188 225 276 333
#     4   9  18  34  59  86 108 138 183 232 276 319
#     4  11  23  38  55  81 113 143 177 218 271 332
#     4   9  17  32  55  79 105 141 187 234 275 322
#     4  10  20  37  61  85 110 144 190 239 281 325
#
# _framework density 19.452860000000001
#
# number of rings (size 3 to 8) (size 9 to 14) (size 15 to 20)
#    0.000    2.200    0.000    4.200    0.000    7.600 
#    0.000    8.000    0.000    0.000    0.000    0.000 
#    0.000    0.000    0.000    0.000    0.000    0.000 
#
# Total GULP energy -496021.779915 kJ/mol
# GULP energy per Si atom -12400.544498 kJ/mol
# Density = 1.940858 g / cm^3
# Si number density = 19.452860 Si / 1000 Ang^3
#
#
#
# Elastic Constant Matrix: (Units=GPa)
#
#
# Indices 1 2 3 4 5 6 
#
# 1 178.7791 33.2095 69.3932 0.0000 0.0000 0.0000
# 2 33.2095 30.4695 23.1148 0.0000 0.0000 0.0000
# 3 69.3932 23.1148 133.6919 0.0000 0.0000 0.0000
# 4 0.0000 0.0000 0.0000 7.0776 0.0000 0.0000
# 5 0.0000 0.0000 0.0000 0.0000 -121.7924 0.0000
# 6 0.0000 0.0000 0.0000 0.0000 0.0000 17.4442
#
#
#
# Elastic Compliance Matrix: (Units=1/GPa)
#
#
# Indices 1 2 3 4 5 6 
#
# 1 0.007951 -0.006371 -0.003026 0.000000 0.000000 0.000000
# 2 -0.006371 0.042879 -0.004107 0.000000 0.000000 0.000000
# 3 -0.003026 -0.004107 0.009760 0.000000 0.000000 0.000000
# 4 0.000000 0.000000 0.000000 0.141290 0.000000 0.000000
# 5 0.000000 0.000000 0.000000 0.000000 -0.008211 0.000000
# 6 0.000000 0.000000 0.000000 0.000000 0.000000 0.057326
#
#
# Mechanical properties :
#
#
# Convention : Reuss Voigt Hill
#
# Bulk Modulus (GPa) = 29.77606 66.04172 47.90889
# Shear Modulus (GPa) = 17.28920 -4.97258 6.15831
#
# Velocity S-wave (km/s) = 2.98447 -1.60055 1.78119
# Velocity P-wave (km/s) = 5.21690 5.53242 5.37697
#
# Compressibility (1/GPa) = 0.03358403
#
# Stress axis : x y z
#
# Youngs Moduli (GPa) = 125.76440 23.32137 102.45495
#
# Poissons Ratio (x) = 0.14858 0.30999
# Poissons Ratio (y) = 0.80126 0.42075
# Poissons Ratio (z) = 0.38052 0.09577
#
# Static dielectric constant tensor:
#      x y z
#    x 4.360850 0.000000 0.000000 
#    y 0.000000 3.191820 0.000000 
#    z 0.000000 0.000000 3.632610 
# 
# 
# High freq. dielectric constant tensor:
#      x y z
#    x 1.774170 0.000000 0.000000 
#    y 0.000000 1.717410 0.000000 
#    z 0.000000 0.000000 1.762720 
# 
# From -- ./inp_files/23874.got.cif
#   From: 2010.03.12/outbox.cif.g09.slc.cpg/sg51_12_cif.got.tgz:23874.got - 2010.04.16 13:43:02.
