data_PCOD8212593
_publ_section_title
;
Structure prediction by ZEFSAII (Michael W. Deem and Ramdas Pophale) SiO2 
 PCOD8212593
Probable space group: P M M A
;
_chemical_formula_sum "Si O2"
_cell_formula_units_Z 48
_cell_length_a 18.927915
_cell_length_b 8.829603
_cell_length_c 15.112412
_cell_angle_alpha 90.000000
_cell_angle_beta 90.000000
_cell_angle_gamma 90.000000
_cell_volume 2525.676591
_symmetry_space_group_name_H-M "P M M A"
_symmetry_group_IT_number 51
_symmetry_cell_setting 'orthorhombic'
loop_
_space_group_symop_operation_xyz
x,y,z
1/2-x,-y,z
1/2+x,-y,-z
-x,y,-z
-x,-y,-z
1/2+x,y,-z
1/2-x,y,z
x,-y,z
loop_
_atom_site_type_symbol
_atom_site_label
_atom_site_fract_x
_atom_site_fract_y
_atom_site_fract_z
Si Si1 0.068386 0.178389 0.231410
Si Si2 0.588293 0.820849 0.273776
Si Si3 0.332756 0.674433 0.372000
Si Si4 0.073331 0.679086 0.041757
Si Si5 0.832021 0.175706 0.445491
Si Si6 0.667808 0.822733 0.101015
O O1 0.128265 0.224864 0.299885
O O2 0.083820 0.257705 0.139209
O O3 0.992775 0.231687 0.269435
O O4 0.069791 0.000000 0.216252
O O5 0.623258 0.757451 0.363493
O O6 0.629385 0.757180 0.188281
O O7 0.596552 0.000000 0.274625
O O8 0.250000 0.700114 0.357455
O O9 0.354326 0.500000 0.360998
O O10 0.355319 0.729616 0.469115
O O11 0.074103 0.500000 0.046070
O O12 0.138706 0.735853 0.983916
O O13 0.000000 0.739796 0.000000
O O14 0.750000 0.198785 0.422670
O O15 0.849127 0.000000 0.463837
O O16 0.750000 0.787708 0.110441
O O17 0.652510 0.000000 0.088751
#
# Coordination Sequence:
#
# PCOD8212593 Si02
#       6
#     8   8   8   8   8   8
#     4  11  22  37  61  86 111 146 189 236 283 336
#     4   9  18  33  56  87 117 145 181 231 282 329
#     4  10  22  40  58  79 112 150 189 236 285 334
#     4  11  23  39  58  81 114 154 190 229 282 339
#     4   9  17  33  58  84 112 148 188 228 274 331
#     4  10  20  36  60  88 116 148 189 235 282 335
#
# _framework density 19.004809000000002
#
# number of rings (size 3 to 8) (size 9 to 14) (size 15 to 20)
#    0.000    2.000    1.667    2.000    0.000    5.333 
#    0.000    5.833    0.000    2.000    0.000    0.000 
#    0.000    0.000    0.000    0.000    0.000    0.000 
#
# Total GULP energy -595405.562164 kJ/mol
# GULP energy per Si atom -12404.282545 kJ/mol
# Density = 1.896155 g / cm^3
# Si number density = 19.004809 Si / 1000 Ang^3
#
#
#
# Elastic Constant Matrix: (Units=GPa)
#
#
# Indices 1 2 3 4 5 6 
#
# 1 82.7844 32.7560 61.3825 0.0000 0.0000 0.0000
# 2 32.7560 40.2214 16.8122 0.0000 0.0000 0.0000
# 3 61.3825 16.8122 124.7178 0.0000 0.0000 0.0000
# 4 0.0000 0.0000 0.0000 4.2033 0.0000 0.0000
# 5 0.0000 0.0000 0.0000 0.0000 39.7463 0.0000
# 6 0.0000 0.0000 0.0000 0.0000 0.0000 19.8087
#
#
#
# Elastic Compliance Matrix: (Units=1/GPa)
#
#
# Indices 1 2 3 4 5 6 
#
# 1 0.027187 -0.017536 -0.011017 0.000000 0.000000 0.000000
# 2 -0.017536 0.037658 0.003554 0.000000 0.000000 0.000000
# 3 -0.011017 0.003554 0.012961 0.000000 0.000000 0.000000
# 4 0.000000 0.000000 0.000000 0.237906 0.000000 0.000000
# 5 0.000000 0.000000 0.000000 0.000000 0.025160 0.000000
# 6 0.000000 0.000000 0.000000 0.000000 0.000000 0.050483
#
#
# Mechanical properties :
#
#
# Convention : Reuss Voigt Hill
#
# Bulk Modulus (GPa) = 35.95934 52.18056 44.06995
# Shear Modulus (GPa) = 11.09583 21.86987 16.48285
#
# Velocity S-wave (km/s) = 2.41891 3.39596 2.94819
# Velocity P-wave (km/s) = 5.17337 6.54926 5.90155
#
# Compressibility (1/GPa) = 0.02780919
#
# Stress axis : x y z
#
# Youngs Moduli (GPa) = 36.78282 26.55498 77.15421
#
# Poissons Ratio (x) = 0.46566 0.84998
# Poissons Ratio (y) = 0.64501 -0.27422
# Poissons Ratio (z) = 0.40522 -0.09438
#
# Static dielectric constant tensor:
#      x y z
#    x 3.515620 0.000000 0.000000 
#    y 0.000000 3.303330 0.000000 
#    z 0.000000 0.000000 3.633550 
# 
# 
# High freq. dielectric constant tensor:
#      x y z
#    x 1.741190 0.000000 0.000000 
#    y 0.000000 1.722500 0.000000 
#    z 0.000000 0.000000 1.752280 
# 
# From -- ./inp_files/24680.got.cif
#   From: 2010.03.12/outbox.cif.g09.slc.cpg/sg51_13_cif.got.tgz:24680.got - 2010.04.16 13:43:02.
