data_PCOD8212330
_publ_section_title
;
Structure prediction by ZEFSAII (Michael W. Deem and Ramdas Pophale) SiO2 
 PCOD8212330
Probable space group: P M M A
;
_chemical_formula_sum "Si O2"
_cell_formula_units_Z 32
_cell_length_a 14.929104
_cell_length_b 11.482646
_cell_length_c 9.657722
_cell_angle_alpha 90.000000
_cell_angle_beta 90.000000
_cell_angle_gamma 90.000000
_cell_volume 1655.580946
_symmetry_space_group_name_H-M "P M M A"
_symmetry_group_IT_number 51
_symmetry_cell_setting 'orthorhombic'
loop_
_space_group_symop_operation_xyz
x,y,z
1/2-x,-y,z
1/2+x,-y,-z
-x,y,-z
-x,-y,-z
1/2+x,y,-z
1/2-x,y,z
x,-y,z
loop_
_atom_site_type_symbol
_atom_site_label
_atom_site_fract_x
_atom_site_fract_y
_atom_site_fract_z
Si Si1 0.410802 0.500000 0.086700
Si Si2 0.250000 0.860842 0.501253
Si Si3 0.606991 0.748186 0.999727
Si Si4 0.975944 0.500000 0.343001
Si Si5 0.750000 0.864081 0.813728
Si Si6 0.345878 0.711263 0.702698
O O1 0.434339 0.500000 0.250307
O O2 0.500000 0.500000 0.000000
O O3 0.359852 0.617570 0.043224
O O4 0.250000 0.814549 0.343282
O O5 0.338960 0.807677 0.578753
O O6 0.250000 0.000000 0.513388
O O7 0.639222 0.779503 0.153579
O O8 0.500000 0.765662 0.000000
O O9 0.658258 0.829952 0.891542
O O10 0.923210 0.382155 0.313662
O O11 0.000000 0.500000 0.500000
O O12 0.750000 0.000000 0.800400
O O13 0.250000 0.644791 0.708837
#
# Coordination Sequence:
#
# PCOD8212330 Si02
#       6
#     4   4   8   4   4   8
#     4  10  20  35  59  92 129 153 196 248 313 365
#     4   9  23  42  61  86 124 166 211 261 312 371
#     4  11  21  40  67  96 124 165 207 259 316 372
#     4  12  23  36  59  96 134 163 204 257 304 389
#     4  11  25  44  63  90 128 162 213 271 310 369
#     4  10  21  38  63  89 126 167 209 248 314 375
#
# _framework density 19.328562999999999
#
# number of rings (size 3 to 8) (size 9 to 14) (size 15 to 20)
#    0.750    0.750    6.250    0.375    3.500    3.000 
#    0.000    1.250    0.000    3.750    0.000    0.000 
#    0.000    0.000    0.000    0.000    0.000    0.000 
#
# Total GULP energy -396450.105210 kJ/mol
# GULP energy per Si atom -12389.065788 kJ/mol
# Density = 1.928457 g / cm^3
# Si number density = 19.328563 Si / 1000 Ang^3
#
#
#
# Elastic Constant Matrix: (Units=GPa)
#
#
# Indices 1 2 3 4 5 6 
#
# 1 69.6480 17.7850 36.7739 0.0000 0.0000 0.0000
# 2 17.7850 63.5213 41.3791 0.0000 0.0000 0.0000
# 3 36.7739 41.3791 189.4604 0.0000 0.0000 0.0000
# 4 0.0000 0.0000 0.0000 29.9168 0.0000 0.0000
# 5 0.0000 0.0000 0.0000 0.0000 33.1891 0.0000
# 6 0.0000 0.0000 0.0000 0.0000 0.0000 10.1159
#
#
#
# Elastic Compliance Matrix: (Units=1/GPa)
#
#
# Indices 1 2 3 4 5 6 
#
# 1 0.016457 -0.002946 -0.002551 0.000000 0.000000 0.000000
# 2 -0.002946 0.018881 -0.003552 0.000000 0.000000 0.000000
# 3 -0.002551 -0.003552 0.006549 0.000000 0.000000 0.000000
# 4 0.000000 0.000000 0.000000 0.033426 0.000000 0.000000
# 5 0.000000 0.000000 0.000000 0.000000 0.030130 0.000000
# 6 0.000000 0.000000 0.000000 0.000000 0.000000 0.098854
#
#
# Mechanical properties :
#
#
# Convention : Reuss Voigt Hill
#
# Bulk Modulus (GPa) = 42.03488 57.16731 49.60109
# Shear Modulus (GPa) = 21.70843 29.75717 25.73280
#
# Velocity S-wave (km/s) = 3.35494 3.92796 3.65271
# Velocity P-wave (km/s) = 6.06649 7.08609 6.59602
#
# Compressibility (1/GPa) = 0.02378977
#
# Stress axis : x y z
#
# Youngs Moduli (GPa) = 60.76430 52.96211 152.69432
#
# Poissons Ratio (x) = 0.15603 0.38950
# Poissons Ratio (y) = 0.17901 0.54237
# Poissons Ratio (z) = 0.15500 0.18812
#
# Static dielectric constant tensor:
#      x y z
#    x 70.928050 0.000000 0.000000 
#    y 0.000000 3.806950 0.000000 
#    z 0.000000 0.000000 4.052480 
# 
# 
# High freq. dielectric constant tensor:
#      x y z
#    x 1.735260 0.000000 0.000000 
#    y 0.000000 1.736390 0.000000 
#    z 0.000000 0.000000 1.773040 
# 
# From -- ./inp_files/7633.got.cif
#   From: 2010.03.12/outbox.cif.g09.slc.cpg/sg51_4_cif.got.tgz:7633.got - 2010.04.16 13:43:02.
