data_PCOD8212978
_publ_section_title
;
Structure prediction by ZEFSAII (Michael W. Deem and Ramdas Pophale) SiO2 
 PCOD8212978
Probable space group: P M M A
;
_chemical_formula_sum "Si O2"
_cell_formula_units_Z 64
_cell_length_a 14.598868
_cell_length_b 8.878468
_cell_length_c 26.319827
_cell_angle_alpha 90.000000
_cell_angle_beta 90.000000
_cell_angle_gamma 90.000000
_cell_volume 3411.459705
_symmetry_space_group_name_H-M "P M M A"
_symmetry_group_IT_number 51
_symmetry_cell_setting 'orthorhombic'
loop_
_space_group_symop_operation_xyz
x,y,z
1/2-x,-y,z
1/2+x,-y,-z
-x,y,-z
-x,-y,-z
1/2+x,y,-z
1/2-x,y,z
x,-y,z
loop_
_atom_site_type_symbol
_atom_site_label
_atom_site_fract_x
_atom_site_fract_y
_atom_site_fract_z
Si Si1 0.357835 0.320607 0.501436
Si Si2 0.352328 0.677720 0.760429
Si Si3 0.645321 0.323140 0.870763
Si Si4 0.642603 0.673330 0.125960
Si Si5 0.002817 0.176593 0.058204
Si Si6 0.997869 0.179966 0.573385
Si Si7 0.497000 0.823884 0.689601
Si Si8 0.646437 0.176024 0.768175
O O1 0.250000 0.277471 0.502009
O O2 0.371029 0.500000 0.501735
O O3 0.406889 0.250247 0.451991
O O4 0.408758 0.248761 0.550135
O O5 0.250000 0.738387 0.751981
O O6 0.354847 0.500000 0.755926
O O7 0.385530 0.724686 0.817004
O O8 0.411641 0.746798 0.715979
O O9 0.750000 0.272202 0.877798
O O10 0.633393 0.500000 0.870349
O O11 0.589862 0.256609 0.917377
O O12 0.606712 0.260994 0.817386
O O13 0.750000 0.695517 0.117299
O O14 0.614320 0.500000 0.117435
O O15 0.590773 0.775960 0.085565
O O16 0.016001 0.000000 0.063520
O O17 0.000000 0.228375 0.000000
O O18 0.994596 0.229690 0.631824
O O19 0.997345 0.000000 0.565865
O O20 0.589243 0.776110 0.718804
O O21 0.480216 0.000000 0.692520
O O22 0.750000 0.226647 0.756943
O O23 0.638898 0.000000 0.779476
#
# Coordination Sequence:
#
# PCOD8212978 Si02
#       8
#     8   8   8   8   8   8   8   8
#     4  10  21  38  59  80 104 138 181 226 269 315
#     4   9  19  35  54  77 105 139 176 212 257 311
#     4  10  21  37  57  80 105 136 177 221 263 312
#     4   9  19  37  59  81 106 137 175 219 264 312
#     4  11  24  38  53  77 107 138 174 217 266 320
#     4  10  21  36  55  81 111 142 178 220 265 314
#     4  10  21  34  51  80 113 142 174 214 258 305
#     4   9  18  34  55  78 107 142 175 209 256 313
#
# _framework density 18.760297999999999
#
# number of rings (size 3 to 8) (size 9 to 14) (size 15 to 20)
#    0.000    2.250    0.000    3.750    0.000    8.750 
#    0.000    7.500    0.000    1.500    0.000    0.000 
#    0.000    0.000    0.000    0.000    0.000    0.000 
#
# Total GULP energy -793646.003524 kJ/mol
# GULP energy per Si atom -12400.718805 kJ/mol
# Density = 1.871760 g / cm^3
# Si number density = 18.760298 Si / 1000 Ang^3
#
#
#
# Elastic Constant Matrix: (Units=GPa)
#
#
# Indices 1 2 3 4 5 6 
#
# 1 113.9683 70.2845 57.5654 0.0000 0.0000 0.0000
# 2 70.2845 -29.5413 111.7671 0.0000 0.0000 0.0000
# 3 57.5654 111.7671 128.6145 0.0000 0.0000 0.0000
# 4 0.0000 0.0000 0.0000 17.9948 0.0000 0.0000
# 5 0.0000 0.0000 0.0000 0.0000 74.3650 0.0000
# 6 0.0000 0.0000 0.0000 0.0000 0.0000 30.9827
#
#
#
# Elastic Compliance Matrix: (Units=1/GPa)
#
#
# Indices 1 2 3 4 5 6 
#
# 1 0.010936 0.001749 -0.006415 0.000000 0.000000 0.000000
# 2 0.001749 -0.007615 0.005835 0.000000 0.000000 0.000000
# 3 -0.006415 0.005835 0.005576 0.000000 0.000000 0.000000
# 4 0.000000 0.000000 0.000000 0.055572 0.000000 0.000000
# 5 0.000000 0.000000 0.000000 0.000000 0.013447 0.000000
# 6 0.000000 0.000000 0.000000 0.000000 0.000000 0.032276
#
#
# Mechanical properties :
#
#
# Convention : Reuss Voigt Hill
#
# Bulk Modulus (GPa) = 89.00865 76.91951 82.96408
# Shear Modulus (GPa) = 44.80348 22.89679 33.85014
#
# Velocity S-wave (km/s) = 4.89223 3.49734 4.25237
# Velocity P-wave (km/s) = 8.91404 7.57620 8.27221
#
# Compressibility (1/GPa) = 0.01123486
#
# Stress axis : x y z
#
# Youngs Moduli (GPa) = 91.44361 -131.32148 179.34190
#
# Poissons Ratio (x) = 0.22969 1.15040
# Poissons Ratio (y) = -0.15994 -1.04638
# Poissons Ratio (z) = 0.58657 0.76620
#
# Static dielectric constant tensor:
#      x y z
#    x 3.560500 0.000000 0.000000 
#    y 0.000000 3.412850 0.000000 
#    z 0.000000 0.000000 2.973040 
# 
# 
# High freq. dielectric constant tensor:
#      x y z
#    x 1.737230 0.000000 0.000000 
#    y 0.000000 1.729590 0.000000 
#    z 0.000000 0.000000 1.730000 
# 
# From -- ./inp_files/35625.got.cif
#   From: 2010.03.12/outbox.cif.g09.slc.cpg/sg51_18_cif.got.tgz:35625.got - 2010.04.16 13:43:02.
