data_PCOD8212622
_publ_section_title
;
Structure prediction by ZEFSAII (Michael W. Deem and Ramdas Pophale) SiO2 
 PCOD8212622
Probable space group: P M M A
;
_chemical_formula_sum "Si O2"
_cell_formula_units_Z 64
_cell_length_a 24.916931
_cell_length_b 8.451165
_cell_length_c 14.661276
_cell_angle_alpha 90.000000
_cell_angle_beta 90.000000
_cell_angle_gamma 90.000000
_cell_volume 3087.328912
_symmetry_space_group_name_H-M "P M M A"
_symmetry_group_IT_number 51
_symmetry_cell_setting 'orthorhombic'
loop_
_space_group_symop_operation_xyz
x,y,z
1/2-x,-y,z
1/2+x,-y,-z
-x,y,-z
-x,-y,-z
1/2+x,y,-z
1/2-x,y,z
x,-y,z
loop_
_atom_site_type_symbol
_atom_site_label
_atom_site_fract_x
_atom_site_fract_y
_atom_site_fract_z
Si Si1 0.907562 0.816152 0.705808
Si Si2 0.337194 0.317854 0.989003
Si Si3 0.554913 0.183484 0.046495
Si Si4 0.488272 0.316002 0.777152
Si Si5 0.188749 0.315693 0.789622
Si Si6 0.598156 0.816484 0.339383
Si Si7 0.309983 0.316032 0.185442
Si Si8 0.938881 0.684889 0.513840
O O1 0.849985 0.779743 0.749803
O O2 0.917712 0.715025 0.615549
O O3 0.954003 0.768943 0.777741
O O4 0.911129 0.000000 0.682325
O O5 0.321888 0.500000 0.983258
O O6 0.400254 0.288316 0.002081
O O7 0.318175 0.241654 0.892283
O O8 0.310124 0.248966 0.080931
O O9 0.551278 0.231763 0.151414
O O10 0.569178 0.000000 0.035534
O O11 0.500000 0.232185 0.000000
O O12 0.496293 0.500000 0.797734
O O13 0.454901 0.287235 0.685027
O O14 0.250000 0.290517 0.758423
O O15 0.172545 0.500000 0.791111
O O16 0.151538 0.229917 0.715819
O O17 0.602716 0.777383 0.446956
O O18 0.586711 0.000000 0.322751
O O19 0.250000 0.293371 0.224576
O O20 0.327282 0.500000 0.185337
O O21 0.935238 0.500000 0.493595
O O22 0.000000 0.746658 0.500000
#
# Coordination Sequence:
#
# PCOD8212622 Si02
#       8
#     8   8   8   8   8   8   8   8
#     4  12  25  41  64  95 129 163 203 257 318 375
#     4  10  20  36  61  90 121 162 214 261 304 361
#     4  11  23  36  52  82 124 165 205 255 316 373
#     4  12  23  38  60  87 122 164 208 251 303 370
#     4  10  21  39  63  91 125 167 213 258 305 364
#     4  12  24  39  62  93 129 162 199 253 313 367
#     4  10  22  42  66  92 125 168 217 263 306 362
#     4  11  23  41  68  96 124 161 205 252 305 375
#
# _framework density 20.729894000000002
#
# number of rings (size 3 to 8) (size 9 to 14) (size 15 to 20)
#    0.000    1.000    2.500    5.250    0.000    6.000 
#    0.000    0.625    0.000    6.000    0.000    0.000 
#    0.000    0.000    0.000    0.000    0.000    0.000 
#
# Total GULP energy -793662.835782 kJ/mol
# GULP energy per Si atom -12400.981809 kJ/mol
# Density = 2.068271 g / cm^3
# Si number density = 20.729894 Si / 1000 Ang^3
#
#
#
# Elastic Constant Matrix: (Units=GPa)
#
#
# Indices 1 2 3 4 5 6 
#
# 1 110.2878 28.0042 37.1055 0.0000 0.0000 0.0000
# 2 28.0042 53.4550 20.4233 0.0000 0.0000 0.0000
# 3 37.1055 20.4233 92.2397 0.0000 0.0000 0.0000
# 4 0.0000 0.0000 0.0000 24.2760 0.0000 0.0000
# 5 0.0000 0.0000 0.0000 0.0000 23.3157 0.0000
# 6 0.0000 0.0000 0.0000 0.0000 0.0000 22.3057
#
#
#
# Elastic Compliance Matrix: (Units=1/GPa)
#
#
# Indices 1 2 3 4 5 6 
#
# 1 0.011447 -0.004629 -0.003580 0.000000 0.000000 0.000000
# 2 -0.004629 0.022308 -0.003077 0.000000 0.000000 0.000000
# 3 -0.003580 -0.003077 0.012963 0.000000 0.000000 0.000000
# 4 0.000000 0.000000 0.000000 0.041193 0.000000 0.000000
# 5 0.000000 0.000000 0.000000 0.000000 0.042890 0.000000
# 6 0.000000 0.000000 0.000000 0.000000 0.000000 0.044832
#
#
# Mechanical properties :
#
#
# Convention : Reuss Voigt Hill
#
# Bulk Modulus (GPa) = 41.41560 47.44985 44.43272
# Shear Modulus (GPa) = 24.24208 25.34278 24.79243
#
# Velocity S-wave (km/s) = 3.42340 3.50025 3.46204
# Velocity P-wave (km/s) = 5.97062 6.26697 6.12059
#
# Compressibility (1/GPa) = 0.02414549
#
# Stress axis : x y z
#
# Youngs Moduli (GPa) = 87.35877 44.82667 77.14427
#
# Poissons Ratio (x) = 0.20751 0.27617
# Poissons Ratio (y) = 0.40440 0.23739
# Poissons Ratio (z) = 0.31273 0.13794
#
# Static dielectric constant tensor:
#      x y z
#    x 3.687500 0.000000 0.000000 
#    y 0.000000 3.548050 0.000000 
#    z 0.000000 0.000000 3.887940 
# 
# 
# High freq. dielectric constant tensor:
#      x y z
#    x 1.806840 0.000000 0.000000 
#    y 0.000000 1.801220 0.000000 
#    z 0.000000 0.000000 1.814700 
# 
# From -- ./inp_files/26187.got.cif
#   From: 2010.03.12/outbox.cif.g09.slc.cpg/sg51_14_cif.got.tgz:26187.got - 2010.04.16 13:43:02.
