data_PCOD8212346
_publ_section_title
;
Structure prediction by ZEFSAII (Michael W. Deem and Ramdas Pophale) SiO2 
 PCOD8212346
Probable space group: P M M A
;
_chemical_formula_sum "Si O2"
_cell_formula_units_Z 48
_cell_length_a 19.368634
_cell_length_b 14.554314
_cell_length_c 9.398209
_cell_angle_alpha 90.000000
_cell_angle_beta 90.000000
_cell_angle_gamma 90.000000
_cell_volume 2649.328623
_symmetry_space_group_name_H-M "P M M A"
_symmetry_group_IT_number 51
_symmetry_cell_setting 'orthorhombic'
loop_
_space_group_symop_operation_xyz
x,y,z
1/2-x,-y,z
1/2+x,-y,-z
-x,y,-z
-x,-y,-z
1/2+x,y,-z
1/2-x,y,z
x,-y,z
loop_
_atom_site_type_symbol
_atom_site_label
_atom_site_fract_x
_atom_site_fract_y
_atom_site_fract_z
Si Si1 0.672866 0.194675 0.606413
Si Si2 0.614590 0.000000 0.526769
Si Si3 0.170447 0.606077 0.945445
Si Si4 0.554439 0.181914 0.150409
Si Si5 0.015617 0.000000 0.727600
Si Si6 0.915125 0.259631 0.870012
Si Si7 0.172939 0.259015 0.693842
O O1 0.750000 0.197779 0.668826
O O2 0.621540 0.225284 0.728816
O O3 0.665958 0.269246 0.477046
O O4 0.659481 0.091671 0.550235
O O5 0.552744 0.000000 0.636861
O O6 0.584267 0.000000 0.368355
O O7 0.250000 0.620495 0.993151
O O8 0.151341 0.500000 0.931376
O O9 0.158384 0.649562 0.787814
O O10 0.120293 0.648079 0.067230
O O11 0.497899 0.266188 0.163813
O O12 0.614369 0.185899 0.266938
O O13 0.513611 0.087915 0.170713
O O14 0.590765 0.183813 0.995802
O O15 0.250000 0.221815 0.729271
#
# Coordination Sequence:
#
# PCOD8212346 Si02
#       7
#     8   4   8   8   4   8   8
#     4  11  21  35  54  80 116 147 184 235 283 332
#     4  11  21  33  53  83 107 150 195 236 277 324
#     4   9  18  37  62  84 110 145 186 229 278 342
#     4  10  20  36  54  78 107 150 190 234 269 330
#     4  11  20  34  56  78 107 149 203 240 270 322
#     4  10  21  34  54  84 111 145 181 224 287 333
#     4   9  19  35  55  78 105 143 185 228 280 335
#
# _framework density 18.117795999999998
#
# number of rings (size 3 to 8) (size 9 to 14) (size 15 to 20)
#    0.000    2.000    3.333    0.750    0.000    3.333 
#    0.000    7.917    0.000    3.000    0.000   11.667 
#    0.000    0.000    0.000    0.000    0.000    0.000 
#
# Total GULP energy -594632.145230 kJ/mol
# GULP energy per Si atom -12388.169692 kJ/mol
# Density = 1.807656 g / cm^3
# Si number density = 18.117796 Si / 1000 Ang^3
#
#
#
# Elastic Constant Matrix: (Units=GPa)
#
#
# Indices 1 2 3 4 5 6 
#
# 1 102.6626 31.7353 46.5357 0.0000 0.0000 0.0000
# 2 31.7353 89.1963 27.8134 0.0000 0.0000 0.0000
# 3 46.5357 27.8134 90.1766 0.0000 0.0000 0.0000
# 4 0.0000 0.0000 0.0000 13.9157 0.0000 0.0000
# 5 0.0000 0.0000 0.0000 0.0000 32.0000 0.0000
# 6 0.0000 0.0000 0.0000 0.0000 0.0000 -2.2707
#
#
#
# Elastic Compliance Matrix: (Units=1/GPa)
#
#
# Indices 1 2 3 4 5 6 
#
# 1 0.013351 -0.002879 -0.006002 0.000000 0.000000 0.000000
# 2 -0.002879 0.013025 -0.002532 0.000000 0.000000 0.000000
# 3 -0.006002 -0.002532 0.014968 0.000000 0.000000 0.000000
# 4 0.000000 0.000000 0.000000 0.071861 0.000000 0.000000
# 5 0.000000 0.000000 0.000000 0.000000 0.031250 0.000000
# 6 0.000000 0.000000 0.000000 0.000000 0.000000 -0.440400
#
#
# Mechanical properties :
#
#
# Convention : Reuss Voigt Hill
#
# Bulk Modulus (GPa) = 53.99932 54.91159 54.45545
# Shear Modulus (GPa) = -18.73030 20.45908 0.86439
#
# Velocity S-wave (km/s) = -3.21877 3.36404 0.69147
# Velocity P-wave (km/s) = 4.00690 6.74262 5.54609
#
# Compressibility (1/GPa) = 0.01851875
#
# Stress axis : x y z
#
# Youngs Moduli (GPa) = 74.89998 76.77610 66.81120
#
# Poissons Ratio (x) = 0.22101 0.40100
# Poissons Ratio (y) = 0.21561 0.16915
# Poissons Ratio (z) = 0.44955 0.19438
#
# Static dielectric constant tensor:
#      x y z
#    x 3.614970 0.000000 0.000000 
#    y 0.000000 3.169590 0.000000 
#    z 0.000000 0.000000 3.380030 
# 
# 
# High freq. dielectric constant tensor:
#      x y z
#    x 1.718210 0.000000 0.000000 
#    y 0.000000 1.666670 0.000000 
#    z 0.000000 0.000000 1.706610 
# 
# From -- ./inp_files/9726.got.cif
#   From: 2010.03.12/outbox.cif.g09.slc.cpg/sg51_5_cif.got.tgz:9726.got - 2010.04.16 13:43:02.
