data_PCOD8212545
_publ_section_title
;
Structure prediction by ZEFSAII (Michael W. Deem and Ramdas Pophale) SiO2 
 PCOD8212545
Probable space group: P M M A
;
_chemical_formula_sum "Si O2"
_cell_formula_units_Z 56
_cell_length_a 20.671275
_cell_length_b 8.172793
_cell_length_c 15.279682
_cell_angle_alpha 90.000000
_cell_angle_beta 90.000000
_cell_angle_gamma 90.000000
_cell_volume 2581.380825
_symmetry_space_group_name_H-M "P M M A"
_symmetry_group_IT_number 51
_symmetry_cell_setting 'orthorhombic'
loop_
_space_group_symop_operation_xyz
x,y,z
1/2-x,-y,z
1/2+x,-y,-z
-x,y,-z
-x,-y,-z
1/2+x,y,-z
1/2-x,y,z
x,-y,z
loop_
_atom_site_type_symbol
_atom_site_label
_atom_site_fract_x
_atom_site_fract_y
_atom_site_fract_z
Si Si1 0.119163 0.810827 0.482239
Si Si2 0.250000 0.681754 0.414604
Si Si3 0.538681 0.806565 0.677671
Si Si4 0.571345 0.313212 0.016013
Si Si5 0.750000 0.317005 0.789832
Si Si6 0.617910 0.811788 0.840976
Si Si7 0.107905 0.806648 0.676192
Si Si8 0.323729 0.691627 0.845807
O O1 0.189107 0.787866 0.442058
O O2 0.065875 0.733704 0.414863
O O3 0.119410 0.732057 0.579097
O O4 0.102170 0.000000 0.494883
O O5 0.250000 0.500000 0.457879
O O6 0.250000 0.660402 0.312497
O O7 0.578242 0.736286 0.759602
O O8 0.465478 0.757469 0.697572
O O9 0.548790 0.000000 0.672913
O O10 0.559836 0.500000 0.044148
O O11 0.620125 0.232161 0.089446
O O12 0.500000 0.228925 0.000000
O O13 0.606656 0.301654 0.924066
O O14 0.750000 0.500000 0.832357
O O15 0.807838 0.203506 0.819563
O O16 0.599054 0.000000 0.860270
O O17 0.156308 0.725393 0.745532
O O18 0.119581 0.000000 0.679939
O O19 0.250000 0.761859 0.862262
O O20 0.320939 0.500000 0.863178
#
# Coordination Sequence:
#
# PCOD8212545 Si02
#       8
#     8   4   8   8   4   8   8   8
#     4  10  20  36  59  84 117 156 195 239 291 350
#     4  11  23  37  55  82 117 156 199 243 288 340
#     4   9  18  35  58  87 121 152 185 235 296 354
#     4  10  22  41  64  89 118 158 202 243 297 365
#     4  11  23  39  57  82 119 160 197 237 288 354
#     4  11  22  36  61  92 120 151 190 241 301 352
#     4  10  21  37  61  88 113 151 201 245 290 344
#     4  10  23  42  60  81 116 160 198 243 301 352
#
# _framework density 21.693815000000001
#
# number of rings (size 3 to 8) (size 9 to 14) (size 15 to 20)
#    0.000    1.857    1.429    2.143    2.000    4.000 
#    0.000    1.429    0.000    1.714    0.000    0.000 
#    0.000    0.000    0.000    0.000    0.000    0.000 
#
# Total GULP energy -694000.262529 kJ/mol
# GULP energy per Si atom -12392.861831 kJ/mol
# Density = 2.164444 g / cm^3
# Si number density = 21.693815 Si / 1000 Ang^3
#
#
#
# Elastic Constant Matrix: (Units=GPa)
#
#
# Indices 1 2 3 4 5 6 
#
# 1 149.4930 2.0739 54.6240 0.0000 0.0000 0.0000
# 2 2.0739 19.3061 6.8032 0.0000 0.0000 0.0000
# 3 54.6240 6.8032 140.8364 0.0000 0.0000 0.0000
# 4 0.0000 0.0000 0.0000 3.7754 0.0000 0.0000
# 5 0.0000 0.0000 0.0000 0.0000 22.1386 0.0000
# 6 0.0000 0.0000 0.0000 0.0000 0.0000 18.8108
#
#
#
# Elastic Compliance Matrix: (Units=1/GPa)
#
#
# Indices 1 2 3 4 5 6 
#
# 1 0.007795 0.000232 -0.003034 0.000000 0.000000 0.000000
# 2 0.000232 0.052701 -0.002636 0.000000 0.000000 0.000000
# 3 -0.003034 -0.002636 0.008405 0.000000 0.000000 0.000000
# 4 0.000000 0.000000 0.000000 0.264870 0.000000 0.000000
# 5 0.000000 0.000000 0.000000 0.000000 0.045170 0.000000
# 6 0.000000 0.000000 0.000000 0.000000 0.000000 0.053161
#
#
# Mechanical properties :
#
#
# Convention : Reuss Voigt Hill
#
# Bulk Modulus (GPa) = 17.23422 48.51532 32.87477
# Shear Modulus (GPa) = 10.81503 25.35392 18.08448
#
# Velocity S-wave (km/s) = 2.23520 3.42236 2.89039
# Velocity P-wave (km/s) = 3.82401 6.16676 5.13089
#
# Compressibility (1/GPa) = 0.05802411
#
# Stress axis : x y z
#
# Youngs Moduli (GPa) = 128.29006 18.97494 118.98113
#
# Poissons Ratio (x) = -0.00440 0.36104
# Poissons Ratio (y) = -0.02976 0.31360
# Poissons Ratio (z) = 0.38929 0.05001
#
# Static dielectric constant tensor:
#      x y z
#    x 4.122410 0.000000 0.000000 
#    y 0.000000 3.478690 0.000000 
#    z 0.000000 0.000000 4.128040 
# 
# 
# High freq. dielectric constant tensor:
#      x y z
#    x 1.866120 0.000000 0.000000 
#    y 0.000000 1.809900 0.000000 
#    z 0.000000 0.000000 1.862590 
# 
# From -- ./inp_files/25896.got.cif
#   From: 2010.03.12/outbox.cif.g09.slc.cpg/sg51_13_cif.got.tgz:25896.got - 2010.04.16 13:43:02.
