data_PCOD8212992
_publ_section_title
;
Structure prediction by ZEFSAII (Michael W. Deem and Ramdas Pophale) SiO2 
 PCOD8212992
Probable space group: P M M A
;
_chemical_formula_sum "Si O2"
_cell_formula_units_Z 48
_cell_length_a 31.262908
_cell_length_b 7.606738
_cell_length_c 10.076570
_cell_angle_alpha 90.000000
_cell_angle_beta 90.000000
_cell_angle_gamma 90.000000
_cell_volume 2396.296519
_symmetry_space_group_name_H-M "P M M A"
_symmetry_group_IT_number 51
_symmetry_cell_setting 'orthorhombic'
loop_
_space_group_symop_operation_xyz
x,y,z
1/2-x,-y,z
1/2+x,-y,-z
-x,y,-z
-x,-y,-z
1/2+x,y,-z
1/2-x,y,z
x,-y,z
loop_
_atom_site_type_symbol
_atom_site_label
_atom_site_fract_x
_atom_site_fract_y
_atom_site_fract_z
Si Si1 0.902850 0.207106 0.756498
Si Si2 0.701238 0.000000 0.390876
Si Si3 0.078423 0.295270 0.735837
Si Si4 0.200557 0.000000 0.922919
Si Si5 0.009652 0.800645 0.357483
Si Si6 0.642242 0.702920 0.492835
Si Si7 0.362656 0.699720 0.973970
O O1 0.949417 0.285174 0.715359
O O2 0.868787 0.256910 0.644233
O O3 0.888770 0.303150 0.889906
O O4 0.903706 0.000000 0.782509
O O5 0.681696 0.822723 0.450688
O O6 0.750000 0.000000 0.434537
O O7 0.695480 0.000000 0.234050
O O8 0.070897 0.500000 0.752124
O O9 0.101548 0.246948 0.597904
O O10 0.031812 0.206403 0.737011
O O11 0.106505 0.224579 0.858332
O O12 0.250000 0.000000 0.967091
O O13 0.178672 0.825132 0.983327
O O14 0.000000 0.706653 0.500000
O O15 0.023011 0.000000 0.386885
O O16 0.655459 0.500000 0.472259
O O17 0.347819 0.500000 0.940878
#
# Coordination Sequence:
#
# PCOD8212992 Si02
#       7
#     8   4   8   4   8   8   8
#     4  11  22  39  63  92 127 171 215 258 308 366
#     4  11  24  41  69 100 126 156 198 261 318 377
#     4  10  22  37  59  87 123 168 208 254 303 361
#     4  11  24  43  71  98 123 159 202 259 319 378
#     4  10  21  34  57  90 124 165 214 260 304 357
#     4  11  22  39  64  93 126 166 205 251 310 369
#     4  11  24  43  64  93 129 167 209 256 316 378
#
# _framework density 20.030909999999999
#
# number of rings (size 3 to 8) (size 9 to 14) (size 15 to 20)
#    0.000    1.333    5.000    0.500    2.333    3.000 
#    0.000    6.667    0.000    2.000    0.000    0.000 
#    0.000    0.000    0.000    0.000    0.000    0.000 
#
# Total GULP energy -595349.308244 kJ/mol
# GULP energy per Si atom -12403.110588 kJ/mol
# Density = 1.998532 g / cm^3
# Si number density = 20.030910 Si / 1000 Ang^3
#
#
#
# Elastic Constant Matrix: (Units=GPa)
#
#
# Indices 1 2 3 4 5 6 
#
# 1 138.2359 45.3605 33.3824 0.0000 0.0000 0.0000
# 2 45.3605 88.5840 11.3344 0.0000 0.0000 0.0000
# 3 33.3824 11.3344 95.0381 0.0000 0.0000 0.0000
# 4 0.0000 0.0000 0.0000 23.9106 0.0000 0.0000
# 5 0.0000 0.0000 0.0000 0.0000 30.0912 0.0000
# 6 0.0000 0.0000 0.0000 0.0000 0.0000 6.6011
#
#
#
# Elastic Compliance Matrix: (Units=1/GPa)
#
#
# Indices 1 2 3 4 5 6 
#
# 1 0.009356 -0.004438 -0.002757 0.000000 0.000000 0.000000
# 2 -0.004438 0.013569 -0.000059 0.000000 0.000000 0.000000
# 3 -0.002757 -0.000059 0.011498 0.000000 0.000000 0.000000
# 4 0.000000 0.000000 0.000000 0.041822 0.000000 0.000000
# 5 0.000000 0.000000 0.000000 0.000000 0.033232 0.000000
# 6 0.000000 0.000000 0.000000 0.000000 0.000000 0.151491
#
#
# Mechanical properties :
#
#
# Convention : Reuss Voigt Hill
#
# Bulk Modulus (GPa) = 50.21707 55.77916 52.99811
# Shear Modulus (GPa) = 17.72325 27.57262 22.64793
#
# Velocity S-wave (km/s) = 2.97778 3.71415 3.36616
# Velocity P-wave (km/s) = 6.07841 6.80443 6.45164
#
# Compressibility (1/GPa) = 0.01991355
#
# Stress axis : x y z
#
# Youngs Moduli (GPa) = 106.88164 73.69781 86.97466
#
# Poissons Ratio (x) = 0.32708 0.23980
# Poissons Ratio (y) = 0.47436 0.00516
# Poissons Ratio (z) = 0.29468 0.00437
#
# Static dielectric constant tensor:
#      x y z
#    x 3.585940 0.000000 0.000000 
#    y 0.000000 3.583630 0.000000 
#    z 0.000000 0.000000 3.645600 
# 
# 
# High freq. dielectric constant tensor:
#      x y z
#    x 1.769000 0.000000 0.000000 
#    y 0.000000 1.785710 0.000000 
#    z 0.000000 0.000000 1.779890 
# 
# From -- ./inp_files/12891.got.cif
#   From: 2010.03.12/outbox.cif.g09.slc.cpg/sg51_7_cif.got.tgz:12891.got - 2010.04.16 13:43:02.
