data_PCOD8212676
_publ_section_title
;
Structure prediction by ZEFSAII (Michael W. Deem and Ramdas Pophale) SiO2 
 PCOD8212676
Probable space group: P M M A
;
_chemical_formula_sum "Si O2"
_cell_formula_units_Z 48
_cell_length_a 8.683418
_cell_length_b 30.193277
_cell_length_c 9.427501
_cell_angle_alpha 90.000000
_cell_angle_beta 90.000000
_cell_angle_gamma 90.000000
_cell_volume 2471.710178
_symmetry_space_group_name_H-M "P M M A"
_symmetry_group_IT_number 51
_symmetry_cell_setting 'orthorhombic'
loop_
_space_group_symop_operation_xyz
x,y,z
1/2-x,-y,z
1/2+x,-y,-z
-x,y,-z
-x,-y,-z
1/2+x,y,-z
1/2-x,y,z
x,-y,z
loop_
_atom_site_type_symbol
_atom_site_label
_atom_site_fract_x
_atom_site_fract_y
_atom_site_fract_z
Si Si1 0.932668 0.785550 0.654375
Si Si2 0.568296 0.295952 0.844313
Si Si3 0.431343 0.877479 0.652277
Si Si4 0.929867 0.448493 0.148353
Si Si5 0.073069 0.050122 0.153137
Si Si6 0.932230 0.377898 0.654912
O O1 0.750000 0.787569 0.641651
O O2 0.988223 0.748174 0.764021
O O3 0.000000 0.774618 0.500000
O O4 0.996019 0.832191 0.713385
O O5 0.750000 0.296599 0.857587
O O6 0.509756 0.338021 0.754828
O O7 0.500000 0.297596 0.000000
O O8 0.500000 0.888138 0.500000
O O9 0.250000 0.871416 0.640860
O O10 0.471776 0.918661 0.749391
O O11 0.750000 0.438308 0.146204
O O12 0.966441 0.500000 0.170174
O O13 0.007806 0.423710 0.279609
O O14 0.000000 0.431397 0.000000
O O15 0.250000 0.066065 0.149162
O O16 0.061808 0.000000 0.211456
O O17 0.000000 0.053200 0.000000
O O18 0.750000 0.379335 0.643079
O O19 0.000000 0.370591 0.500000
#
# Coordination Sequence:
#
# PCOD8212676 Si02
#       6
#     8   8   8   8   8   8
#     4  10  20  37  58  82 112 145 184 228 277 332
#     4  10  23  39  58  84 113 146 185 230 278 333
#     4  11  22  37  58  84 114 149 188 231 280 332
#     4  10  21  38  60  86 116 151 190 233 282 335
#     4  10  21  38  59  83 112 147 187 231 280 334
#     4  11  23  39  59  85 115 150 191 234 284 337
#
# _framework density 19.419753
#
# number of rings (size 3 to 8) (size 9 to 14) (size 15 to 20)
#    0.000    1.667    0.000    5.500    0.000    7.333 
#    0.000    1.667    0.000    0.000    0.000    0.000 
#    0.000    0.000    0.000    0.000    0.000    0.000 
#
# Total GULP energy -595404.534783 kJ/mol
# GULP energy per Si atom -12404.261141 kJ/mol
# Density = 1.937555 g / cm^3
# Si number density = 19.419753 Si / 1000 Ang^3
#
#
#
# Elastic Constant Matrix: (Units=GPa)
#
#
# Indices 1 2 3 4 5 6 
#
# 1 97.6284 46.8424 46.7535 0.0000 0.0000 0.0000
# 2 46.8424 117.4409 78.8223 0.0000 0.0000 0.0000
# 3 46.7535 78.8223 131.8894 0.0000 0.0000 0.0000
# 4 0.0000 0.0000 0.0000 49.1710 0.0000 0.0000
# 5 0.0000 0.0000 0.0000 0.0000 38.3532 0.0000
# 6 0.0000 0.0000 0.0000 0.0000 0.0000 38.6133
#
#
#
# Elastic Compliance Matrix: (Units=1/GPa)
#
#
# Indices 1 2 3 4 5 6 
#
# 1 0.013162 -0.003537 -0.002552 0.000000 0.000000 0.000000
# 2 -0.003537 0.015168 -0.007811 0.000000 0.000000 0.000000
# 3 -0.002552 -0.007811 0.013155 0.000000 0.000000 0.000000
# 4 0.000000 0.000000 0.000000 0.020337 0.000000 0.000000
# 5 0.000000 0.000000 0.000000 0.000000 0.026073 0.000000
# 6 0.000000 0.000000 0.000000 0.000000 0.000000 0.025898
#
#
# Mechanical properties :
#
#
# Convention : Reuss Voigt Hill
#
# Bulk Modulus (GPa) = 73.07329 76.86612 74.96970
# Shear Modulus (GPa) = 34.20983 36.86351 35.53667
#
# Velocity S-wave (km/s) = 4.20170 4.36162 4.28240
# Velocity P-wave (km/s) = 7.82617 8.06426 7.94611
#
# Compressibility (1/GPa) = 0.01368489
#
# Stress axis : x y z
#
# Youngs Moduli (GPa) = 75.97553 65.92621 76.01567
#
# Poissons Ratio (x) = 0.23318 0.19399
# Poissons Ratio (y) = 0.26873 0.59379
# Poissons Ratio (z) = 0.19389 0.51498
#
# Static dielectric constant tensor:
#      x y z
#    x 3.616190 0.000000 0.000000 
#    y 0.000000 3.790050 0.000000 
#    z 0.000000 0.000000 3.496740 
# 
# 
# High freq. dielectric constant tensor:
#      x y z
#    x 1.769560 0.000000 0.000000 
#    y 0.000000 1.768750 0.000000 
#    z 0.000000 0.000000 1.756060 
# 
# From -- ./inp_files/6043.got.cif
#   From: 2010.03.12/outbox.cif.g09.slc.cpg/sg51_4_cif.got.tgz:6043.got - 2010.04.16 13:43:02.
