data_PCOD8212751
_publ_section_title
;
Structure prediction by ZEFSAII (Michael W. Deem and Ramdas Pophale) SiO2 
 PCOD8212751
Probable space group: P M M A
;
_chemical_formula_sum "Si O2"
_cell_formula_units_Z 48
_cell_length_a 14.340232
_cell_length_b 9.179266
_cell_length_c 19.627707
_cell_angle_alpha 90.000000
_cell_angle_beta 90.000000
_cell_angle_gamma 90.000000
_cell_volume 2583.650109
_symmetry_space_group_name_H-M "P M M A"
_symmetry_group_IT_number 51
_symmetry_cell_setting 'orthorhombic'
loop_
_space_group_symop_operation_xyz
x,y,z
1/2-x,-y,z
1/2+x,-y,-z
-x,y,-z
-x,-y,-z
1/2+x,y,-z
1/2-x,y,z
x,-y,z
loop_
_atom_site_type_symbol
_atom_site_label
_atom_site_fract_x
_atom_site_fract_y
_atom_site_fract_z
Si Si1 0.495603 0.170014 0.832383
Si Si2 0.141589 0.669268 0.086279
Si Si3 0.750000 0.327640 0.527841
Si Si4 0.071436 0.168335 0.683809
Si Si5 0.356918 0.831608 0.951446
Si Si6 0.565623 0.831329 0.561596
Si Si7 0.250000 0.672065 0.629349
O O1 0.588355 0.259127 0.850342
O O2 0.463011 0.217363 0.757811
O O3 0.414271 0.212974 0.884910
O O4 0.519610 0.000000 0.835218
O O5 0.250000 0.701164 0.097809
O O6 0.118665 0.500000 0.082897
O O7 0.106448 0.740687 0.015869
O O8 0.750000 0.500000 0.536916
O O9 0.840985 0.263167 0.564144
O O10 0.750000 0.279469 0.449195
O O11 0.159074 0.265893 0.665299
O O12 0.987053 0.196040 0.632131
O O13 0.102896 0.000000 0.682712
O O14 0.250000 0.794323 0.934871
O O15 0.370714 0.000000 0.970305
O O16 0.500000 0.777346 0.500000
O O17 0.592517 0.000000 0.551085
O O18 0.250000 0.500000 0.637165
#
# Coordination Sequence:
#
# PCOD8212751 Si02
#       7
#     8   8   4   8   8   8   4
#     4  10  21  36  57  83 110 144 184 229 279 328
#     4  10  21  37  56  78 108 147 187 228 276 329
#     4  11  23  37  59  87 115 150 187 234 287 335
#     4  10  22  39  60  85 115 150 188 232 280 332
#     4   9  18  33  55  83 111 140 179 226 274 327
#     4  10  20  37  61  87 113 147 192 237 279 328
#     4  11  23  37  57  87 119 150 183 224 281 341
#
# _framework density 18.578365999999999
#
# number of rings (size 3 to 8) (size 9 to 14) (size 15 to 20)
#    0.000    2.000    1.667    1.500    1.167    6.000 
#    1.500    0.000    0.000    0.000    0.000    0.000 
#    0.000    0.000    0.000    0.000    0.000    0.000 
#
# Total GULP energy -595473.509388 kJ/mol
# GULP energy per Si atom -12405.698112 kJ/mol
# Density = 1.853608 g / cm^3
# Si number density = 18.578366 Si / 1000 Ang^3
#
#
#
# Elastic Constant Matrix: (Units=GPa)
#
#
# Indices 1 2 3 4 5 6 
#
# 1 111.6532 59.4187 63.9092 0.0000 0.0000 0.0000
# 2 59.4187 74.9695 53.9542 0.0000 0.0000 0.0000
# 3 63.9092 53.9542 131.5439 0.0000 0.0000 0.0000
# 4 0.0000 0.0000 0.0000 17.8080 0.0000 0.0000
# 5 0.0000 0.0000 0.0000 0.0000 17.8835 0.0000
# 6 0.0000 0.0000 0.0000 0.0000 0.0000 22.6779
#
#
#
# Elastic Compliance Matrix: (Units=1/GPa)
#
#
# Indices 1 2 3 4 5 6 
#
# 1 0.016740 -0.010520 -0.003818 0.000000 0.000000 0.000000
# 2 -0.010520 0.025536 -0.005363 0.000000 0.000000 0.000000
# 3 -0.003818 -0.005363 0.011657 0.000000 0.000000 0.000000
# 4 0.000000 0.000000 0.000000 0.056154 0.000000 0.000000
# 5 0.000000 0.000000 0.000000 0.000000 0.055918 0.000000
# 6 0.000000 0.000000 0.000000 0.000000 0.000000 0.044096
#
#
# Mechanical properties :
#
#
# Convention : Reuss Voigt Hill
#
# Bulk Modulus (GPa) = 68.81855 74.74788 71.78322
# Shear Modulus (GPa) = 19.65821 21.06618 20.36219
#
# Velocity S-wave (km/s) = 3.25641 3.37101 3.31421
# Velocity P-wave (km/s) = 7.15973 7.44801 7.30529
#
# Compressibility (1/GPa) = 0.01453097
#
# Stress axis : x y z
#
# Youngs Moduli (GPa) = 59.73642 39.16015 85.78738
#
# Poissons Ratio (x) = 0.41196 0.32755
# Poissons Ratio (y) = 0.62842 0.46007
# Poissons Ratio (z) = 0.22808 0.21001
#
# Static dielectric constant tensor:
#      x y z
#    x 3.439360 0.000000 0.000000 
#    y 0.000000 3.348600 0.000000 
#    z 0.000000 0.000000 3.463810 
# 
# 
# High freq. dielectric constant tensor:
#      x y z
#    x 1.729650 0.000000 0.000000 
#    y 0.000000 1.716040 0.000000 
#    z 0.000000 0.000000 1.719440 
# 
# From -- ./inp_files/29544.got.cif
#   From: 2010.03.12/outbox.cif.g09.slc.cpg/sg51_15_cif.got.tgz:29544.got - 2010.04.16 13:43:02.
