data_PCOD8212179
_publ_section_title
;
Structure prediction by ZEFSAII (Michael W. Deem and Ramdas Pophale) SiO2 
 PCOD8212179
Probable space group: P M M A
;
_chemical_formula_sum "Si O2"
_cell_formula_units_Z 44
_cell_length_a 8.709820
_cell_length_b 17.409033
_cell_length_c 15.058670
_cell_angle_alpha 90.000000
_cell_angle_beta 90.000000
_cell_angle_gamma 90.000000
_cell_volume 2283.339262
_symmetry_space_group_name_H-M "P M M A"
_symmetry_group_IT_number 51
_symmetry_cell_setting 'orthorhombic'
loop_
_space_group_symop_operation_xyz
x,y,z
1/2-x,-y,z
1/2+x,-y,-z
-x,y,-z
-x,-y,-z
1/2+x,y,-z
1/2-x,y,z
x,-y,z
loop_
_atom_site_type_symbol
_atom_site_label
_atom_site_fract_x
_atom_site_fract_y
_atom_site_fract_z
Si Si1 0.917055 0.303992 0.415504
Si Si2 0.426491 0.586882 0.095686
Si Si3 0.579118 0.122381 0.411916
Si Si4 0.567382 0.707570 0.224263
Si Si5 0.567007 0.000000 0.098878
Si Si6 0.432076 0.127629 0.224391
O O1 0.750000 0.341404 0.416774
O O2 0.909580 0.212868 0.425337
O O3 0.994692 0.322043 0.320412
O O4 0.000000 0.341663 0.500000
O O5 0.250000 0.614259 0.092956
O O6 0.438351 0.500000 0.132114
O O7 0.527745 0.641837 0.155749
O O8 0.500000 0.592342 0.000000
O O9 0.500000 0.086266 0.500000
O O10 0.750000 0.087465 0.402171
O O11 0.484400 0.102107 0.323109
O O12 0.750000 0.723232 0.228134
O O13 0.482641 0.786224 0.199728
O O14 0.509330 0.074903 0.150438
O O15 0.750000 0.000000 0.094134
O O16 0.500000 0.000000 0.000000
O O17 0.250000 0.119838 0.218764
#
# Coordination Sequence:
#
# PCOD8212179 Si02
#       6
#     8   8   8   8   4   8
#     4   8  15  26  44  72 106 141 178 218 261 310
#     4  10  21  37  57  82 111 143 179 223 278 336
#     4   9  16  29  50  79 112 147 183 224 273 325
#     4  10  20  35  56  84 114 146 185 228 272 322
#     4  12  26  46  65  82 107 142 184 232 284 336
#     4  11  22  38  59  85 114 147 187 230 276 329
#
# _framework density 19.270022000000001
#
# number of rings (size 3 to 8) (size 9 to 14) (size 15 to 20)
#    0.000    2.182    0.000    5.182    0.000    6.909 
#    0.000    4.091    0.000    0.545    0.000    0.000 
#    0.000    0.000    0.000    0.000    0.000    0.000 
#
# Total GULP energy -545402.771161 kJ/mol
# GULP energy per Si atom -12395.517526 kJ/mol
# Density = 1.922616 g / cm^3
# Si number density = 19.270022 Si / 1000 Ang^3
#
#
#
# Elastic Constant Matrix: (Units=GPa)
#
#
# Indices 1 2 3 4 5 6 
#
# 1 136.5733 32.2232 55.7237 0.0000 0.0000 0.0000
# 2 32.2232 65.7864 57.1355 0.0000 0.0000 0.0000
# 3 55.7237 57.1355 139.6903 0.0000 0.0000 0.0000
# 4 0.0000 0.0000 0.0000 -92.2857 0.0000 0.0000
# 5 0.0000 0.0000 0.0000 0.0000 36.0761 0.0000
# 6 0.0000 0.0000 0.0000 0.0000 0.0000 93.0184
#
#
#
# Elastic Compliance Matrix: (Units=1/GPa)
#
#
# Indices 1 2 3 4 5 6 
#
# 1 0.008909 -0.001981 -0.002744 0.000000 0.000000 0.000000
# 2 -0.001981 0.024016 -0.009033 0.000000 0.000000 0.000000
# 3 -0.002744 -0.009033 0.011948 0.000000 0.000000 0.000000
# 4 0.000000 0.000000 0.000000 -0.010836 0.000000 0.000000
# 5 0.000000 0.000000 0.000000 0.000000 0.027719 0.000000
# 6 0.000000 0.000000 0.000000 0.000000 0.000000 0.010751
#
#
# Mechanical properties :
#
#
# Convention : Reuss Voigt Hill
#
# Bulk Modulus (GPa) = 57.61015 70.24609 63.92812
# Shear Modulus (GPa) = 47.25600 20.49292 33.87446
#
# Velocity S-wave (km/s) = 4.95745 3.26461 4.19726
# Velocity P-wave (km/s) = 7.92020 7.12341 7.53235
#
# Compressibility (1/GPa) = 0.01735805
#
# Stress axis : x y z
#
# Youngs Moduli (GPa) = 112.24759 41.63909 83.69836
#
# Poissons Ratio (x) = 0.08248 0.22964
# Poissons Ratio (y) = 0.22235 0.75602
# Poissons Ratio (z) = 0.30796 0.37611
#
# Static dielectric constant tensor:
#      x y z
#    x 3.755010 0.000000 0.000000 
#    y 0.000000 3.221360 0.000000 
#    z 0.000000 0.000000 3.707430 
# 
# 
# High freq. dielectric constant tensor:
#      x y z
#    x 1.763010 0.000000 0.000000 
#    y 0.000000 1.715580 0.000000 
#    z 0.000000 0.000000 1.761920 
# 
# From -- ./inp_files/20965.got.cif
#   From: 2010.03.12/outbox.cif.g09.slc.cpg/sg51_11_cif.got.tgz:20965.got - 2010.04.16 13:43:02.
