data_PCOD8212067
_publ_section_title
;
Structure prediction by ZEFSAII (Michael W. Deem and Ramdas Pophale) SiO2 
 PCOD8212067
Probable space group: P M M A
;
_chemical_formula_sum "Si O2"
_cell_formula_units_Z 40
_cell_length_a 8.606569
_cell_length_b 25.209001
_cell_length_c 9.724600
_cell_angle_alpha 90.000000
_cell_angle_beta 90.000000
_cell_angle_gamma 90.000000
_cell_volume 2109.878453
_symmetry_space_group_name_H-M "P M M A"
_symmetry_group_IT_number 51
_symmetry_cell_setting 'orthorhombic'
loop_
_space_group_symop_operation_xyz
x,y,z
1/2-x,-y,z
1/2+x,-y,-z
-x,y,-z
-x,-y,-z
1/2+x,y,-z
1/2-x,y,z
x,-y,z
loop_
_atom_site_type_symbol
_atom_site_label
_atom_site_fract_x
_atom_site_fract_y
_atom_site_fract_z
Si Si1 0.433089 0.440446 0.643769
Si Si2 0.434807 0.148102 0.646262
Si Si3 0.065717 0.349525 0.847295
Si Si4 0.066552 0.059191 0.855069
Si Si5 0.434257 0.261563 0.350542
O O1 0.500000 0.418520 0.500000
O O2 0.250000 0.440016 0.629604
O O3 0.495535 0.500000 0.673189
O O4 0.487061 0.403030 0.768536
O O5 0.500000 0.131091 0.500000
O O6 0.250000 0.154288 0.642139
O O7 0.493551 0.101601 0.745511
O O8 0.508960 0.203416 0.693843
O O9 0.250000 0.343512 0.851949
O O10 0.994289 0.300181 0.767230
O O11 0.000000 0.352030 0.000000
O O12 0.250000 0.059772 0.863561
O O13 0.006726 0.000000 0.815918
O O14 0.000000 0.077523 0.000000
O O15 0.500000 0.277885 0.500000
O O16 0.250000 0.263199 0.358657
#
# Coordination Sequence:
#
# PCOD8212067 Si02
#       5
#     8   8   8   8   8
#     4   9  19  36  58  83 110 142 181 223 267 319
#     4  10  20  35  55  80 109 139 177 222 268 318
#     4  11  23  38  56  81 113 146 183 225 272 323
#     4   9  19  35  54  77 106 140 177 217 262 316
#     4  11  22  38  59  81 108 142 182 225 272 324
#
# _framework density 18.958437
#
# number of rings (size 3 to 8) (size 9 to 14) (size 15 to 20)
#    0.000    2.000    0.000    4.800    0.000    6.400 
#    0.000    2.000    0.000    0.000    0.000    0.000 
#    0.000    0.000    0.000    0.000    0.000    0.000 
#
# Total GULP energy -496045.116352 kJ/mol
# GULP energy per Si atom -12401.127909 kJ/mol
# Density = 1.891529 g / cm^3
# Si number density = 18.958437 Si / 1000 Ang^3
#
#
#
# Elastic Constant Matrix: (Units=GPa)
#
#
# Indices 1 2 3 4 5 6 
#
# 1 82.0222 50.2096 55.3420 0.0000 0.0000 0.0000
# 2 50.2096 144.3711 119.1119 0.0000 0.0000 0.0000
# 3 55.3420 119.1119 170.8073 0.0000 0.0000 0.0000
# 4 0.0000 0.0000 0.0000 -136.1774 0.0000 0.0000
# 5 0.0000 0.0000 0.0000 0.0000 34.9134 0.0000
# 6 0.0000 0.0000 0.0000 0.0000 0.0000 3.7178
#
#
#
# Elastic Compliance Matrix: (Units=1/GPa)
#
#
# Indices 1 2 3 4 5 6 
#
# 1 0.016158 -0.003062 -0.003100 0.000000 0.000000 0.000000
# 2 -0.003062 0.016891 -0.010787 0.000000 0.000000 0.000000
# 3 -0.003100 -0.010787 0.014381 0.000000 0.000000 0.000000
# 4 0.000000 0.000000 0.000000 -0.007343 0.000000 0.000000
# 5 0.000000 0.000000 0.000000 0.000000 0.028642 0.000000
# 6 0.000000 0.000000 0.000000 0.000000 0.000000 0.268976
#
#
# Mechanical properties :
#
#
# Convention : Reuss Voigt Hill
#
# Bulk Modulus (GPa) = 73.89564 94.05862 83.97713
# Shear Modulus (GPa) = 13.29389 -8.00676 2.64356
#
# Velocity S-wave (km/s) = 2.65091 -2.05730 1.18213
# Velocity P-wave (km/s) = 6.95932 6.63908 6.80109
#
# Compressibility (1/GPa) = 0.01353260
#
# Stress axis : x y z
#
# Youngs Moduli (GPa) = 61.89001 59.20320 69.53529
#
# Poissons Ratio (x) = 0.18126 0.21557
# Poissons Ratio (y) = 0.18948 0.75007
# Poissons Ratio (z) = 0.19187 0.63862
#
# Static dielectric constant tensor:
#      x y z
#    x 3.490370 0.000000 0.000000 
#    y 0.000000 3.861220 0.000000 
#    z 0.000000 0.000000 3.471390 
# 
# 
# High freq. dielectric constant tensor:
#      x y z
#    x 1.742440 0.000000 0.000000 
#    y 0.000000 1.749580 0.000000 
#    z 0.000000 0.000000 1.735610 
# 
# From -- ./inp_files/5278.got.cif
#   From: 2010.03.12/outbox.cif.g09.slc.cpg/sg51_3_cif.got.tgz:5278.got - 2010.04.16 13:43:02.
