data_PCOD8212892
_publ_section_title
;
Structure prediction by ZEFSAII (Michael W. Deem and Ramdas Pophale) SiO2 
 PCOD8212892
Probable space group: P M M A
;
_chemical_formula_sum "Si O2"
_cell_formula_units_Z 56
_cell_length_a 15.707815
_cell_length_b 9.210882
_cell_length_c 18.588994
_cell_angle_alpha 90.000000
_cell_angle_beta 90.000000
_cell_angle_gamma 90.000000
_cell_volume 2689.508267
_symmetry_space_group_name_H-M "P M M A"
_symmetry_group_IT_number 51
_symmetry_cell_setting 'orthorhombic'
loop_
_space_group_symop_operation_xyz
x,y,z
1/2-x,-y,z
1/2+x,-y,-z
-x,y,-z
-x,-y,-z
1/2+x,y,-z
1/2-x,y,z
x,-y,z
loop_
_atom_site_type_symbol
_atom_site_label
_atom_site_fract_x
_atom_site_fract_y
_atom_site_fract_z
Si Si1 0.588784 0.835113 0.835631
Si Si2 0.155263 0.338031 0.785363
Si Si3 0.250000 0.672927 0.405917
Si Si4 0.153409 0.664764 0.040271
Si Si5 0.908073 0.165923 0.343783
Si Si6 0.250000 0.830171 0.555894
Si Si7 0.407808 0.833022 0.909942
Si Si8 0.402935 0.166322 0.331521
O O1 0.651639 0.729219 0.878903
O O2 0.497093 0.813424 0.870826
O O3 0.587321 0.791855 0.752122
O O4 0.620465 0.000000 0.844564
O O5 0.250000 0.342816 0.753336
O O6 0.120411 0.500000 0.800322
O O7 0.096102 0.262947 0.726874
O O8 0.159350 0.249445 0.859600
O O9 0.250000 0.500000 0.406502
O O10 0.250000 0.731484 0.486361
O O11 0.165350 0.727614 0.366426
O O12 0.250000 0.671515 0.012086
O O13 0.119707 0.500000 0.041231
O O14 0.092936 0.760079 0.988550
O O15 0.836593 0.210686 0.401587
O O16 0.005311 0.185360 0.371925
O O17 0.892504 0.000000 0.319620
O O18 0.250000 0.000000 0.535153
O O19 0.381762 0.000000 0.919230
O O20 0.371910 0.000000 0.340222
#
# Coordination Sequence:
#
# PCOD8212892 Si02
#       8
#     8   8   4   8   8   4   8   8
#     4  10  22  40  64  90 117 154 206 265 319 373
#     4  11  22  34  54  89 131 170 205 251 314 381
#     4  12  28  46  66  96 135 176 219 266 320 382
#     4  11  25  41  56  83 122 162 206 258 319 383
#     4  10  20  39  69 100 129 166 215 262 315 382
#     4  10  22  42  72 104 135 172 211 258 314 384
#     4  11  22  39  61  87 118 158 213 266 313 374
#     4  10  22  44  70  98 130 168 218 274 323 378
#
# _framework density 20.821650999999999
#
# number of rings (size 3 to 8) (size 9 to 14) (size 15 to 20)
#    0.000    1.429    2.143    2.786    1.000    8.857 
#    0.000    2.857    0.000    0.000    0.000    0.000 
#    0.000    0.000    0.000    0.000    0.000    0.000 
#
# Total GULP energy -694434.593715 kJ/mol
# GULP energy per Si atom -12400.617745 kJ/mol
# Density = 2.077426 g / cm^3
# Si number density = 20.821651 Si / 1000 Ang^3
#
#
#
# Elastic Constant Matrix: (Units=GPa)
#
#
# Indices 1 2 3 4 5 6 
#
# 1 101.6108 56.0469 54.3217 0.0000 0.0000 0.0000
# 2 56.0469 144.9713 74.8153 0.0000 0.0000 0.0000
# 3 54.3217 74.8153 123.5701 0.0000 0.0000 0.0000
# 4 0.0000 0.0000 0.0000 20.0768 0.0000 0.0000
# 5 0.0000 0.0000 0.0000 0.0000 28.0811 0.0000
# 6 0.0000 0.0000 0.0000 0.0000 0.0000 24.6244
#
#
#
# Elastic Compliance Matrix: (Units=1/GPa)
#
#
# Indices 1 2 3 4 5 6 
#
# 1 0.013822 -0.003211 -0.004132 0.000000 0.000000 0.000000
# 2 -0.003211 0.010779 -0.005114 0.000000 0.000000 0.000000
# 3 -0.004132 -0.005114 0.013005 0.000000 0.000000 0.000000
# 4 0.000000 0.000000 0.000000 0.049809 0.000000 0.000000
# 5 0.000000 0.000000 0.000000 0.000000 0.035611 0.000000
# 6 0.000000 0.000000 0.000000 0.000000 0.000000 0.040610
#
#
# Mechanical properties :
#
#
# Convention : Reuss Voigt Hill
#
# Bulk Modulus (GPa) = 78.79552 82.27998 80.53775
# Shear Modulus (GPa) = 25.93620 26.88767 26.41193
#
# Velocity S-wave (km/s) = 3.53319 3.59741 3.56544
# Velocity P-wave (km/s) = 7.38713 7.54039 7.46416
#
# Compressibility (1/GPa) = 0.01269108
#
# Stress axis : x y z
#
# Youngs Moduli (GPa) = 72.35046 92.77520 76.89145
#
# Poissons Ratio (x) = 0.29792 0.31770
# Poissons Ratio (y) = 0.23234 0.39325
# Poissons Ratio (z) = 0.29894 0.47448
#
# Static dielectric constant tensor:
#      x y z
#    x 3.805790 0.000000 0.000000 
#    y 0.000000 3.772120 0.000000 
#    z 0.000000 0.000000 3.686860 
# 
# 
# High freq. dielectric constant tensor:
#      x y z
#    x 1.820480 0.000000 0.000000 
#    y 0.000000 1.812650 0.000000 
#    z 0.000000 0.000000 1.807220 
# 
# From -- ./inp_files/33563.got.cif
#   From: 2010.03.12/outbox.cif.g09.slc.cpg/sg51_17_cif.got.tgz:33563.got - 2010.04.16 13:43:02.
