data_PCOD8212491
_publ_section_title
;
Structure prediction by ZEFSAII (Michael W. Deem and Ramdas Pophale) SiO2 
 PCOD8212491
Probable space group: P M M A
;
_chemical_formula_sum "Si O2"
_cell_formula_units_Z 48
_cell_length_a 31.285614
_cell_length_b 7.597437
_cell_length_c 10.257409
_cell_angle_alpha 90.000000
_cell_angle_beta 90.000000
_cell_angle_gamma 90.000000
_cell_volume 2438.088483
_symmetry_space_group_name_H-M "P M M A"
_symmetry_group_IT_number 51
_symmetry_cell_setting 'orthorhombic'
loop_
_space_group_symop_operation_xyz
x,y,z
1/2-x,-y,z
1/2+x,-y,-z
-x,y,-z
-x,-y,-z
1/2+x,y,-z
1/2-x,y,z
x,-y,z
loop_
_atom_site_type_symbol
_atom_site_label
_atom_site_fract_x
_atom_site_fract_y
_atom_site_fract_z
Si Si1 0.858323 0.206754 0.982805
Si Si2 0.635103 0.210834 0.509863
Si Si3 0.922367 0.203240 0.751593
Si Si4 0.799638 0.500000 0.580102
Si Si5 0.509098 0.697690 0.142625
Si Si6 0.097746 0.801151 0.759611
Si Si7 0.798545 0.500000 0.888101
O O1 0.894824 0.245802 0.878215
O O2 0.817292 0.320862 0.947659
O O3 0.845944 0.000000 0.984199
O O4 0.876552 0.281662 0.119273
O O5 0.602846 0.268224 0.624497
O O6 0.678851 0.320976 0.524916
O O7 0.612330 0.280210 0.377897
O O8 0.644811 0.000000 0.514821
O O9 0.967419 0.301693 0.765821
O O10 0.933427 0.000000 0.739467
O O11 0.750000 0.500000 0.537452
O O12 0.804743 0.500000 0.734362
O O13 0.524945 0.500000 0.119355
O O14 0.546926 0.794903 0.218920
O O15 0.500000 0.785927 0.000000
O O16 0.112542 0.000000 0.753566
O O17 0.750000 0.500000 0.931097
#
# Coordination Sequence:
#
# PCOD8212491 Si02
#       7
#     8   8   8   4   8   8   4
#     4  10  21  38  63  89 119 160 198 243 302 355
#     4  10  23  42  63  91 124 161 203 249 304 363
#     4  10  20  36  58  82 118 162 198 245 293 342
#     4  11  24  41  67  94 119 157 198 249 311 368
#     4  11  23  33  53  89 123 159 207 255 294 345
#     4  10  22  40  61  86 122 165 205 249 297 354
#     4  11  24  39  65  96 122 150 194 255 306 367
#
# _framework density 19.687553999999999
#
# number of rings (size 3 to 8) (size 9 to 14) (size 15 to 20)
#    0.000    1.667    3.333    0.500    4.667    2.000 
#    0.000    6.667    0.000    3.000    0.000    0.000 
#    0.000    0.000    0.000    0.000    0.000    0.000 
#
# Total GULP energy -595129.461727 kJ/mol
# GULP energy per Si atom -12398.530453 kJ/mol
# Density = 1.964274 g / cm^3
# Si number density = 19.687554 Si / 1000 Ang^3
#
#
#
# Elastic Constant Matrix: (Units=GPa)
#
#
# Indices 1 2 3 4 5 6 
#
# 1 151.7498 47.7413 66.1949 0.0000 0.0000 0.0000
# 2 47.7413 68.9081 30.6717 0.0000 0.0000 0.0000
# 3 66.1949 30.6717 142.8940 0.0000 0.0000 0.0000
# 4 0.0000 0.0000 0.0000 10.5256 0.0000 0.0000
# 5 0.0000 0.0000 0.0000 0.0000 30.7386 0.0000
# 6 0.0000 0.0000 0.0000 0.0000 0.0000 32.5496
#
#
#
# Elastic Compliance Matrix: (Units=1/GPa)
#
#
# Indices 1 2 3 4 5 6 
#
# 1 0.009705 -0.005221 -0.003375 0.000000 0.000000 0.000000
# 2 -0.005221 0.018854 -0.001628 0.000000 0.000000 0.000000
# 3 -0.003375 -0.001628 0.008911 0.000000 0.000000 0.000000
# 4 0.000000 0.000000 0.000000 0.095006 0.000000 0.000000
# 5 0.000000 0.000000 0.000000 0.000000 0.032532 0.000000
# 6 0.000000 0.000000 0.000000 0.000000 0.000000 0.030722
#
#
# Mechanical properties :
#
#
# Convention : Reuss Voigt Hill
#
# Bulk Modulus (GPa) = 58.75082 72.52975 65.64028
# Shear Modulus (GPa) = 22.53737 29.35903 25.94820
#
# Velocity S-wave (km/s) = 3.38709 3.86586 3.63437
# Velocity P-wave (km/s) = 6.72331 7.53969 7.14317
#
# Compressibility (1/GPa) = 0.01702104
#
# Stress axis : x y z
#
# Youngs Moduli (GPa) = 103.04357 53.03815 112.21995
#
# Poissons Ratio (x) = 0.27694 0.37873
# Poissons Ratio (y) = 0.53804 0.18272
# Poissons Ratio (z) = 0.34776 0.08636
#
# Static dielectric constant tensor:
#      x y z
#    x 3.420680 0.000000 0.000000 
#    y 0.000000 3.665420 0.000000 
#    z 0.000000 0.000000 3.899970 
# 
# 
# High freq. dielectric constant tensor:
#      x y z
#    x 1.753160 0.000000 0.000000 
#    y 0.000000 1.769140 0.000000 
#    z 0.000000 0.000000 1.771760 
# 
# From -- ./inp_files/12892.got.cif
#   From: 2010.03.12/outbox.cif.g09.slc.cpg/sg51_7_cif.got.tgz:12892.got - 2010.04.16 13:43:02.
