data_PCOD8212794
_publ_section_title
;
Structure prediction by ZEFSAII (Michael W. Deem and Ramdas Pophale) SiO2 
 PCOD8212794
Probable space group: P M M A
;
_chemical_formula_sum "Si O2"
_cell_formula_units_Z 44
_cell_length_a 9.079233
_cell_length_b 7.884850
_cell_length_c 29.321510
_cell_angle_alpha 90.000000
_cell_angle_beta 90.000000
_cell_angle_gamma 90.000000
_cell_volume 2099.079703
_symmetry_space_group_name_H-M "P M M A"
_symmetry_group_IT_number 51
_symmetry_cell_setting 'orthorhombic'
loop_
_space_group_symop_operation_xyz
x,y,z
1/2-x,-y,z
1/2+x,-y,-z
-x,y,-z
-x,-y,-z
1/2+x,y,-z
1/2-x,y,z
x,-y,z
loop_
_atom_site_type_symbol
_atom_site_label
_atom_site_fract_x
_atom_site_fract_y
_atom_site_fract_z
Si Si1 0.917671 0.696264 0.300880
Si Si2 0.920198 0.807055 0.401104
Si Si3 0.574051 0.500000 0.548891
Si Si4 0.088993 0.194841 0.041775
Si Si5 0.917323 0.196411 0.787407
Si Si6 0.414798 0.692938 0.873338
O O1 0.750000 0.722413 0.284405
O O2 0.952231 0.500000 0.309883
O O3 0.948184 0.797701 0.347141
O O4 0.025069 0.770677 0.263131
O O5 0.750000 0.762116 0.412082
O O6 0.024289 0.671881 0.425868
O O7 0.957055 0.000000 0.417048
O O8 0.750000 0.500000 0.544959
O O9 0.500000 0.500000 0.500000
O O10 0.250000 0.282427 0.045836
O O11 0.006286 0.203502 0.089753
O O12 0.111552 0.000000 0.029316
O O13 0.000000 0.282821 0.000000
O O14 0.750000 0.260794 0.790228
O O15 0.013089 0.299157 0.823611
O O16 0.928963 0.000000 0.799713
O O17 0.250000 0.768225 0.870691
O O18 0.411278 0.500000 0.889631
#
# Coordination Sequence:
#
# PCOD8212794 Si02
#       6
#     8   8   4   8   8   8
#     4  10  20  37  63  92 124 162 206 253 304 367
#     4  10  21  41  69  98 131 172 219 271 327 388
#     4  12  26  44  68  96 134 176 220 274 329 388
#     4  10  21  38  61  87 113 144 184 230 284 346
#     4  11  24  39  56  83 119 157 199 247 299 358
#     4  11  24  40  58  82 112 148 192 240 293 352
#
# _framework density 20.961569000000001
#
# number of rings (size 3 to 8) (size 9 to 14) (size 15 to 20)
#    0.000    1.455    0.909    4.091    0.000   11.273 
#    0.000    0.000    0.000    0.000    0.000    0.000 
#    0.000    0.000    0.000    0.000    0.000    0.000 
#
# Total GULP energy -545722.750243 kJ/mol
# GULP energy per Si atom -12402.789778 kJ/mol
# Density = 2.091386 g / cm^3
# Si number density = 20.961569 Si / 1000 Ang^3
#
#
#
# Elastic Constant Matrix: (Units=GPa)
#
#
# Indices 1 2 3 4 5 6 
#
# 1 180.7803 43.6084 72.7632 0.0000 0.0000 0.0000
# 2 43.6084 78.7008 27.5975 0.0000 0.0000 0.0000
# 3 72.7632 27.5975 112.5776 0.0000 0.0000 0.0000
# 4 0.0000 0.0000 0.0000 19.5637 0.0000 0.0000
# 5 0.0000 0.0000 0.0000 0.0000 39.4707 0.0000
# 6 0.0000 0.0000 0.0000 0.0000 0.0000 22.8912
#
#
#
# Elastic Compliance Matrix: (Units=1/GPa)
#
#
# Indices 1 2 3 4 5 6 
#
# 1 0.008031 -0.002877 -0.004485 0.000000 0.000000 0.000000
# 2 -0.002877 0.014932 -0.001801 0.000000 0.000000 0.000000
# 3 -0.004485 -0.001801 0.012223 0.000000 0.000000 0.000000
# 4 0.000000 0.000000 0.000000 0.051115 0.000000 0.000000
# 5 0.000000 0.000000 0.000000 0.000000 0.025335 0.000000
# 6 0.000000 0.000000 0.000000 0.000000 0.000000 0.043685
#
#
# Mechanical properties :
#
#
# Convention : Reuss Voigt Hill
#
# Bulk Modulus (GPa) = 59.31361 73.33298 66.32330
# Shear Modulus (GPa) = 27.89114 31.59108 29.74111
#
# Velocity S-wave (km/s) = 3.65167 3.88634 3.77084
# Velocity P-wave (km/s) = 6.79245 7.42958 7.11815
#
# Compressibility (1/GPa) = 0.01685954
#
# Stress axis : x y z
#
# Youngs Moduli (GPa) = 124.51805 66.96992 81.81071
#
# Poissons Ratio (x) = 0.19268 0.36696
# Poissons Ratio (y) = 0.35825 0.14733
# Poissons Ratio (z) = 0.55852 0.12061
#
# Static dielectric constant tensor:
#      x y z
#    x 4.110180 0.000000 0.000000 
#    y 0.000000 3.803390 0.000000 
#    z 0.000000 0.000000 3.679330 
# 
# 
# High freq. dielectric constant tensor:
#      x y z
#    x 1.826900 0.000000 0.000000 
#    y 0.000000 1.821160 0.000000 
#    z 0.000000 0.000000 1.822370 
# 
# From -- ./inp_files/36788.got.cif
#   From: 2010.03.12/outbox.cif.g09.slc.cpg/sg51_19_cif.got.tgz:36788.got - 2010.04.16 13:43:02.
