data_PCOD8212167
_publ_section_title
;
Structure prediction by ZEFSAII (Michael W. Deem and Ramdas Pophale) SiO2 
 PCOD8212167
Probable space group: P M M A
;
_chemical_formula_sum "Si O2"
_cell_formula_units_Z 56
_cell_length_a 14.485955
_cell_length_b 15.071652
_cell_length_c 12.711276
_cell_angle_alpha 90.000000
_cell_angle_beta 90.000000
_cell_angle_gamma 90.000000
_cell_volume 2775.218221
_symmetry_space_group_name_H-M "P M M A"
_symmetry_group_IT_number 51
_symmetry_cell_setting 'orthorhombic'
loop_
_space_group_symop_operation_xyz
x,y,z
1/2-x,-y,z
1/2+x,-y,-z
-x,y,-z
-x,-y,-z
1/2+x,y,-z
1/2-x,y,z
x,-y,z
loop_
_atom_site_type_symbol
_atom_site_label
_atom_site_fract_x
_atom_site_fract_y
_atom_site_fract_z
Si Si1 0.644235 0.900602 0.057659
Si Si2 0.024179 0.841873 0.753368
Si Si3 0.855179 0.404594 0.785392
Si Si4 0.857546 0.770099 0.437713
Si Si5 0.640562 0.399980 0.554308
Si Si6 0.929634 0.739141 0.919542
Si Si7 0.853453 0.900854 0.628434
O O1 0.750000 0.880311 0.087000
O O2 0.584840 0.898969 0.164586
O O3 0.633557 0.000000 0.009420
O O4 0.612570 0.828844 0.970289
O O5 0.087200 0.809161 0.659183
O O6 0.987853 0.756790 0.814835
O O7 0.932912 0.895110 0.716600
O O8 0.750000 0.421205 0.759547
O O9 0.899125 0.500000 0.819555
O O10 0.897280 0.375065 0.671751
O O11 0.857834 0.334479 0.881275
O O12 0.750000 0.767932 0.406803
O O13 0.896628 0.672585 0.470225
O O14 0.876403 0.833793 0.535775
O O15 0.750000 0.391731 0.551051
O O16 0.608919 0.500000 0.522618
O O17 0.000000 0.693056 0.000000
O O18 0.750000 0.880226 0.675433
O O19 0.854549 0.000000 0.581500
#
# Coordination Sequence:
#
# PCOD8212167 Si02
#       7
#     8   8   8   8   8   8   8
#     4  10  22  40  61  84 110 142 182 230 284 338
#     4  11  22  36  56  82 112 146 184 227 274 328
#     4   9  17  32  56  81 104 137 182 228 274 325
#     4  10  20  35  56  82 115 151 185 224 270 324
#     4   8  15  30  54  83 112 143 180 221 266 319
#     4  10  22  36  52  76 107 141 179 228 279 329
#     4  10  22  37  53  78 111 147 186 225 269 324
#
# _framework density 20.178592999999999
#
# number of rings (size 3 to 8) (size 9 to 14) (size 15 to 20)
#    0.000    2.286    0.000    3.429    0.000    7.429 
#    0.000    3.571    0.000    4.286    0.000    8.000 
#    0.000    0.000    0.000    0.000    0.000    1.143 
#
# Total GULP energy -693744.100488 kJ/mol
# GULP energy per Si atom -12388.287509 kJ/mol
# Density = 2.013267 g / cm^3
# Si number density = 20.178593 Si / 1000 Ang^3
#
#
#
# Elastic Constant Matrix: (Units=GPa)
#
#
# Indices 1 2 3 4 5 6 
#
# 1 82.1456 14.3902 33.9086 0.0000 0.0000 0.0000
# 2 14.3902 76.5892 19.7776 0.0000 0.0000 0.0000
# 3 33.9086 19.7776 56.4477 0.0000 0.0000 0.0000
# 4 0.0000 0.0000 0.0000 38.4775 0.0000 0.0000
# 5 0.0000 0.0000 0.0000 0.0000 21.6913 0.0000
# 6 0.0000 0.0000 0.0000 0.0000 0.0000 10.5628
#
#
#
# Elastic Compliance Matrix: (Units=1/GPa)
#
#
# Indices 1 2 3 4 5 6 
#
# 1 0.016211 -0.000584 -0.009534 0.000000 0.000000 0.000000
# 2 -0.000584 0.014377 -0.004686 0.000000 0.000000 0.000000
# 3 -0.009534 -0.004686 0.025084 0.000000 0.000000 0.000000
# 4 0.000000 0.000000 0.000000 0.025989 0.000000 0.000000
# 5 0.000000 0.000000 0.000000 0.000000 0.046101 0.000000
# 6 0.000000 0.000000 0.000000 0.000000 0.000000 0.094672
#
#
# Mechanical properties :
#
#
# Convention : Reuss Voigt Hill
#
# Bulk Modulus (GPa) = 38.36667 39.03726 38.70197
# Shear Modulus (GPa) = 19.17691 23.95341 21.56516
#
# Velocity S-wave (km/s) = 3.08613 3.44913 3.27267
# Velocity P-wave (km/s) = 5.63505 5.93716 5.78808
#
# Compressibility (1/GPa) = 0.02606429
#
# Stress axis : x y z
#
# Youngs Moduli (GPa) = 61.68598 69.55780 39.86554
#
# Poissons Ratio (x) = 0.04062 0.38006
# Poissons Ratio (y) = 0.03603 0.18682
# Poissons Ratio (z) = 0.58809 0.32597
#
# Static dielectric constant tensor:
#      x y z
#    x 3.755440 0.000000 0.000000 
#    y 0.000000 3.777180 0.000000 
#    z 0.000000 0.000000 3.583100 
# 
# 
# High freq. dielectric constant tensor:
#      x y z
#    x 1.785520 0.000000 0.000000 
#    y 0.000000 1.791750 0.000000 
#    z 0.000000 0.000000 1.774850 
# 
# From -- ./inp_files/16597.got.cif
#   From: 2010.03.12/outbox.cif.g09.slc.cpg/sg51_9_cif.got.tgz:16597.got - 2010.04.16 13:43:02.
