data_PCOD8212113
_publ_section_title
;
Structure prediction by ZEFSAII (Michael W. Deem and Ramdas Pophale) SiO2 
 PCOD8212113
Probable space group: P M M A
;
_chemical_formula_sum "Si O2"
_cell_formula_units_Z 64
_cell_length_a 18.680777
_cell_length_b 8.911973
_cell_length_c 20.516151
_cell_angle_alpha 90.000000
_cell_angle_beta 90.000000
_cell_angle_gamma 90.000000
_cell_volume 3415.581755
_symmetry_space_group_name_H-M "P M M A"
_symmetry_group_IT_number 51
_symmetry_cell_setting 'orthorhombic'
loop_
_space_group_symop_operation_xyz
x,y,z
1/2-x,-y,z
1/2+x,-y,-z
-x,y,-z
-x,-y,-z
1/2+x,y,-z
1/2-x,y,z
x,-y,z
loop_
_atom_site_type_symbol
_atom_site_label
_atom_site_fract_x
_atom_site_fract_y
_atom_site_fract_z
Si Si1 0.423514 0.822841 0.136251
Si Si2 0.834394 0.329120 0.754152
Si Si3 0.667738 0.324253 0.379405
Si Si4 0.665695 0.828357 0.245611
Si Si5 0.923504 0.676613 0.134508
Si Si6 0.584775 0.834566 0.005544
Si Si7 0.916580 0.825589 0.494253
Si Si8 0.832408 0.173577 0.622677
O O1 0.368321 0.773811 0.190827
O O2 0.499012 0.744349 0.148608
O O3 0.389160 0.777646 0.065752
O O4 0.436619 0.000000 0.138861
O O5 0.750000 0.312669 0.760940
O O6 0.859979 0.500000 0.762540
O O7 0.859339 0.271088 0.683610
O O8 0.750000 0.283354 0.396252
O O9 0.658547 0.500000 0.367094
O O10 0.641822 0.238098 0.314956
O O11 0.617130 0.273872 0.437778
O O12 0.750000 0.814155 0.236769
O O13 0.630695 0.732742 0.188741
O O14 0.639679 0.000000 0.241716
O O15 0.929229 0.500000 0.137298
O O16 0.892547 0.723299 0.063436
O O17 0.616171 0.000000 0.021417
O O18 0.500000 0.844474 0.000000
O O19 0.879814 0.777553 0.561590
O O20 0.000000 0.789393 0.500000
O O21 0.902297 0.000000 0.478711
O O22 0.750000 0.207841 0.605574
O O23 0.843687 0.000000 0.640520
#
# Coordination Sequence:
#
# PCOD8212113 Si02
#       8
#     8   8   8   8   8   8   8   8
#     4  10  20  35  56  79 106 142 183 223 263 317
#     4  10  21  36  54  78 108 139 175 224 278 325
#     4  10  21  37  57  80 107 141 180 221 267 319
#     4  10  21  38  59  80 106 143 184 223 263 314
#     4  11  21  33  54  82 111 141 175 221 273 320
#     4   8  16  32  52  75 104 140 181 220 260 314
#     4  10  21  36  55  81 111 141 175 218 265 313
#     4   9  18  34  55  75  99 138 183 219 257 315
#
# _framework density 18.737656999999999
#
# number of rings (size 3 to 8) (size 9 to 14) (size 15 to 20)
#    0.000    2.250    0.000    3.750    0.000    7.250 
#    0.000    5.625    0.000    0.750    0.000    0.000 
#    0.000    0.000    0.000    0.000    0.000    0.000 
#
# Total GULP energy -793693.887057 kJ/mol
# GULP energy per Si atom -12401.466985 kJ/mol
# Density = 1.869501 g / cm^3
# Si number density = 18.737657 Si / 1000 Ang^3
#
#
#
# Elastic Constant Matrix: (Units=GPa)
#
#
# Indices 1 2 3 4 5 6 
#
# 1 51.5507 35.2551 56.8102 0.0000 0.0000 0.0000
# 2 35.2551 107.2807 64.5601 0.0000 0.0000 0.0000
# 3 56.8102 64.5601 153.1353 0.0000 0.0000 0.0000
# 4 0.0000 0.0000 0.0000 11.9688 0.0000 0.0000
# 5 0.0000 0.0000 0.0000 0.0000 31.5766 0.0000
# 6 0.0000 0.0000 0.0000 0.0000 0.0000 22.0210
#
#
#
# Elastic Compliance Matrix: (Units=1/GPa)
#
#
# Indices 1 2 3 4 5 6 
#
# 1 0.034627 -0.004889 -0.010785 0.000000 0.000000 0.000000
# 2 -0.004889 0.013181 -0.003743 0.000000 0.000000 0.000000
# 3 -0.010785 -0.003743 0.012109 0.000000 0.000000 0.000000
# 4 0.000000 0.000000 0.000000 0.083550 0.000000 0.000000
# 5 0.000000 0.000000 0.000000 0.000000 0.031669 0.000000
# 6 0.000000 0.000000 0.000000 0.000000 0.000000 0.045411
#
#
# Mechanical properties :
#
#
# Convention : Reuss Voigt Hill
#
# Bulk Modulus (GPa) = 47.43179 69.46859 58.45019
# Shear Modulus (GPa) = 18.76814 23.46937 21.11876
#
# Velocity S-wave (km/s) = 3.16828 3.54294 3.36084
# Velocity P-wave (km/s) = 6.22516 7.34108 6.80603
#
# Compressibility (1/GPa) = 0.02108291
#
# Stress axis : x y z
#
# Youngs Moduli (GPa) = 28.87909 75.86957 82.58260
#
# Poissons Ratio (x) = 0.37094 0.89063
# Poissons Ratio (y) = 0.14120 0.30910
# Poissons Ratio (z) = 0.31145 0.28398
#
# Static dielectric constant tensor:
#      x y z
#    x 3.204890 0.000000 0.000000 
#    y 0.000000 3.506450 0.000000 
#    z 0.000000 0.000000 3.752650 
# 
# 
# High freq. dielectric constant tensor:
#      x y z
#    x 1.705400 0.000000 0.000000 
#    y 0.000000 1.733040 0.000000 
#    z 0.000000 0.000000 1.743530 
# 
# From -- ./inp_files/33866.got.cif
#   From: 2010.03.12/outbox.cif.g09.slc.cpg/sg51_17_cif.got.tgz:33866.got - 2010.04.16 13:43:02.
