data_PCOD8212904
_publ_section_title
;
Structure prediction by ZEFSAII (Michael W. Deem and Ramdas Pophale) SiO2 
 PCOD8212904
Probable space group: P M M A
;
_chemical_formula_sum "Si O2"
_cell_formula_units_Z 48
_cell_length_a 17.247566
_cell_length_b 15.048887
_cell_length_c 9.277450
_cell_angle_alpha 90.000000
_cell_angle_beta 90.000000
_cell_angle_gamma 90.000000
_cell_volume 2408.024044
_symmetry_space_group_name_H-M "P M M A"
_symmetry_group_IT_number 51
_symmetry_cell_setting 'orthorhombic'
loop_
_space_group_symop_operation_xyz
x,y,z
1/2-x,-y,z
1/2+x,-y,-z
-x,y,-z
-x,-y,-z
1/2+x,y,-z
1/2-x,y,z
x,-y,z
loop_
_atom_site_type_symbol
_atom_site_label
_atom_site_fract_x
_atom_site_fract_y
_atom_site_fract_z
Si Si1 0.106104 0.000000 0.115749
Si Si2 0.554474 0.324452 0.872267
Si Si3 0.915704 0.150674 0.438354
Si Si4 0.338401 0.828141 0.263989
Si Si5 0.069366 0.000000 0.783918
Si Si6 0.407698 0.500000 0.006875
Si Si7 0.160452 0.500000 0.694526
Si Si8 0.057653 0.346123 0.628239
O O1 0.152828 0.086839 0.162573
O O2 0.023238 0.000000 0.195986
O O3 0.105295 0.000000 0.942736
O O4 0.602887 0.248070 0.791501
O O5 0.612688 0.405645 0.915259
O O6 0.490349 0.368223 0.770212
O O7 0.500000 0.283863 0.000000
O O8 0.855797 0.143691 0.570993
O O9 0.899302 0.083952 0.306955
O O10 0.908746 0.247291 0.368669
O O11 0.000000 0.129124 0.500000
O O12 0.250000 0.793761 0.254096
O O13 0.500000 0.500000 0.000000
O O14 0.359803 0.500000 0.861569
O O15 0.250000 0.500000 0.669292
O O16 0.128844 0.412885 0.614996
O O17 0.000000 0.362812 0.500000
#
# Coordination Sequence:
#
# PCOD8212904 Si02
#       8
#     4   8   8   8   4   4   4   8
#     4  11  24  39  65 100 134 161 219 275 316 376
#     4  11  21  41  71  93 124 172 221 257 313 392
#     4  11  21  41  67  97 126 169 219 261 315 390
#     4  12  26  43  64  96 135 170 210 274 335 376
#     4  11  22  38  72 101 118 170 231 263 302 391
#     4  10  20  40  67  90 126 170 213 256 319 385
#     4  12  25  40  64 100 133 166 211 274 330 374
#     4  11  21  41  67  95 126 169 219 261 313 383
#
# _framework density 19.933357000000001
#
# number of rings (size 3 to 8) (size 9 to 14) (size 15 to 20)
#    0.000    0.833    8.333    1.250    4.667    1.333 
#    0.000    1.667    0.000    0.000    0.000    0.000 
#    0.000    0.000    0.000    0.000    0.000    0.000 
#
# Total GULP energy -595046.776736 kJ/mol
# GULP energy per Si atom -12396.807849 kJ/mol
# Density = 1.988799 g / cm^3
# Si number density = 19.933357 Si / 1000 Ang^3
#
#
#
# Elastic Constant Matrix: (Units=GPa)
#
#
# Indices 1 2 3 4 5 6 
#
# 1 101.3017 49.1497 33.0268 0.0000 0.0000 0.0000
# 2 49.1497 145.6299 62.7821 0.0000 0.0000 0.0000
# 3 33.0268 62.7821 119.8359 0.0000 0.0000 0.0000
# 4 0.0000 0.0000 0.0000 40.0224 0.0000 0.0000
# 5 0.0000 0.0000 0.0000 0.0000 23.2113 0.0000
# 6 0.0000 0.0000 0.0000 0.0000 0.0000 5.2464
#
#
#
# Elastic Compliance Matrix: (Units=1/GPa)
#
#
# Indices 1 2 3 4 5 6 
#
# 1 0.012019 -0.003395 -0.001534 0.000000 0.000000 0.000000
# 2 -0.003395 0.009829 -0.004214 0.000000 0.000000 0.000000
# 3 -0.001534 -0.004214 0.010975 0.000000 0.000000 0.000000
# 4 0.000000 0.000000 0.000000 0.024986 0.000000 0.000000
# 5 0.000000 0.000000 0.000000 0.000000 0.043083 0.000000
# 6 0.000000 0.000000 0.000000 0.000000 0.000000 0.190606
#
#
# Mechanical properties :
#
#
# Convention : Reuss Voigt Hill
#
# Bulk Modulus (GPa) = 68.78632 72.96496 70.87564
# Shear Modulus (GPa) = 15.89175 28.48327 22.18751
#
# Velocity S-wave (km/s) = 2.82661 3.78421 3.33991
# Velocity P-wave (km/s) = 6.72578 7.46844 7.10682
#
# Compressibility (1/GPa) = 0.01453777
#
# Stress axis : x y z
#
# Youngs Moduli (GPa) = 83.20327 101.73791 91.11577
#
# Poissons Ratio (x) = 0.34541 0.13974
# Poissons Ratio (y) = 0.28249 0.38395
# Poissons Ratio (z) = 0.12761 0.42871
#
# Static dielectric constant tensor:
#      x y z
#    x 3.348760 0.000000 0.000000 
#    y 0.000000 4.147780 0.000000 
#    z 0.000000 0.000000 3.681930 
# 
# 
# High freq. dielectric constant tensor:
#      x y z
#    x 1.744320 0.000000 0.000000 
#    y 0.000000 1.794180 0.000000 
#    z 0.000000 0.000000 1.791330 
# 
# From -- ./inp_files/9747.got.cif
#   From: 2010.03.12/outbox.cif.g09.slc.cpg/sg51_5_cif.got.tgz:9747.got - 2010.04.16 13:43:02.
