data_PCOD8212780
_publ_section_title
;
Structure prediction by ZEFSAII (Michael W. Deem and Ramdas Pophale) SiO2 
 PCOD8212780
Probable space group: P M M A
;
_chemical_formula_sum "Si O2"
_cell_formula_units_Z 48
_cell_length_a 18.300512
_cell_length_b 9.340212
_cell_length_c 13.755456
_cell_angle_alpha 90.000000
_cell_angle_beta 90.000000
_cell_angle_gamma 90.000000
_cell_volume 2351.229197
_symmetry_space_group_name_H-M "P M M A"
_symmetry_group_IT_number 51
_symmetry_cell_setting 'orthorhombic'
loop_
_space_group_symop_operation_xyz
x,y,z
1/2-x,-y,z
1/2+x,-y,-z
-x,y,-z
-x,-y,-z
1/2+x,y,-z
1/2-x,y,z
x,-y,z
loop_
_atom_site_type_symbol
_atom_site_label
_atom_site_fract_x
_atom_site_fract_y
_atom_site_fract_z
Si Si1 0.164040 0.837149 0.018149
Si Si2 0.836340 0.340662 0.799000
Si Si3 0.335324 0.830494 0.577930
Si Si4 0.444174 0.663820 0.696250
Si Si5 0.054386 0.665235 0.915347
Si Si6 0.405538 0.333457 0.399972
O O1 0.250000 0.823532 0.006163
O O2 0.128498 0.756469 0.926731
O O3 0.137893 0.000000 0.020866
O O4 0.135225 0.763338 0.116948
O O5 0.750000 0.346231 0.798297
O O6 0.869172 0.500000 0.817981
O O7 0.862805 0.282766 0.695792
O O8 0.250000 0.788089 0.579376
O O9 0.375302 0.765625 0.672879
O O10 0.375544 0.764348 0.485207
O O11 0.345529 0.000000 0.576844
O O12 0.417526 0.500000 0.687867
O O13 0.474696 0.692940 0.805630
O O14 0.508359 0.692535 0.618176
O O15 0.073511 0.500000 0.931932
O O16 0.000000 0.719655 0.000000
O O17 0.390114 0.500000 0.424122
#
# Coordination Sequence:
#
# PCOD8212780 Si02
#       6
#     8   8   8   8   8   8
#     4  10  21  35  52  79 116 154 191 234 284 339
#     4   9  17  31  54  83 114 150 191 235 284 337
#     4  11  25  42  59  83 117 155 192 231 278 334
#     4  10  22  39  61  88 115 146 187 235 285 338
#     4  10  21  39  62  86 113 147 190 239 287 337
#     4  10  20  37  62  89 115 145 186 237 289 340
#
# _framework density 20.414853999999998
#
# number of rings (size 3 to 8) (size 9 to 14) (size 15 to 20)
#    0.000    2.000    0.000    3.000    0.000   10.667 
#    0.000    6.667    0.000    0.000    0.000    0.000 
#    0.000    0.000    0.000    0.000    0.000    0.000 
#
# Total GULP energy -595242.296925 kJ/mol
# GULP energy per Si atom -12400.881186 kJ/mol
# Density = 2.036839 g / cm^3
# Si number density = 20.414854 Si / 1000 Ang^3
#
#
#
# Elastic Constant Matrix: (Units=GPa)
#
#
# Indices 1 2 3 4 5 6 
#
# 1 73.2428 53.0689 55.2216 0.0000 0.0000 0.0000
# 2 53.0689 92.8317 48.8180 0.0000 0.0000 0.0000
# 3 55.2216 48.8180 107.1730 0.0000 0.0000 0.0000
# 4 0.0000 0.0000 0.0000 11.5051 0.0000 0.0000
# 5 0.0000 0.0000 0.0000 0.0000 39.5452 0.0000
# 6 0.0000 0.0000 0.0000 0.0000 0.0000 31.5835
#
#
#
# Elastic Compliance Matrix: (Units=1/GPa)
#
#
# Indices 1 2 3 4 5 6 
#
# 1 0.029629 -0.011716 -0.009930 0.000000 0.000000 0.000000
# 2 -0.011716 0.018798 -0.002526 0.000000 0.000000 0.000000
# 3 -0.009930 -0.002526 0.015598 0.000000 0.000000 0.000000
# 4 0.000000 0.000000 0.000000 0.086918 0.000000 0.000000
# 5 0.000000 0.000000 0.000000 0.000000 0.025288 0.000000
# 6 0.000000 0.000000 0.000000 0.000000 0.000000 0.031662
#
#
# Mechanical properties :
#
#
# Convention : Reuss Voigt Hill
#
# Bulk Modulus (GPa) = 63.77033 65.27381 64.52207
# Shear Modulus (GPa) = 19.12324 24.26937 21.69631
#
# Velocity S-wave (km/s) = 3.06393 3.45165 3.26355
# Velocity P-wave (km/s) = 6.61981 6.92303 6.77312
#
# Compressibility (1/GPa) = 0.01568127
#
# Stress axis : x y z
#
# Youngs Moduli (GPa) = 33.75112 53.19665 64.11236
#
# Poissons Ratio (x) = 0.62325 0.63661
# Poissons Ratio (y) = 0.39543 0.16195
# Poissons Ratio (z) = 0.33514 0.13437
#
# Static dielectric constant tensor:
#      x y z
#    x 3.753380 0.000000 0.000000 
#    y 0.000000 3.671170 0.000000 
#    z 0.000000 0.000000 3.787230 
# 
# 
# High freq. dielectric constant tensor:
#      x y z
#    x 1.801310 0.000000 0.000000 
#    y 0.000000 1.786140 0.000000 
#    z 0.000000 0.000000 1.803340 
# 
# From -- ./inp_files/24817.got.cif
#   From: 2010.03.12/outbox.cif.g09.slc.cpg/sg51_13_cif.got.tgz:24817.got - 2010.04.16 13:43:02.
