data_PCOD8212060
_publ_section_title
;
Structure prediction by ZEFSAII (Michael W. Deem and Ramdas Pophale) SiO2 
 PCOD8212060
Probable space group: P M M A
;
_chemical_formula_sum "Si O2"
_cell_formula_units_Z 56
_cell_length_a 19.628843
_cell_length_b 9.049984
_cell_length_c 16.280097
_cell_angle_alpha 90.000000
_cell_angle_beta 90.000000
_cell_angle_gamma 90.000000
_cell_volume 2892.008073
_symmetry_space_group_name_H-M "P M M A"
_symmetry_group_IT_number 51
_symmetry_cell_setting 'orthorhombic'
loop_
_space_group_symop_operation_xyz
x,y,z
1/2-x,-y,z
1/2+x,-y,-z
-x,y,-z
-x,-y,-z
1/2+x,y,-z
1/2-x,y,z
x,-y,z
loop_
_atom_site_type_symbol
_atom_site_label
_atom_site_fract_x
_atom_site_fract_y
_atom_site_fract_z
Si Si1 0.091168 0.673140 0.330944
Si Si2 0.546998 0.674586 0.251910
Si Si3 0.172417 0.826467 0.472741
Si Si4 0.327855 0.829783 0.007859
Si Si5 0.448797 0.324829 0.930942
Si Si6 0.170368 0.834104 0.196125
Si Si7 0.673027 0.326981 0.356158
O O1 0.097283 0.500000 0.348873
O O2 0.119147 0.760879 0.408579
O O3 0.133849 0.711145 0.250075
O O4 0.013276 0.722752 0.313719
O O5 0.548129 0.500000 0.244242
O O6 0.533659 0.738188 0.160062
O O7 0.619649 0.729755 0.287510
O O8 0.250000 0.788662 0.445646
O O9 0.156203 0.758231 0.560699
O O10 0.161049 0.000000 0.477856
O O11 0.250000 0.788236 0.990269
O O12 0.372531 0.725630 0.950627
O O13 0.341918 0.000000 0.986539
O O14 0.346539 0.797990 0.102189
O O15 0.451978 0.500000 0.932396
O O16 0.500000 0.258597 0.000000
O O17 0.250000 0.823334 0.213083
O O18 0.145463 0.000000 0.219141
O O19 0.750000 0.292140 0.325734
O O20 0.663592 0.500000 0.374052
#
# Coordination Sequence:
#
# PCOD8212060 Si02
#       7
#     8   8   8   8   8   8   8
#     4  11  21  33  52  78 109 141 175 214 255 309
#     4   9  20  36  53  78 109 139 172 217 270 310
#     4  10  21  37  56  79 109 140 169 209 261 310
#     4   9  19  35  53  75 104 138 178 224 272 321
#     4  10  20  35  55  79 109 143 180 222 268 320
#     4   9  18  33  51  72 104 143 178 217 265 311
#     4   9  18  36  60  79  98 132 179 221 257 308
#
# _framework density 19.363707000000002
#
# number of rings (size 3 to 8) (size 9 to 14) (size 15 to 20)
#    0.000    2.429    0.000    3.000    0.000    6.286 
#    0.000    9.286    0.000    1.714    0.000    0.000 
#    0.000    0.000    0.000    0.000    0.000    0.000 
#
# Total GULP energy -694358.584697 kJ/mol
# GULP energy per Si atom -12399.260441 kJ/mol
# Density = 1.931963 g / cm^3
# Si number density = 19.363707 Si / 1000 Ang^3
#
#
#
# Elastic Constant Matrix: (Units=GPa)
#
#
# Indices 1 2 3 4 5 6 
#
# 1 104.2909 34.7909 89.4374 0.0000 0.0000 0.0000
# 2 34.7909 39.3460 34.7059 0.0000 0.0000 0.0000
# 3 89.4374 34.7059 122.7963 0.0000 0.0000 0.0000
# 4 0.0000 0.0000 0.0000 23.8504 0.0000 0.0000
# 5 0.0000 0.0000 0.0000 0.0000 34.6823 0.0000
# 6 0.0000 0.0000 0.0000 0.0000 0.0000 23.4701
#
#
#
# Elastic Compliance Matrix: (Units=1/GPa)
#
#
# Indices 1 2 3 4 5 6 
#
# 1 0.027712 -0.008925 -0.017661 0.000000 0.000000 0.000000
# 2 -0.008925 0.036730 -0.003880 0.000000 0.000000 0.000000
# 3 -0.017661 -0.003880 0.022103 0.000000 0.000000 0.000000
# 4 0.000000 0.000000 0.000000 0.041928 0.000000 0.000000
# 5 0.000000 0.000000 0.000000 0.000000 0.028833 0.000000
# 6 0.000000 0.000000 0.000000 0.000000 0.000000 0.042607
#
#
# Mechanical properties :
#
#
# Convention : Reuss Voigt Hill
#
# Bulk Modulus (GPa) = 39.04397 64.92240 51.98319
# Shear Modulus (GPa) = 18.56083 23.56716 21.06399
#
# Velocity S-wave (km/s) = 3.09938 3.49245 3.30177
# Velocity P-wave (km/s) = 5.74591 7.06142 6.43736
#
# Compressibility (1/GPa) = 0.02561215
#
# Stress axis : x y z
#
# Youngs Moduli (GPa) = 36.08609 27.22539 45.24192
#
# Poissons Ratio (x) = 0.24299 0.79901
# Poissons Ratio (y) = 0.32208 0.17556
# Poissons Ratio (z) = 0.63731 0.10565
#
# Static dielectric constant tensor:
#      x y z
#    x 3.675150 0.000000 0.000000 
#    y 0.000000 3.332040 0.000000 
#    z 0.000000 0.000000 3.653840 
# 
# 
# High freq. dielectric constant tensor:
#      x y z
#    x 1.758720 0.000000 0.000000 
#    y 0.000000 1.734620 0.000000 
#    z 0.000000 0.000000 1.754240 
# 
# From -- ./inp_files/25623.got.cif
#   From: 2010.03.12/outbox.cif.g09.slc.cpg/sg51_13_cif.got.tgz:25623.got - 2010.04.16 13:43:02.
