data_PCOD8212082
_publ_section_title
;
Structure prediction by ZEFSAII (Michael W. Deem and Ramdas Pophale) SiO2 
 PCOD8212082
Probable space group: P M M A
;
_chemical_formula_sum "Si O2"
_cell_formula_units_Z 48
_cell_length_a 16.741422
_cell_length_b 9.130628
_cell_length_c 16.407533
_cell_angle_alpha 90.000000
_cell_angle_beta 90.000000
_cell_angle_gamma 90.000000
_cell_volume 2508.050514
_symmetry_space_group_name_H-M "P M M A"
_symmetry_group_IT_number 51
_symmetry_cell_setting 'orthorhombic'
loop_
_space_group_symop_operation_xyz
x,y,z
1/2-x,-y,z
1/2+x,-y,-z
-x,y,-z
-x,-y,-z
1/2+x,y,-z
1/2-x,y,z
x,-y,z
loop_
_atom_site_type_symbol
_atom_site_label
_atom_site_fract_x
_atom_site_fract_y
_atom_site_fract_z
Si Si1 0.085140 0.671146 0.042160
Si Si2 0.250000 0.175930 0.984070
Si Si3 0.099063 0.174129 0.704300
Si Si4 0.090723 0.831251 0.522394
Si Si5 0.250000 0.826812 0.798775
Si Si6 0.950503 0.330148 0.771448
Si Si7 0.658938 0.664282 0.625247
O O1 0.098262 0.500000 0.021664
O O2 0.080817 0.700186 0.138275
O O3 0.165705 0.759105 0.017215
O O4 0.000000 0.722634 0.000000
O O5 0.250000 0.225583 0.890834
O O6 0.250000 0.000000 0.996849
O O7 0.103225 0.236442 0.612246
O O8 0.174533 0.236970 0.751739
O O9 0.026892 0.232507 0.757049
O O10 0.093225 0.000000 0.701654
O O11 0.146566 0.756302 0.456268
O O12 0.000000 0.803742 0.500000
O O13 0.114692 0.000000 0.521853
O O14 0.250000 0.000000 0.793437
O O15 0.971699 0.500000 0.759953
O O16 0.886966 0.275343 0.704295
O O17 0.750000 0.671803 0.651254
O O18 0.631076 0.500000 0.605264
#
# Coordination Sequence:
#
# PCOD8212082 Si02
#       7
#     8   4   8   8   4   8   8
#     4  10  22  40  63  89 118 155 197 242 297 355
#     4  11  23  39  61  90 119 152 194 241 295 353
#     4  10  20  36  58  82 113 150 188 229 278 334
#     4  10  20  35  55  81 109 143 187 231 277 328
#     4   9  20  37  57  82 113 150 184 223 281 341
#     4  10  21  37  59  83 111 148 189 232 283 337
#     4  10  22  37  54  78 110 149 189 229 278 332
#
# _framework density 19.138369000000001
#
# number of rings (size 3 to 8) (size 9 to 14) (size 15 to 20)
#    0.000    2.000    1.667    1.250    2.333    2.333 
#    0.000    1.250    0.000    0.000    0.000    0.000 
#    0.000    0.000    0.000    0.000    0.000    0.000 
#
# Total GULP energy -594959.636851 kJ/mol
# GULP energy per Si atom -12394.992434 kJ/mol
# Density = 1.909481 g / cm^3
# Si number density = 19.138369 Si / 1000 Ang^3
#
#
#
# Elastic Constant Matrix: (Units=GPa)
#
#
# Indices 1 2 3 4 5 6 
#
# 1 165.4631 32.0355 69.1428 0.0000 0.0000 0.0000
# 2 32.0355 56.6779 43.2568 0.0000 0.0000 0.0000
# 3 69.1428 43.2568 153.6811 0.0000 0.0000 0.0000
# 4 0.0000 0.0000 0.0000 23.2863 0.0000 0.0000
# 5 0.0000 0.0000 0.0000 0.0000 41.6657 0.0000
# 6 0.0000 0.0000 0.0000 0.0000 0.0000 28.7277
#
#
#
# Elastic Compliance Matrix: (Units=1/GPa)
#
#
# Indices 1 2 3 4 5 6 
#
# 1 0.007645 -0.002160 -0.002832 0.000000 0.000000 0.000000
# 2 -0.002160 0.023081 -0.005525 0.000000 0.000000 0.000000
# 3 -0.002832 -0.005525 0.009336 0.000000 0.000000 0.000000
# 4 0.000000 0.000000 0.000000 0.042944 0.000000 0.000000
# 5 0.000000 0.000000 0.000000 0.000000 0.024001 0.000000
# 6 0.000000 0.000000 0.000000 0.000000 0.000000 0.034810
#
#
# Mechanical properties :
#
#
# Convention : Reuss Voigt Hill
#
# Bulk Modulus (GPa) = 52.55089 73.85470 63.20280
# Shear Modulus (GPa) = 29.55220 34.16174 31.85697
#
# Velocity S-wave (km/s) = 3.93381 4.22949 4.08433
# Velocity P-wave (km/s) = 6.93910 7.90728 7.43896
#
# Compressibility (1/GPa) = 0.01902917
#
# Stress axis : x y z
#
# Youngs Moduli (GPa) = 130.80241 43.32568 107.11196
#
# Poissons Ratio (x) = 0.09359 0.30330
# Poissons Ratio (y) = 0.28254 0.59177
# Poissons Ratio (z) = 0.37038 0.23937
#
# Static dielectric constant tensor:
#      x y z
#    x 3.587560 0.000000 0.000000 
#    y 0.000000 3.368350 0.000000 
#    z 0.000000 0.000000 3.817630 
# 
# 
# High freq. dielectric constant tensor:
#      x y z
#    x 1.755330 0.000000 0.000000 
#    y 0.000000 1.723870 0.000000 
#    z 0.000000 0.000000 1.763280 
# 
# From -- ./inp_files/29495.got.cif
#   From: 2010.03.12/outbox.cif.g09.slc.cpg/sg51_15_cif.got.tgz:29495.got - 2010.04.16 13:43:02.
