data_PCOD8212161
_publ_section_title
;
Structure prediction by ZEFSAII (Michael W. Deem and Ramdas Pophale) SiO2 
 PCOD8212161
Probable space group: P M M A
;
_chemical_formula_sum "Si O2"
_cell_formula_units_Z 48
_cell_length_a 8.837162
_cell_length_b 14.110339
_cell_length_c 20.610412
_cell_angle_alpha 90.000000
_cell_angle_beta 90.000000
_cell_angle_gamma 90.000000
_cell_volume 2570.022571
_symmetry_space_group_name_H-M "P M M A"
_symmetry_group_IT_number 51
_symmetry_cell_setting 'orthorhombic'
loop_
_space_group_symop_operation_xyz
x,y,z
1/2-x,-y,z
1/2+x,-y,-z
-x,y,-z
-x,-y,-z
1/2+x,y,-z
1/2-x,y,z
x,-y,z
loop_
_atom_site_type_symbol
_atom_site_label
_atom_site_fract_x
_atom_site_fract_y
_atom_site_fract_z
Si Si1 0.925718 0.390291 0.805909
Si Si2 0.427443 0.722166 0.065114
Si Si3 0.428210 0.286609 0.686433
Si Si4 0.576917 0.387959 0.566039
Si Si5 0.427403 0.892982 0.268124
Si Si6 0.425325 0.107831 0.869769
O O1 0.750000 0.375675 0.788517
O O2 0.970962 0.500000 0.805406
O O3 0.964246 0.349391 0.876562
O O4 0.024045 0.335907 0.753169
O O5 0.250000 0.737112 0.055777
O O6 0.505682 0.824042 0.075959
O O7 0.500000 0.677985 0.000000
O O8 0.250000 0.284408 0.681531
O O9 0.491714 0.343897 0.626327
O O10 0.490824 0.179216 0.683095
O O11 0.500000 0.351753 0.500000
O O12 0.750000 0.354483 0.566051
O O13 0.562860 0.500000 0.572580
O O14 0.250000 0.873545 0.269405
O O15 0.484200 0.872840 0.195950
O O16 0.466930 0.000000 0.289992
O O17 0.250000 0.131215 0.857231
O O18 0.447331 0.000000 0.893449
#
# Coordination Sequence:
#
# PCOD8212161 Si02
#       6
#     8   8   8   8   8   8
#     4  10  22  40  59  80 108 145 190 238 286 337
#     4  11  23  38  57  78 107 146 187 234 288 344
#     4  12  23  35  58  89 120 153 191 234 281 334
#     4  10  21  38  60  87 122 160 197 238 283 334
#     4  10  20  35  57  84 114 149 188 231 282 337
#     4  10  20  35  56  82 111 141 178 228 284 342
#
# _framework density 18.676879
#
# number of rings (size 3 to 8) (size 9 to 14) (size 15 to 20)
#    0.000    1.500    1.667    4.000    0.000    6.667 
#    0.000    0.000    0.000    0.500    0.000    0.000 
#    0.000    0.000    0.000    0.000    0.000    0.000 
#
# Total GULP energy -595424.494462 kJ/mol
# GULP energy per Si atom -12404.676968 kJ/mol
# Density = 1.863437 g / cm^3
# Si number density = 18.676879 Si / 1000 Ang^3
#
#
#
# Elastic Constant Matrix: (Units=GPa)
#
#
# Indices 1 2 3 4 5 6 
#
# 1 133.8483 44.6080 53.9792 0.0000 0.0000 0.0000
# 2 44.6080 65.3339 13.3832 0.0000 0.0000 0.0000
# 3 53.9792 13.3832 75.1533 0.0000 0.0000 0.0000
# 4 0.0000 0.0000 0.0000 25.5847 0.0000 0.0000
# 5 0.0000 0.0000 0.0000 0.0000 36.1402 0.0000
# 6 0.0000 0.0000 0.0000 0.0000 0.0000 24.5862
#
#
#
# Elastic Compliance Matrix: (Units=1/GPa)
#
#
# Indices 1 2 3 4 5 6 
#
# 1 0.013223 -0.007351 -0.008189 0.000000 0.000000 0.000000
# 2 -0.007351 0.019972 0.001723 0.000000 0.000000 0.000000
# 3 -0.008189 0.001723 0.018881 0.000000 0.000000 0.000000
# 4 0.000000 0.000000 0.000000 0.039086 0.000000 0.000000
# 5 0.000000 0.000000 0.000000 0.000000 0.027670 0.000000
# 6 0.000000 0.000000 0.000000 0.000000 0.000000 0.040673
#
#
# Mechanical properties :
#
#
# Convention : Reuss Voigt Hill
#
# Bulk Modulus (GPa) = 40.91083 55.36403 48.13743
# Shear Modulus (GPa) = 25.60342 28.08656 26.84499
#
# Velocity S-wave (km/s) = 3.70653 3.88211 3.79534
# Velocity P-wave (km/s) = 6.34586 7.05704 6.71088
#
# Compressibility (1/GPa) = 0.02444341
#
# Stress axis : x y z
#
# Youngs Moduli (GPa) = 75.62299 50.06980 52.96380
#
# Poissons Ratio (x) = 0.36807 0.43371
# Poissons Ratio (y) = 0.55592 -0.09128
# Poissons Ratio (z) = 0.61926 -0.08629
#
# Static dielectric constant tensor:
#      x y z
#    x 3.423360 0.000000 0.000000 
#    y 0.000000 3.613250 0.000000 
#    z 0.000000 0.000000 3.312730 
# 
# 
# High freq. dielectric constant tensor:
#      x y z
#    x 1.740170 0.000000 0.000000 
#    y 0.000000 1.728530 0.000000 
#    z 0.000000 0.000000 1.711600 
# 
# From -- ./inp_files/27534.got.cif
#   From: 2010.03.12/outbox.cif.g09.slc.cpg/sg51_14_cif.got.tgz:27534.got - 2010.04.16 13:43:02.
