data_PCOD8212561
_publ_section_title
;
Structure prediction by ZEFSAII (Michael W. Deem and Ramdas Pophale) SiO2 
 PCOD8212561
Probable space group: P M M A
;
_chemical_formula_sum "Si O2"
_cell_formula_units_Z 64
_cell_length_a 18.817016
_cell_length_b 13.847055
_cell_length_c 12.278278
_cell_angle_alpha 90.000000
_cell_angle_beta 90.000000
_cell_angle_gamma 90.000000
_cell_volume 3199.231253
_symmetry_space_group_name_H-M "P M M A"
_symmetry_group_IT_number 51
_symmetry_cell_setting 'orthorhombic'
loop_
_space_group_symop_operation_xyz
x,y,z
1/2-x,-y,z
1/2+x,-y,-z
-x,y,-z
-x,-y,-z
1/2+x,y,-z
1/2-x,y,z
x,-y,z
loop_
_atom_site_type_symbol
_atom_site_label
_atom_site_fract_x
_atom_site_fract_y
_atom_site_fract_z
Si Si1 0.584262 0.887954 0.385928
Si Si2 0.167419 0.114577 0.161956
Si Si3 0.080587 0.608959 0.464122
Si Si4 0.925417 0.111552 0.636179
Si Si5 0.391770 0.390278 0.831030
Si Si6 0.919156 0.255943 0.971772
Si Si7 0.447221 0.610024 0.224595
Si Si8 0.669772 0.285635 0.359685
O O1 0.601841 0.872544 0.513808
O O2 0.505889 0.847896 0.354362
O O3 0.638891 0.818922 0.321830
O O4 0.595111 0.000000 0.352950
O O5 0.250000 0.145985 0.167382
O O6 0.128202 0.152978 0.272289
O O7 0.128601 0.162541 0.056956
O O8 0.160928 0.000000 0.148053
O O9 0.109899 0.500000 0.474603
O O10 0.083948 0.646392 0.339729
O O11 0.128008 0.679463 0.534386
O O12 0.000000 0.613042 0.500000
O O13 0.933386 0.000000 0.659973
O O14 0.377253 0.500000 0.871000
O O15 0.467829 0.382543 0.773318
O O16 0.334889 0.360964 0.739557
O O17 0.384653 0.316003 0.930230
O O18 0.914407 0.325726 0.868952
O O19 0.000000 0.224517 0.000000
O O20 0.424286 0.500000 0.202703
O O21 0.750000 0.272598 0.395587
#
# Coordination Sequence:
#
# PCOD8212561 Si02
#       8
#     8   8   8   8   8   8   8   8
#     4   9  20  37  59  88 123 159 202 248 291 356
#     4  10  22  39  60  90 127 161 200 255 315 370
#     4  10  20  36  59  86 118 158 198 241 300 366
#     4   8  17  35  61  88 114 156 202 241 293 355
#     4  10  21  40  62  86 119 157 203 256 302 356
#     4  10  22  37  63  93 118 155 209 256 303 356
#     4   9  18  35  61  91 117 147 195 254 307 355
#     4  12  26  37  57  91 124 164 205 245 304 366
#
# _framework density 20.004805999999999
#
# number of rings (size 3 to 8) (size 9 to 14) (size 15 to 20)
#    0.000    2.250    1.250    1.500    7.000    4.000 
#    0.000    1.875    0.000    1.875    0.000    0.000 
#    0.000    0.000    0.000    0.000    0.000    0.000 
#
# Total GULP energy -793414.310609 kJ/mol
# GULP energy per Si atom -12397.098603 kJ/mol
# Density = 1.995927 g / cm^3
# Si number density = 20.004806 Si / 1000 Ang^3
#
#
#
# Elastic Constant Matrix: (Units=GPa)
#
#
# Indices 1 2 3 4 5 6 
#
# 1 89.5279 42.5520 45.9269 0.0000 0.0000 0.0000
# 2 42.5520 77.5107 43.1547 0.0000 0.0000 0.0000
# 3 45.9269 43.1547 96.6604 0.0000 0.0000 0.0000
# 4 0.0000 0.0000 0.0000 23.0328 0.0000 0.0000
# 5 0.0000 0.0000 0.0000 0.0000 20.9528 0.0000
# 6 0.0000 0.0000 0.0000 0.0000 0.0000 20.1384
#
#
#
# Elastic Compliance Matrix: (Units=1/GPa)
#
#
# Indices 1 2 3 4 5 6 
#
# 1 0.016846 -0.006377 -0.005157 0.000000 0.000000 0.000000
# 2 -0.006377 0.019583 -0.005713 0.000000 0.000000 0.000000
# 3 -0.005157 -0.005713 0.015347 0.000000 0.000000 0.000000
# 4 0.000000 0.000000 0.000000 0.043416 0.000000 0.000000
# 5 0.000000 0.000000 0.000000 0.000000 0.047726 0.000000
# 6 0.000000 0.000000 0.000000 0.000000 0.000000 0.049656
#
#
# Mechanical properties :
#
#
# Convention : Reuss Voigt Hill
#
# Bulk Modulus (GPa) = 57.86592 58.55178 58.20885
# Shear Modulus (GPa) = 21.47492 21.62916 21.55204
#
# Velocity S-wave (km/s) = 3.27997 3.29173 3.28585
# Velocity P-wave (km/s) = 6.58278 6.61662 6.59972
#
# Compressibility (1/GPa) = 0.01728133
#
# Stress axis : x y z
#
# Youngs Moduli (GPa) = 59.36050 51.06453 65.16129
#
# Poissons Ratio (x) = 0.32564 0.33605
# Poissons Ratio (y) = 0.37854 0.37227
# Poissons Ratio (z) = 0.30614 0.29174
#
# Static dielectric constant tensor:
#      x y z
#    x 3.490960 0.000000 0.000000 
#    y 0.000000 3.766150 0.000000 
#    z 0.000000 0.000000 3.883950 
# 
# 
# High freq. dielectric constant tensor:
#      x y z
#    x 1.749340 0.000000 0.000000 
#    y 0.000000 1.792650 0.000000 
#    z 0.000000 0.000000 1.774010 
# 
# From -- ./inp_files/17617.got.cif
#   From: 2010.03.12/outbox.cif.g09.slc.cpg/sg51_9_cif.got.tgz:17617.got - 2010.04.16 13:43:02.
