data_PCOD8212202
_publ_section_title
;
Structure prediction by ZEFSAII (Michael W. Deem and Ramdas Pophale) SiO2 
 PCOD8212202
Probable space group: P M M A
;
_chemical_formula_sum "Si O2"
_cell_formula_units_Z 48
_cell_length_a 16.116873
_cell_length_b 9.245924
_cell_length_c 15.892441
_cell_angle_alpha 90.000000
_cell_angle_beta 90.000000
_cell_angle_gamma 90.000000
_cell_volume 2368.218180
_symmetry_space_group_name_H-M "P M M A"
_symmetry_group_IT_number 51
_symmetry_cell_setting 'orthorhombic'
loop_
_space_group_symop_operation_xyz
x,y,z
1/2-x,-y,z
1/2+x,-y,-z
-x,y,-z
-x,-y,-z
1/2+x,y,-z
1/2-x,y,z
x,-y,z
loop_
_atom_site_type_symbol
_atom_site_label
_atom_site_fract_x
_atom_site_fract_y
_atom_site_fract_z
Si Si1 0.846339 0.831983 0.193996
Si Si2 0.983573 0.334892 0.277968
Si Si3 0.250000 0.156548 0.438984
Si Si4 0.250000 0.841996 0.242227
Si Si5 0.431951 0.171816 0.429778
Si Si6 0.619907 0.663173 0.849641
Si Si7 0.097726 0.162477 0.989435
O O1 0.750000 0.801168 0.208612
O O2 0.872868 0.779864 0.101023
O O3 0.895244 0.743627 0.265823
O O4 0.868782 0.000000 0.205139
O O5 0.970165 0.500000 0.307873
O O6 0.040185 0.252920 0.345639
O O7 0.026203 0.331129 0.185450
O O8 0.250000 0.136458 0.340262
O O9 0.339878 0.230860 0.460824
O O10 0.250000 0.000000 0.484418
O O11 0.330465 0.753479 0.218194
O O12 0.250000 0.000000 0.198336
O O13 0.500000 0.207320 0.500000
O O14 0.425780 0.000000 0.411243
O O15 0.653115 0.500000 0.854073
O O16 0.634524 0.730836 0.941107
O O17 0.132187 0.000000 0.003547
O O18 0.000000 0.164003 0.000000
#
# Coordination Sequence:
#
# PCOD8212202 Si02
#       7
#     8   8   4   4   8   8   8
#     4  10  22  40  60  84 116 157 210 258 297 351
#     4  11  23  39  61  86 120 158 196 244 303 369
#     4   9  18  35  61  93 120 151 194 243 303 358
#     4  11  21  35  59  83 114 153 194 247 297 356
#     4  10  21  40  66  93 123 157 200 252 301 358
#     4  11  23  36  53  84 120 155 197 246 303 362
#     4  10  20  35  57  82 111 153 202 253 301 349
#
# _framework density 20.268404
#
# number of rings (size 3 to 8) (size 9 to 14) (size 15 to 20)
#    0.000    1.667    3.333    1.250    1.167    3.000 
#    1.500    0.417    0.000    0.000    0.000    0.000 
#    0.000    0.000    0.000    0.000    0.000    0.000 
#
# Total GULP energy -594923.563876 kJ/mol
# GULP energy per Si atom -12394.240914 kJ/mol
# Density = 2.022227 g / cm^3
# Si number density = 20.268404 Si / 1000 Ang^3
#
#
#
# Elastic Constant Matrix: (Units=GPa)
#
#
# Indices 1 2 3 4 5 6 
#
# 1 142.1913 39.1774 40.3917 0.0000 0.0000 0.0000
# 2 39.1774 97.6145 30.3415 0.0000 0.0000 0.0000
# 3 40.3917 30.3415 59.6243 0.0000 0.0000 0.0000
# 4 0.0000 0.0000 0.0000 10.0106 0.0000 0.0000
# 5 0.0000 0.0000 0.0000 0.0000 36.1920 0.0000
# 6 0.0000 0.0000 0.0000 0.0000 0.0000 15.6263
#
#
#
# Elastic Compliance Matrix: (Units=1/GPa)
#
#
# Indices 1 2 3 4 5 6 
#
# 1 0.009041 -0.002049 -0.005082 0.000000 0.000000 0.000000
# 2 -0.002049 0.012634 -0.005041 0.000000 0.000000 0.000000
# 3 -0.005082 -0.005041 0.022780 0.000000 0.000000 0.000000
# 4 0.000000 0.000000 0.000000 0.099894 0.000000 0.000000
# 5 0.000000 0.000000 0.000000 0.000000 0.027630 0.000000
# 6 0.000000 0.000000 0.000000 0.000000 0.000000 0.063995
#
#
# Mechanical properties :
#
#
# Convention : Reuss Voigt Hill
#
# Bulk Modulus (GPa) = 49.72545 57.69458 53.71001
# Shear Modulus (GPa) = 18.72515 25.00041 21.86278
#
# Velocity S-wave (km/s) = 3.04280 3.51589 3.28786
# Velocity P-wave (km/s) = 6.07714 6.70888 6.40080
#
# Compressibility (1/GPa) = 0.02011043
#
# Stress axis : x y z
#
# Youngs Moduli (GPa) = 110.60796 79.15412 43.89881
#
# Poissons Ratio (x) = 0.16218 0.22309
# Poissons Ratio (y) = 0.22663 0.22129
# Poissons Ratio (z) = 0.56211 0.39901
#
# Static dielectric constant tensor:
#      x y z
#    x 4.763770 0.000000 0.000000 
#    y 0.000000 3.630060 0.000000 
#    z 0.000000 0.000000 3.451430 
# 
# 
# High freq. dielectric constant tensor:
#      x y z
#    x 1.802720 0.000000 0.000000 
#    y 0.000000 1.777890 0.000000 
#    z 0.000000 0.000000 1.772250 
# 
# From -- ./inp_files/29634.got.cif
#   From: 2010.03.12/outbox.cif.g09.slc.cpg/sg51_15_cif.got.tgz:29634.got - 2010.04.16 13:43:02.
