data_PCOD8212566
_publ_section_title
;
Structure prediction by ZEFSAII (Michael W. Deem and Ramdas Pophale) SiO2 
 PCOD8212566
Probable space group: P M M A
;
_chemical_formula_sum "Si O2"
_cell_formula_units_Z 52
_cell_length_a 13.687655
_cell_length_b 20.254281
_cell_length_c 9.075808
_cell_angle_alpha 90.000000
_cell_angle_beta 90.000000
_cell_angle_gamma 90.000000
_cell_volume 2516.119021
_symmetry_space_group_name_H-M "P M M A"
_symmetry_group_IT_number 51
_symmetry_cell_setting 'orthorhombic'
loop_
_space_group_symop_operation_xyz
x,y,z
1/2-x,-y,z
1/2+x,-y,-z
-x,y,-z
-x,-y,-z
1/2+x,y,-z
1/2-x,y,z
x,-y,z
loop_
_atom_site_type_symbol
_atom_site_label
_atom_site_fract_x
_atom_site_fract_y
_atom_site_fract_z
Si Si1 0.529931 0.647236 0.838385
Si Si2 0.367019 0.786870 0.191594
Si Si3 0.356449 0.319848 0.639005
Si Si4 0.000000 0.876233 0.000000
Si Si5 0.137130 0.074771 0.747900
Si Si6 0.397526 0.427885 0.419845
Si Si7 0.635553 0.184390 0.484077
O O1 0.592562 0.713747 0.833460
O O2 0.424873 0.652175 0.763240
O O3 0.591387 0.591291 0.752518
O O4 0.500000 0.623520 0.000000
O O5 0.250000 0.786546 0.174069
O O6 0.414811 0.831988 0.068086
O O7 0.401506 0.818839 0.347600
O O8 0.250000 0.306441 0.709491
O O9 0.338917 0.370293 0.502884
O O10 0.406496 0.251739 0.585389
O O11 0.059817 0.919610 0.881601
O O12 0.250000 0.091601 0.795402
O O13 0.102863 0.121535 0.612508
O O14 0.132349 0.000000 0.689267
O O15 0.500000 0.432089 0.500000
O O16 0.345704 0.500000 0.427872
O O17 0.750000 0.191420 0.488514
#
# Coordination Sequence:
#
# PCOD8212566 Si02
#       7
#     8   8   8   4   8   8   8
#     4  11  22  36  56  89 125 163 200 248 316 372
#     4  11  23  39  60  90 123 156 203 259 308 368
#     4  10  20  36  59  87 117 155 207 256 301 361
#     4  12  23  38  60  90 123 166 200 246 309 376
#     4  10  22  41  63  89 123 162 205 253 310 374
#     4   9  19  36  59  85 120 162 205 249 296 356
#     4   9  19  37  61  85 113 153 200 255 304 352
#
# _framework density 20.666747999999998
#
# number of rings (size 3 to 8) (size 9 to 14) (size 15 to 20)
#    0.000    1.846    2.308    1.615    0.000    3.077 
#    0.000    2.308    0.000    3.692    0.000    2.154 
#    0.000    0.000    0.000    0.000    0.000    0.000 
#
# Total GULP energy -644378.514128 kJ/mol
# GULP energy per Si atom -12391.894502 kJ/mol
# Density = 2.061971 g / cm^3
# Si number density = 20.666748 Si / 1000 Ang^3
#
#
#
# Elastic Constant Matrix: (Units=GPa)
#
#
# Indices 1 2 3 4 5 6 
#
# 1 88.6155 14.2763 19.7190 0.0000 0.0000 0.0000
# 2 14.2763 131.9238 38.0065 0.0000 0.0000 0.0000
# 3 19.7190 38.0065 117.4795 0.0000 0.0000 0.0000
# 4 0.0000 0.0000 0.0000 22.2614 0.0000 0.0000
# 5 0.0000 0.0000 0.0000 0.0000 20.5866 0.0000
# 6 0.0000 0.0000 0.0000 0.0000 0.0000 37.9618
#
#
#
# Elastic Compliance Matrix: (Units=1/GPa)
#
#
# Indices 1 2 3 4 5 6 
#
# 1 0.011795 -0.000779 -0.001728 0.000000 0.000000 0.000000
# 2 -0.000779 0.008411 -0.002590 0.000000 0.000000 0.000000
# 3 -0.001728 -0.002590 0.009640 0.000000 0.000000 0.000000
# 4 0.000000 0.000000 0.000000 0.044921 0.000000 0.000000
# 5 0.000000 0.000000 0.000000 0.000000 0.048575 0.000000
# 6 0.000000 0.000000 0.000000 0.000000 0.000000 0.026342
#
#
# Mechanical properties :
#
#
# Convention : Reuss Voigt Hill
#
# Bulk Modulus (GPa) = 50.88551 53.55804 52.22178
# Shear Modulus (GPa) = 30.04305 33.89642 31.96973
#
# Velocity S-wave (km/s) = 3.81687 4.05426 3.93735
# Velocity P-wave (km/s) = 6.64078 6.92007 6.78186
#
# Compressibility (1/GPa) = 0.01965196
#
# Stress axis : x y z
#
# Youngs Moduli (GPa) = 84.78437 118.89701 103.73285
#
# Poissons Ratio (x) = 0.09257 0.17923
# Poissons Ratio (y) = 0.06601 0.26870
# Poissons Ratio (z) = 0.14649 0.30798
#
# Static dielectric constant tensor:
#      x y z
#    x 3.746900 0.000000 0.000000 
#    y 0.000000 3.966600 0.000000 
#    z 0.000000 0.000000 3.841240 
# 
# 
# High freq. dielectric constant tensor:
#      x y z
#    x 1.820230 0.000000 0.000000 
#    y 0.000000 1.801280 0.000000 
#    z 0.000000 0.000000 1.799230 
# 
# From -- ./inp_files/8442.got.cif
#   From: 2010.03.12/outbox.cif.g09.slc.cpg/sg51_5_cif.got.tgz:8442.got - 2010.04.16 13:43:02.
