data_PCOD8212413
_publ_section_title
;
Structure prediction by ZEFSAII (Michael W. Deem and Ramdas Pophale) SiO2 
 PCOD8212413
Probable space group: P M M A
;
_chemical_formula_sum "Si O2"
_cell_formula_units_Z 48
_cell_length_a 9.042227
_cell_length_b 29.891826
_cell_length_c 9.546591
_cell_angle_alpha 90.000000
_cell_angle_beta 90.000000
_cell_angle_gamma 90.000000
_cell_volume 2580.335443
_symmetry_space_group_name_H-M "P M M A"
_symmetry_group_IT_number 51
_symmetry_cell_setting 'orthorhombic'
loop_
_space_group_symop_operation_xyz
x,y,z
1/2-x,-y,z
1/2+x,-y,-z
-x,y,-z
-x,-y,-z
1/2+x,y,-z
1/2-x,y,z
x,-y,z
loop_
_atom_site_type_symbol
_atom_site_label
_atom_site_fract_x
_atom_site_fract_y
_atom_site_fract_z
Si Si1 0.422159 0.550406 0.639921
Si Si2 0.423320 0.050639 0.357288
Si Si3 0.074662 0.372483 0.850438
Si Si4 0.078655 0.798083 0.358842
Si Si5 0.075608 0.694961 0.354629
Si Si6 0.575897 0.126864 0.851637
O O1 0.500000 0.568571 0.500000
O O2 0.250000 0.551850 0.608208
O O3 0.475392 0.500000 0.675980
O O4 0.464074 0.581843 0.769298
O O5 0.500000 0.066199 0.500000
O O6 0.250000 0.055132 0.382568
O O7 0.475984 0.082867 0.232615
O O8 0.469088 0.000000 0.317222
O O9 0.250000 0.364747 0.864272
O O10 0.001406 0.331025 0.771262
O O11 0.000000 0.376879 0.000000
O O12 0.250000 0.805933 0.386272
O O13 0.043318 0.746779 0.322606
O O14 0.023326 0.828800 0.231180
O O15 0.000000 0.813720 0.500000
O O16 0.250000 0.684391 0.362325
O O17 0.000000 0.680215 0.500000
O O18 0.750000 0.126991 0.874966
O O19 0.500000 0.126589 0.000000
#
# Coordination Sequence:
#
# PCOD8212413 Si02
#       6
#     8   8   8   8   8   8
#     4   9  19  36  57  80 105 135 173 215 258 306
#     4   9  18  33  53  76 101 130 167 211 255 301
#     4  11  23  37  54  78 109 143 177 215 262 312
#     4   9  19  35  55  78 102 132 171 214 256 302
#     4  10  20  36  57  80 106 136 174 217 261 309
#     4  10  21  35  50  73 105 137 170 208 253 304
#
# _framework density 18.602232000000001
#
# number of rings (size 3 to 8) (size 9 to 14) (size 15 to 20)
#    0.000    2.333    0.000    2.000    0.000    6.000 
#    0.000    1.667    0.000    0.000    0.000    0.000 
#    0.000    0.000    0.000    0.000    0.000    0.000 
#
# Total GULP energy -595315.772623 kJ/mol
# GULP energy per Si atom -12402.411930 kJ/mol
# Density = 1.855989 g / cm^3
# Si number density = 18.602232 Si / 1000 Ang^3
#
#
#
# Elastic Constant Matrix: (Units=GPa)
#
#
# Indices 1 2 3 4 5 6 
#
# 1 67.6438 52.8843 71.4060 0.0000 0.0000 0.0000
# 2 52.8843 114.1304 95.1803 0.0000 0.0000 0.0000
# 3 71.4060 95.1803 189.0332 0.0000 0.0000 0.0000
# 4 0.0000 0.0000 0.0000 21.5827 0.0000 0.0000
# 5 0.0000 0.0000 0.0000 0.0000 40.3174 0.0000
# 6 0.0000 0.0000 0.0000 0.0000 0.0000 23.6634
#
#
#
# Elastic Compliance Matrix: (Units=1/GPa)
#
#
# Indices 1 2 3 4 5 6 
#
# 1 0.027517 -0.007037 -0.006851 0.000000 0.000000 0.000000
# 2 -0.007037 0.016904 -0.005853 0.000000 0.000000 0.000000
# 3 -0.006851 -0.005853 0.010825 0.000000 0.000000 0.000000
# 4 0.000000 0.000000 0.000000 0.046334 0.000000 0.000000
# 5 0.000000 0.000000 0.000000 0.000000 0.024803 0.000000
# 6 0.000000 0.000000 0.000000 0.000000 0.000000 0.042259
#
#
# Mechanical properties :
#
#
# Convention : Reuss Voigt Hill
#
# Bulk Modulus (GPa) = 63.43711 89.97206 76.70458
# Shear Modulus (GPa) = 23.43246 27.20181 25.31713
#
# Velocity S-wave (km/s) = 3.55302 3.82814 3.69314
# Velocity P-wave (km/s) = 7.14198 8.24686 7.71423
#
# Compressibility (1/GPa) = 0.01576364
#
# Stress axis : x y z
#
# Youngs Moduli (GPa) = 36.34109 59.15811 92.37680
#
# Poissons Ratio (x) = 0.41628 0.63290
# Poissons Ratio (y) = 0.25573 0.54070
# Poissons Ratio (z) = 0.24898 0.34626
#
# Static dielectric constant tensor:
#      x y z
#    x 3.399910 0.000000 0.000000 
#    y 0.000000 3.761090 0.000000 
#    z 0.000000 0.000000 3.402240 
# 
# 
# High freq. dielectric constant tensor:
#      x y z
#    x 1.721610 0.000000 0.000000 
#    y 0.000000 1.736420 0.000000 
#    z 0.000000 0.000000 1.718040 
# 
# From -- ./inp_files/5999.got.cif
#   From: 2010.03.12/outbox.cif.g09.slc.cpg/sg51_3_cif.got.tgz:5999.got - 2010.04.16 13:43:02.
