data_PCOD8212406
_publ_section_title
;
Structure prediction by ZEFSAII (Michael W. Deem and Ramdas Pophale) SiO2 
 PCOD8212406
Probable space group: P M M A
;
_chemical_formula_sum "Si O2"
_cell_formula_units_Z 64
_cell_length_a 23.552545
_cell_length_b 9.422063
_cell_length_c 14.785559
_cell_angle_alpha 90.000000
_cell_angle_beta 90.000000
_cell_angle_gamma 90.000000
_cell_volume 3281.116076
_symmetry_space_group_name_H-M "P M M A"
_symmetry_group_IT_number 51
_symmetry_cell_setting 'orthorhombic'
loop_
_space_group_symop_operation_xyz
x,y,z
1/2-x,-y,z
1/2+x,-y,-z
-x,y,-z
-x,-y,-z
1/2+x,y,-z
1/2-x,y,z
x,-y,z
loop_
_atom_site_type_symbol
_atom_site_label
_atom_site_fract_x
_atom_site_fract_y
_atom_site_fract_z
Si Si1 0.003574 0.664773 0.211696
Si Si2 0.689659 0.837018 0.294904
Si Si3 0.131262 0.333729 0.173722
Si Si4 0.036143 0.658197 0.590459
Si Si5 0.184593 0.164887 0.011132
Si Si6 0.397584 0.832946 0.845770
Si Si7 0.684816 0.334435 0.635696
Si Si8 0.364798 0.838619 0.524779
O O1 0.993773 0.500000 0.190472
O O2 0.065566 0.713938 0.178032
O O3 0.000384 0.693747 0.319749
O O4 0.957600 0.752097 0.153228
O O5 0.750000 0.765563 0.267547
O O6 0.636690 0.770014 0.241197
O O7 0.686173 0.827412 0.403442
O O8 0.690912 0.000000 0.262887
O O9 0.136330 0.500000 0.154312
O O10 0.165585 0.252285 0.097691
O O11 0.161583 0.293132 0.266903
O O12 0.062920 0.500000 0.600131
O O13 0.082585 0.779073 0.581145
O O14 0.000000 0.664310 0.500000
O O15 0.250000 0.202566 0.985118
O O16 0.179456 0.000000 0.034951
O O17 0.141512 0.205825 0.931092
O O18 0.410667 0.000000 0.840140
O O19 0.750000 0.286934 0.628500
O O20 0.677103 0.500000 0.615664
O O21 0.647482 0.251825 0.563303
O O22 0.376849 0.000000 0.495479
#
# Coordination Sequence:
#
# PCOD8212406 Si02
#       8
#     8   8   8   8   8   8   8   8
#     4  10  21  37  58  85 117 152 195 243 288 340
#     4   9  17  31  52  78 110 148 185 222 272 335
#     4  10  22  41  63  85 113 154 197 239 293 350
#     4  10  20  36  57  78 109 155 201 243 285 337
#     4  10  22  40  63  91 118 148 190 240 294 348
#     4  10  20  37  60  84 116 154 192 233 283 346
#     4  10  21  38  59  82 112 153 199 242 288 348
#     4  11  21  33  53  84 117 149 188 238 291 344
#
# _framework density 19.505558000000001
#
# number of rings (size 3 to 8) (size 9 to 14) (size 15 to 20)
#    0.000    2.000    1.250    2.250    0.000    7.250 
#    0.000    3.750    0.000    1.875    0.000    0.000 
#    0.000    0.000    0.000    0.000    0.000    0.000 
#
# Total GULP energy -793431.615730 kJ/mol
# GULP energy per Si atom -12397.368996 kJ/mol
# Density = 1.946116 g / cm^3
# Si number density = 19.505558 Si / 1000 Ang^3
#
#
#
# Elastic Constant Matrix: (Units=GPa)
#
#
# Indices 1 2 3 4 5 6 
#
# 1 83.8623 32.3181 27.5943 0.0000 0.0000 0.0000
# 2 32.3181 48.4435 37.7312 0.0000 0.0000 0.0000
# 3 27.5943 37.7312 96.4171 0.0000 0.0000 0.0000
# 4 0.0000 0.0000 0.0000 25.2942 0.0000 0.0000
# 5 0.0000 0.0000 0.0000 0.0000 31.8445 0.0000
# 6 0.0000 0.0000 0.0000 0.0000 0.0000 28.8456
#
#
#
# Elastic Compliance Matrix: (Units=1/GPa)
#
#
# Indices 1 2 3 4 5 6 
#
# 1 0.016073 -0.010271 -0.000581 0.000000 0.000000 0.000000
# 2 -0.010271 0.036256 -0.011249 0.000000 0.000000 0.000000
# 3 -0.000581 -0.011249 0.014940 0.000000 0.000000 0.000000
# 4 0.000000 0.000000 0.000000 0.039535 0.000000 0.000000
# 5 0.000000 0.000000 0.000000 0.000000 0.031403 0.000000
# 6 0.000000 0.000000 0.000000 0.000000 0.000000 0.034667
#
#
# Mechanical properties :
#
#
# Convention : Reuss Voigt Hill
#
# Bulk Modulus (GPa) = 43.34897 47.11224 45.23061
# Shear Modulus (GPa) = 22.24561 25.93549 24.09055
#
# Velocity S-wave (km/s) = 3.38076 3.65039 3.51816
# Velocity P-wave (km/s) = 6.12466 6.47864 6.30414
#
# Compressibility (1/GPa) = 0.02306860
#
# Stress axis : x y z
#
# Youngs Moduli (GPa) = 62.21443 27.58191 66.93517
#
# Poissons Ratio (x) = 0.28328 0.03889
# Poissons Ratio (y) = 0.63898 0.75293
# Poissons Ratio (z) = 0.03614 0.31026
#
# Static dielectric constant tensor:
#      x y z
#    x 3.752300 0.000000 0.000000 
#    y 0.000000 3.406570 0.000000 
#    z 0.000000 0.000000 3.572890 
# 
# 
# High freq. dielectric constant tensor:
#      x y z
#    x 1.770200 0.000000 0.000000 
#    y 0.000000 1.739290 0.000000 
#    z 0.000000 0.000000 1.764850 
# 
# From -- ./inp_files/26246.got.cif
#   From: 2010.03.12/outbox.cif.g09.slc.cpg/sg51_14_cif.got.tgz:26246.got - 2010.04.16 13:43:02.
