data_PCOD8212529
_publ_section_title
;
Structure prediction by ZEFSAII (Michael W. Deem and Ramdas Pophale) SiO2 
 PCOD8212529
Probable space group: P M M A
;
_chemical_formula_sum "Si O2"
_cell_formula_units_Z 48
_cell_length_a 10.110137
_cell_length_b 8.864697
_cell_length_c 28.997311
_cell_angle_alpha 90.000000
_cell_angle_beta 90.000000
_cell_angle_gamma 90.000000
_cell_volume 2598.834736
_symmetry_space_group_name_H-M "P M M A"
_symmetry_group_IT_number 51
_symmetry_cell_setting 'orthorhombic'
loop_
_space_group_symop_operation_xyz
x,y,z
1/2-x,-y,z
1/2+x,-y,-z
-x,y,-z
-x,-y,-z
1/2+x,y,-z
1/2-x,y,z
x,-y,z
loop_
_atom_site_type_symbol
_atom_site_label
_atom_site_fract_x
_atom_site_fract_y
_atom_site_fract_z
Si Si1 0.750000 0.826586 0.941291
Si Si2 0.399793 0.821729 0.461372
Si Si3 0.595739 0.825788 0.190201
Si Si4 0.750000 0.172888 0.050559
Si Si5 0.006206 0.678777 0.899880
Si Si6 0.900585 0.323020 0.634611
Si Si7 0.901567 0.676180 0.285992
O O1 0.626024 0.739815 0.921738
O O2 0.750000 0.000000 0.924839
O O3 0.750000 0.817075 0.995999
O O4 0.500000 0.758329 0.500000
O O5 0.250000 0.770712 0.473689
O O6 0.444340 0.755597 0.412535
O O7 0.409912 0.000000 0.457978
O O8 0.750000 0.799974 0.180095
O O9 0.513889 0.731391 0.153014
O O10 0.557622 0.766734 0.240562
O O11 0.556200 0.000000 0.186621
O O12 0.622744 0.254998 0.069719
O O13 0.750000 0.000000 0.067809
O O14 0.010255 0.500000 0.901871
O O15 0.750000 0.278810 0.648190
O O16 0.914442 0.500000 0.627115
O O17 0.000823 0.266371 0.673961
O O18 0.750000 0.711004 0.300359
O O19 0.921446 0.500000 0.275893
#
# Coordination Sequence:
#
# PCOD8212529 Si02
#       7
#     4   8   8   4   8   8   8
#     4  11  25  43  61  85 121 155 189 235 286 339
#     4   9  18  32  49  70  99 135 173 214 259 310
#     4  10  20  36  59  83 110 145 187 230 276 333
#     4  11  23  41  65  89 115 155 195 231 282 341
#     4  12  24  39  62  89 118 152 191 237 286 338
#     4   9  18  33  51  73 103 138 172 213 267 323
#     4   9  18  33  53  76 103 134 174 222 269 319
#
# _framework density 18.469816000000002
#
# number of rings (size 3 to 8) (size 9 to 14) (size 15 to 20)
#    0.000    2.000    0.833    3.000    0.000    5.667 
#    1.500    0.000    0.000    0.000    0.000    0.000 
#    0.000    0.000    0.000    0.000    0.000    0.000 
#
# Total GULP energy -595348.719602 kJ/mol
# GULP energy per Si atom -12403.098325 kJ/mol
# Density = 1.842778 g / cm^3
# Si number density = 18.469816 Si / 1000 Ang^3
#
#
#
# Elastic Constant Matrix: (Units=GPa)
#
#
# Indices 1 2 3 4 5 6 
#
# 1 125.2214 58.3294 80.8572 0.0000 0.0000 0.0000
# 2 58.3294 108.3280 65.8447 0.0000 0.0000 0.0000
# 3 80.8572 65.8447 135.1952 0.0000 0.0000 0.0000
# 4 0.0000 0.0000 0.0000 39.2494 0.0000 0.0000
# 5 0.0000 0.0000 0.0000 0.0000 -16.5614 0.0000
# 6 0.0000 0.0000 0.0000 0.0000 0.0000 25.5078
#
#
#
# Elastic Compliance Matrix: (Units=1/GPa)
#
#
# Indices 1 2 3 4 5 6 
#
# 1 0.013859 -0.003444 -0.006612 0.000000 0.000000 0.000000
# 2 -0.003444 0.013969 -0.004744 0.000000 0.000000 0.000000
# 3 -0.006612 -0.004744 0.013661 0.000000 0.000000 0.000000
# 4 0.000000 0.000000 0.000000 0.025478 0.000000 0.000000
# 5 0.000000 0.000000 0.000000 0.000000 -0.060381 0.000000
# 6 0.000000 0.000000 0.000000 0.000000 0.000000 0.039204
#
#
# Mechanical properties :
#
#
# Convention : Reuss Voigt Hill
#
# Bulk Modulus (GPa) = 84.09575 86.53415 85.31495
# Shear Modulus (GPa) = 63.01045 20.55337 41.78191
#
# Velocity S-wave (km/s) = 5.84717 3.33950 4.76139
# Velocity P-wave (km/s) = 9.55072 7.86276 8.74755
#
# Compressibility (1/GPa) = 0.01189121
#
# Stress axis : x y z
#
# Youngs Moduli (GPa) = 72.15391 71.58775 73.19929
#
# Poissons Ratio (x) = 0.24653 0.48397
# Poissons Ratio (y) = 0.24848 0.34723
# Poissons Ratio (z) = 0.47706 0.33959
#
# Static dielectric constant tensor:
#      x y z
#    x 3.500330 0.000000 0.000000 
#    y 0.000000 3.456520 0.000000 
#    z 0.000000 0.000000 3.495170 
# 
# 
# High freq. dielectric constant tensor:
#      x y z
#    x 1.715260 0.000000 0.000000 
#    y 0.000000 1.720320 0.000000 
#    z 0.000000 0.000000 1.724400 
# 
# From -- ./inp_files/37161.got.cif
#   From: 2010.03.12/outbox.cif.g09.slc.cpg/sg51_19_cif.got.tgz:37161.got - 2010.04.16 13:43:02.
