data_PCOD8212006
_publ_section_title
;
Structure prediction by ZEFSAII (Michael W. Deem and Ramdas Pophale) SiO2 
 PCOD8212006
Probable space group: P M M A
;
_chemical_formula_sum "Si O2"
_cell_formula_units_Z 64
_cell_length_a 19.412327
_cell_length_b 8.927795
_cell_length_c 20.748700
_cell_angle_alpha 90.000000
_cell_angle_beta 90.000000
_cell_angle_gamma 90.000000
_cell_volume 3595.942173
_symmetry_space_group_name_H-M "P M M A"
_symmetry_group_IT_number 51
_symmetry_cell_setting 'orthorhombic'
loop_
_space_group_symop_operation_xyz
x,y,z
1/2-x,-y,z
1/2+x,-y,-z
-x,y,-z
-x,-y,-z
1/2+x,y,-z
1/2-x,y,z
x,-y,z
loop_
_atom_site_type_symbol
_atom_site_label
_atom_site_fract_x
_atom_site_fract_y
_atom_site_fract_z
Si Si1 0.958818 0.323925 0.564420
Si Si2 0.457152 0.676836 0.814038
Si Si3 0.827151 0.175540 0.983316
Si Si4 0.828351 0.174177 0.131257
Si Si5 0.034439 0.822059 0.683218
Si Si6 0.671827 0.174035 0.517433
Si Si7 0.458624 0.677016 0.061808
Si Si8 0.824217 0.177530 0.371554
O O1 0.964004 0.500000 0.576563
O O2 0.879327 0.274322 0.559804
O O3 0.000000 0.275814 0.500000
O O4 0.988637 0.237693 0.625380
O O5 0.458754 0.500000 0.806271
O O6 0.378650 0.729587 0.824097
O O7 0.489901 0.751675 0.750579
O O8 0.503295 0.732268 0.873895
O O9 0.750000 0.220143 0.961260
O O10 0.881169 0.260030 0.937922
O O11 0.838479 0.000000 0.975976
O O12 0.838267 0.224024 0.057321
O O13 0.750000 0.205296 0.153261
O O14 0.846276 0.000000 0.140224
O O15 0.113424 0.766644 0.672845
O O16 0.028079 0.000000 0.685955
O O17 0.750000 0.197697 0.542202
O O18 0.664657 0.233486 0.444409
O O19 0.650702 0.000000 0.522829
O O20 0.454639 0.500000 0.058902
O O21 0.500000 0.740401 0.000000
O O22 0.750000 0.237410 0.345388
O O23 0.822487 0.000000 0.373274
#
# Coordination Sequence:
#
# PCOD8212006 Si02
#       8
#     8   8   8   8   8   8   8   8
#     4  11  22  35  54  81 113 145 178 221 271 319
#     4  11  23  37  52  75 111 144 179 226 274 324
#     4   9  18  32  53  82 110 135 172 225 273 313
#     4   9  18  33  52  76 107 143 182 218 259 317
#     4  11  22  36  56  78 106 145 188 226 267 320
#     4   9  17  32  56  83 108 136 176 223 267 313
#     4  10  20  35  54  78 106 142 182 219 265 323
#     4   8  15  29  50  76 104 136 175 217 258 304
#
# _framework density 17.797839
#
# number of rings (size 3 to 8) (size 9 to 14) (size 15 to 20)
#    0.000    2.250    2.500    2.625    0.000    3.000 
#    0.000    2.500    0.000    1.875    0.000    3.500 
#    0.000    0.000    0.000    0.000    0.000    0.000 
#
# Total GULP energy -793562.718021 kJ/mol
# GULP energy per Si atom -12399.417469 kJ/mol
# Density = 1.775733 g / cm^3
# Si number density = 17.797839 Si / 1000 Ang^3
#
#
#
# Elastic Constant Matrix: (Units=GPa)
#
#
# Indices 1 2 3 4 5 6 
#
# 1 102.4966 34.6288 56.1034 0.0000 0.0000 0.0000
# 2 34.6288 51.7228 41.0118 0.0000 0.0000 0.0000
# 3 56.1034 41.0118 113.9088 0.0000 0.0000 0.0000
# 4 0.0000 0.0000 0.0000 26.3984 0.0000 0.0000
# 5 0.0000 0.0000 0.0000 0.0000 21.2815 0.0000
# 6 0.0000 0.0000 0.0000 0.0000 0.0000 25.5100
#
#
#
# Elastic Compliance Matrix: (Units=1/GPa)
#
#
# Indices 1 2 3 4 5 6 
#
# 1 0.014445 -0.005640 -0.005084 0.000000 0.000000 0.000000
# 2 -0.005640 0.029260 -0.007757 0.000000 0.000000 0.000000
# 3 -0.005084 -0.007757 0.014076 0.000000 0.000000 0.000000
# 4 0.000000 0.000000 0.000000 0.037881 0.000000 0.000000
# 5 0.000000 0.000000 0.000000 0.000000 0.046989 0.000000
# 6 0.000000 0.000000 0.000000 0.000000 0.000000 0.039200
#
#
# Mechanical properties :
#
#
# Convention : Reuss Voigt Hill
#
# Bulk Modulus (GPa) = 48.03235 59.06845 53.55040
# Shear Modulus (GPa) = 22.14814 23.73027 22.93920
#
# Velocity S-wave (km/s) = 3.53147 3.65543 3.59399
# Velocity P-wave (km/s) = 6.60869 7.14681 6.88301
#
# Compressibility (1/GPa) = 0.02081930
#
# Stress axis : x y z
#
# Youngs Moduli (GPa) = 69.23034 34.17579 71.04377
#
# Poissons Ratio (x) = 0.19274 0.36118
# Poissons Ratio (y) = 0.39044 0.55111
# Poissons Ratio (z) = 0.35196 0.26511
#
# Static dielectric constant tensor:
#      x y z
#    x 3.522460 0.000000 0.000000 
#    y 0.000000 3.074860 0.000000 
#    z 0.000000 0.000000 3.169900 
# 
# 
# High freq. dielectric constant tensor:
#      x y z
#    x 1.691540 0.000000 0.000000 
#    y 0.000000 1.676050 0.000000 
#    z 0.000000 0.000000 1.667660 
# 
# From -- ./inp_files/34116.got.cif
#   From: 2010.03.12/outbox.cif.g09.slc.cpg/sg51_18_cif.got.tgz:34116.got - 2010.04.16 13:43:02.
