data_PCOD8212316
_publ_section_title
;
Structure prediction by ZEFSAII (Michael W. Deem and Ramdas Pophale) SiO2 
 PCOD8212316
Probable space group: P M M A
;
_chemical_formula_sum "Si O2"
_cell_formula_units_Z 52
_cell_length_a 8.551105
_cell_length_b 23.021451
_cell_length_c 14.199625
_cell_angle_alpha 90.000000
_cell_angle_beta 90.000000
_cell_angle_gamma 90.000000
_cell_volume 2795.321773
_symmetry_space_group_name_H-M "P M M A"
_symmetry_group_IT_number 51
_symmetry_cell_setting 'orthorhombic'
loop_
_space_group_symop_operation_xyz
x,y,z
1/2-x,-y,z
1/2+x,-y,-z
-x,y,-z
-x,-y,-z
1/2+x,y,-z
1/2-x,y,z
x,-y,z
loop_
_atom_site_type_symbol
_atom_site_label
_atom_site_fract_x
_atom_site_fract_y
_atom_site_fract_z
Si Si1 0.066475 0.673950 0.214703
Si Si2 0.066371 0.564403 0.098978
Si Si3 0.433543 0.779973 0.896063
Si Si4 0.565433 0.282777 0.399918
Si Si5 0.430748 0.000000 0.896379
Si Si6 0.930269 0.109153 0.794796
Si Si7 0.932414 0.843207 0.596537
O O1 0.250000 0.686824 0.200726
O O2 0.018697 0.609735 0.179894
O O3 0.966388 0.719947 0.156088
O O4 0.019563 0.677007 0.323569
O O5 0.250000 0.561622 0.088126
O O6 0.999990 0.500000 0.124019
O O7 0.000000 0.586914 0.000000
O O8 0.250000 0.792580 0.898524
O O9 0.519317 0.830946 0.840977
O O10 0.500000 0.776240 0.000000
O O11 0.500000 0.303411 0.500000
O O12 0.750000 0.291503 0.394506
O O13 0.524766 0.215692 0.380647
O O14 0.474072 0.943551 0.837227
O O15 0.250000 0.000000 0.913266
O O16 0.500000 0.000000 0.000000
O O17 0.750000 0.098013 0.817643
O O18 0.959112 0.112060 0.682118
O O19 0.750000 0.827889 0.583969
O O20 0.000000 0.871203 0.500000
#
# Coordination Sequence:
#
# PCOD8212316 Si02
#       7
#     8   8   8   8   4   8   8
#     4  11  21  35  55  82 115 147 187 234 284 339
#     4   9  19  35  55  79 110 150 192 234 280 334
#     4  12  24  37  55  81 114 149 186 232 286 339
#     4  11  21  34  55  82 115 149 187 230 282 341
#     4  12  26  44  65  86 113 150 195 238 282 342
#     4  11  23  41  62  85 115 150 190 235 283 337
#     4  10  20  35  59  86 117 149 185 230 282 337
#
# _framework density 18.602509999999999
#
# number of rings (size 3 to 8) (size 9 to 14) (size 15 to 20)
#    0.000    1.231    1.538    6.692    0.000    4.308 
#    0.000    0.385    0.000    0.462    0.000    0.000 
#    0.000    0.000    0.000    0.000    0.000    0.000 
#
# Total GULP energy -644959.574378 kJ/mol
# GULP energy per Si atom -12403.068738 kJ/mol
# Density = 1.856017 g / cm^3
# Si number density = 18.602510 Si / 1000 Ang^3
#
#
#
# Elastic Constant Matrix: (Units=GPa)
#
#
# Indices 1 2 3 4 5 6 
#
# 1 55.1220 32.5281 38.0395 0.0000 0.0000 0.0000
# 2 32.5281 89.2377 57.5291 0.0000 0.0000 0.0000
# 3 38.0395 57.5291 143.2219 0.0000 0.0000 0.0000
# 4 0.0000 0.0000 0.0000 26.0786 0.0000 0.0000
# 5 0.0000 0.0000 0.0000 0.0000 31.0782 0.0000
# 6 0.0000 0.0000 0.0000 0.0000 0.0000 35.2674
#
#
#
# Elastic Compliance Matrix: (Units=1/GPa)
#
#
# Indices 1 2 3 4 5 6 
#
# 1 0.024679 -0.006437 -0.003969 0.000000 0.000000 0.000000
# 2 -0.006437 0.016801 -0.005039 0.000000 0.000000 0.000000
# 3 -0.003969 -0.005039 0.010060 0.000000 0.000000 0.000000
# 4 0.000000 0.000000 0.000000 0.038346 0.000000 0.000000
# 5 0.000000 0.000000 0.000000 0.000000 0.032177 0.000000
# 6 0.000000 0.000000 0.000000 0.000000 0.000000 0.028355
#
#
# Mechanical properties :
#
#
# Convention : Reuss Voigt Hill
#
# Bulk Modulus (GPa) = 48.42538 60.41945 54.42242
# Shear Modulus (GPa) = 26.56871 29.11716 27.84293
#
# Velocity S-wave (km/s) = 3.78330 3.96059 3.87296
# Velocity P-wave (km/s) = 6.72106 7.31196 7.02272
#
# Compressibility (1/GPa) = 0.02065033
#
# Stress axis : x y z
#
# Youngs Moduli (GPa) = 40.51992 59.52093 99.39996
#
# Poissons Ratio (x) = 0.38314 0.39453
# Poissons Ratio (y) = 0.26083 0.50086
# Poissons Ratio (z) = 0.16083 0.29992
#
# Static dielectric constant tensor:
#      x y z
#    x 3.536720 0.000000 0.000000 
#    y 0.000000 3.100920 0.000000 
#    z 0.000000 0.000000 3.724630 
# 
# 
# High freq. dielectric constant tensor:
#      x y z
#    x 1.738180 0.000000 0.000000 
#    y 0.000000 1.701390 0.000000 
#    z 0.000000 0.000000 1.734700 
# 
# From -- ./inp_files/21626.got.cif
#   From: 2010.03.12/outbox.cif.g09.slc.cpg/sg51_11_cif.got.tgz:21626.got - 2010.04.16 13:43:02.
