data_PCOD8212421
_publ_section_title
;
Structure prediction by ZEFSAII (Michael W. Deem and Ramdas Pophale) SiO2 
 PCOD8212421
Probable space group: P M M A
;
_chemical_formula_sum "Si O2"
_cell_formula_units_Z 40
_cell_length_a 8.901047
_cell_length_b 25.484561
_cell_length_c 9.504214
_cell_angle_alpha 90.000000
_cell_angle_beta 90.000000
_cell_angle_gamma 90.000000
_cell_volume 2155.929015
_symmetry_space_group_name_H-M "P M M A"
_symmetry_group_IT_number 51
_symmetry_cell_setting 'orthorhombic'
loop_
_space_group_symop_operation_xyz
x,y,z
1/2-x,-y,z
1/2+x,-y,-z
-x,y,-z
-x,-y,-z
1/2+x,y,-z
1/2-x,y,z
x,-y,z
loop_
_atom_site_type_symbol
_atom_site_label
_atom_site_fract_x
_atom_site_fract_y
_atom_site_fract_z
Si Si1 0.072332 0.290218 0.147609
Si Si2 0.925152 0.410580 0.856502
Si Si3 0.575376 0.000000 0.148312
Si Si4 0.572762 0.500000 0.650312
Si Si5 0.570905 0.792216 0.347619
Si Si6 0.573468 0.113333 0.151789
O O1 0.250000 0.279597 0.142318
O O2 0.033093 0.350695 0.179078
O O3 0.995590 0.259048 0.273784
O O4 0.000000 0.272117 0.000000
O O5 0.750000 0.417583 0.879346
O O6 0.982793 0.447885 0.731558
O O7 0.000000 0.429507 0.000000
O O8 0.530773 0.944232 0.220622
O O9 0.750000 0.000000 0.120207
O O10 0.500000 0.000000 0.000000
O O11 0.750000 0.500000 0.632388
O O12 0.500000 0.500000 0.500000
O O13 0.500000 0.797474 0.500000
O O14 0.750000 0.787795 0.358174
O O15 0.516693 0.842993 0.260087
O O16 0.750000 0.118575 0.128406
O O17 0.500000 0.122252 0.000000
#
# Coordination Sequence:
#
# PCOD8212421 Si02
#       6
#     8   8   4   4   8   8
#     4  10  20  36  57  81 106 135 172 215 259 308
#     4   9  19  35  56  80 105 133 170 212 255 302
#     4   8  14  28  49  74 100 126 160 206 253 300
#     4  10  21  36  52  76 108 140 173 210 252 302
#     4  11  23  37  52  74 104 140 176 214 260 310
#     4   9  18  32  53  77 101 130 167 209 255 304
#
# _framework density 18.553488000000002
#
# number of rings (size 3 to 8) (size 9 to 14) (size 15 to 20)
#    0.000    2.400    0.000    2.100    0.000    5.600 
#    0.000    2.500    0.000    0.000    0.000    0.000 
#    0.000    0.000    0.000    0.000    0.000    0.000 
#
# Total GULP energy -495822.232836 kJ/mol
# GULP energy per Si atom -12395.555821 kJ/mol
# Density = 1.851126 g / cm^3
# Si number density = 18.553488 Si / 1000 Ang^3
#
#
#
# Elastic Constant Matrix: (Units=GPa)
#
#
# Indices 1 2 3 4 5 6 
#
# 1 52.0061 44.5617 47.7224 0.0000 0.0000 0.0000
# 2 44.5617 137.8038 91.8452 0.0000 0.0000 0.0000
# 3 47.7224 91.8452 152.7257 0.0000 0.0000 0.0000
# 4 0.0000 0.0000 0.0000 10.8962 0.0000 0.0000
# 5 0.0000 0.0000 0.0000 0.0000 34.5408 0.0000
# 6 0.0000 0.0000 0.0000 0.0000 0.0000 24.4077
#
#
#
# Elastic Compliance Matrix: (Units=1/GPa)
#
#
# Indices 1 2 3 4 5 6 
#
# 1 0.029371 -0.005643 -0.005784 0.000000 0.000000 0.000000
# 2 -0.005643 0.013195 -0.006172 0.000000 0.000000 0.000000
# 3 -0.005784 -0.006172 0.012067 0.000000 0.000000 0.000000
# 4 0.000000 0.000000 0.000000 0.091775 0.000000 0.000000
# 5 0.000000 0.000000 0.000000 0.000000 0.028951 0.000000
# 6 0.000000 0.000000 0.000000 0.000000 0.000000 0.040971
#
#
# Mechanical properties :
#
#
# Convention : Reuss Voigt Hill
#
# Bulk Modulus (GPa) = 51.45304 78.97713 65.21508
# Shear Modulus (GPa) = 19.37937 24.52936 21.95437
#
# Velocity S-wave (km/s) = 3.23540 3.64000 3.44365
# Velocity P-wave (km/s) = 6.46139 7.76697 7.14407
#
# Compressibility (1/GPa) = 0.01943520
#
# Stress axis : x y z
#
# Youngs Moduli (GPa) = 34.04685 75.78706 82.87232
#
# Poissons Ratio (x) = 0.42763 0.47937
# Poissons Ratio (y) = 0.19211 0.51148
# Poissons Ratio (z) = 0.19694 0.46775
#
# Static dielectric constant tensor:
#      x y z
#    x 3.388690 0.000000 0.000000 
#    y 0.000000 4.079160 0.000000 
#    z 0.000000 0.000000 3.455490 
# 
# 
# High freq. dielectric constant tensor:
#      x y z
#    x 1.721050 0.000000 0.000000 
#    y 0.000000 1.743290 0.000000 
#    z 0.000000 0.000000 1.699530 
# 
# From -- ./inp_files/5563.got.cif
#   From: 2010.03.12/outbox.cif.g09.slc.cpg/sg51_3_cif.got.tgz:5563.got - 2010.04.16 13:43:02.
