data_PCOD8212908
_publ_section_title
;
Structure prediction by ZEFSAII (Michael W. Deem and Ramdas Pophale) SiO2 
 PCOD8212908
Probable space group: P M M A
;
_chemical_formula_sum "Si O2"
_cell_formula_units_Z 48
_cell_length_a 27.814869
_cell_length_b 8.935472
_cell_length_c 10.023437
_cell_angle_alpha 90.000000
_cell_angle_beta 90.000000
_cell_angle_gamma 90.000000
_cell_volume 2491.214839
_symmetry_space_group_name_H-M "P M M A"
_symmetry_group_IT_number 51
_symmetry_cell_setting 'orthorhombic'
loop_
_space_group_symop_operation_xyz
x,y,z
1/2-x,-y,z
1/2+x,-y,-z
-x,y,-z
-x,-y,-z
1/2+x,y,-z
1/2-x,y,z
x,-y,z
loop_
_atom_site_type_symbol
_atom_site_label
_atom_site_fract_x
_atom_site_fract_y
_atom_site_fract_z
Si Si1 0.250000 0.671419 0.099214
Si Si2 0.342814 0.323857 0.499760
Si Si3 0.145845 0.327015 0.001998
Si Si4 0.390444 0.823994 0.742911
Si Si5 0.087696 0.673710 0.263959
Si Si6 0.250000 0.176522 0.379131
Si Si7 0.504522 0.176063 0.349750
O O1 0.250000 0.500000 0.151979
O O2 0.296981 0.702227 0.009786
O O3 0.250000 0.779383 0.224919
O O4 0.332925 0.500000 0.500536
O O5 0.355369 0.267463 0.646684
O O6 0.385964 0.280526 0.400529
O O7 0.295729 0.240499 0.453406
O O8 0.135267 0.500000 0.967040
O O9 0.121927 0.280642 0.141910
O O10 0.122767 0.219444 0.892803
O O11 0.445089 0.775146 0.714241
O O12 0.383152 0.000000 0.720113
O O13 0.075868 0.500000 0.260171
O O14 0.037252 0.759283 0.255664
O O15 0.250000 0.000000 0.390762
O O16 0.500000 0.241389 0.500000
O O17 0.498378 0.000000 0.352552
#
# Coordination Sequence:
#
# PCOD8212908 Si02
#       7
#     4   8   8   8   8   4   8
#     4  10  20  41  66  87 120 162 206 246 298 365
#     4  11  22  40  64  90 121 159 202 251 302 356
#     4  10  22  41  63  89 122 162 205 253 307 369
#     4  11  24  41  60  89 126 163 203 254 311 368
#     4  10  21  37  63  92 117 154 206 254 298 359
#     4  12  24  37  62  97 126 156 200 254 304 359
#     4  10  21  38  60  86 122 163 202 250 312 370
#
# _framework density 19.267707999999999
#
# number of rings (size 3 to 8) (size 9 to 14) (size 15 to 20)
#    0.000    1.500    3.333    1.750    0.000    5.000 
#    0.000    5.833    0.000    0.000    0.000    0.000 
#    0.000    0.000    0.000    0.000    0.000    0.000 
#
# Total GULP energy -595463.095199 kJ/mol
# GULP energy per Si atom -12405.481150 kJ/mol
# Density = 1.922385 g / cm^3
# Si number density = 19.267708 Si / 1000 Ang^3
#
#
#
# Elastic Constant Matrix: (Units=GPa)
#
#
# Indices 1 2 3 4 5 6 
#
# 1 132.9900 52.3212 34.4652 0.0000 0.0000 0.0000
# 2 52.3212 74.5715 29.3776 0.0000 0.0000 0.0000
# 3 34.4652 29.3776 81.3470 0.0000 0.0000 0.0000
# 4 0.0000 0.0000 0.0000 34.7163 0.0000 0.0000
# 5 0.0000 0.0000 0.0000 0.0000 36.2665 0.0000
# 6 0.0000 0.0000 0.0000 0.0000 0.0000 32.4305
#
#
#
# Elastic Compliance Matrix: (Units=1/GPa)
#
#
# Indices 1 2 3 4 5 6 
#
# 1 0.010692 -0.006665 -0.002123 0.000000 0.000000 0.000000
# 2 -0.006665 0.019789 -0.004323 0.000000 0.000000 0.000000
# 3 -0.002123 -0.004323 0.014754 0.000000 0.000000 0.000000
# 4 0.000000 0.000000 0.000000 0.028805 0.000000 0.000000
# 5 0.000000 0.000000 0.000000 0.000000 0.027574 0.000000
# 6 0.000000 0.000000 0.000000 0.000000 0.000000 0.030835
#
#
# Mechanical properties :
#
#
# Convention : Reuss Voigt Hill
#
# Bulk Modulus (GPa) = 52.59570 57.91519 55.25545
# Shear Modulus (GPa) = 30.30155 32.19895 31.25025
#
# Velocity S-wave (km/s) = 3.96998 4.09239 4.03165
# Velocity P-wave (km/s) = 6.95492 7.24249 7.10016
#
# Compressibility (1/GPa) = 0.01901296
#
# Stress axis : x y z
#
# Youngs Moduli (GPa) = 93.52964 50.53188 67.78040
#
# Poissons Ratio (x) = 0.33681 0.14388
# Poissons Ratio (y) = 0.62341 0.29300
# Poissons Ratio (z) = 0.19854 0.21844
#
# Static dielectric constant tensor:
#      x y z
#    x 3.588160 0.000000 0.000000 
#    y 0.000000 3.430880 0.000000 
#    z 0.000000 0.000000 3.449790 
# 
# 
# High freq. dielectric constant tensor:
#      x y z
#    x 1.763900 0.000000 0.000000 
#    y 0.000000 1.747040 0.000000 
#    z 0.000000 0.000000 1.746050 
# 
# From -- ./inp_files/12878.got.cif
#   From: 2010.03.12/outbox.cif.g09.slc.cpg/sg51_7_cif.got.tgz:12878.got - 2010.04.16 13:43:02.
