data_PCOD8212133
_publ_section_title
;
Structure prediction by ZEFSAII (Michael W. Deem and Ramdas Pophale) SiO2 
 PCOD8212133
Probable space group: P M M A
;
_chemical_formula_sum "Si O2"
_cell_formula_units_Z 48
_cell_length_a 15.719033
_cell_length_b 18.052153
_cell_length_c 9.017896
_cell_angle_alpha 90.000000
_cell_angle_beta 90.000000
_cell_angle_gamma 90.000000
_cell_volume 2558.939710
_symmetry_space_group_name_H-M "P M M A"
_symmetry_group_IT_number 51
_symmetry_cell_setting 'orthorhombic'
loop_
_space_group_symop_operation_xyz
x,y,z
1/2-x,-y,z
1/2+x,-y,-z
-x,y,-z
-x,-y,-z
1/2+x,y,-z
1/2-x,y,z
x,-y,z
loop_
_atom_site_type_symbol
_atom_site_label
_atom_site_fract_x
_atom_site_fract_y
_atom_site_fract_z
Si Si1 0.750000 0.411958 0.080551
Si Si2 0.584882 0.821927 0.905768
Si Si3 0.843095 0.083067 0.142103
Si Si4 0.502926 0.086243 0.668768
Si Si5 0.417428 0.587826 0.414309
Si Si6 0.250000 0.588103 0.579980
Si Si7 0.587864 0.348251 0.911363
O O1 0.750000 0.500000 0.070138
O O2 0.750000 0.383841 0.250428
O O3 0.665018 0.382593 0.003440
O O4 0.574029 0.863932 0.749444
O O5 0.609155 0.737120 0.879203
O O6 0.500000 0.830861 0.000000
O O7 0.657306 0.862499 0.000808
O O8 0.750000 0.087757 0.216090
O O9 0.910192 0.105595 0.267173
O O10 0.863046 0.000000 0.084569
O O11 0.500000 0.111220 0.500000
O O12 0.526815 0.000000 0.686998
O O13 0.500000 0.619548 0.500000
O O14 0.417014 0.500000 0.421281
O O15 0.333193 0.619328 0.495445
O O16 0.420588 0.611023 0.244248
O O17 0.250000 0.500000 0.576908
O O18 0.500000 0.358811 0.000000
#
# Coordination Sequence:
#
# PCOD8212133 Si02
#       7
#     4   8   8   8   8   4   8
#     4  11  23  39  61  83 108 143 188 241 287 336
#     4   9  19  34  52  75 107 143 179 219 266 326
#     4   9  17  31  54  79 104 140 182 224 267 317
#     4   9  17  32  55  81 110 145 185 226 269 321
#     4  10  20  35  56  80 109 143 180 224 274 335
#     4   9  19  37  57  79 105 137 178 223 278 336
#     4  11  23  37  57  85 114 147 186 236 284 336
#
# _framework density 18.757769
#
# number of rings (size 3 to 8) (size 9 to 14) (size 15 to 20)
#    0.000    2.333    0.000    2.500    1.167    6.000 
#    0.000    2.500    0.000    3.000    0.000    0.000 
#    0.000    0.000    0.000    0.000    0.000    0.000 
#
# Total GULP energy -595155.627152 kJ/mol
# GULP energy per Si atom -12399.075566 kJ/mol
# Density = 1.871508 g / cm^3
# Si number density = 18.757769 Si / 1000 Ang^3
#
#
#
# Elastic Constant Matrix: (Units=GPa)
#
#
# Indices 1 2 3 4 5 6 
#
# 1 130.1173 36.6457 68.0103 0.0000 0.0000 0.0000
# 2 36.6457 56.7105 32.6240 0.0000 0.0000 0.0000
# 3 68.0103 32.6240 146.0212 0.0000 0.0000 0.0000
# 4 0.0000 0.0000 0.0000 -3.5204 0.0000 0.0000
# 5 0.0000 0.0000 0.0000 0.0000 31.2242 0.0000
# 6 0.0000 0.0000 0.0000 0.0000 0.0000 18.1046
#
#
#
# Elastic Compliance Matrix: (Units=1/GPa)
#
#
# Indices 1 2 3 4 5 6 
#
# 1 0.011219 -0.004870 -0.004138 0.000000 0.000000 0.000000
# 2 -0.004870 0.022348 -0.002725 0.000000 0.000000 0.000000
# 3 -0.004138 -0.002725 0.009384 0.000000 0.000000 0.000000
# 4 0.000000 0.000000 0.000000 -0.284059 0.000000 0.000000
# 5 0.000000 0.000000 0.000000 0.000000 0.032026 0.000000
# 6 0.000000 0.000000 0.000000 0.000000 0.000000 0.055235
#
#
# Mechanical properties :
#
#
# Convention : Reuss Voigt Hill
#
# Bulk Modulus (GPa) = 51.31573 67.48990 59.40282
# Shear Modulus (GPa) = -40.35958 22.19960 -9.07999
#
# Velocity S-wave (km/s) = -4.64359 3.44392 -2.20254
# Velocity P-wave (km/s) = 1.15503 7.20222 5.02682
#
# Compressibility (1/GPa) = 0.01948720
#
# Stress axis : x y z
#
# Youngs Moduli (GPa) = 89.13060 44.74742 106.56211
#
# Poissons Ratio (x) = 0.21791 0.44091
# Poissons Ratio (y) = 0.43404 0.29036
# Poissons Ratio (z) = 0.36878 0.12193
#
# Static dielectric constant tensor:
#      x y z
#    x 3.588780 0.000000 0.000000 
#    y 0.000000 3.415530 0.000000 
#    z 0.000000 0.000000 3.460760 
# 
# 
# High freq. dielectric constant tensor:
#      x y z
#    x 1.731160 0.000000 0.000000 
#    y 0.000000 1.717530 0.000000 
#    z 0.000000 0.000000 1.729650 
# 
# From -- ./inp_files/8320.got.cif
#   From: 2010.03.12/outbox.cif.g09.slc.cpg/sg51_5_cif.got.tgz:8320.got - 2010.04.16 13:43:02.
