data_PCOD8212629
_publ_section_title
;
Structure prediction by ZEFSAII (Michael W. Deem and Ramdas Pophale) SiO2 
 PCOD8212629
Probable space group: P M M A
;
_chemical_formula_sum "Si O2"
_cell_formula_units_Z 48
_cell_length_a 14.498351
_cell_length_b 8.978520
_cell_length_c 19.525689
_cell_angle_alpha 90.000000
_cell_angle_beta 90.000000
_cell_angle_gamma 90.000000
_cell_volume 2541.731854
_symmetry_space_group_name_H-M "P M M A"
_symmetry_group_IT_number 51
_symmetry_cell_setting 'orthorhombic'
loop_
_space_group_symop_operation_xyz
x,y,z
1/2-x,-y,z
1/2+x,-y,-z
-x,y,-z
-x,-y,-z
1/2+x,y,-z
1/2-x,y,z
x,-y,z
loop_
_atom_site_type_symbol
_atom_site_label
_atom_site_fract_x
_atom_site_fract_y
_atom_site_fract_z
Si Si1 0.750000 0.824372 0.125837
Si Si2 0.007639 0.324493 0.671419
Si Si3 0.144091 0.672069 0.551021
Si Si4 0.441817 0.176484 0.813288
Si Si5 0.250000 0.330228 0.017463
Si Si6 0.642512 0.172829 0.587822
Si Si7 0.551314 0.327874 0.930458
O O1 0.840775 0.765137 0.164488
O O2 0.750000 0.772913 0.048161
O O3 0.750000 0.000000 0.124631
O O4 0.999769 0.500000 0.681321
O O5 0.084884 0.279352 0.616206
O O6 0.034931 0.251063 0.742065
O O7 0.909541 0.260879 0.647539
O O8 0.250000 0.705599 0.569431
O O9 0.128273 0.500000 0.532090
O O10 0.110806 0.767244 0.486171
O O11 0.516341 0.225270 0.869310
O O12 0.445127 0.000000 0.805334
O O13 0.250000 0.500000 0.991074
O O14 0.339686 0.297856 0.063224
O O15 0.750000 0.203727 0.599216
O O16 0.617642 0.000000 0.592214
O O17 0.529889 0.500000 0.913612
O O18 0.500000 0.279869 0.000000
#
# Coordination Sequence:
#
# PCOD8212629 Si02
#       7
#     4   8   8   8   4   8   8
#     4  10  22  38  58  86 118 151 186 229 288 344
#     4  11  23  38  59  85 115 154 194 236 286 339
#     4   9  19  36  58  86 117 149 189 235 283 339
#     4  11  24  40  58  84 119 155 190 234 286 344
#     4  10  20  36  62  90 114 145 188 239 286 336
#     4  10  21  38  60  85 114 150 192 238 288 341
#     4  10  20  37  61  88 116 148 191 237 283 339
#
# _framework density 18.884761999999998
#
# number of rings (size 3 to 8) (size 9 to 14) (size 15 to 20)
#    0.000    1.833    1.667    2.000    1.167    6.000 
#    1.500    0.000    0.000    0.000    0.000    0.000 
#    0.000    0.000    0.000    0.000    0.000    0.000 
#
# Total GULP energy -595451.016773 kJ/mol
# GULP energy per Si atom -12405.229516 kJ/mol
# Density = 1.884178 g / cm^3
# Si number density = 18.884762 Si / 1000 Ang^3
#
#
#
# Elastic Constant Matrix: (Units=GPa)
#
#
# Indices 1 2 3 4 5 6 
#
# 1 120.8853 43.7961 67.3738 0.0000 0.0000 0.0000
# 2 43.7961 64.2844 50.0738 0.0000 0.0000 0.0000
# 3 67.3738 50.0738 126.3091 0.0000 0.0000 0.0000
# 4 0.0000 0.0000 0.0000 157.5783 0.0000 0.0000
# 5 0.0000 0.0000 0.0000 0.0000 14.3899 0.0000
# 6 0.0000 0.0000 0.0000 0.0000 0.0000 26.2415
#
#
#
# Elastic Compliance Matrix: (Units=1/GPa)
#
#
# Indices 1 2 3 4 5 6 
#
# 1 0.012759 -0.004906 -0.004861 0.000000 0.000000 0.000000
# 2 -0.004906 0.024392 -0.007053 0.000000 0.000000 0.000000
# 3 -0.004861 -0.007053 0.013306 0.000000 0.000000 0.000000
# 4 0.000000 0.000000 0.000000 0.006346 0.000000 0.000000
# 5 0.000000 0.000000 0.000000 0.000000 0.069493 0.000000
# 6 0.000000 0.000000 0.000000 0.000000 0.000000 0.038108
#
#
# Mechanical properties :
#
#
# Convention : Reuss Voigt Hill
#
# Bulk Modulus (GPa) = 59.46290 70.44068 64.95179
# Shear Modulus (GPa) = 24.55199 49.65760 37.10480
#
# Velocity S-wave (km/s) = 3.60960 5.13343 4.43742
# Velocity P-wave (km/s) = 6.99484 8.51572 7.79247
#
# Compressibility (1/GPa) = 0.01681721
#
# Stress axis : x y z
#
# Youngs Moduli (GPa) = 78.37730 40.99646 75.15510
#
# Poissons Ratio (x) = 0.20114 0.36530
# Poissons Ratio (y) = 0.38454 0.53007
# Poissons Ratio (z) = 0.38096 0.28915
#
# Static dielectric constant tensor:
#      x y z
#    x 3.827310 0.000000 0.000000 
#    y 0.000000 3.467110 0.000000 
#    z 0.000000 0.000000 3.358010 
# 
# 
# High freq. dielectric constant tensor:
#      x y z
#    x 1.748420 0.000000 0.000000 
#    y 0.000000 1.736110 0.000000 
#    z 0.000000 0.000000 1.728120 
# 
# From -- ./inp_files/29564.got.cif
#   From: 2010.03.12/outbox.cif.g09.slc.cpg/sg51_15_cif.got.tgz:29564.got - 2010.04.16 13:43:02.
