data_PCOD8212775
_publ_section_title
;
Structure prediction by ZEFSAII (Michael W. Deem and Ramdas Pophale) SiO2 
 PCOD8212775
Probable space group: P M M A
;
_chemical_formula_sum "Si O2"
_cell_formula_units_Z 40
_cell_length_a 7.812070
_cell_length_b 8.499303
_cell_length_c 29.337261
_cell_angle_alpha 90.000000
_cell_angle_beta 90.000000
_cell_angle_gamma 90.000000
_cell_volume 1947.910519
_symmetry_space_group_name_H-M "P M M A"
_symmetry_group_IT_number 51
_symmetry_cell_setting 'orthorhombic'
loop_
_space_group_symop_operation_xyz
x,y,z
1/2-x,-y,z
1/2+x,-y,-z
-x,y,-z
-x,-y,-z
1/2+x,y,-z
1/2-x,y,z
x,-y,z
loop_
_atom_site_type_symbol
_atom_site_label
_atom_site_fract_x
_atom_site_fract_y
_atom_site_fract_z
Si Si1 0.056573 0.686492 0.450582
Si Si2 0.442270 0.184707 0.237489
Si Si3 0.250000 0.817506 0.607019
Si Si4 0.250000 0.682558 0.705373
Si Si5 0.444982 0.180347 0.858008
Si Si6 0.050451 0.823862 0.047456
O O1 0.250000 0.745852 0.439586
O O2 0.051123 0.500000 0.450629
O O3 0.000000 0.751359 0.500000
O O4 0.923887 0.745856 0.413133
O O5 0.250000 0.214329 0.256180
O O6 0.577497 0.280842 0.267014
O O7 0.448664 0.246773 0.184982
O O8 0.490609 0.000000 0.239228
O O9 0.250000 0.788118 0.660565
O O10 0.250000 0.000000 0.596301
O O11 0.250000 0.500000 0.691954
O O12 0.250000 0.200559 0.843615
O O13 0.480119 0.264923 0.906954
O O14 0.499604 0.000000 0.865328
O O15 0.250000 0.830063 0.052714
O O16 0.969584 0.000000 0.045022
O O17 0.000000 0.735547 0.000000
#
# Coordination Sequence:
#
# PCOD8212775 Si02
#       6
#     8   8   4   4   8   8
#     4  10  20  39  67  96 130 173 217 256 300 358
#     4  10  20  37  62  88 115 150 194 247 306 367
#     4  12  26  42  64  94 132 168 208 260 311 362
#     4  12  26  44  64  86 120 160 204 254 309 366
#     4   9  15  25  44  69  99 138 182 228 285 353
#     4   9  15  21  30  52  91 138 181 219 271 342
#
# _framework density 20.534822999999999
#
# number of rings (size 3 to 8) (size 9 to 14) (size 15 to 20)
#    0.000    2.000    2.000    3.000    0.000    6.800 
#    0.000    0.000    0.000    0.000    0.000    0.000 
#    0.000    0.800    0.400    0.000    0.800    0.000 
#
# Total GULP energy -495755.589878 kJ/mol
# GULP energy per Si atom -12393.889747 kJ/mol
# Density = 2.048809 g / cm^3
# Si number density = 20.534823 Si / 1000 Ang^3
#
#
#
# Elastic Constant Matrix: (Units=GPa)
#
#
# Indices 1 2 3 4 5 6 
#
# 1 138.0986 17.9235 51.4723 0.0000 0.0000 0.0000
# 2 17.9235 24.3634 4.0093 0.0000 0.0000 0.0000
# 3 51.4723 4.0093 125.0397 0.0000 0.0000 0.0000
# 4 0.0000 0.0000 0.0000 17.4309 0.0000 0.0000
# 5 0.0000 0.0000 0.0000 0.0000 32.4422 0.0000
# 6 0.0000 0.0000 0.0000 0.0000 0.0000 16.7029
#
#
#
# Elastic Compliance Matrix: (Units=1/GPa)
#
#
# Indices 1 2 3 4 5 6 
#
# 1 0.009435 -0.006336 -0.003681 0.000000 0.000000 0.000000
# 2 -0.006336 0.045517 0.001149 0.000000 0.000000 0.000000
# 3 -0.003681 0.001149 0.009476 0.000000 0.000000 0.000000
# 4 0.000000 0.000000 0.000000 0.057369 0.000000 0.000000
# 5 0.000000 0.000000 0.000000 0.000000 0.030824 0.000000
# 6 0.000000 0.000000 0.000000 0.000000 0.000000 0.059870
#
#
# Mechanical properties :
#
#
# Convention : Reuss Voigt Hill
#
# Bulk Modulus (GPa) = 21.41674 48.25687 34.83681
# Shear Modulus (GPa) = 20.34241 27.58832 23.96536
#
# Velocity S-wave (km/s) = 3.15084 3.66934 3.41993
# Velocity P-wave (km/s) = 4.86715 6.44229 5.70930
#
# Compressibility (1/GPa) = 0.04669245
#
# Stress axis : x y z
#
# Youngs Moduli (GPa) = 105.98314 21.96975 105.53115
#
# Poissons Ratio (x) = 0.13919 0.38845
# Poissons Ratio (y) = 0.67148 -0.12121
# Poissons Ratio (z) = 0.39012 -0.02523
#
# Static dielectric constant tensor:
#      x y z
#    x 3.845830 0.000000 0.000000 
#    y 0.000000 3.142550 0.000000 
#    z 0.000000 0.000000 3.969690 
# 
# 
# High freq. dielectric constant tensor:
#      x y z
#    x 1.817840 0.000000 0.000000 
#    y 0.000000 1.733030 0.000000 
#    z 0.000000 0.000000 1.817340 
# 
# From -- ./inp_files/36095.got.cif
#   From: 2010.03.12/outbox.cif.g09.slc.cpg/sg51_19_cif.got.tgz:36095.got - 2010.04.16 13:43:02.
