data_PCOD8212655
_publ_section_title
;
Structure prediction by ZEFSAII (Michael W. Deem and Ramdas Pophale) SiO2 
 PCOD8212655
Probable space group: P M M A
;
_chemical_formula_sum "Si O2"
_cell_formula_units_Z 64
_cell_length_a 18.688311
_cell_length_b 9.136537
_cell_length_c 20.170368
_cell_angle_alpha 90.000000
_cell_angle_beta 90.000000
_cell_angle_gamma 90.000000
_cell_volume 3444.018629
_symmetry_space_group_name_H-M "P M M A"
_symmetry_group_IT_number 51
_symmetry_cell_setting 'orthorhombic'
loop_
_space_group_symop_operation_xyz
x,y,z
1/2-x,-y,z
1/2+x,-y,-z
-x,y,-z
-x,-y,-z
1/2+x,y,-z
1/2-x,y,z
x,-y,z
loop_
_atom_site_type_symbol
_atom_site_label
_atom_site_fract_x
_atom_site_fract_y
_atom_site_fract_z
Si Si1 0.833039 0.670595 0.170492
Si Si2 0.169301 0.830584 0.584191
Si Si3 0.664789 0.165199 0.039897
Si Si4 0.927727 0.831807 0.537683
Si Si5 0.835246 0.334628 0.911887
Si Si6 0.575510 0.329091 0.673899
Si Si7 0.834669 0.168117 0.781596
Si Si8 0.086975 0.329952 0.698874
O O1 0.750000 0.703988 0.184197
O O2 0.846028 0.500000 0.156746
O O3 0.862175 0.757730 0.106898
O O4 0.877129 0.728076 0.233640
O O5 0.250000 0.768988 0.586645
O O6 0.139378 0.806091 0.510502
O O7 0.119948 0.748861 0.636049
O O8 0.167188 0.000000 0.603343
O O9 0.750000 0.166809 0.037745
O O10 0.635282 0.000000 0.037592
O O11 0.634121 0.253089 0.976780
O O12 0.917503 0.724814 0.598990
O O13 0.000000 0.787986 0.500000
O O14 0.931764 0.000000 0.562152
O O15 0.750000 0.334625 0.913654
O O16 0.865039 0.500000 0.910512
O O17 0.863241 0.250354 0.847046
O O18 0.593881 0.500000 0.676364
O O19 0.632383 0.241991 0.717159
O O20 0.496931 0.296531 0.702484
O O21 0.750000 0.182240 0.775453
O O22 0.858794 0.000000 0.786136
O O23 0.103429 0.500000 0.689861
#
# Coordination Sequence:
#
# PCOD8212655 Si02
#       8
#     8   8   8   8   8   8   8   8
#     4   9  17  30  48  71 102 140 180 220 263 312
#     4  10  21  36  56  82 108 137 179 228 273 320
#     4   9  16  26  43  71 105 139 177 220 266 315
#     4  10  20  37  58  78 105 143 182 220 269 326
#     4   9  16  28  49  76 106 139 175 218 268 321
#     4  11  23  37  57  83 110 141 180 223 269 325
#     4  10  21  37  57  81 109 141 178 222 272 325
#     4  10  21  36  54  77 108 145 181 219 267 325
#
# _framework density 18.582941999999999
#
# number of rings (size 3 to 8) (size 9 to 14) (size 15 to 20)
#    0.000    2.250    1.250    1.875    0.000    6.750 
#    0.000    2.500    0.000    0.750    0.000    5.250 
#    0.000    0.000    0.000    0.000    0.000    0.000 
#
# Total GULP energy -793784.031681 kJ/mol
# GULP energy per Si atom -12402.875495 kJ/mol
# Density = 1.854065 g / cm^3
# Si number density = 18.582942 Si / 1000 Ang^3
#
#
#
# Elastic Constant Matrix: (Units=GPa)
#
#
# Indices 1 2 3 4 5 6 
#
# 1 33.0613 30.9507 25.3092 0.0000 0.0000 0.0000
# 2 30.9507 114.7597 71.5687 0.0000 0.0000 0.0000
# 3 25.3092 71.5687 134.9195 0.0000 0.0000 0.0000
# 4 0.0000 0.0000 0.0000 36.4661 0.0000 0.0000
# 5 0.0000 0.0000 0.0000 0.0000 14.0429 0.0000
# 6 0.0000 0.0000 0.0000 0.0000 0.0000 20.6979
#
#
#
# Elastic Compliance Matrix: (Units=1/GPa)
#
#
# Indices 1 2 3 4 5 6 
#
# 1 0.041128 -0.009386 -0.002736 0.000000 0.000000 0.000000
# 2 -0.009386 0.015163 -0.006283 0.000000 0.000000 0.000000
# 3 -0.002736 -0.006283 0.011258 0.000000 0.000000 0.000000
# 4 0.000000 0.000000 0.000000 0.027423 0.000000 0.000000
# 5 0.000000 0.000000 0.000000 0.000000 0.071210 0.000000
# 6 0.000000 0.000000 0.000000 0.000000 0.000000 0.048314
#
#
# Mechanical properties :
#
#
# Convention : Reuss Voigt Hill
#
# Bulk Modulus (GPa) = 32.53141 59.82197 46.17669
# Shear Modulus (GPa) = 19.11653 24.56882 21.84268
#
# Velocity S-wave (km/s) = 3.21084 3.64004 3.43215
# Velocity P-wave (km/s) = 5.59375 7.06599 6.37253
#
# Compressibility (1/GPa) = 0.03073953
#
# Stress axis : x y z
#
# Youngs Moduli (GPa) = 24.31416 65.94799 88.82621
#
# Poissons Ratio (x) = 0.61897 0.24307
# Poissons Ratio (y) = 0.22821 0.55808
# Poissons Ratio (z) = 0.06653 0.41434
#
# Static dielectric constant tensor:
#      x y z
#    x 3.192620 0.000000 0.000000 
#    y 0.000000 3.505840 0.000000 
#    z 0.000000 0.000000 3.504230 
# 
# 
# High freq. dielectric constant tensor:
#      x y z
#    x 1.690560 0.000000 0.000000 
#    y 0.000000 1.726850 0.000000 
#    z 0.000000 0.000000 1.733190 
# 
# From -- ./inp_files/33759.got.cif
#   From: 2010.03.12/outbox.cif.g09.slc.cpg/sg51_17_cif.got.tgz:33759.got - 2010.04.16 13:43:02.
