data_PCOD8212401
_publ_section_title
;
Structure prediction by ZEFSAII (Michael W. Deem and Ramdas Pophale) SiO2 
 PCOD8212401
Probable space group: P M M A
;
_chemical_formula_sum "Si O2"
_cell_formula_units_Z 64
_cell_length_a 17.556791
_cell_length_b 19.923018
_cell_length_c 9.719185
_cell_angle_alpha 90.000000
_cell_angle_beta 90.000000
_cell_angle_gamma 90.000000
_cell_volume 3399.617963
_symmetry_space_group_name_H-M "P M M A"
_symmetry_group_IT_number 51
_symmetry_cell_setting 'orthorhombic'
loop_
_space_group_symop_operation_xyz
x,y,z
1/2-x,-y,z
1/2+x,-y,-z
-x,y,-z
-x,-y,-z
1/2+x,y,-z
1/2-x,y,z
x,-y,z
loop_
_atom_site_type_symbol
_atom_site_label
_atom_site_fract_x
_atom_site_fract_y
_atom_site_fract_z
Si Si1 0.075463 0.422807 0.419967
Si Si2 0.079376 0.315377 0.187676
Si Si3 0.341906 0.180404 0.226466
Si Si4 0.839510 0.073032 0.291388
Si Si5 0.917770 0.921729 0.564350
Si Si6 0.908088 0.684346 0.123406
Si Si7 0.663296 0.576772 0.314886
Si Si8 0.838645 0.179372 0.086800
O O1 0.068145 0.500000 0.372940
O O2 0.088552 0.379825 0.283856
O O3 0.145409 0.411507 0.524342
O O4 0.000000 0.399203 0.500000
O O5 0.128956 0.255934 0.258634
O O6 0.992620 0.292581 0.164894
O O7 0.107309 0.336319 0.035259
O O8 0.250000 0.174482 0.250219
O O9 0.390753 0.125800 0.310890
O O10 0.366861 0.169021 0.068412
O O11 0.750000 0.070899 0.271906
O O12 0.856371 0.094139 0.447027
O O13 0.878356 0.123677 0.183376
O O14 0.876063 0.000000 0.262491
O O15 0.000000 0.902714 0.500000
O O16 0.916203 0.000000 0.611786
O O17 0.888247 0.621503 0.217254
O O18 0.856117 0.748582 0.152739
O O19 0.750000 0.596269 0.289040
O O20 0.645602 0.500000 0.275494
O O21 0.750000 0.168291 0.091749
#
# Coordination Sequence:
#
# PCOD8212401 Si02
#       8
#     8   8   8   8   8   8   8   8
#     4  10  20  37  58  81 112 149 187 232 281 330
#     4  10  22  36  57  85 114 148 189 233 279 337
#     4  10  22  39  58  82 113 149 187 231 279 331
#     4   9  18  34  55  79 108 142 181 226 272 321
#     4  10  22  38  57  83 114 148 186 230 279 332
#     4  10  20  36  56  83 115 150 186 229 283 334
#     4  10  21  37  58  84 113 147 188 233 282 338
#     4   9  19  35  56  82 111 145 187 231 275 328
#
# _framework density 18.825642999999999
#
# number of rings (size 3 to 8) (size 9 to 14) (size 15 to 20)
#    0.000    2.250    1.250    0.750    1.750    4.250 
#    0.000    2.500    0.000    3.750    0.000    0.000 
#    0.000    0.000    0.000    0.000    0.000    0.000 
#
# Total GULP energy -793282.304383 kJ/mol
# GULP energy per Si atom -12395.036006 kJ/mol
# Density = 1.878280 g / cm^3
# Si number density = 18.825643 Si / 1000 Ang^3
#
#
#
# Elastic Constant Matrix: (Units=GPa)
#
#
# Indices 1 2 3 4 5 6 
#
# 1 51.1759 30.1594 19.8862 0.0000 0.0000 0.0000
# 2 30.1594 103.9337 65.8865 0.0000 0.0000 0.0000
# 3 19.8862 65.8865 81.0844 0.0000 0.0000 0.0000
# 4 0.0000 0.0000 0.0000 38.0208 0.0000 0.0000
# 5 0.0000 0.0000 0.0000 0.0000 26.0329 0.0000
# 6 0.0000 0.0000 0.0000 0.0000 0.0000 27.4323
#
#
#
# Elastic Compliance Matrix: (Units=1/GPa)
#
#
# Indices 1 2 3 4 5 6 
#
# 1 0.023580 -0.006551 -0.000460 0.000000 0.000000 0.000000
# 2 -0.006551 0.021663 -0.015996 0.000000 0.000000 0.000000
# 3 -0.000460 -0.015996 0.025443 0.000000 0.000000 0.000000
# 4 0.000000 0.000000 0.000000 0.026301 0.000000 0.000000
# 5 0.000000 0.000000 0.000000 0.000000 0.038413 0.000000
# 6 0.000000 0.000000 0.000000 0.000000 0.000000 0.036453
#
#
# Mechanical properties :
#
#
# Convention : Reuss Voigt Hill
#
# Bulk Modulus (GPa) = 40.53092 52.00647 46.26870
# Shear Modulus (GPa) = 22.11505 26.31466 24.21486
#
# Velocity S-wave (km/s) = 3.43115 3.74278 3.59035
# Velocity P-wave (km/s) = 6.10520 6.80905 6.46671
#
# Compressibility (1/GPa) = 0.02467252
#
# Stress axis : x y z
#
# Youngs Moduli (GPa) = 42.40931 46.16270 39.30312
#
# Poissons Ratio (x) = 0.30240 0.01809
# Poissons Ratio (y) = 0.27781 0.62868
# Poissons Ratio (z) = 0.01952 0.73840
#
# Static dielectric constant tensor:
#      x y z
#    x 3.483160 0.000000 0.000000 
#    y 0.000000 3.602170 0.000000 
#    z 0.000000 0.000000 3.596110 
# 
# 
# High freq. dielectric constant tensor:
#      x y z
#    x 1.730370 0.000000 0.000000 
#    y 0.000000 1.732150 0.000000 
#    z 0.000000 0.000000 1.730170 
# 
# From -- ./inp_files/10009.got.cif
#   From: 2010.03.12/outbox.cif.g09.slc.cpg/sg51_6_cif.got.tgz:10009.got - 2010.04.16 13:43:02.
