data_PCOD8212806
_publ_section_title
;
Structure prediction by ZEFSAII (Michael W. Deem and Ramdas Pophale) SiO2 
 PCOD8212806
Probable space group: P M M A
;
_chemical_formula_sum "Si O2"
_cell_formula_units_Z 56
_cell_length_a 21.780336
_cell_length_b 9.117781
_cell_length_c 14.811882
_cell_angle_alpha 90.000000
_cell_angle_beta 90.000000
_cell_angle_gamma 90.000000
_cell_volume 2941.466966
_symmetry_space_group_name_H-M "P M M A"
_symmetry_group_IT_number 51
_symmetry_cell_setting 'orthorhombic'
loop_
_space_group_symop_operation_xyz
x,y,z
1/2-x,-y,z
1/2+x,-y,-z
-x,y,-z
-x,-y,-z
1/2+x,y,-z
1/2-x,y,z
x,-y,z
loop_
_atom_site_type_symbol
_atom_site_label
_atom_site_fract_x
_atom_site_fract_y
_atom_site_fract_z
Si Si1 0.682186 0.325612 0.220340
Si Si2 0.424742 0.673610 0.651254
Si Si3 0.140246 0.169657 0.149660
Si Si4 0.750000 0.167115 0.571388
Si Si5 0.383976 0.833159 0.479547
Si Si6 0.178374 0.330574 0.982869
Si Si7 0.250000 0.672815 0.246537
Si Si8 0.954843 0.832980 0.700170
O O1 0.750000 0.266090 0.247278
O O2 0.683251 0.500000 0.222253
O O3 0.632000 0.263173 0.289879
O O4 0.665683 0.275105 0.118810
O O5 0.424415 0.500000 0.649609
O O6 0.419688 0.730576 0.549275
O O7 0.487461 0.726247 0.696164
O O8 0.135642 0.232250 0.048023
O O9 0.190044 0.263225 0.201526
O O10 0.076132 0.189961 0.202159
O O11 0.159882 0.000000 0.147613
O O12 0.810795 0.192801 0.511603
O O13 0.750000 0.286666 0.649043
O O14 0.750000 0.000000 0.610946
O O15 0.405962 0.793811 0.378471
O O16 0.400883 0.000000 0.503550
O O17 0.250000 0.308881 0.007964
O O18 0.159737 0.500000 0.994255
O O19 0.250000 0.500000 0.234026
O O20 0.977353 0.000000 0.688611
#
# Coordination Sequence:
#
# PCOD8212806 Si02
#       8
#     8   8   8   4   8   8   4   8
#     4   8  17  36  58  80 112 147 180 225 284 337
#     4  11  23  37  58  84 110 145 190 237 279 327
#     4  11  21  35  56  82 114 151 186 225 275 333
#     4  10  20  38  58  81 112 149 188 227 272 332
#     4  10  21  38  59  80 110 151 189 226 279 334
#     4   9  17  32  56  84 110 142 183 228 278 332
#     4  12  22  32  52  83 118 149 180 229 280 326
#     4  10  22  40  58  76 109 156 191 224 276 334
#
# _framework density 19.038121
#
# number of rings (size 3 to 8) (size 9 to 14) (size 15 to 20)
#    0.000    2.000    2.143    2.786    1.000    4.000 
#    0.000    2.143    0.000    6.000    0.000    0.000 
#    0.000    0.000    0.000    0.000    0.000    0.000 
#
# Total GULP energy -694448.676770 kJ/mol
# GULP energy per Si atom -12400.869228 kJ/mol
# Density = 1.899479 g / cm^3
# Si number density = 19.038121 Si / 1000 Ang^3
#
#
#
# Elastic Constant Matrix: (Units=GPa)
#
#
# Indices 1 2 3 4 5 6 
#
# 1 93.6374 36.4908 30.9120 0.0000 0.0000 0.0000
# 2 36.4908 81.3033 32.1188 0.0000 0.0000 0.0000
# 3 30.9120 32.1188 83.5452 0.0000 0.0000 0.0000
# 4 0.0000 0.0000 0.0000 24.2179 0.0000 0.0000
# 5 0.0000 0.0000 0.0000 0.0000 12.0989 0.0000
# 6 0.0000 0.0000 0.0000 0.0000 0.0000 24.9170
#
#
#
# Elastic Compliance Matrix: (Units=1/GPa)
#
#
# Indices 1 2 3 4 5 6 
#
# 1 0.013620 -0.004860 -0.003171 0.000000 0.000000 0.000000
# 2 -0.004860 0.016237 -0.004444 0.000000 0.000000 0.000000
# 3 -0.003171 -0.004444 0.014851 0.000000 0.000000 0.000000
# 4 0.000000 0.000000 0.000000 0.041292 0.000000 0.000000
# 5 0.000000 0.000000 0.000000 0.000000 0.082652 0.000000
# 6 0.000000 0.000000 0.000000 0.000000 0.000000 0.040133
#
#
# Mechanical properties :
#
#
# Convention : Reuss Voigt Hill
#
# Bulk Modulus (GPa) = 50.61278 50.83657 50.72467
# Shear Modulus (GPa) = 20.80540 22.84437 21.82488
#
# Velocity S-wave (km/s) = 3.30938 3.46776 3.38949
# Velocity P-wave (km/s) = 6.42226 6.54173 6.48227
#
# Compressibility (1/GPa) = 0.01975785
#
# Stress axis : x y z
#
# Youngs Moduli (GPa) = 73.41895 61.58919 67.33432
#
# Poissons Ratio (x) = 0.29935 0.21352
# Poissons Ratio (y) = 0.35685 0.29922
# Poissons Ratio (z) = 0.23281 0.27369
#
# Static dielectric constant tensor:
#      x y z
#    x 3.526100 0.000000 0.000000 
#    y 0.000000 3.356010 0.000000 
#    z 0.000000 0.000000 3.588750 
# 
# 
# High freq. dielectric constant tensor:
#      x y z
#    x 1.730850 0.000000 0.000000 
#    y 0.000000 1.725720 0.000000 
#    z 0.000000 0.000000 1.741270 
# 
# From -- ./inp_files/25928.got.cif
#   From: 2010.03.12/outbox.cif.g09.slc.cpg/sg51_13_cif.got.tgz:25928.got - 2010.04.16 13:43:02.
