data_PCOD8212577
_publ_section_title
;
Structure prediction by ZEFSAII (Michael W. Deem and Ramdas Pophale) SiO2 
 PCOD8212577
Probable space group: P M M A
;
_chemical_formula_sum "Si O2"
_cell_formula_units_Z 56
_cell_length_a 15.256575
_cell_length_b 9.145001
_cell_length_c 21.262468
_cell_angle_alpha 90.000000
_cell_angle_beta 90.000000
_cell_angle_gamma 90.000000
_cell_volume 2966.569167
_symmetry_space_group_name_H-M "P M M A"
_symmetry_group_IT_number 51
_symmetry_cell_setting 'orthorhombic'
loop_
_space_group_symop_operation_xyz
x,y,z
1/2-x,-y,z
1/2+x,-y,-z
-x,y,-z
-x,-y,-z
1/2+x,y,-z
1/2-x,y,z
x,-y,z
loop_
_atom_site_type_symbol
_atom_site_label
_atom_site_fract_x
_atom_site_fract_y
_atom_site_fract_z
Si Si1 0.402104 0.173122 0.499885
Si Si2 0.649587 0.169467 0.927412
Si Si3 0.348697 0.830233 0.635107
Si Si4 0.500122 0.328821 0.145932
Si Si5 0.850437 0.830563 0.072266
Si Si6 0.651287 0.830197 0.635344
Si Si7 0.500090 0.671716 0.291734
O O1 0.500000 0.238013 0.500000
O O2 0.353448 0.226663 0.562953
O O3 0.353644 0.226918 0.436777
O O4 0.403869 0.000000 0.499786
O O5 0.750000 0.207189 0.910817
O O6 0.587714 0.264977 0.883951
O O7 0.630184 0.000000 0.914445
O O8 0.629926 0.206936 0.999840
O O9 0.250000 0.806986 0.659739
O O10 0.412709 0.737789 0.678305
O O11 0.376539 0.000000 0.638969
O O12 0.500009 0.500000 0.134075
O O13 0.587753 0.265115 0.115699
O O14 0.500455 0.287806 0.218803
O O15 0.750000 0.793051 0.088864
O O16 0.869975 0.000000 0.085239
O O17 0.750000 0.806825 0.659909
O O18 0.587309 0.738018 0.678686
O O19 0.623556 0.000000 0.639151
O O20 0.499944 0.500000 0.303716
#
# Coordination Sequence:
#
# PCOD8212577 Si02
#       7
#     8   8   8   8   8   8   8
#     4   9  15  29  57  87 113 136 167 224 287 334
#     4   9  19  37  61  88 115 142 176 223 277 328
#     4  10  20  36  60  86 109 138 182 232 279 329
#     4  11  24  38  54  79 112 152 191 226 269 320
#     4   9  19  37  61  88 115 142 176 223 277 328
#     4  10  20  36  60  86 109 138 182 232 279 329
#     4  11  25  41  53  73 113 156 189 226 271 323
#
# _framework density 18.877023999999999
#
# number of rings (size 3 to 8) (size 9 to 14) (size 15 to 20)
#    0.000    2.143    1.429    2.571    0.000    8.571 
#    0.000    8.571    0.000    1.714    0.000    0.000 
#    0.000    0.000    0.000    0.000    0.000    0.000 
#
# Total GULP energy -694432.393794 kJ/mol
# GULP energy per Si atom -12400.578461 kJ/mol
# Density = 1.883406 g / cm^3
# Si number density = 18.877024 Si / 1000 Ang^3
#
#
#
# Elastic Constant Matrix: (Units=GPa)
#
#
# Indices 1 2 3 4 5 6 
#
# 1 139.1583 62.4642 87.7714 0.0000 0.0000 0.0000
# 2 62.4642 75.9052 81.6959 0.0000 0.0000 0.0000
# 3 87.7714 81.6959 147.1979 0.0000 0.0000 0.0000
# 4 0.0000 0.0000 0.0000 47.8813 0.0000 0.0000
# 5 0.0000 0.0000 0.0000 0.0000 -3.3259 0.0000
# 6 0.0000 0.0000 0.0000 0.0000 0.0000 7.2074
#
#
#
# Elastic Compliance Matrix: (Units=1/GPa)
#
#
# Indices 1 2 3 4 5 6 
#
# 1 0.012401 -0.005579 -0.004298 0.000000 0.000000 0.000000
# 2 -0.005579 0.035229 -0.016225 0.000000 0.000000 0.000000
# 3 -0.004298 -0.016225 0.018362 0.000000 0.000000 0.000000
# 4 0.000000 0.000000 0.000000 0.020885 0.000000 0.000000
# 5 0.000000 0.000000 0.000000 0.000000 -0.300669 0.000000
# 6 0.000000 0.000000 0.000000 0.000000 0.000000 0.138746
#
#
# Mechanical properties :
#
#
# Convention : Reuss Voigt Hill
#
# Bulk Modulus (GPa) = 72.53643 91.79158 82.16401
# Shear Modulus (GPa) = -274.04994 19.04123 -127.50436
#
# Velocity S-wave (km/s) = -12.06199 3.17945 -8.22748
# Velocity P-wave (km/s) = 12.46915 7.88734 6.82896
#
# Compressibility (1/GPa) = 0.01378618
#
# Stress axis : x y z
#
# Youngs Moduli (GPa) = 80.63552 28.38569 54.46107
#
# Poissons Ratio (x) = 0.15838 0.23408
# Poissons Ratio (y) = 0.44990 0.88366
# Poissons Ratio (z) = 0.34658 0.46057
#
# Static dielectric constant tensor:
#      x y z
#    x 3.537180 0.000000 0.000000 
#    y 0.000000 3.230950 0.000000 
#    z 0.000000 0.000000 3.534280 
# 
# 
# High freq. dielectric constant tensor:
#      x y z
#    x 1.749560 0.000000 0.000000 
#    y 0.000000 1.709340 0.000000 
#    z 0.000000 0.000000 1.734890 
# 
# From -- ./inp_files/33315.got.cif
#   From: 2010.03.12/outbox.cif.g09.slc.cpg/sg51_17_cif.got.tgz:33315.got - 2010.04.16 13:43:02.
