data_PCOD8212996
_publ_section_title
;
Structure prediction by ZEFSAII (Michael W. Deem and Ramdas Pophale) SiO2 
 PCOD8212996
Probable space group: P M M A
;
_chemical_formula_sum "Si O2"
_cell_formula_units_Z 64
_cell_length_a 13.980212
_cell_length_b 9.219054
_cell_length_c 31.459302
_cell_angle_alpha 90.000000
_cell_angle_beta 90.000000
_cell_angle_gamma 90.000000
_cell_volume 4054.611040
_symmetry_space_group_name_H-M "P M M A"
_symmetry_group_IT_number 51
_symmetry_cell_setting 'orthorhombic'
loop_
_space_group_symop_operation_xyz
x,y,z
1/2-x,-y,z
1/2+x,-y,-z
-x,y,-z
-x,-y,-z
1/2+x,y,-z
1/2-x,y,z
x,-y,z
loop_
_atom_site_type_symbol
_atom_site_label
_atom_site_fract_x
_atom_site_fract_y
_atom_site_fract_z
Si Si1 0.521540 0.828991 0.895264
Si Si2 0.860892 0.670312 0.824284
Si Si3 0.644233 0.172602 0.480445
Si Si4 0.139666 0.165781 0.021750
Si Si5 0.541447 0.172481 0.564481
Si Si6 0.360313 0.170531 0.351290
Si Si7 0.863508 0.659964 0.729440
Si Si8 0.861314 0.669136 0.062623
O O1 0.574340 0.767165 0.854390
O O2 0.582676 0.787827 0.936631
O O3 0.418865 0.751171 0.900149
O O4 0.507598 0.000000 0.889748
O O5 0.750000 0.710154 0.831775
O O6 0.877459 0.500000 0.832812
O O7 0.893923 0.712380 0.776438
O O8 0.750000 0.235821 0.470308
O O9 0.609715 0.229414 0.526562
O O10 0.567981 0.223588 0.444537
O O11 0.647480 0.000000 0.481416
O O12 0.250000 0.189355 0.032871
O O13 0.118068 0.000000 0.008574
O O14 0.107119 0.266128 0.982840
O O15 0.578667 0.235204 0.609331
O O16 0.547022 0.000000 0.565609
O O17 0.250000 0.214792 0.358354
O O18 0.402467 0.235067 0.307476
O O19 0.371996 0.000000 0.347953
O O20 0.750000 0.654766 0.728382
O O21 0.905275 0.500000 0.720679
O O22 0.750000 0.698480 0.071164
O O23 0.886203 0.500000 0.063048
#
# Coordination Sequence:
#
# PCOD8212996 Si02
#       8
#     8   8   8   8   8   8   8   8
#     4  11  21  31  47  70  93 118 146 176 214 259
#     4   9  18  32  48  66  90 117 142 171 208 253
#     4   8  12  18  28  43  69 105 137 164 199 241
#     4   9  18  32  47  65  92 121 145 172 210 255
#     4   8  13  19  28  47  74 101 131 167 203 240
#     4   9  15  22  35  56  80 104 130 164 204 240
#     4   8  15  28  43  59  82 111 138 164 200 247
#     4  10  21  35  49  65  86 115 152 189 219 248
#
# _framework density 15.784497999999999
#
# number of rings (size 3 to 8) (size 9 to 14) (size 15 to 20)
#    0.000    3.000    0.000    3.375    0.000    6.000 
#    0.000    2.500    0.000    0.000    0.000    2.625 
#    0.000    4.500    0.000    0.000    0.000    0.000 
#
# Total GULP energy -793297.782451 kJ/mol
# GULP energy per Si atom -12395.277851 kJ/mol
# Density = 1.574857 g / cm^3
# Si number density = 15.784498 Si / 1000 Ang^3
#
#
#
# Elastic Constant Matrix: (Units=GPa)
#
#
# Indices 1 2 3 4 5 6 
#
# 1 83.3548 34.4629 62.7090 0.0000 0.0000 0.0000
# 2 34.4629 53.0374 53.3528 0.0000 0.0000 0.0000
# 3 62.7090 53.3528 127.0872 0.0000 0.0000 0.0000
# 4 0.0000 0.0000 0.0000 4.9840 0.0000 0.0000
# 5 0.0000 0.0000 0.0000 0.0000 24.2089 0.0000
# 6 0.0000 0.0000 0.0000 0.0000 0.0000 15.2031
#
#
#
# Elastic Compliance Matrix: (Units=1/GPa)
#
#
# Indices 1 2 3 4 5 6 
#
# 1 0.019900 -0.005285 -0.007601 0.000000 0.000000 0.000000
# 2 -0.005285 0.034041 -0.011683 0.000000 0.000000 0.000000
# 3 -0.007601 -0.011683 0.016524 0.000000 0.000000 0.000000
# 4 0.000000 0.000000 0.000000 0.200642 0.000000 0.000000
# 5 0.000000 0.000000 0.000000 0.000000 0.041307 0.000000
# 6 0.000000 0.000000 0.000000 0.000000 0.000000 0.065776
#
#
# Mechanical properties :
#
#
# Convention : Reuss Voigt Hill
#
# Bulk Modulus (GPa) = 46.88759 62.72543 54.80651
# Shear Modulus (GPa) = 11.50914 16.40952 13.95933
#
# Velocity S-wave (km/s) = 2.70319 3.22778 2.97706
# Velocity P-wave (km/s) = 6.28588 7.32914 6.82747
#
# Compressibility (1/GPa) = 0.02132760
#
# Stress axis : x y z
#
# Youngs Moduli (GPa) = 50.25122 29.37608 60.51872
#
# Poissons Ratio (x) = 0.15525 0.45998
# Poissons Ratio (y) = 0.26557 0.70705
# Poissons Ratio (z) = 0.38194 0.34321
#
# Static dielectric constant tensor:
#      x y z
#    x 3.053710 0.000000 0.000000 
#    y 0.000000 2.827300 0.000000 
#    z 0.000000 0.000000 3.128190 
# 
# 
# High freq. dielectric constant tensor:
#      x y z
#    x 1.588510 0.000000 0.000000 
#    y 0.000000 1.583780 0.000000 
#    z 0.000000 0.000000 1.597990 
# 
# From -- ./inp_files/37843.got.cif
#   From: 2010.03.12/outbox.cif.g09.slc.cpg/sg51_19_cif.got.tgz:37843.got - 2010.04.16 13:43:02.
