data_PCOD8212072
_publ_section_title
;
Structure prediction by ZEFSAII (Michael W. Deem and Ramdas Pophale) SiO2 
 PCOD8212072
Probable space group: P M M A
;
_chemical_formula_sum "Si O2"
_cell_formula_units_Z 48
_cell_length_a 8.647798
_cell_length_b 30.193214
_cell_length_c 9.499976
_cell_angle_alpha 90.000000
_cell_angle_beta 90.000000
_cell_angle_gamma 90.000000
_cell_volume 2480.489482
_symmetry_space_group_name_H-M "P M M A"
_symmetry_group_IT_number 51
_symmetry_cell_setting 'orthorhombic'
loop_
_space_group_symop_operation_xyz
x,y,z
1/2-x,-y,z
1/2+x,-y,-z
-x,y,-z
-x,-y,-z
1/2+x,y,-z
1/2-x,y,z
x,-y,z
loop_
_atom_site_type_symbol
_atom_site_label
_atom_site_fract_x
_atom_site_fract_y
_atom_site_fract_z
Si Si1 0.072432 0.753342 0.149761
Si Si2 0.431006 0.176648 0.646938
Si Si3 0.567037 0.922042 0.350337
Si Si4 0.933698 0.421085 0.342902
Si Si5 0.429369 0.651587 0.153546
Si Si6 0.065619 0.500000 0.157820
Si Si7 0.566861 0.000000 0.153817
O O1 0.250000 0.767555 0.148520
O O2 0.051859 0.702651 0.197315
O O3 0.978220 0.785940 0.246249
O O4 0.000000 0.760264 0.000000
O O5 0.500000 0.191486 0.500000
O O6 0.250000 0.175553 0.631800
O O7 0.490392 0.127522 0.691030
O O8 0.500000 0.936594 0.500000
O O9 0.750000 0.924363 0.361549
O O10 0.505372 0.956184 0.233460
O O11 0.750000 0.426704 0.349316
O O12 0.000000 0.425588 0.500000
O O13 0.978983 0.374105 0.275394
O O14 0.007012 0.457429 0.241154
O O15 0.250000 0.637229 0.150292
O O16 0.500000 0.641534 0.000000
O O17 0.250000 0.500000 0.150777
O O18 0.000000 0.500000 0.000000
O O19 0.750000 0.000000 0.146024
O O20 0.500000 0.000000 0.000000
#
# Coordination Sequence:
#
# PCOD8212072 Si02
#       7
#     8   8   8   8   8   4   4
#     4  10  21  37  58  83 113 149 189 232 281 334
#     4  10  20  35  55  80 110 143 183 228 277 331
#     4   9  19  35  55  78 104 138 179 223 269 326
#     4  12  25  42  63  90 122 156 194 239 289 338
#     4  10  21  39  61  86 115 151 193 235 281 337
#     4  12  25  44  67  92 122 158 198 238 283 338
#     4  10  21  36  52  76 108 138 175 220 270 324
#
# _framework density 19.351019999999998
#
# number of rings (size 3 to 8) (size 9 to 14) (size 15 to 20)
#    0.000    1.667    0.000    4.750    0.000    4.667 
#    0.000    1.667    0.000    0.000    0.000    0.000 
#    0.000    0.000    0.000    0.000    0.000    0.000 
#
# Total GULP energy -595252.635095 kJ/mol
# GULP energy per Si atom -12401.096564 kJ/mol
# Density = 1.930698 g / cm^3
# Si number density = 19.351020 Si / 1000 Ang^3
#
#
#
# Elastic Constant Matrix: (Units=GPa)
#
#
# Indices 1 2 3 4 5 6 
#
# 1 93.3290 35.2316 42.2523 0.0000 0.0000 0.0000
# 2 35.2316 105.9350 72.1917 0.0000 0.0000 0.0000
# 3 42.2523 72.1917 118.5430 0.0000 0.0000 0.0000
# 4 0.0000 0.0000 0.0000 43.1442 0.0000 0.0000
# 5 0.0000 0.0000 0.0000 0.0000 37.5603 0.0000
# 6 0.0000 0.0000 0.0000 0.0000 0.0000 30.9924
#
#
#
# Elastic Compliance Matrix: (Units=1/GPa)
#
#
# Indices 1 2 3 4 5 6 
#
# 1 0.013019 -0.001996 -0.003425 0.000000 0.000000 0.000000
# 2 -0.001996 0.016443 -0.009302 0.000000 0.000000 0.000000
# 3 -0.003425 -0.009302 0.015321 0.000000 0.000000 0.000000
# 4 0.000000 0.000000 0.000000 0.023178 0.000000 0.000000
# 5 0.000000 0.000000 0.000000 0.000000 0.026624 0.000000
# 6 0.000000 0.000000 0.000000 0.000000 0.000000 0.032266
#
#
# Mechanical properties :
#
#
# Convention : Reuss Voigt Hill
#
# Bulk Modulus (GPa) = 65.20055 68.57309 66.88682
# Shear Modulus (GPa) = 30.97734 33.54813 32.26273
#
# Velocity S-wave (km/s) = 4.00536 4.16824 4.08761
# Velocity P-wave (km/s) = 7.42679 7.66022 7.54441
#
# Compressibility (1/GPa) = 0.01533729
#
# Stress axis : x y z
#
# Youngs Moduli (GPa) = 76.81257 60.81771 65.26852
#
# Poissons Ratio (x) = 0.12138 0.22353
# Poissons Ratio (y) = 0.15330 0.60713
# Poissons Ratio (z) = 0.26307 0.56573
#
# Static dielectric constant tensor:
#      x y z
#    x 3.675570 0.000000 0.000000 
#    y 0.000000 3.911920 0.000000 
#    z 0.000000 0.000000 3.491490 
# 
# 
# High freq. dielectric constant tensor:
#      x y z
#    x 1.764630 0.000000 0.000000 
#    y 0.000000 1.768460 0.000000 
#    z 0.000000 0.000000 1.754550 
# 
# From -- ./inp_files/6276.got.cif
#   From: 2010.03.12/outbox.cif.g09.slc.cpg/sg51_4_cif.got.tgz:6276.got - 2010.04.16 13:43:02.
