data_PCOD8212285
_publ_section_title
;
Structure prediction by ZEFSAII (Michael W. Deem and Ramdas Pophale) SiO2 
 PCOD8212285
Probable space group: P M M A
;
_chemical_formula_sum "Si O2"
_cell_formula_units_Z 64
_cell_length_a 18.104379
_cell_length_b 14.034484
_cell_length_c 12.345296
_cell_angle_alpha 90.000000
_cell_angle_beta 90.000000
_cell_angle_gamma 90.000000
_cell_volume 3136.762156
_symmetry_space_group_name_H-M "P M M A"
_symmetry_group_IT_number 51
_symmetry_cell_setting 'orthorhombic'
loop_
_space_group_symop_operation_xyz
x,y,z
1/2-x,-y,z
1/2+x,-y,-z
-x,y,-z
-x,-y,-z
1/2+x,y,-z
1/2-x,y,z
x,-y,z
loop_
_atom_site_type_symbol
_atom_site_label
_atom_site_fract_x
_atom_site_fract_y
_atom_site_fract_z
Si Si1 0.936521 0.692013 0.691291
Si Si2 0.089889 0.104767 0.267040
Si Si3 0.665342 0.899999 0.516464
Si Si4 0.166185 0.609916 0.132153
Si Si5 0.334471 0.711542 0.910366
Si Si6 0.837112 0.694644 0.488100
Si Si7 0.093013 0.390708 0.715009
Si Si8 0.835262 0.893454 0.962359
O O1 0.960558 0.804406 0.698269
O O2 0.890932 0.671363 0.799589
O O3 0.884582 0.661725 0.591173
O O4 0.009113 0.628601 0.680845
O O5 0.156842 0.107317 0.353302
O O6 0.120019 0.120964 0.147253
O O7 0.049747 0.000000 0.273480
O O8 0.750000 0.908480 0.487928
O O9 0.636191 0.803442 0.459553
O O10 0.626751 0.000000 0.475623
O O11 0.250000 0.631738 0.169708
O O12 0.146343 0.500000 0.146786
O O13 0.156478 0.636813 0.007094
O O14 0.250000 0.714691 0.869097
O O15 0.386230 0.678425 0.813197
O O16 0.361332 0.816850 0.948162
O O17 0.750000 0.689935 0.516540
O O18 0.853800 0.627664 0.386850
O O19 0.102773 0.500000 0.750725
O O20 0.750000 0.873835 0.934332
O O21 0.847318 0.000000 0.009364
#
# Coordination Sequence:
#
# PCOD8212285 Si02
#       8
#     8   8   8   8   8   8   8   8
#     4  11  22  39  61  89 123 151 188 245 308 354
#     4   9  16  29  53  86 122 156 187 224 285 358
#     4   8  14  27  52  87 120 146 178 226 286 348
#     4  10  20  35  58  87 115 148 194 249 302 342
#     4  10  21  39  61  85 117 155 198 245 288 342
#     4  10  22  40  64  90 115 149 196 247 298 351
#     4  12  27  44  60  79 112 161 208 245 292 360
#     4   9  16  29  55  90 123 155 193 237 287 344
#
# _framework density 20.403205
#
# number of rings (size 3 to 8) (size 9 to 14) (size 15 to 20)
#    0.000    2.125    1.250    2.250    0.000    6.000 
#    0.000    3.125    0.000    7.500    0.000    0.000 
#    0.000    0.000    0.000    0.000    0.000    0.000 
#
# Total GULP energy -793082.810935 kJ/mol
# GULP energy per Si atom -12391.918921 kJ/mol
# Density = 2.035677 g / cm^3
# Si number density = 20.403205 Si / 1000 Ang^3
#
#
#
# Elastic Constant Matrix: (Units=GPa)
#
#
# Indices 1 2 3 4 5 6 
#
# 1 54.0039 19.8890 20.8861 0.0000 0.0000 0.0000
# 2 19.8890 120.9705 31.2971 0.0000 0.0000 0.0000
# 3 20.8861 31.2971 68.8025 0.0000 0.0000 0.0000
# 4 0.0000 0.0000 0.0000 30.7811 0.0000 0.0000
# 5 0.0000 0.0000 0.0000 0.0000 17.5264 0.0000
# 6 0.0000 0.0000 0.0000 0.0000 0.0000 22.9299
#
#
#
# Elastic Compliance Matrix: (Units=1/GPa)
#
#
# Indices 1 2 3 4 5 6 
#
# 1 0.021435 -0.002086 -0.005558 0.000000 0.000000 0.000000
# 2 -0.002086 0.009572 -0.003721 0.000000 0.000000 0.000000
# 3 -0.005558 -0.003721 0.017914 0.000000 0.000000 0.000000
# 4 0.000000 0.000000 0.000000 0.032488 0.000000 0.000000
# 5 0.000000 0.000000 0.000000 0.000000 0.057057 0.000000
# 6 0.000000 0.000000 0.000000 0.000000 0.000000 0.043611
#
#
# Mechanical properties :
#
#
# Convention : Reuss Voigt Hill
#
# Bulk Modulus (GPa) = 38.18082 43.10235 40.64158
# Shear Modulus (GPa) = 23.41508 25.69444 24.55476
#
# Velocity S-wave (km/s) = 3.39133 3.55256 3.47288
# Velocity P-wave (km/s) = 5.83854 6.16431 6.00364
#
# Compressibility (1/GPa) = 0.02619116
#
# Stress axis : x y z
#
# Youngs Moduli (GPa) = 46.65248 104.46992 55.82181
#
# Poissons Ratio (x) = 0.21795 0.31026
# Poissons Ratio (y) = 0.09733 0.20771
# Poissons Ratio (z) = 0.25929 0.38872
#
# Static dielectric constant tensor:
#      x y z
#    x 3.342880 0.000000 0.000000 
#    y 0.000000 4.265480 0.000000 
#    z 0.000000 0.000000 3.419690 
# 
# 
# High freq. dielectric constant tensor:
#      x y z
#    x 1.761680 0.000000 0.000000 
#    y 0.000000 1.823040 0.000000 
#    z 0.000000 0.000000 1.779050 
# 
# From -- ./inp_files/17605.got.cif
#   From: 2010.03.12/outbox.cif.g09.slc.cpg/sg51_9_cif.got.tgz:17605.got - 2010.04.16 13:43:02.
