data_PCOD8212043
_publ_section_title
;
Structure prediction by ZEFSAII (Michael W. Deem and Ramdas Pophale) SiO2 
 PCOD8212043
Probable space group: P M M A
;
_chemical_formula_sum "Si O2"
_cell_formula_units_Z 48
_cell_length_a 26.655142
_cell_length_b 9.067773
_cell_length_c 10.275767
_cell_angle_alpha 90.000000
_cell_angle_beta 90.000000
_cell_angle_gamma 90.000000
_cell_volume 2483.681419
_symmetry_space_group_name_H-M "P M M A"
_symmetry_group_IT_number 51
_symmetry_cell_setting 'orthorhombic'
loop_
_space_group_symop_operation_xyz
x,y,z
1/2-x,-y,z
1/2+x,-y,-z
-x,y,-z
-x,-y,-z
1/2+x,y,-z
1/2-x,y,z
x,-y,z
loop_
_atom_site_type_symbol
_atom_site_label
_atom_site_fract_x
_atom_site_fract_y
_atom_site_fract_z
Si Si1 0.307874 0.829191 0.633251
Si Si2 0.857394 0.675039 0.605893
Si Si3 0.529112 0.675409 0.624799
Si Si4 0.029928 0.674979 0.874827
Si Si5 0.135189 0.828685 0.895234
Si Si6 0.807977 0.170617 0.845628
O O1 0.250000 0.783596 0.625581
O O2 0.338756 0.731012 0.532971
O O3 0.326653 0.795462 0.778377
O O4 0.315404 0.000000 0.596782
O O5 0.854823 0.500000 0.606851
O O6 0.913979 0.733398 0.626453
O O7 0.822820 0.735058 0.720742
O O8 0.500000 0.739505 0.500000
O O9 0.528730 0.500000 0.622401
O O10 0.500519 0.735730 0.751187
O O11 0.033893 0.500000 0.873449
O O12 0.085416 0.737001 0.872427
O O13 0.000000 0.732467 0.000000
O O14 0.121287 0.000000 0.901407
O O15 0.160751 0.776232 0.029195
O O16 0.750000 0.198232 0.877323
O O17 0.818303 0.000000 0.814230
#
# Coordination Sequence:
#
# PCOD8212043 Si02
#       6
#     8   8   8   8   8   8
#     4  10  21  38  58  80 110 147 183 222 274 332
#     4  11  22  36  57  84 111 141 182 229 271 317
#     4   9  18  33  52  74 103 140 177 213 260 319
#     4  10  20  35  55  78 107 144 181 218 269 328
#     4  10  21  37  58  83 109 141 185 231 270 315
#     4  10  21  38  58  79 108 147 184 219 268 328
#
# _framework density 19.326149000000001
#
# number of rings (size 3 to 8) (size 9 to 14) (size 15 to 20)
#    0.000    2.000    0.000    3.500    0.000    9.000 
#    0.000    1.667    0.000    7.500    0.000    0.000 
#    0.000    0.000    0.000    0.000    0.000    0.000 
#
# Total GULP energy -595400.162409 kJ/mol
# GULP energy per Si atom -12404.170050 kJ/mol
# Density = 1.928216 g / cm^3
# Si number density = 19.326149 Si / 1000 Ang^3
#
#
#
# Elastic Constant Matrix: (Units=GPa)
#
#
# Indices 1 2 3 4 5 6 
#
# 1 108.9817 26.1832 25.3730 0.0000 0.0000 0.0000
# 2 26.1832 38.8987 24.9785 0.0000 0.0000 0.0000
# 3 25.3730 24.9785 117.1281 0.0000 0.0000 0.0000
# 4 0.0000 0.0000 0.0000 9.9493 0.0000 0.0000
# 5 0.0000 0.0000 0.0000 0.0000 44.6198 0.0000
# 6 0.0000 0.0000 0.0000 0.0000 0.0000 29.2581
#
#
#
# Elastic Compliance Matrix: (Units=1/GPa)
#
#
# Indices 1 2 3 4 5 6 
#
# 1 0.011034 -0.006827 -0.000934 0.000000 0.000000 0.000000
# 2 -0.006827 0.034011 -0.005774 0.000000 0.000000 0.000000
# 3 -0.000934 -0.005774 0.009971 0.000000 0.000000 0.000000
# 4 0.000000 0.000000 0.000000 0.100510 0.000000 0.000000
# 5 0.000000 0.000000 0.000000 0.000000 0.022412 0.000000
# 6 0.000000 0.000000 0.000000 0.000000 0.000000 0.034179
#
#
# Mechanical properties :
#
#
# Convention : Reuss Voigt Hill
#
# Bulk Modulus (GPa) = 35.78432 46.45308 41.11870
# Shear Modulus (GPa) = 20.12062 29.33037 24.72550
#
# Velocity S-wave (km/s) = 3.23012 3.89993 3.58072
# Velocity P-wave (km/s) = 5.69805 6.66092 6.19821
#
# Compressibility (1/GPa) = 0.02794520
#
# Stress axis : x y z
#
# Youngs Moduli (GPa) = 90.63275 29.40232 100.28645
#
# Poissons Ratio (x) = 0.20073 0.09369
# Poissons Ratio (y) = 0.61874 0.57907
# Poissons Ratio (z) = 0.08468 0.16978
#
# Static dielectric constant tensor:
#      x y z
#    x 3.672890 0.000000 0.000000 
#    y 0.000000 3.283520 0.000000 
#    z 0.000000 0.000000 3.807150 
# 
# 
# High freq. dielectric constant tensor:
#      x y z
#    x 1.768620 0.000000 0.000000 
#    y 0.000000 1.726330 0.000000 
#    z 0.000000 0.000000 1.771440 
# 
# From -- ./inp_files/12791.got.cif
#   From: 2010.03.12/outbox.cif.g09.slc.cpg/sg51_7_cif.got.tgz:12791.got - 2010.04.16 13:43:02.
