data_PCOD8212548
_publ_section_title
;
Structure prediction by ZEFSAII (Michael W. Deem and Ramdas Pophale) SiO2 
 PCOD8212548
Probable space group: P M M A
;
_chemical_formula_sum "Si O2"
_cell_formula_units_Z 64
_cell_length_a 30.948747
_cell_length_b 8.426860
_cell_length_c 12.064278
_cell_angle_alpha 90.000000
_cell_angle_beta 90.000000
_cell_angle_gamma 90.000000
_cell_volume 3146.372849
_symmetry_space_group_name_H-M "P M M A"
_symmetry_group_IT_number 51
_symmetry_cell_setting 'orthorhombic'
loop_
_space_group_symop_operation_xyz
x,y,z
1/2-x,-y,z
1/2+x,-y,-z
-x,y,-z
-x,-y,-z
1/2+x,y,-z
1/2-x,y,z
x,-y,z
loop_
_atom_site_type_symbol
_atom_site_label
_atom_site_fract_x
_atom_site_fract_y
_atom_site_fract_z
Si Si1 0.580147 0.183231 0.763649
Si Si2 0.451439 0.683697 0.013084
Si Si3 0.298070 0.184255 0.024722
Si Si4 0.375328 0.810991 0.623173
Si Si5 0.547161 0.811286 0.527506
Si Si6 0.201807 0.817061 0.468995
Si Si7 0.125092 0.813610 0.871154
Si Si8 0.172117 0.317665 0.246729
O O1 0.562231 0.292394 0.860714
O O2 0.558614 0.244800 0.650796
O O3 0.631219 0.201873 0.753833
O O4 0.569105 0.000000 0.788188
O O5 0.448811 0.500000 0.981342
O O6 0.500000 0.749614 0.000000
O O7 0.419949 0.777082 0.930821
O O8 0.250000 0.206394 0.973409
O O9 0.334053 0.254565 0.940365
O O10 0.307654 0.000000 0.049351
O O11 0.299262 0.280179 0.139314
O O12 0.417487 0.744046 0.559057
O O13 0.332293 0.752959 0.559454
O O14 0.374868 0.739543 0.747510
O O15 0.376896 0.000000 0.627041
O O16 0.500000 0.741402 0.500000
O O17 0.547262 0.000000 0.521066
O O18 0.250000 0.797668 0.518705
O O19 0.199451 0.715822 0.356831
O O20 0.191714 0.000000 0.440180
O O21 0.130685 0.000000 0.861300
O O22 0.157317 0.500000 0.244340
#
# Coordination Sequence:
#
# PCOD8212548 Si02
#       8
#     8   8   8   8   8   8   8   8
#     4  11  21  37  64  90 116 149 193 241 289 342
#     4  11  25  42  59  84 122 159 192 236 292 349
#     4  10  21  37  57  84 117 151 192 243 294 343
#     4   9  18  34  55  83 116 147 188 239 287 335
#     4   9  18  32  55  87 118 143 177 234 290 331
#     4  10  20  36  59  85 115 152 193 238 286 337
#     4  10  21  37  61  87 114 152 199 245 289 346
#     4  12  23  36  57  85 120 154 191 237 292 348
#
# _framework density 20.340883000000002
#
# number of rings (size 3 to 8) (size 9 to 14) (size 15 to 20)
#    0.000    1.750    2.500    2.250    1.750    3.500 
#    0.000    3.125    0.000    1.500    0.000    1.750 
#    0.000    0.000    0.000    0.000    0.000    0.000 
#
# Total GULP energy -793729.977227 kJ/mol
# GULP energy per Si atom -12402.030894 kJ/mol
# Density = 2.029459 g / cm^3
# Si number density = 20.340883 Si / 1000 Ang^3
#
#
#
# Elastic Constant Matrix: (Units=GPa)
#
#
# Indices 1 2 3 4 5 6 
#
# 1 165.5880 7.4256 73.0256 0.0000 0.0000 0.0000
# 2 7.4256 26.8781 13.7321 0.0000 0.0000 0.0000
# 3 73.0256 13.7321 162.6614 0.0000 0.0000 0.0000
# 4 0.0000 0.0000 0.0000 5.2069 0.0000 0.0000
# 5 0.0000 0.0000 0.0000 0.0000 1357.9575 0.0000
# 6 0.0000 0.0000 0.0000 0.0000 0.0000 15.1160
#
#
#
# Elastic Compliance Matrix: (Units=1/GPa)
#
#
# Indices 1 2 3 4 5 6 
#
# 1 0.007533 -0.000369 -0.003351 0.000000 0.000000 0.000000
# 2 -0.000369 0.038900 -0.003118 0.000000 0.000000 0.000000
# 3 -0.003351 -0.003118 0.007915 0.000000 0.000000 0.000000
# 4 0.000000 0.000000 0.000000 0.192051 0.000000 0.000000
# 5 0.000000 0.000000 0.000000 0.000000 0.000736 0.000000
# 6 0.000000 0.000000 0.000000 0.000000 0.000000 0.066155
#
#
# Mechanical properties :
#
#
# Convention : Reuss Voigt Hill
#
# Bulk Modulus (GPa) = 24.58689 60.38824 42.48756
# Shear Modulus (GPa) = 14.68317 293.05237 153.86777
#
# Velocity S-wave (km/s) = 2.68965 12.01596 8.70683
# Velocity P-wave (km/s) = 4.66469 14.90851 11.04588
#
# Compressibility (1/GPa) = 0.04067208
#
# Stress axis : x y z
#
# Youngs Moduli (GPa) = 132.74195 25.70687 126.33688
#
# Poissons Ratio (x) = 0.00949 0.42334
# Poissons Ratio (y) = 0.04902 0.39395
# Poissons Ratio (z) = 0.44480 0.08016
#
# Static dielectric constant tensor:
#      x y z
#    x 3.822370 0.000000 0.000000 
#    y 0.000000 3.224550 0.000000 
#    z 0.000000 0.000000 3.885050 
# 
# 
# High freq. dielectric constant tensor:
#      x y z
#    x 1.807340 0.000000 0.000000 
#    y 0.000000 1.756520 0.000000 
#    z 0.000000 0.000000 1.797330 
# 
# From -- ./inp_files/19494.got.cif
#   From: 2010.03.12/outbox.cif.g09.slc.cpg/sg51_10_cif.got.tgz:19494.got - 2010.04.16 13:43:02.
