data_PCOD8212997
_publ_section_title
;
Structure prediction by ZEFSAII (Michael W. Deem and Ramdas Pophale) SiO2 
 PCOD8212997
Probable space group: P M M A
;
_chemical_formula_sum "Si O2"
_cell_formula_units_Z 64
_cell_length_a 18.708870
_cell_length_b 9.423211
_cell_length_c 21.458676
_cell_angle_alpha 90.000000
_cell_angle_beta 90.000000
_cell_angle_gamma 90.000000
_cell_volume 3783.113713
_symmetry_space_group_name_H-M "P M M A"
_symmetry_group_IT_number 51
_symmetry_cell_setting 'orthorhombic'
loop_
_space_group_symop_operation_xyz
x,y,z
1/2-x,-y,z
1/2+x,-y,-z
-x,y,-z
-x,-y,-z
1/2+x,y,-z
1/2-x,y,z
x,-y,z
loop_
_atom_site_type_symbol
_atom_site_label
_atom_site_fract_x
_atom_site_fract_y
_atom_site_fract_z
Si Si1 0.904682 0.836132 0.351015
Si Si2 0.623543 0.336928 0.238502
Si Si3 0.833197 0.664851 0.598767
Si Si4 0.537924 0.163151 0.060829
Si Si5 0.431729 0.840629 0.316294
Si Si6 0.496506 0.840842 0.193393
Si Si7 0.667300 0.835931 0.477392
Si Si8 0.828844 0.337356 0.106310
O O1 0.856637 0.751758 0.300346
O O2 0.881201 0.785935 0.419580
O O3 0.988579 0.805536 0.341157
O O4 0.885757 0.000000 0.342173
O O5 0.618944 0.500000 0.258454
O O6 0.547730 0.285102 0.213276
O O7 0.677389 0.311854 0.181046
O O8 0.750000 0.691057 0.611925
O O9 0.851536 0.500000 0.592117
O O10 0.876169 0.728691 0.656742
O O11 0.857677 0.742801 0.535856
O O12 0.482470 0.178533 0.119375
O O13 0.612994 0.239487 0.073162
O O14 0.557086 0.000000 0.048068
O O15 0.500000 0.229892 0.000000
O O16 0.428662 0.828426 0.240132
O O17 0.410124 0.000000 0.336913
O O18 0.530201 0.000000 0.204090
O O19 0.750000 0.808334 0.460904
O O20 0.653663 0.000000 0.494122
O O21 0.750000 0.303761 0.078847
O O22 0.850832 0.500000 0.093573
#
# Coordination Sequence:
#
# PCOD8212997 Si02
#       8
#     8   8   8   8   8   8   8   8
#     4   9  18  31  46  68  96 122 151 188 228 270
#     4   9  16  26  42  64  90 121 154 186 222 264
#     4  10  21  35  49  66  88 113 146 193 243 283
#     4   9  17  30  50  75 100 126 158 196 236 278
#     4   9  17  30  49  69  90 118 149 184 225 271
#     4   8  15  29  47  68  94 119 144 179 224 270
#     4   9  18  33  50  65  86 120 157 188 223 276
#     4   9  18  31  45  65  96 131 166 200 230 269
#
# _framework density 16.917282
#
# number of rings (size 3 to 8) (size 9 to 14) (size 15 to 20)
#    0.000    3.000    0.000    1.500    0.000    5.250 
#    0.000    2.500    0.000    0.750    0.000    5.250 
#    0.000    0.000    0.000    0.000    0.000    0.000 
#
# Total GULP energy -793048.854063 kJ/mol
# GULP energy per Si atom -12391.388345 kJ/mol
# Density = 1.687878 g / cm^3
# Si number density = 16.917282 Si / 1000 Ang^3
#
#
#
# Elastic Constant Matrix: (Units=GPa)
#
#
# Indices 1 2 3 4 5 6 
#
# 1 57.0977 39.5927 52.8712 0.0000 0.0000 0.0000
# 2 39.5927 75.4479 53.6396 0.0000 0.0000 0.0000
# 3 52.8712 53.6396 133.0086 0.0000 0.0000 0.0000
# 4 0.0000 0.0000 0.0000 23.3053 0.0000 0.0000
# 5 0.0000 0.0000 0.0000 0.0000 19.9486 0.0000
# 6 0.0000 0.0000 0.0000 0.0000 0.0000 20.6744
#
#
#
# Elastic Compliance Matrix: (Units=1/GPa)
#
#
# Indices 1 2 3 4 5 6 
#
# 1 0.033469 -0.011363 -0.008722 0.000000 0.000000 0.000000
# 2 -0.011363 0.022440 -0.004533 0.000000 0.000000 0.000000
# 3 -0.008722 -0.004533 0.012813 0.000000 0.000000 0.000000
# 4 0.000000 0.000000 0.000000 0.042909 0.000000 0.000000
# 5 0.000000 0.000000 0.000000 0.000000 0.050129 0.000000
# 6 0.000000 0.000000 0.000000 0.000000 0.000000 0.048369
#
#
# Mechanical properties :
#
#
# Convention : Reuss Voigt Hill
#
# Bulk Modulus (GPa) = 51.31511 61.97348 56.64430
# Shear Modulus (GPa) = 18.80702 20.74906 19.77804
#
# Velocity S-wave (km/s) = 3.33784 3.50594 3.42292
# Velocity P-wave (km/s) = 6.72709 7.28709 7.01268
#
# Compressibility (1/GPa) = 0.01948744
#
# Stress axis : x y z
#
# Youngs Moduli (GPa) = 29.87830 44.56422 78.04523
#
# Poissons Ratio (x) = 0.50638 0.68068
# Poissons Ratio (y) = 0.33950 0.35375
# Poissons Ratio (z) = 0.26059 0.20199
#
# Static dielectric constant tensor:
#      x y z
#    x 2.900080 0.000000 0.000000 
#    y 0.000000 3.193150 0.000000 
#    z 0.000000 0.000000 3.368210 
# 
# 
# High freq. dielectric constant tensor:
#      x y z
#    x 1.616200 0.000000 0.000000 
#    y 0.000000 1.655200 0.000000 
#    z 0.000000 0.000000 1.652020 
# 
# From -- ./inp_files/30633.got.cif
#   From: 2010.03.12/outbox.cif.g09.slc.cpg/sg51_16_cif.got.tgz:30633.got - 2010.04.16 13:43:02.
