data_PCOD8212047
_publ_section_title
;
Structure prediction by ZEFSAII (Michael W. Deem and Ramdas Pophale) SiO2 
 PCOD8212047
Probable space group: P M M A
;
_chemical_formula_sum "Si O2"
_cell_formula_units_Z 44
_cell_length_a 8.787477
_cell_length_b 28.781782
_cell_length_c 9.421667
_cell_angle_alpha 90.000000
_cell_angle_beta 90.000000
_cell_angle_gamma 90.000000
_cell_volume 2382.920926
_symmetry_space_group_name_H-M "P M M A"
_symmetry_group_IT_number 51
_symmetry_cell_setting 'orthorhombic'
loop_
_space_group_symop_operation_xyz
x,y,z
1/2-x,-y,z
1/2+x,-y,-z
-x,y,-z
-x,-y,-z
1/2+x,y,-z
1/2-x,y,z
x,-y,z
loop_
_atom_site_type_symbol
_atom_site_label
_atom_site_fract_x
_atom_site_fract_y
_atom_site_fract_z
Si Si1 0.429124 0.767047 0.153672
Si Si2 0.930232 0.681592 0.651005
Si Si3 0.428973 0.500000 0.846421
Si Si4 0.071454 0.049019 0.346910
Si Si5 0.569086 0.415373 0.348274
Si Si6 0.430095 0.149511 0.345073
O O1 0.250000 0.770993 0.137630
O O2 0.476507 0.720618 0.236409
O O3 0.494453 0.811525 0.238867
O O4 0.500000 0.765547 0.000000
O O5 0.750000 0.676205 0.634527
O O6 0.000000 0.695898 0.500000
O O7 0.001788 0.633439 0.705924
O O8 0.250000 0.500000 0.862856
O O9 0.483476 0.454355 0.762645
O O10 0.500000 0.500000 0.000000
O O11 0.250000 0.049589 0.367727
O O12 0.023664 0.098595 0.277428
O O13 0.000000 0.047655 0.500000
O O14 0.024260 0.000000 0.266382
O O15 0.500000 0.428812 0.500000
O O16 0.750000 0.411935 0.362066
O O17 0.500000 0.156895 0.500000
O O18 0.250000 0.154711 0.361669
#
# Coordination Sequence:
#
# PCOD8212047 Si02
#       6
#     8   8   4   8   8   8
#     4  10  22  36  50  70  98 131 166 202 243 292
#     4  10  20  35  55  79 102 128 164 205 248 294
#     4  10  23  38  54  78 108 140 173 206 244 290
#     4   8  13  22  39  64  92 119 149 190 239 286
#     4  10  20  36  57  81 105 133 168 205 246 292
#     4   9  17  30  48  71  96 124 160 200 242 290
#
# _framework density 18.464732999999999
#
# number of rings (size 3 to 8) (size 9 to 14) (size 15 to 20)
#    0.000    2.545    0.000    3.000    0.000    4.364 
#    0.000    3.636    0.000    0.545    0.000    0.000 
#    0.000    0.000    0.000    0.000    0.000    0.000 
#
# Total GULP energy -545184.386866 kJ/mol
# GULP energy per Si atom -12390.554247 kJ/mol
# Density = 1.842271 g / cm^3
# Si number density = 18.464733 Si / 1000 Ang^3
#
#
#
# Elastic Constant Matrix: (Units=GPa)
#
#
# Indices 1 2 3 4 5 6 
#
# 1 42.8572 48.8001 33.2214 0.0000 0.0000 0.0000
# 2 48.8001 207.6580 109.5149 0.0000 0.0000 0.0000
# 3 33.2214 109.5149 119.4289 0.0000 0.0000 0.0000
# 4 0.0000 0.0000 0.0000 8.3559 0.0000 0.0000
# 5 0.0000 0.0000 0.0000 0.0000 28.8784 0.0000
# 6 0.0000 0.0000 0.0000 0.0000 0.0000 19.2110
#
#
#
# Elastic Compliance Matrix: (Units=1/GPa)
#
#
# Indices 1 2 3 4 5 6 
#
# 1 0.032808 -0.005610 -0.003982 0.000000 0.000000 0.000000
# 2 -0.005610 0.010285 -0.007870 0.000000 0.000000 0.000000
# 3 -0.003982 -0.007870 0.016698 0.000000 0.000000 0.000000
# 4 0.000000 0.000000 0.000000 0.119676 0.000000 0.000000
# 5 0.000000 0.000000 0.000000 0.000000 0.034628 0.000000
# 6 0.000000 0.000000 0.000000 0.000000 0.000000 0.052053
#
#
# Mechanical properties :
#
#
# Convention : Reuss Voigt Hill
#
# Bulk Modulus (GPa) = 40.21570 83.66854 61.94212
# Shear Modulus (GPa) = 16.16238 23.18292 19.67265
#
# Velocity S-wave (km/s) = 2.96178 3.54718 3.26761
# Velocity P-wave (km/s) = 5.78992 7.88591 6.91776
#
# Compressibility (1/GPa) = 0.02486591
#
# Stress axis : x y z
#
# Youngs Moduli (GPa) = 30.48060 97.23213 59.88787
#
# Poissons Ratio (x) = 0.54547 0.23846
# Poissons Ratio (y) = 0.17099 0.47134
# Poissons Ratio (z) = 0.12137 0.76526
#
# Static dielectric constant tensor:
#      x y z
#    x 3.358420 0.000000 0.000000 
#    y 0.000000 4.207780 0.000000 
#    z 0.000000 0.000000 3.201800 
# 
# 
# High freq. dielectric constant tensor:
#      x y z
#    x 1.714640 0.000000 0.000000 
#    y 0.000000 1.748640 0.000000 
#    z 0.000000 0.000000 1.680160 
# 
# From -- ./inp_files/5842.got.cif
#   From: 2010.03.12/outbox.cif.g09.slc.cpg/sg51_3_cif.got.tgz:5842.got - 2010.04.16 13:43:02.
