data_PCOD8212897
_publ_section_title
;
Structure prediction by ZEFSAII (Michael W. Deem and Ramdas Pophale) SiO2 
 PCOD8212897
Probable space group: P M M A
;
_chemical_formula_sum "Si O2"
_cell_formula_units_Z 64
_cell_length_a 18.624934
_cell_length_b 9.201506
_cell_length_c 20.185326
_cell_angle_alpha 90.000000
_cell_angle_beta 90.000000
_cell_angle_gamma 90.000000
_cell_volume 3459.309535
_symmetry_space_group_name_H-M "P M M A"
_symmetry_group_IT_number 51
_symmetry_cell_setting 'orthorhombic'
loop_
_space_group_symop_operation_xyz
x,y,z
1/2-x,-y,z
1/2+x,-y,-z
-x,y,-z
-x,-y,-z
1/2+x,y,-z
1/2-x,y,z
x,-y,z
loop_
_atom_site_type_symbol
_atom_site_label
_atom_site_fract_x
_atom_site_fract_y
_atom_site_fract_z
Si Si1 0.833142 0.170331 0.181256
Si Si2 0.165233 0.833499 0.581864
Si Si3 0.664815 0.160732 0.032739
Si Si4 0.921313 0.667649 0.522877
Si Si5 0.835546 0.337315 0.909235
Si Si6 0.572432 0.333578 0.677232
Si Si7 0.833639 0.169305 0.780066
Si Si8 0.092155 0.329065 0.702073
O O1 0.750000 0.207855 0.194588
O O2 0.855802 0.213590 0.106436
O O3 0.882631 0.266624 0.227965
O O4 0.846610 0.000000 0.194179
O O5 0.250000 0.820956 0.581541
O O6 0.136863 0.766332 0.513567
O O7 0.135992 0.745181 0.643810
O O8 0.139979 0.000000 0.587686
O O9 0.750000 0.153091 0.027275
O O10 0.633192 0.000000 0.019710
O O11 0.633162 0.268177 0.977001
O O12 0.908800 0.500000 0.503110
O O13 0.912135 0.693426 0.600435
O O14 0.000000 0.717305 0.500000
O O15 0.750000 0.336456 0.911463
O O16 0.865887 0.500000 0.903254
O O17 0.863019 0.246476 0.846316
O O18 0.588322 0.500000 0.696747
O O19 0.625124 0.229256 0.716776
O O20 0.491102 0.291911 0.693684
O O21 0.750000 0.202317 0.769354
O O22 0.849070 0.000000 0.788006
O O23 0.106710 0.500000 0.699020
#
# Coordination Sequence:
#
# PCOD8212897 Si02
#       8
#     8   8   8   8   8   8   8   8
#     4   9  18  32  50  76 111 147 184 228 275 323
#     4  11  24  39  57  85 117 146 181 226 273 323
#     4   8  14  26  45  70 103 142 180 220 269 322
#     4  10  20  40  63  82 108 142 182 225 271 326
#     4   9  16  27  47  75 106 139 177 222 270 321
#     4  10  22  39  59  81 108 142 180 222 269 324
#     4  10  21  36  55  81 111 141 177 222 271 326
#     4  11  22  37  56  79 109 146 187 228 270 322
#
# _framework density 18.500800999999999
#
# number of rings (size 3 to 8) (size 9 to 14) (size 15 to 20)
#    0.000    2.250    1.250    2.625    0.000    7.750 
#    0.000    3.750    0.000    0.750    0.000    5.250 
#    0.000    0.000    0.000    0.000    0.000    0.000 
#
# Total GULP energy -793701.348630 kJ/mol
# GULP energy per Si atom -12401.583572 kJ/mol
# Density = 1.845869 g / cm^3
# Si number density = 18.500801 Si / 1000 Ang^3
#
#
#
# Elastic Constant Matrix: (Units=GPa)
#
#
# Indices 1 2 3 4 5 6 
#
# 1 52.8323 49.3297 45.0262 0.0000 0.0000 0.0000
# 2 49.3297 113.8655 68.8040 0.0000 0.0000 0.0000
# 3 45.0262 68.8040 128.4275 0.0000 0.0000 0.0000
# 4 0.0000 0.0000 0.0000 88.5175 0.0000 0.0000
# 5 0.0000 0.0000 0.0000 0.0000 32.6919 0.0000
# 6 0.0000 0.0000 0.0000 0.0000 0.0000 23.6988
#
#
#
# Elastic Compliance Matrix: (Units=1/GPa)
#
#
# Indices 1 2 3 4 5 6 
#
# 1 0.034729 -0.011368 -0.006085 0.000000 0.000000 0.000000
# 2 -0.011368 0.016708 -0.004965 0.000000 0.000000 0.000000
# 3 -0.006085 -0.004965 0.012580 0.000000 0.000000 0.000000
# 4 0.000000 0.000000 0.000000 0.011297 0.000000 0.000000
# 5 0.000000 0.000000 0.000000 0.000000 0.030589 0.000000
# 6 0.000000 0.000000 0.000000 0.000000 0.000000 0.042196
#
#
# Mechanical properties :
#
#
# Convention : Reuss Voigt Hill
#
# Bulk Modulus (GPa) = 52.14141 69.04945 60.59543
# Shear Modulus (GPa) = 25.08414 37.77932 31.43173
#
# Velocity S-wave (km/s) = 3.68617 4.52379 4.12629
# Velocity P-wave (km/s) = 6.80894 8.04299 7.45155
#
# Compressibility (1/GPa) = 0.01917861
#
# Stress axis : x y z
#
# Youngs Moduli (GPa) = 28.79469 59.85272 79.49081
#
# Poissons Ratio (x) = 0.68043 0.48372
# Poissons Ratio (y) = 0.32735 0.39470
# Poissons Ratio (z) = 0.17522 0.29719
#
# Static dielectric constant tensor:
#      x y z
#    x 3.328880 0.000000 0.000000 
#    y 0.000000 3.563530 0.000000 
#    z 0.000000 0.000000 3.583180 
# 
# 
# High freq. dielectric constant tensor:
#      x y z
#    x 1.685290 0.000000 0.000000 
#    y 0.000000 1.723830 0.000000 
#    z 0.000000 0.000000 1.734170 
# 
# From -- ./inp_files/33758.got.cif
#   From: 2010.03.12/outbox.cif.g09.slc.cpg/sg51_17_cif.got.tgz:33758.got - 2010.04.16 13:43:02.
