data_PCOD8212463
_publ_section_title
;
Structure prediction by ZEFSAII (Michael W. Deem and Ramdas Pophale) SiO2 
 PCOD8212463
Probable space group: P M M A
;
_chemical_formula_sum "Si O2"
_cell_formula_units_Z 48
_cell_length_a 9.802459
_cell_length_b 17.910945
_cell_length_c 14.399640
_cell_angle_alpha 90.000000
_cell_angle_beta 90.000000
_cell_angle_gamma 90.000000
_cell_volume 2528.163572
_symmetry_space_group_name_H-M "P M M A"
_symmetry_group_IT_number 51
_symmetry_cell_setting 'orthorhombic'
loop_
_space_group_symop_operation_xyz
x,y,z
1/2-x,-y,z
1/2+x,-y,-z
-x,y,-z
-x,-y,-z
1/2+x,y,-z
1/2-x,y,z
x,-y,z
loop_
_atom_site_type_symbol
_atom_site_label
_atom_site_fract_x
_atom_site_fract_y
_atom_site_fract_z
Si Si1 0.250000 0.089722 0.133026
Si Si2 0.406262 0.318802 0.780861
Si Si3 0.600904 0.312917 0.426352
Si Si4 0.473298 0.144976 0.786814
Si Si5 0.595291 0.137123 0.418853
Si Si6 0.908479 0.586548 0.911079
Si Si7 0.250000 0.913400 0.922780
O O1 0.373746 0.125670 0.188587
O O2 0.250000 0.000000 0.139344
O O3 0.250000 0.120677 0.027017
O O4 0.250000 0.331378 0.817462
O O5 0.416264 0.347586 0.675270
O O6 0.443586 0.232526 0.789230
O O7 0.521838 0.366288 0.830714
O O8 0.500000 0.351074 0.500000
O O9 0.750000 0.329036 0.466298
O O10 0.574310 0.225252 0.418543
O O11 0.441833 0.109536 0.685199
O O12 0.383480 0.108377 0.866758
O O13 0.500000 0.101453 0.500000
O O14 0.750000 0.113657 0.441564
O O15 0.750000 0.610573 0.926500
O O16 0.916175 0.500000 0.884135
O O17 0.000000 0.604213 0.000000
O O18 0.250000 0.000000 0.939155
#
# Coordination Sequence:
#
# PCOD8212463 Si02
#       7
#     4   8   8   8   8   8   4
#     4  11  26  40  57  85 112 148 199 242 285 349
#     4  10  20  36  57  86 117 146 188 236 282 331
#     4   8  15  28  47  76 111 143 177 222 273 329
#     4  11  21  39  59  86 117 148 189 243 289 338
#     4   9  17  31  54  82 111 144 181 227 287 345
#     4  10  22  39  58  82 114 154 194 231 280 339
#     4  11  22  42  63  77 106 154 195 232 291 349
#
# _framework density 18.986113
#
# number of rings (size 3 to 8) (size 9 to 14) (size 15 to 20)
#    0.000    2.167    1.667    2.500    2.333    4.333 
#    3.000    0.000    0.000    3.500    0.000    0.000 
#    0.000    0.000    0.000    0.000    0.000    0.000 
#
# Total GULP energy -594935.685646 kJ/mol
# GULP energy per Si atom -12394.493451 kJ/mol
# Density = 1.894290 g / cm^3
# Si number density = 18.986113 Si / 1000 Ang^3
#
#
#
# Elastic Constant Matrix: (Units=GPa)
#
#
# Indices 1 2 3 4 5 6 
#
# 1 152.4517 20.9449 59.8272 0.0000 0.0000 0.0000
# 2 20.9449 23.2434 19.0207 0.0000 0.0000 0.0000
# 3 59.8272 19.0207 109.7677 0.0000 0.0000 0.0000
# 4 0.0000 0.0000 0.0000 -210.9326 0.0000 0.0000
# 5 0.0000 0.0000 0.0000 0.0000 43.6984 0.0000
# 6 0.0000 0.0000 0.0000 0.0000 0.0000 29.8428
#
#
#
# Elastic Compliance Matrix: (Units=1/GPa)
#
#
# Indices 1 2 3 4 5 6 
#
# 1 0.008754 -0.004642 -0.003967 0.000000 0.000000 0.000000
# 2 -0.004642 0.052593 -0.006583 0.000000 0.000000 0.000000
# 3 -0.003967 -0.006583 0.012413 0.000000 0.000000 0.000000
# 4 0.000000 0.000000 0.000000 -0.004741 0.000000 0.000000
# 5 0.000000 0.000000 0.000000 0.000000 0.022884 0.000000
# 6 0.000000 0.000000 0.000000 0.000000 0.000000 0.033509
#
#
# Mechanical properties :
#
#
# Convention : Reuss Voigt Hill
#
# Bulk Modulus (GPa) = 23.05435 53.89426 38.47431
# Shear Modulus (GPa) = 29.36760 -15.10029 7.13366
#
# Velocity S-wave (km/s) = 3.93720 -2.82323 1.94048
# Velocity P-wave (km/s) = 5.73043 4.22141 5.03280
#
# Compressibility (1/GPa) = 0.04337576
#
# Stress axis : x y z
#
# Youngs Moduli (GPa) = 114.23433 19.01380 80.56094
#
# Poissons Ratio (x) = 0.08826 0.31957
# Poissons Ratio (y) = 0.53029 0.53036
# Poissons Ratio (z) = 0.45315 0.12517
#
# Static dielectric constant tensor:
#      x y z
#    x 3.807230 0.000000 0.000000 
#    y 0.000000 3.112880 0.000000 
#    z 0.000000 0.000000 3.844190 
# 
# 
# High freq. dielectric constant tensor:
#      x y z
#    x 1.755090 0.000000 0.000000 
#    y 0.000000 1.697640 0.000000 
#    z 0.000000 0.000000 1.750010 
# 
# From -- ./inp_files/21132.got.cif
#   From: 2010.03.12/outbox.cif.g09.slc.cpg/sg51_11_cif.got.tgz:21132.got - 2010.04.16 13:43:02.
