data_PCOD8212924
_publ_section_title
;
Structure prediction by ZEFSAII (Michael W. Deem and Ramdas Pophale) SiO2 
 PCOD8212924
Probable space group: P M M A
;
_chemical_formula_sum "Si O2"
_cell_formula_units_Z 64
_cell_length_a 24.180388
_cell_length_b 14.935928
_cell_length_c 8.796924
_cell_angle_alpha 90.000000
_cell_angle_beta 90.000000
_cell_angle_gamma 90.000000
_cell_volume 3177.066583
_symmetry_space_group_name_H-M "P M M A"
_symmetry_group_IT_number 51
_symmetry_cell_setting 'orthorhombic'
loop_
_space_group_symop_operation_xyz
x,y,z
1/2-x,-y,z
1/2+x,-y,-z
-x,y,-z
-x,-y,-z
1/2+x,y,-z
1/2-x,y,z
x,-y,z
loop_
_atom_site_type_symbol
_atom_site_label
_atom_site_fract_x
_atom_site_fract_y
_atom_site_fract_z
Si Si1 0.402437 0.809810 0.623239
Si Si2 0.812499 0.601246 0.653976
Si Si3 0.985058 0.654336 0.344795
Si Si4 0.083990 0.099877 0.309314
Si Si5 0.095721 0.284677 0.182608
Si Si6 0.526269 0.099159 0.150530
Si Si7 0.812963 0.326845 0.325055
Si Si8 0.400104 0.400912 0.893136
O O1 0.446007 0.732054 0.588265
O O2 0.401788 0.879411 0.484482
O O3 0.419119 0.853337 0.785307
O O4 0.341384 0.769215 0.644690
O O5 0.750000 0.622216 0.707579
O O6 0.829142 0.500000 0.695614
O O7 0.852767 0.667674 0.739700
O O8 0.817267 0.612230 0.473823
O O9 0.951428 0.595549 0.224259
O O10 0.000000 0.599039 0.500000
O O11 0.038964 0.695393 0.267869
O O12 0.107681 0.177319 0.195469
O O13 0.017855 0.097282 0.287515
O O14 0.108035 0.000000 0.270559
O O15 0.089748 0.321135 0.012049
O O16 0.544175 0.000000 0.098328
O O17 0.500000 0.148052 0.000000
O O18 0.750000 0.309064 0.276332
O O19 0.842750 0.381116 0.190954
O O20 0.396880 0.500000 0.969042
#
# Coordination Sequence:
#
# PCOD8212924 Si02
#       8
#     8   8   8   8   8   8   8   8
#     4  11  19  37  60  87 124 161 203 251 307 367
#     4  10  21  39  64  89 115 155 208 259 304 362
#     4  11  21  37  60  88 123 168 203 246 305 378
#     4  11  22  36  59  93 126 163 208 251 304 367
#     4  12  22  39  61  89 128 164 201 256 314 368
#     4  10  21  33  55  92 126 160 202 249 305 366
#     4  10  22  40  64  89 117 156 206 256 308 368
#     4  11  26  40  59  90 126 168 207 255 315 377
#
# _framework density 20.144368
#
# number of rings (size 3 to 8) (size 9 to 14) (size 15 to 20)
#    0.000    1.250    3.750    2.625    3.500    4.000 
#    0.000    0.000    0.000    2.625    0.000    0.000 
#    0.000    0.000    0.000    0.000    0.000    0.000 
#
# Total GULP energy -793306.123476 kJ/mol
# GULP energy per Si atom -12395.408179 kJ/mol
# Density = 2.009852 g / cm^3
# Si number density = 20.144368 Si / 1000 Ang^3
#
#
#
# Elastic Constant Matrix: (Units=GPa)
#
#
# Indices 1 2 3 4 5 6 
#
# 1 108.3142 47.7764 30.9041 0.0000 0.0000 0.0000
# 2 47.7764 139.4053 44.2993 0.0000 0.0000 0.0000
# 3 30.9041 44.2993 106.1963 0.0000 0.0000 0.0000
# 4 0.0000 0.0000 0.0000 28.3841 0.0000 0.0000
# 5 0.0000 0.0000 0.0000 0.0000 16.2660 0.0000
# 6 0.0000 0.0000 0.0000 0.0000 0.0000 9.5394
#
#
#
# Elastic Compliance Matrix: (Units=1/GPa)
#
#
# Indices 1 2 3 4 5 6 
#
# 1 0.011204 -0.003232 -0.001912 0.000000 0.000000 0.000000
# 2 -0.003232 0.009202 -0.002898 0.000000 0.000000 0.000000
# 3 -0.001912 -0.002898 0.011182 0.000000 0.000000 0.000000
# 4 0.000000 0.000000 0.000000 0.035231 0.000000 0.000000
# 5 0.000000 0.000000 0.000000 0.000000 0.061478 0.000000
# 6 0.000000 0.000000 0.000000 0.000000 0.000000 0.104829
#
#
# Mechanical properties :
#
#
# Convention : Reuss Voigt Hill
#
# Bulk Modulus (GPa) = 64.50334 66.65283 65.57808
# Shear Modulus (GPa) = 19.65588 26.23362 22.94475
#
# Velocity S-wave (km/s) = 3.12709 3.61263 3.37859
# Velocity P-wave (km/s) = 6.71776 7.11061 6.91698
#
# Compressibility (1/GPa) = 0.01550307
#
# Stress axis : x y z
#
# Youngs Moduli (GPa) = 89.25720 108.67334 89.43061
#
# Poissons Ratio (x) = 0.35123 0.17100
# Poissons Ratio (y) = 0.28848 0.25917
# Poissons Ratio (z) = 0.17067 0.31493
#
# Static dielectric constant tensor:
#      x y z
#    x 3.599380 0.000000 0.000000 
#    y 0.000000 3.782630 0.000000 
#    z 0.000000 0.000000 3.736230 
# 
# 
# High freq. dielectric constant tensor:
#      x y z
#    x 1.759150 0.000000 0.000000 
#    y 0.000000 1.783970 0.000000 
#    z 0.000000 0.000000 1.793520 
# 
# From -- ./inp_files/11897.got.cif
#   From: 2010.03.12/outbox.cif.g09.slc.cpg/sg51_6_cif.got.tgz:11897.got - 2010.04.16 13:43:02.
