data_PCOD8212652
_publ_section_title
;
Structure prediction by ZEFSAII (Michael W. Deem and Ramdas Pophale) SiO2 
 PCOD8212652
Probable space group: P M M A
;
_chemical_formula_sum "Si O2"
_cell_formula_units_Z 56
_cell_length_a 19.493602
_cell_length_b 16.045475
_cell_length_c 9.624796
_cell_angle_alpha 90.000000
_cell_angle_beta 90.000000
_cell_angle_gamma 90.000000
_cell_volume 3010.483189
_symmetry_space_group_name_H-M "P M M A"
_symmetry_group_IT_number 51
_symmetry_cell_setting 'orthorhombic'
loop_
_space_group_symop_operation_xyz
x,y,z
1/2-x,-y,z
1/2+x,-y,-z
-x,y,-z
-x,-y,-z
1/2+x,y,-z
1/2-x,y,z
x,-y,z
loop_
_atom_site_type_symbol
_atom_site_label
_atom_site_fract_x
_atom_site_fract_y
_atom_site_fract_z
Si Si1 0.327456 0.181824 0.697830
Si Si2 0.431169 0.403050 0.914663
Si Si3 0.670363 0.738521 0.016594
Si Si4 0.170812 0.798389 0.283818
Si Si5 0.324280 0.336803 0.495516
Si Si6 0.049917 0.593088 0.608580
Si Si7 0.078746 0.097539 0.487177
O O1 0.250000 0.144819 0.691963
O O2 0.330669 0.267014 0.613293
O O3 0.380979 0.117070 0.630511
O O4 0.349395 0.200961 0.855976
O O5 0.407167 0.500000 0.909639
O O6 0.446220 0.366035 0.760521
O O7 0.500000 0.392353 0.000000
O O8 0.371783 0.347719 0.983091
O O9 0.750000 0.712640 0.023641
O O10 0.653933 0.791912 0.878913
O O11 0.250000 0.827778 0.310147
O O12 0.160907 0.705853 0.347187
O O13 0.117720 0.861218 0.356207
O O14 0.250000 0.379276 0.496535
O O15 0.376699 0.409560 0.532761
O O16 0.021643 0.500000 0.629776
O O17 0.000000 0.642003 0.500000
O O18 0.000000 0.129976 0.500000
O O19 0.079208 0.000000 0.459205
#
# Coordination Sequence:
#
# PCOD8212652 Si02
#       7
#     8   8   8   8   8   8   8
#     4   9  18  34  56  80 107 136 174 223 267 314
#     4  10  22  37  52  75 109 147 186 227 275 328
#     4  10  20  37  57  81 109 140 183 229 271 319
#     4   9  20  36  56  80 109 141 175 218 267 321
#     4   9  17  32  52  75  99 130 174 224 268 311
#     4  10  21  34  49  71 102 141 181 224 270 318
#     4  10  21  37  58  84 112 143 178 215 259 319
#
# _framework density 18.601665000000001
#
# number of rings (size 3 to 8) (size 9 to 14) (size 15 to 20)
#    0.000    2.429    1.429    1.286    2.000    5.143 
#    0.000    2.143    0.000    6.857    0.000    0.000 
#    0.000    0.000    0.000    0.000    0.000    0.000 
#
# Total GULP energy -694082.332076 kJ/mol
# GULP energy per Si atom -12394.327359 kJ/mol
# Density = 1.855933 g / cm^3
# Si number density = 18.601665 Si / 1000 Ang^3
#
#
#
# Elastic Constant Matrix: (Units=GPa)
#
#
# Indices 1 2 3 4 5 6 
#
# 1 123.3063 43.3984 54.6017 0.0000 0.0000 0.0000
# 2 43.3984 47.7955 31.2157 0.0000 0.0000 0.0000
# 3 54.6017 31.2157 135.2934 0.0000 0.0000 0.0000
# 4 0.0000 0.0000 0.0000 17.0526 0.0000 0.0000
# 5 0.0000 0.0000 0.0000 0.0000 27.7697 0.0000
# 6 0.0000 0.0000 0.0000 0.0000 0.0000 28.8842
#
#
#
# Elastic Compliance Matrix: (Units=1/GPa)
#
#
# Indices 1 2 3 4 5 6 
#
# 1 0.012837 -0.009740 -0.002933 0.000000 0.000000 0.000000
# 2 -0.009740 0.032025 -0.003458 0.000000 0.000000 0.000000
# 3 -0.002933 -0.003458 0.009373 0.000000 0.000000 0.000000
# 4 0.000000 0.000000 0.000000 0.058642 0.000000 0.000000
# 5 0.000000 0.000000 0.000000 0.000000 0.036010 0.000000
# 6 0.000000 0.000000 0.000000 0.000000 0.000000 0.034621
#
#
# Mechanical properties :
#
#
# Convention : Reuss Voigt Hill
#
# Bulk Modulus (GPa) = 45.51295 62.75854 54.13574
# Shear Modulus (GPa) = 22.41190 26.55326 24.48258
#
# Velocity S-wave (km/s) = 3.47484 3.78228 3.63181
# Velocity P-wave (km/s) = 6.37335 7.27225 6.83759
#
# Compressibility (1/GPa) = 0.02197177
#
# Stress axis : x y z
#
# Youngs Moduli (GPa) = 77.90022 31.22562 106.68834
#
# Poissons Ratio (x) = 0.30414 0.31296
# Poissons Ratio (y) = 0.75876 0.36894
# Poissons Ratio (z) = 0.22852 0.10798
#
# Static dielectric constant tensor:
#      x y z
#    x 3.588600 0.000000 0.000000 
#    y 0.000000 2.986740 0.000000 
#    z 0.000000 0.000000 3.699630 
# 
# 
# High freq. dielectric constant tensor:
#      x y z
#    x 1.729450 0.000000 0.000000 
#    y 0.000000 1.681910 0.000000 
#    z 0.000000 0.000000 1.732850 
# 
# From -- ./inp_files/10955.got.cif
#   From: 2010.03.12/outbox.cif.g09.slc.cpg/sg51_6_cif.got.tgz:10955.got - 2010.04.16 13:43:02.
