data_PCOD8212102
_publ_section_title
;
Structure prediction by ZEFSAII (Michael W. Deem and Ramdas Pophale) SiO2 
 PCOD8212102
Probable space group: P M M A
;
_chemical_formula_sum "Si O2"
_cell_formula_units_Z 36
_cell_length_a 14.492994
_cell_length_b 14.462743
_cell_length_c 9.462419
_cell_angle_alpha 90.000000
_cell_angle_beta 90.000000
_cell_angle_gamma 90.000000
_cell_volume 1983.402956
_symmetry_space_group_name_H-M "P M M A"
_symmetry_group_IT_number 51
_symmetry_cell_setting 'orthorhombic'
loop_
_space_group_symop_operation_xyz
x,y,z
1/2-x,-y,z
1/2+x,-y,-z
-x,y,-z
-x,-y,-z
1/2+x,y,-z
1/2-x,y,z
x,-y,z
loop_
_atom_site_type_symbol
_atom_site_label
_atom_site_fract_x
_atom_site_fract_y
_atom_site_fract_z
Si Si1 0.250000 0.289545 0.208780
Si Si2 0.250000 0.607458 0.506996
Si Si3 0.750000 0.901391 0.683004
Si Si4 0.552661 0.895096 0.635027
Si Si5 0.443397 0.607647 0.634631
Si Si6 0.953959 0.269562 0.850423
O O1 0.250000 0.330258 0.366904
O O2 0.250000 0.178782 0.202181
O O3 0.150921 0.313838 0.135639
O O4 0.250000 0.500000 0.458340
O O5 0.336798 0.630854 0.605447
O O6 0.659431 0.895142 0.585479
O O7 0.750000 0.000000 0.765920
O O8 0.500000 0.854492 0.500000
O O9 0.542083 0.828240 0.769056
O O10 0.519482 0.000000 0.673014
O O11 0.500000 0.643267 0.500000
O O12 0.459816 0.500000 0.660508
O O13 0.480107 0.657865 0.772992
O O14 0.000000 0.251373 0.000000
#
# Coordination Sequence:
#
# PCOD8212102 Si02
#       6
#     4   4   4   8   8   8
#     4  10  20  35  56  77 107 151 184 223 275 330
#     4  10  20  35  60  86 105 138 188 237 277 317
#     4   8  16  30  50  77 104 135 176 222 272 315
#     4   9  18  34  56  80 107 143 189 232 269 316
#     4  10  20  36  58  82 106 139 186 233 271 317
#     4  11  23  36  54  82 117 150 182 222 280 340
#
# _framework density 18.150621999999998
#
# number of rings (size 3 to 8) (size 9 to 14) (size 15 to 20)
#    0.000    2.222    2.222    0.667    3.111    1.778 
#    0.000    1.111    0.000    0.000    0.000    0.000 
#    0.000    0.000    0.000    0.000    0.000    0.000 
#
# Total GULP energy -445999.526119 kJ/mol
# GULP energy per Si atom -12388.875726 kJ/mol
# Density = 1.810931 g / cm^3
# Si number density = 18.150622 Si / 1000 Ang^3
#
#
#
# Elastic Constant Matrix: (Units=GPa)
#
#
# Indices 1 2 3 4 5 6 
#
# 1 153.3570 40.9367 69.0789 0.0000 0.0000 0.0000
# 2 40.9367 71.3820 41.4936 0.0000 0.0000 0.0000
# 3 69.0789 41.4936 113.6433 0.0000 0.0000 0.0000
# 4 0.0000 0.0000 0.0000 18.1504 0.0000 0.0000
# 5 0.0000 0.0000 0.0000 0.0000 21.8714 0.0000
# 6 0.0000 0.0000 0.0000 0.0000 0.0000 21.0990
#
#
#
# Elastic Compliance Matrix: (Units=1/GPa)
#
#
# Indices 1 2 3 4 5 6 
#
# 1 0.009348 -0.002612 -0.004728 0.000000 0.000000 0.000000
# 2 -0.002612 0.018514 -0.005172 0.000000 0.000000 0.000000
# 3 -0.004728 -0.005172 0.013562 0.000000 0.000000 0.000000
# 4 0.000000 0.000000 0.000000 0.055095 0.000000 0.000000
# 5 0.000000 0.000000 0.000000 0.000000 0.045722 0.000000
# 6 0.000000 0.000000 0.000000 0.000000 0.000000 0.047396
#
#
# Mechanical properties :
#
#
# Convention : Reuss Voigt Hill
#
# Bulk Modulus (GPa) = 60.98129 71.26674 66.12402
# Shear Modulus (GPa) = 22.71415 24.68239 23.69827
#
# Velocity S-wave (km/s) = 3.54139 3.69163 3.61729
# Velocity P-wave (km/s) = 7.09875 7.58421 7.34549
#
# Compressibility (1/GPa) = 0.01639847
#
# Stress axis : x y z
#
# Youngs Moduli (GPa) = 106.97535 54.01437 73.73567
#
# Poissons Ratio (x) = 0.14111 0.34865
# Poissons Ratio (y) = 0.27946 0.38134
# Poissons Ratio (z) = 0.50582 0.27935
#
# Static dielectric constant tensor:
#      x y z
#    x 3.833000 0.000000 0.000000 
#    y 0.000000 3.524960 0.000000 
#    z 0.000000 0.000000 2.898820 
# 
# 
# High freq. dielectric constant tensor:
#      x y z
#    x 1.727300 0.000000 0.000000 
#    y 0.000000 1.715640 0.000000 
#    z 0.000000 0.000000 1.651590 
# 
# From -- ./inp_files/7854.got.cif
#   From: 2010.03.12/outbox.cif.g09.slc.cpg/sg51_4_cif.got.tgz:7854.got - 2010.04.16 13:43:02.
