data_PCOD8212210
_publ_section_title
;
Structure prediction by ZEFSAII (Michael W. Deem and Ramdas Pophale) SiO2 
 PCOD8212210
Probable space group: P M M A
;
_chemical_formula_sum "Si O2"
_cell_formula_units_Z 56
_cell_length_a 14.845742
_cell_length_b 14.815666
_cell_length_c 12.502619
_cell_angle_alpha 90.000000
_cell_angle_beta 90.000000
_cell_angle_gamma 90.000000
_cell_volume 2749.945485
_symmetry_space_group_name_H-M "P M M A"
_symmetry_group_IT_number 51
_symmetry_cell_setting 'orthorhombic'
loop_
_space_group_symop_operation_xyz
x,y,z
1/2-x,-y,z
1/2+x,-y,-z
-x,y,-z
-x,-y,-z
1/2+x,y,-z
1/2-x,y,z
x,-y,z
loop_
_atom_site_type_symbol
_atom_site_label
_atom_site_fract_x
_atom_site_fract_y
_atom_site_fract_z
Si Si1 0.023929 0.340420 0.247264
Si Si2 0.849763 0.278000 0.563561
Si Si3 0.351292 0.600843 0.637451
Si Si4 0.645995 0.398454 0.940626
Si Si5 0.400039 0.899203 0.540369
Si Si6 0.147564 0.099343 0.771711
Si Si7 0.430653 0.765195 0.919664
O O1 0.077519 0.306128 0.349651
O O2 0.089392 0.397749 0.169632
O O3 0.931490 0.393765 0.275770
O O4 0.991921 0.253791 0.182997
O O5 0.750000 0.304260 0.604599
O O6 0.875573 0.331739 0.457188
O O7 0.848550 0.171757 0.535225
O O8 0.250000 0.623214 0.685054
O O9 0.350075 0.500000 0.590445
O O10 0.750000 0.376301 0.914457
O O11 0.636491 0.500000 0.989026
O O12 0.610812 0.325688 0.027537
O O13 0.500000 0.903440 0.500000
O O14 0.401929 0.865691 0.664190
O O15 0.356052 0.000000 0.532633
O O16 0.250000 0.094915 0.736811
O O17 0.141678 0.163795 0.876015
O O18 0.111299 0.000000 0.804199
O O19 0.500000 0.813851 0.000000
#
# Coordination Sequence:
#
# PCOD8212210 Si02
#       7
#     8   8   8   8   8   8   8
#     4  11  22  37  57  82 113 149 188 231 279 334
#     4  11  22  36  56  82 116 155 192 231 277 333
#     4  10  22  37  54  81 114 148 187 229 277 335
#     4  10  22  40  61  85 113 146 186 233 286 343
#     4  10  20  35  57  85 117 151 188 231 278 331
#     4  10  20  35  57  83 109 141 183 228 275 329
#     4  10  22  37  56  80 108 142 182 233 285 333
#
# _framework density 20.364041
#
# number of rings (size 3 to 8) (size 9 to 14) (size 15 to 20)
#    0.000    1.714    0.000    4.714    0.000    8.286 
#    0.000    2.857    0.000    0.857    0.000    0.000 
#    0.000    0.000    0.000    0.000    0.000    0.000 
#
# Total GULP energy -693894.898293 kJ/mol
# GULP energy per Si atom -12390.980327 kJ/mol
# Density = 2.031769 g / cm^3
# Si number density = 20.364041 Si / 1000 Ang^3
#
#
#
# Elastic Constant Matrix: (Units=GPa)
#
#
# Indices 1 2 3 4 5 6 
#
# 1 126.8703 30.2966 61.3708 0.0000 0.0000 0.0000
# 2 30.2966 86.0776 48.0183 0.0000 0.0000 0.0000
# 3 61.3708 48.0183 96.3245 0.0000 0.0000 0.0000
# 4 0.0000 0.0000 0.0000 -75.7719 0.0000 0.0000
# 5 0.0000 0.0000 0.0000 0.0000 28.6475 0.0000
# 6 0.0000 0.0000 0.0000 0.0000 0.0000 26.3896
#
#
#
# Elastic Compliance Matrix: (Units=1/GPa)
#
#
# Indices 1 2 3 4 5 6 
#
# 1 0.011394 0.000054 -0.007286 0.000000 0.000000 0.000000
# 2 0.000054 0.016093 -0.008057 0.000000 0.000000 0.000000
# 3 -0.007286 -0.008057 0.019040 0.000000 0.000000 0.000000
# 4 0.000000 0.000000 0.000000 -0.013198 0.000000 0.000000
# 5 0.000000 0.000000 0.000000 0.000000 0.034907 0.000000
# 6 0.000000 0.000000 0.000000 0.000000 0.000000 0.037894
#
#
# Mechanical properties :
#
#
# Convention : Reuss Voigt Hill
#
# Bulk Modulus (GPa) = 62.69981 65.40485 64.05233
# Shear Modulus (GPa) = 35.20517 7.15882 21.18199
#
# Velocity S-wave (km/s) = 4.16238 1.87698 3.22866
# Velocity P-wave (km/s) = 7.34554 6.07330 6.73950
#
# Compressibility (1/GPa) = 0.01594901
#
# Stress axis : x y z
#
# Youngs Moduli (GPa) = 87.76791 62.13921 52.51981
#
# Poissons Ratio (x) = -0.00339 0.38268
# Poissons Ratio (y) = -0.00478 0.42316
# Poissons Ratio (z) = 0.63951 0.50066
#
# Static dielectric constant tensor:
#      x y z
#    x 3.689530 0.000000 0.000000 
#    y 0.000000 3.827670 0.000000 
#    z 0.000000 0.000000 3.626560 
# 
# 
# High freq. dielectric constant tensor:
#      x y z
#    x 1.808690 0.000000 0.000000 
#    y 0.000000 1.794630 0.000000 
#    z 0.000000 0.000000 1.783850 
# 
# From -- ./inp_files/16587.got.cif
#   From: 2010.03.12/outbox.cif.g09.slc.cpg/sg51_9_cif.got.tgz:16587.got - 2010.04.16 13:43:02.
