data_PCOD8212374
_publ_section_title
;
Structure prediction by ZEFSAII (Michael W. Deem and Ramdas Pophale) SiO2 
 PCOD8212374
Probable space group: P M M A
;
_chemical_formula_sum "Si O2"
_cell_formula_units_Z 48
_cell_length_a 8.893623
_cell_length_b 30.845956
_cell_length_c 9.686706
_cell_angle_alpha 90.000000
_cell_angle_beta 90.000000
_cell_angle_gamma 90.000000
_cell_volume 2657.376373
_symmetry_space_group_name_H-M "P M M A"
_symmetry_group_IT_number 51
_symmetry_cell_setting 'orthorhombic'
loop_
_space_group_symop_operation_xyz
x,y,z
1/2-x,-y,z
1/2+x,-y,-z
-x,y,-z
-x,-y,-z
1/2+x,y,-z
1/2-x,y,z
x,-y,z
loop_
_atom_site_type_symbol
_atom_site_label
_atom_site_fract_x
_atom_site_fract_y
_atom_site_fract_z
Si Si1 0.074454 0.882471 0.859396
Si Si2 0.573452 0.048394 0.355449
Si Si3 0.573026 0.360279 0.850750
Si Si4 0.429328 0.716309 0.348985
Si Si5 0.572299 0.782998 0.146008
Si Si6 0.573918 0.454306 0.852768
O O1 0.250000 0.888936 0.876546
O O2 0.008000 0.915203 0.746276
O O3 0.035143 0.833007 0.821998
O O4 0.000000 0.896993 0.000000
O O5 0.500000 0.058372 0.500000
O O6 0.750000 0.053446 0.373150
O O7 0.531523 0.000000 0.302495
O O8 0.750000 0.356477 0.873728
O O9 0.518275 0.325574 0.738651
O O10 0.526500 0.407917 0.786675
O O11 0.500000 0.351420 0.000000
O O12 0.500000 0.712738 0.500000
O O13 0.250000 0.720048 0.360761
O O14 0.495292 0.757940 0.271587
O O15 0.750000 0.773656 0.140205
O O16 0.500000 0.768586 0.000000
O O17 0.750000 0.453460 0.876088
O O18 0.529978 0.500000 0.772612
O O19 0.500000 0.456312 0.000000
#
# Coordination Sequence:
#
# PCOD8212374 Si02
#       6
#     8   8   8   8   8   8
#     4   9  19  34  52  76 103 130 161 200 244 290
#     4   9  18  33  51  72 100 133 168 204 242 286
#     4   9  18  31  49  73  98 126 160 198 242 291
#     4  11  23  37  52  72  99 131 168 208 251 297
#     4  10  20  36  56  77 102 131 165 204 248 298
#     4   8  13  23  41  66  94 121 151 190 235 282
#
# _framework density 18.062930000000001
#
# number of rings (size 3 to 8) (size 9 to 14) (size 15 to 20)
#    0.000    2.667    0.000    1.500    0.000    5.000 
#    0.000    1.667    0.000    0.500    0.000    0.000 
#    0.000    0.000    0.000    0.000    0.000    0.167 
#
# Total GULP energy -594718.268930 kJ/mol
# GULP energy per Si atom -12389.963936 kJ/mol
# Density = 1.802182 g / cm^3
# Si number density = 18.062930 Si / 1000 Ang^3
#
#
#
# Elastic Constant Matrix: (Units=GPa)
#
#
# Indices 1 2 3 4 5 6 
#
# 1 40.3850 40.9439 42.2370 0.0000 0.0000 0.0000
# 2 40.9439 147.9352 95.1142 0.0000 0.0000 0.0000
# 3 42.2370 95.1142 125.8890 0.0000 0.0000 0.0000
# 4 0.0000 0.0000 0.0000 13.3909 0.0000 0.0000
# 5 0.0000 0.0000 0.0000 0.0000 29.8993 0.0000
# 6 0.0000 0.0000 0.0000 0.0000 0.0000 23.4924
#
#
#
# Elastic Compliance Matrix: (Units=1/GPa)
#
#
# Indices 1 2 3 4 5 6 
#
# 1 0.039775 -0.004722 -0.009777 0.000000 0.000000 0.000000
# 2 -0.004722 0.013706 -0.008771 0.000000 0.000000 0.000000
# 3 -0.009777 -0.008771 0.017851 0.000000 0.000000 0.000000
# 4 0.000000 0.000000 0.000000 0.074678 0.000000 0.000000
# 5 0.000000 0.000000 0.000000 0.000000 0.033446 0.000000
# 6 0.000000 0.000000 0.000000 0.000000 0.000000 0.042567
#
#
# Mechanical properties :
#
#
# Convention : Reuss Voigt Hill
#
# Bulk Modulus (GPa) = 40.33770 74.53326 57.43548
# Shear Modulus (GPa) = 18.06192 22.41745 20.23969
#
# Velocity S-wave (km/s) = 3.16562 3.52671 3.35103
# Velocity P-wave (km/s) = 5.97844 7.61159 6.84390
#
# Compressibility (1/GPa) = 0.02479070
#
# Stress axis : x y z
#
# Youngs Moduli (GPa) = 25.14169 72.96050 56.02064
#
# Poissons Ratio (x) = 0.34455 0.54770
# Poissons Ratio (y) = 0.11873 0.49136
# Poissons Ratio (z) = 0.24580 0.63994
#
# Static dielectric constant tensor:
#      x y z
#    x 3.272210 0.000000 0.000000 
#    y 0.000000 4.072690 0.000000 
#    z 0.000000 0.000000 3.142050 
# 
# 
# High freq. dielectric constant tensor:
#      x y z
#    x 1.699500 0.000000 0.000000 
#    y 0.000000 1.725760 0.000000 
#    z 0.000000 0.000000 1.668160 
# 
# From -- ./inp_files/6074.got.cif
#   From: 2010.03.12/outbox.cif.g09.slc.cpg/sg51_4_cif.got.tgz:6074.got - 2010.04.16 13:43:02.
