data_PCOD8212756
_publ_section_title
;
Structure prediction by ZEFSAII (Michael W. Deem and Ramdas Pophale) SiO2 
 PCOD8212756
Probable space group: P M M A
;
_chemical_formula_sum "Si O2"
_cell_formula_units_Z 48
_cell_length_a 33.110322
_cell_length_b 8.932772
_cell_length_c 7.858082
_cell_angle_alpha 90.000000
_cell_angle_beta 90.000000
_cell_angle_gamma 90.000000
_cell_volume 2324.161003
_symmetry_space_group_name_H-M "P M M A"
_symmetry_group_IT_number 51
_symmetry_cell_setting 'orthorhombic'
loop_
_space_group_symop_operation_xyz
x,y,z
1/2-x,-y,z
1/2+x,-y,-z
-x,y,-z
-x,-y,-z
1/2+x,y,-z
1/2-x,y,z
x,-y,z
loop_
_atom_site_type_symbol
_atom_site_label
_atom_site_fract_x
_atom_site_fract_y
_atom_site_fract_z
Si Si1 0.844704 0.176212 0.677198
Si Si2 0.297355 0.328545 0.018515
Si Si3 0.415876 0.170145 0.853557
Si Si4 0.919809 0.324392 0.807431
Si Si5 0.331969 0.169384 0.698057
Si Si6 0.499866 0.175791 0.306395
O O1 0.888846 0.252760 0.672742
O O2 0.822492 0.214549 0.498033
O O3 0.851167 0.000000 0.696581
O O4 0.818451 0.232424 0.835212
O O5 0.250000 0.309332 0.042554
O O6 0.311042 0.500000 0.039422
O O7 0.308830 0.275764 0.828852
O O8 0.380386 0.181149 0.715943
O O9 0.457500 0.224998 0.771087
O O10 0.420181 0.000000 0.921900
O O11 0.403656 0.280218 0.006127
O O12 0.920337 0.500000 0.781634
O O13 0.964782 0.260881 0.792220
O O14 0.317444 0.000000 0.734112
O O15 0.500000 0.228513 0.500000
O O16 0.492161 0.000000 0.288634
#
# Coordination Sequence:
#
# PCOD8212756 Si02
#       6
#     8   8   8   8   8   8
#     4  11  23  42  68  96 126 166 218 264 310 371
#     4  11  25  44  66  96 133 168 202 250 318 387
#     4  10  20  37  61  87 118 161 209 261 315 367
#     4  12  24  37  57  88 125 166 209 258 320 375
#     4  10  22  41  68  97 124 163 214 265 312 368
#     4  10  21  38  59  84 117 161 213 263 312 368
#
# _framework density 20.652615000000001
#
# number of rings (size 3 to 8) (size 9 to 14) (size 15 to 20)
#    0.000    1.333    1.667    4.000    0.000    9.000 
#    0.000    5.000    0.000    0.000    0.000    0.000 
#    0.000    0.000    0.000    0.000    0.000    0.000 
#
# Total GULP energy -595381.014653 kJ/mol
# GULP energy per Si atom -12403.771139 kJ/mol
# Density = 2.060561 g / cm^3
# Si number density = 20.652615 Si / 1000 Ang^3
#
#
#
# Elastic Constant Matrix: (Units=GPa)
#
#
# Indices 1 2 3 4 5 6 
#
# 1 62.6167 25.2477 11.8755 0.0000 0.0000 0.0000
# 2 25.2477 86.9764 34.0102 0.0000 0.0000 0.0000
# 3 11.8755 34.0102 107.6748 0.0000 0.0000 0.0000
# 4 0.0000 0.0000 0.0000 9.1527 0.0000 0.0000
# 5 0.0000 0.0000 0.0000 0.0000 21.3181 0.0000
# 6 0.0000 0.0000 0.0000 0.0000 0.0000 15.7710
#
#
#
# Elastic Compliance Matrix: (Units=1/GPa)
#
#
# Indices 1 2 3 4 5 6 
#
# 1 0.018101 -0.005104 -0.000384 0.000000 0.000000 0.000000
# 2 -0.005104 0.014557 -0.004035 0.000000 0.000000 0.000000
# 3 -0.000384 -0.004035 0.010604 0.000000 0.000000 0.000000
# 4 0.000000 0.000000 0.000000 0.109258 0.000000 0.000000
# 5 0.000000 0.000000 0.000000 0.000000 0.046908 0.000000
# 6 0.000000 0.000000 0.000000 0.000000 0.000000 0.063408
#
#
# Mechanical properties :
#
#
# Convention : Reuss Voigt Hill
#
# Bulk Modulus (GPa) = 41.29621 44.39276 42.84448
# Shear Modulus (GPa) = 17.24409 21.65732 19.45071
#
# Velocity S-wave (km/s) = 2.89270 3.24180 3.07221
# Velocity P-wave (km/s) = 5.58534 5.96272 5.77711
#
# Compressibility (1/GPa) = 0.02421530
#
# Stress axis : x y z
#
# Youngs Moduli (GPa) = 55.24526 68.69628 94.30329
#
# Poissons Ratio (x) = 0.35064 0.03623
# Poissons Ratio (y) = 0.28198 0.38051
# Poissons Ratio (z) = 0.02122 0.27719
#
# Static dielectric constant tensor:
#      x y z
#    x 3.748930 0.000000 0.000000 
#    y 0.000000 3.649530 0.000000 
#    z 0.000000 0.000000 3.814980 
# 
# 
# High freq. dielectric constant tensor:
#      x y z
#    x 1.811570 0.000000 0.000000 
#    y 0.000000 1.799260 0.000000 
#    z 0.000000 0.000000 1.816450 
# 
# From -- ./inp_files/12846.got.cif
#   From: 2010.03.12/outbox.cif.g09.slc.cpg/sg51_7_cif.got.tgz:12846.got - 2010.04.16 13:43:02.
