data_PCOD8212501
_publ_section_title
;
Structure prediction by ZEFSAII (Michael W. Deem and Ramdas Pophale) SiO2 
 PCOD8212501
Probable space group: P M M A
;
_chemical_formula_sum "Si O2"
_cell_formula_units_Z 64
_cell_length_a 27.971252
_cell_length_b 9.230195
_cell_length_c 12.728883
_cell_angle_alpha 90.000000
_cell_angle_beta 90.000000
_cell_angle_gamma 90.000000
_cell_volume 3286.344418
_symmetry_space_group_name_H-M "P M M A"
_symmetry_group_IT_number 51
_symmetry_cell_setting 'orthorhombic'
loop_
_space_group_symop_operation_xyz
x,y,z
1/2-x,-y,z
1/2+x,-y,-z
-x,y,-z
-x,-y,-z
1/2+x,y,-z
1/2-x,y,z
x,-y,z
loop_
_atom_site_type_symbol
_atom_site_label
_atom_site_fract_x
_atom_site_fract_y
_atom_site_fract_z
Si Si1 0.052660 0.167089 0.528793
Si Si2 0.356317 0.671987 0.475456
Si Si3 0.694640 0.832651 0.709468
Si Si4 0.804474 0.668735 0.313573
Si Si5 0.471261 0.671111 0.103771
Si Si6 0.044777 0.166021 0.770361
Si Si7 0.872165 0.167009 0.903023
Si Si8 0.143762 0.833614 0.863546
O O1 0.090770 0.261321 0.463683
O O2 0.061207 0.190551 0.651582
O O3 0.000000 0.222956 0.500000
O O4 0.058916 0.000000 0.495013
O O5 0.358747 0.500000 0.464930
O O6 0.322154 0.732489 0.385496
O O7 0.335383 0.722536 0.587568
O O8 0.750000 0.801112 0.732806
O O9 0.665271 0.790283 0.813316
O O10 0.686231 0.000000 0.679039
O O11 0.750000 0.708493 0.338512
O O12 0.811921 0.500000 0.295832
O O13 0.819501 0.743769 0.205716
O O14 0.468105 0.500000 0.113750
O O15 0.499538 0.733893 0.203837
O O16 0.418252 0.732933 0.105529
O O17 0.500000 0.720164 0.000000
O O18 0.089133 0.214234 0.842553
O O19 0.029813 0.000000 0.790545
O O20 0.888587 0.000000 0.894512
O O21 0.845532 0.194154 0.013957
O O22 0.150387 0.000000 0.831162
#
# Coordination Sequence:
#
# PCOD8212501 Si02
#       8
#     8   8   8   8   8   8   8   8
#     4  10  22  39  59  86 121 158 195 239 293 353
#     4  11  23  40  63  89 121 157 196 243 295 357
#     4  10  23  43  65  87 114 154 204 255 304 355
#     4  10  22  39  59  85 117 152 188 233 295 357
#     4  11  23  36  55  86 121 158 198 239 285 346
#     4  10  20  36  58  83 116 156 197 240 292 349
#     4  10  22  40  62  87 119 158 200 248 301 353
#     4  10  20  36  60  89 116 149 194 244 293 349
#
# _framework density 19.474526999999998
#
# number of rings (size 3 to 8) (size 9 to 14) (size 15 to 20)
#    0.000    1.750    2.500    1.125    1.750    4.750 
#    0.000    1.250    0.000    0.000    0.000    0.000 
#    0.000    0.000    0.000    0.000    0.000    0.000 
#
# Total GULP energy -793905.676258 kJ/mol
# GULP energy per Si atom -12404.776192 kJ/mol
# Density = 1.943020 g / cm^3
# Si number density = 19.474527 Si / 1000 Ang^3
#
#
#
# Elastic Constant Matrix: (Units=GPa)
#
#
# Indices 1 2 3 4 5 6 
#
# 1 122.7678 60.5314 44.1541 0.0000 0.0000 0.0000
# 2 60.5314 72.5612 42.0003 0.0000 0.0000 0.0000
# 3 44.1541 42.0003 81.8732 0.0000 0.0000 0.0000
# 4 0.0000 0.0000 0.0000 17.3885 0.0000 0.0000
# 5 0.0000 0.0000 0.0000 0.0000 33.9960 0.0000
# 6 0.0000 0.0000 0.0000 0.0000 0.0000 29.8599
#
#
#
# Elastic Compliance Matrix: (Units=1/GPa)
#
#
# Indices 1 2 3 4 5 6 
#
# 1 0.014119 -0.010484 -0.002236 0.000000 0.000000 0.000000
# 2 -0.010484 0.027386 -0.008395 0.000000 0.000000 0.000000
# 3 -0.002236 -0.008395 0.017727 0.000000 0.000000 0.000000
# 4 0.000000 0.000000 0.000000 0.057509 0.000000 0.000000
# 5 0.000000 0.000000 0.000000 0.000000 0.029415 0.000000
# 6 0.000000 0.000000 0.000000 0.000000 0.000000 0.033490
#
#
# Mechanical properties :
#
#
# Convention : Reuss Voigt Hill
#
# Bulk Modulus (GPa) = 58.81754 63.39711 61.10732
# Shear Modulus (GPa) = 21.97382 24.94996 23.46189
#
# Velocity S-wave (km/s) = 3.36272 3.58321 3.47471
# Velocity P-wave (km/s) = 6.73387 7.05292 6.89524
#
# Compressibility (1/GPa) = 0.01700173
#
# Stress axis : x y z
#
# Youngs Moduli (GPa) = 70.82775 36.51442 56.41228
#
# Poissons Ratio (x) = 0.38281 0.12615
# Poissons Ratio (y) = 0.74254 0.47359
# Poissons Ratio (z) = 0.15838 0.30655
#
# Static dielectric constant tensor:
#      x y z
#    x 3.506040 0.000000 0.000000 
#    y 0.000000 3.432070 0.000000 
#    z 0.000000 0.000000 3.694450 
# 
# 
# High freq. dielectric constant tensor:
#      x y z
#    x 1.761980 0.000000 0.000000 
#    y 0.000000 1.750130 0.000000 
#    z 0.000000 0.000000 1.764150 
# 
# From -- ./inp_files/19647.got.cif
#   From: 2010.03.12/outbox.cif.g09.slc.cpg/sg51_10_cif.got.tgz:19647.got - 2010.04.16 13:43:02.
