data_PCOD8212447
_publ_section_title
;
Structure prediction by ZEFSAII (Michael W. Deem and Ramdas Pophale) SiO2 
 PCOD8212447
Probable space group: P M M A
;
_chemical_formula_sum "Si O2"
_cell_formula_units_Z 56
_cell_length_a 18.992584
_cell_length_b 19.413104
_cell_length_c 7.983378
_cell_angle_alpha 90.000000
_cell_angle_beta 90.000000
_cell_angle_gamma 90.000000
_cell_volume 2943.511453
_symmetry_space_group_name_H-M "P M M A"
_symmetry_group_IT_number 51
_symmetry_cell_setting 'orthorhombic'
loop_
_space_group_symop_operation_xyz
x,y,z
1/2-x,-y,z
1/2+x,-y,-z
-x,y,-z
-x,-y,-z
1/2+x,y,-z
1/2-x,y,z
x,-y,z
loop_
_atom_site_type_symbol
_atom_site_label
_atom_site_fract_x
_atom_site_fract_y
_atom_site_fract_z
Si Si1 0.670946 0.205549 0.221363
Si Si2 0.166313 0.422894 0.624197
Si Si3 0.923015 0.789109 0.543764
Si Si4 0.666187 0.672532 0.686449
Si Si5 0.832015 0.656462 0.056195
Si Si6 0.894191 0.923724 0.098812
Si Si7 0.957578 0.077113 0.741456
O O1 0.750000 0.218986 0.284294
O O2 0.621373 0.210597 0.377643
O O3 0.648356 0.263679 0.087833
O O4 0.666674 0.130842 0.136385
O O5 0.250000 0.424386 0.631354
O O6 0.136066 0.500000 0.604014
O O7 0.143073 0.378209 0.463261
O O8 0.133860 0.390859 0.796726
O O9 0.880956 0.741577 0.675268
O O10 0.929889 0.867473 0.609113
O O11 0.000000 0.758599 0.500000
O O12 0.750000 0.689994 0.681240
O O13 0.645443 0.637657 0.865744
O O14 0.750000 0.644098 0.072995
O O15 0.963443 0.903393 0.204071
O O16 0.868365 0.000000 0.150165
O O17 0.908290 0.921473 0.902467
O O18 0.955063 0.000000 0.662043
#
# Coordination Sequence:
#
# PCOD8212447 Si02
#       7
#     8   8   8   8   8   8   8
#     4  11  21  35  54  78 111 146 183 231 284 335
#     4   9  17  31  54  85 117 145 181 227 271 328
#     4  12  22  34  54  82 108 144 191 238 281 330
#     4  10  20  36  57  82 115 150 184 229 282 330
#     4   9  18  33  54  79 110 148 182 219 275 330
#     4   9  18  35  55  76 104 140 184 235 284 335
#     4   9  19  35  54  76 105 141 186 236 283 332
#
# _framework density 19.024895999999998
#
# number of rings (size 3 to 8) (size 9 to 14) (size 15 to 20)
#    0.000    2.143    2.857    2.143    0.000    1.714 
#    0.000    3.571    0.000    3.429    0.000    1.000 
#    0.000    0.000    0.000    0.000    0.000    0.000 
#
# Total GULP energy -694075.289874 kJ/mol
# GULP energy per Si atom -12394.201605 kJ/mol
# Density = 1.898159 g / cm^3
# Si number density = 19.024896 Si / 1000 Ang^3
#
#
#
# Elastic Constant Matrix: (Units=GPa)
#
#
# Indices 1 2 3 4 5 6 
#
# 1 52.5652 29.2899 29.8433 0.0000 0.0000 0.0000
# 2 29.2899 111.2301 54.3401 0.0000 0.0000 0.0000
# 3 29.8433 54.3401 135.2624 0.0000 0.0000 0.0000
# 4 0.0000 0.0000 0.0000 26.6953 0.0000 0.0000
# 5 0.0000 0.0000 0.0000 0.0000 21.9875 0.0000
# 6 0.0000 0.0000 0.0000 0.0000 0.0000 17.0636
#
#
#
# Elastic Compliance Matrix: (Units=1/GPa)
#
#
# Indices 1 2 3 4 5 6 
#
# 1 0.023456 -0.004539 -0.003352 0.000000 0.000000 0.000000
# 2 -0.004539 0.012064 -0.003845 0.000000 0.000000 0.000000
# 3 -0.003352 -0.003845 0.009677 0.000000 0.000000 0.000000
# 4 0.000000 0.000000 0.000000 0.037460 0.000000 0.000000
# 5 0.000000 0.000000 0.000000 0.000000 0.045480 0.000000
# 6 0.000000 0.000000 0.000000 0.000000 0.000000 0.058604
#
#
# Mechanical properties :
#
#
# Convention : Reuss Voigt Hill
#
# Bulk Modulus (GPa) = 46.02867 58.44493 52.23680
# Shear Modulus (GPa) = 22.99320 25.52160 24.25740
#
# Velocity S-wave (km/s) = 3.48024 3.66660 3.57464
# Velocity P-wave (km/s) = 6.35578 6.97941 6.67488
#
# Compressibility (1/GPa) = 0.02172559
#
# Stress axis : x y z
#
# Youngs Moduli (GPa) = 42.63275 82.89003 103.33517
#
# Poissons Ratio (x) = 0.37626 0.34634
# Poissons Ratio (y) = 0.19352 0.39734
# Poissons Ratio (z) = 0.14289 0.31872
#
# Static dielectric constant tensor:
#      x y z
#    x 3.404970 0.000000 0.000000 
#    y 0.000000 3.820750 0.000000 
#    z 0.000000 0.000000 3.885460 
# 
# 
# High freq. dielectric constant tensor:
#      x y z
#    x 1.694300 0.000000 0.000000 
#    y 0.000000 1.739950 0.000000 
#    z 0.000000 0.000000 1.752210 
# 
# From -- ./inp_files/11115.got.cif
#   From: 2010.03.12/outbox.cif.g09.slc.cpg/sg51_6_cif.got.tgz:11115.got - 2010.04.16 13:43:02.
