data_PCOD8212582
_publ_section_title
;
Structure prediction by ZEFSAII (Michael W. Deem and Ramdas Pophale) SiO2 
 PCOD8212582
Probable space group: P M M A
;
_chemical_formula_sum "Si O2"
_cell_formula_units_Z 48
_cell_length_a 15.555340
_cell_length_b 8.388189
_cell_length_c 17.636049
_cell_angle_alpha 90.000000
_cell_angle_beta 90.000000
_cell_angle_gamma 90.000000
_cell_volume 2301.171635
_symmetry_space_group_name_H-M "P M M A"
_symmetry_group_IT_number 51
_symmetry_cell_setting 'orthorhombic'
loop_
_space_group_symop_operation_xyz
x,y,z
1/2-x,-y,z
1/2+x,-y,-z
-x,y,-z
-x,-y,-z
1/2+x,y,-z
1/2-x,y,z
x,-y,z
loop_
_atom_site_type_symbol
_atom_site_label
_atom_site_fract_x
_atom_site_fract_y
_atom_site_fract_z
Si Si1 0.750000 0.681527 0.217148
Si Si2 0.919835 0.686596 0.455014
Si Si3 0.250000 0.310727 0.294883
Si Si4 0.919423 0.183764 0.290183
Si Si5 0.250000 0.309441 0.466746
Si Si6 0.250000 0.317765 0.962258
Si Si7 0.086296 0.186022 0.043444
Si Si8 0.581499 0.314198 0.791836
O O1 0.750000 0.500000 0.246905
O O2 0.666772 0.770501 0.247212
O O3 0.750000 0.688457 0.127494
O O4 0.918194 0.500000 0.470487
O O5 0.929305 0.715643 0.366308
O O6 0.832448 0.760845 0.489092
O O7 0.000000 0.763837 0.500000
O O8 0.250000 0.500000 0.293156
O O9 0.250000 0.245309 0.380645
O O10 0.334849 0.247684 0.252129
O O11 0.998953 0.217081 0.235208
O O12 0.916593 0.000000 0.312353
O O13 0.250000 0.500000 0.467275
O O14 0.250000 0.500000 0.991673
O O15 0.166280 0.225758 0.990353
O O16 0.094757 0.288540 0.119291
O O17 0.085329 0.000000 0.064054
O O18 0.000000 0.237126 0.000000
O O19 0.566682 0.500000 0.774884
#
# Coordination Sequence:
#
# PCOD8212582 Si02
#       8
#     4   8   4   8   4   4   8   8
#     4  11  24  43  66  90 118 157 208 259 304 359
#     4  10  20  36  60  86 114 155 204 249 295 353
#     4   9  19  36  60  90 118 149 194 247 298 346
#     4  12  25  40  60  89 126 163 200 249 312 372
#     4   9  17  32  56  84 112 143 188 243 292 342
#     4  11  24  41  64  92 120 157 204 253 304 363
#     4  11  24  41  62  89 123 161 200 249 310 368
#     4  11  22  39  64  91 121 158 204 253 299 358
#
# _framework density 20.85894
#
# number of rings (size 3 to 8) (size 9 to 14) (size 15 to 20)
#    0.000    1.333    0.000    6.000    0.000    9.667 
#    0.000    1.250    0.000    2.000    0.000    0.000 
#    0.000    0.000    0.000    0.000    0.000    0.000 
#
# Total GULP energy -595488.481340 kJ/mol
# GULP energy per Si atom -12406.010028 kJ/mol
# Density = 2.081146 g / cm^3
# Si number density = 20.858940 Si / 1000 Ang^3
#
#
#
# Elastic Constant Matrix: (Units=GPa)
#
#
# Indices 1 2 3 4 5 6 
#
# 1 171.2933 27.4392 37.9030 0.0000 0.0000 0.0000
# 2 27.4392 39.2710 6.5766 0.0000 0.0000 0.0000
# 3 37.9030 6.5766 99.3829 0.0000 0.0000 0.0000
# 4 0.0000 0.0000 0.0000 11.4597 0.0000 0.0000
# 5 0.0000 0.0000 0.0000 0.0000 8.1711 0.0000
# 6 0.0000 0.0000 0.0000 0.0000 0.0000 7.8129
#
#
#
# Elastic Compliance Matrix: (Units=1/GPa)
#
#
# Indices 1 2 3 4 5 6 
#
# 1 0.007101 -0.004558 -0.002406 0.000000 0.000000 0.000000
# 2 -0.004558 0.028676 -0.000159 0.000000 0.000000 0.000000
# 3 -0.002406 -0.000159 0.010990 0.000000 0.000000 0.000000
# 4 0.000000 0.000000 0.000000 0.087262 0.000000 0.000000
# 5 0.000000 0.000000 0.000000 0.000000 0.122383 0.000000
# 6 0.000000 0.000000 0.000000 0.000000 0.000000 0.127994
#
#
# Mechanical properties :
#
#
# Convention : Reuss Voigt Hill
#
# Bulk Modulus (GPa) = 30.75124 50.42052 40.58588
# Shear Modulus (GPa) = 12.21023 21.35729 16.78376
#
# Velocity S-wave (km/s) = 2.42207 3.20330 2.83968
# Velocity P-wave (km/s) = 4.75356 6.15680 5.50011
#
# Compressibility (1/GPa) = 0.03251901
#
# Stress axis : x y z
#
# Youngs Moduli (GPa) = 140.83306 34.87273 90.98858
#
# Poissons Ratio (x) = 0.15896 0.21896
# Poissons Ratio (y) = 0.64196 0.01448
# Poissons Ratio (z) = 0.33890 0.00555
#
# Static dielectric constant tensor:
#      x y z
#    x 4.706480 0.000000 0.000000 
#    y 0.000000 3.566600 0.000000 
#    z 0.000000 0.000000 3.765310 
# 
# 
# High freq. dielectric constant tensor:
#      x y z
#    x 1.839320 0.000000 0.000000 
#    y 0.000000 1.797080 0.000000 
#    z 0.000000 0.000000 1.830500 
# 
# From -- ./inp_files/29688.got.cif
#   From: 2010.03.12/outbox.cif.g09.slc.cpg/sg51_15_cif.got.tgz:29688.got - 2010.04.16 13:43:02.
