data_PCOD8212437
_publ_section_title
;
Structure prediction by ZEFSAII (Michael W. Deem and Ramdas Pophale) SiO2 
 PCOD8212437
Probable space group: P M M A
;
_chemical_formula_sum "Si O2"
_cell_formula_units_Z 64
_cell_length_a 30.716316
_cell_length_b 8.802766
_cell_length_c 11.968651
_cell_angle_alpha 90.000000
_cell_angle_beta 90.000000
_cell_angle_gamma 90.000000
_cell_volume 3236.186095
_symmetry_space_group_name_H-M "P M M A"
_symmetry_group_IT_number 51
_symmetry_cell_setting 'orthorhombic'
loop_
_space_group_symop_operation_xyz
x,y,z
1/2-x,-y,z
1/2+x,-y,-z
-x,y,-z
-x,-y,-z
1/2+x,y,-z
1/2-x,y,z
x,-y,z
loop_
_atom_site_type_symbol
_atom_site_label
_atom_site_fract_x
_atom_site_fract_y
_atom_site_fract_z
Si Si1 0.384736 0.825022 0.857499
Si Si2 0.549859 0.179971 0.513703
Si Si3 0.299682 0.176178 0.491926
Si Si4 0.513716 0.175041 0.121576
Si Si5 0.375617 0.321957 0.628567
Si Si6 0.057764 0.321961 0.254771
Si Si7 0.867521 0.323568 0.913613
Si Si8 0.199977 0.829371 0.233739
O O1 0.435861 0.798403 0.863096
O O2 0.365911 0.728937 0.755018
O O3 0.372485 0.000000 0.839535
O O4 0.363551 0.769376 0.972316
O O5 0.500000 0.237997 0.500000
O O6 0.580450 0.241254 0.415003
O O7 0.569621 0.237780 0.630483
O O8 0.551565 0.000000 0.509556
O O9 0.250000 0.213039 0.527964
O O10 0.332866 0.280462 0.558872
O O11 0.306238 0.215037 0.362379
O O12 0.310195 0.000000 0.515158
O O13 0.490346 0.274538 0.216057
O O14 0.499951 0.000000 0.137410
O O15 0.500000 0.235122 0.000000
O O16 0.383434 0.500000 0.622388
O O17 0.060511 0.500000 0.277219
O O18 0.091050 0.268571 0.158680
O O19 0.871178 0.500000 0.942735
O O20 0.824757 0.292299 0.841507
O O21 0.250000 0.820736 0.199240
O O22 0.182140 0.000000 0.212603
#
# Coordination Sequence:
#
# PCOD8212437 Si02
#       8
#     8   8   8   8   8   8   8   8
#     4  11  23  40  61  82 112 156 202 244 287 342
#     4  11  24  41  60  83 115 158 206 250 293 349
#     4   9  19  39  67  95 121 154 199 245 291 353
#     4  10  20  36  57  82 110 149 200 244 286 340
#     4  12  25  40  60  88 124 159 196 247 307 363
#     4  11  23  36  56  86 118 150 187 238 297 347
#     4  11  23  37  55  85 119 149 186 231 285 342
#     4   9  19  37  62  90 117 147 185 231 283 340
#
# _framework density 19.776367
#
# number of rings (size 3 to 8) (size 9 to 14) (size 15 to 20)
#    0.000    1.500    1.250    4.875    0.000    9.750 
#    0.000    1.875    0.000    3.750    0.000    0.000 
#    0.000    0.000    0.000    0.000    0.000    0.000 
#
# Total GULP energy -793955.169189 kJ/mol
# GULP energy per Si atom -12405.549519 kJ/mol
# Density = 1.973135 g / cm^3
# Si number density = 19.776367 Si / 1000 Ang^3
#
#
#
# Elastic Constant Matrix: (Units=GPa)
#
#
# Indices 1 2 3 4 5 6 
#
# 1 83.1387 37.1472 36.9674 0.0000 0.0000 0.0000
# 2 37.1472 77.6800 37.6848 0.0000 0.0000 0.0000
# 3 36.9674 37.6848 101.8783 0.0000 0.0000 0.0000
# 4 0.0000 0.0000 0.0000 31.3542 0.0000 0.0000
# 5 0.0000 0.0000 0.0000 0.0000 32.6663 0.0000
# 6 0.0000 0.0000 0.0000 0.0000 0.0000 17.0079
#
#
#
# Elastic Compliance Matrix: (Units=1/GPa)
#
#
# Indices 1 2 3 4 5 6 
#
# 1 0.016372 -0.006029 -0.003710 0.000000 0.000000 0.000000
# 2 -0.006029 0.017909 -0.004437 0.000000 0.000000 0.000000
# 3 -0.003710 -0.004437 0.012803 0.000000 0.000000 0.000000
# 4 0.000000 0.000000 0.000000 0.031894 0.000000 0.000000
# 5 0.000000 0.000000 0.000000 0.000000 0.030613 0.000000
# 6 0.000000 0.000000 0.000000 0.000000 0.000000 0.058796
#
#
# Mechanical properties :
#
#
# Convention : Reuss Voigt Hill
#
# Bulk Modulus (GPa) = 53.38699 54.03288 53.70993
# Shear Modulus (GPa) = 24.63261 26.26551 25.44906
#
# Velocity S-wave (km/s) = 3.53307 3.64830 3.59115
# Velocity P-wave (km/s) = 6.61040 6.71774 6.66429
#
# Compressibility (1/GPa) = 0.01873116
#
# Stress axis : x y z
#
# Youngs Moduli (GPa) = 61.08063 55.83818 78.10545
#
# Poissons Ratio (x) = 0.33665 0.28981
# Poissons Ratio (y) = 0.36826 0.34654
# Poissons Ratio (z) = 0.22664 0.24774
#
# Static dielectric constant tensor:
#      x y z
#    x 3.562800 0.000000 0.000000 
#    y 0.000000 3.528480 0.000000 
#    z 0.000000 0.000000 3.823230 
# 
# 
# High freq. dielectric constant tensor:
#      x y z
#    x 1.765080 0.000000 0.000000 
#    y 0.000000 1.770130 0.000000 
#    z 0.000000 0.000000 1.777550 
# 
# From -- ./inp_files/19446.got.cif
#   From: 2010.03.12/outbox.cif.g09.slc.cpg/sg51_10_cif.got.tgz:19446.got - 2010.04.16 13:43:02.
