data_PCOD8212487
_publ_section_title
;
Structure prediction by ZEFSAII (Michael W. Deem and Ramdas Pophale) SiO2 
 PCOD8212487
Probable space group: P M M A
;
_chemical_formula_sum "Si O2"
_cell_formula_units_Z 48
_cell_length_a 15.661671
_cell_length_b 8.976623
_cell_length_c 16.916845
_cell_angle_alpha 90.000000
_cell_angle_beta 90.000000
_cell_angle_gamma 90.000000
_cell_volume 2378.320903
_symmetry_space_group_name_H-M "P M M A"
_symmetry_group_IT_number 51
_symmetry_cell_setting 'orthorhombic'
loop_
_space_group_symop_operation_xyz
x,y,z
1/2-x,-y,z
1/2+x,-y,-z
-x,y,-z
-x,-y,-z
1/2+x,y,-z
1/2-x,y,z
x,-y,z
loop_
_atom_site_type_symbol
_atom_site_label
_atom_site_fract_x
_atom_site_fract_y
_atom_site_fract_z
Si Si1 0.652043 0.330731 0.501572
Si Si2 0.503310 0.823250 0.909677
Si Si3 0.414407 0.168423 0.646222
Si Si4 0.388642 0.168617 0.337959
Si Si5 0.154137 0.328828 0.182721
Si Si6 0.844137 0.177018 0.189985
O O1 0.750000 0.318558 0.475641
O O2 0.625750 0.500000 0.520968
O O3 0.595281 0.274201 0.428929
O O4 0.635333 0.229582 0.576732
O O5 0.589380 0.761236 0.871748
O O6 0.418287 0.758319 0.866828
O O7 0.507318 0.000000 0.901873
O O8 0.500000 0.770643 0.000000
O O9 0.510758 0.173276 0.676458
O O10 0.358228 0.228342 0.719438
O O11 0.388095 0.000000 0.622253
O O12 0.343996 0.267825 0.271803
O O13 0.354578 0.000000 0.331588
O O14 0.250000 0.311835 0.148040
O O15 0.125452 0.500000 0.184817
O O16 0.750000 0.233442 0.162635
O O17 0.848639 0.000000 0.186550
#
# Coordination Sequence:
#
# PCOD8212487 Si02
#       6
#     8   8   8   8   8   8
#     4  11  24  38  52  79 119 157 197 244 296 355
#     4  10  21  39  64  94 125 157 199 249 300 358
#     4  10  20  36  58  82 111 152 200 247 298 353
#     4  11  22  38  61  87 114 151 203 254 300 353
#     4  11  24  41  62  89 124 166 206 246 301 363
#     4   9  17  33  58  87 119 154 194 243 298 353
#
# _framework density 20.182304999999999
#
# number of rings (size 3 to 8) (size 9 to 14) (size 15 to 20)
#    0.000    1.667    1.667    3.000    0.000    9.667 
#    0.000    1.667    0.000    0.500    0.000    0.000 
#    0.000    0.000    0.000    0.000    0.000    0.000 
#
# Total GULP energy -595318.087321 kJ/mol
# GULP energy per Si atom -12402.460153 kJ/mol
# Density = 2.013637 g / cm^3
# Si number density = 20.182305 Si / 1000 Ang^3
#
#
#
# Elastic Constant Matrix: (Units=GPa)
#
#
# Indices 1 2 3 4 5 6 
#
# 1 103.7025 18.3298 44.8292 0.0000 0.0000 0.0000
# 2 18.3298 42.9509 22.4100 0.0000 0.0000 0.0000
# 3 44.8292 22.4100 118.9608 0.0000 0.0000 0.0000
# 4 0.0000 0.0000 0.0000 10.1314 0.0000 0.0000
# 5 0.0000 0.0000 0.0000 0.0000 19.7803 0.0000
# 6 0.0000 0.0000 0.0000 0.0000 0.0000 26.8992
#
#
#
# Elastic Compliance Matrix: (Units=1/GPa)
#
#
# Indices 1 2 3 4 5 6 
#
# 1 0.011864 -0.003028 -0.003901 0.000000 0.000000 0.000000
# 2 -0.003028 0.026593 -0.003869 0.000000 0.000000 0.000000
# 3 -0.003901 -0.003869 0.010605 0.000000 0.000000 0.000000
# 4 0.000000 0.000000 0.000000 0.098703 0.000000 0.000000
# 5 0.000000 0.000000 0.000000 0.000000 0.050555 0.000000
# 6 0.000000 0.000000 0.000000 0.000000 0.000000 0.037176
#
#
# Mechanical properties :
#
#
# Convention : Reuss Voigt Hill
#
# Bulk Modulus (GPa) = 36.40614 48.52803 42.46709
# Shear Modulus (GPa) = 18.77960 23.36519 21.07239
#
# Velocity S-wave (km/s) = 3.05372 3.40620 3.23476
# Velocity P-wave (km/s) = 5.52371 6.29020 5.91938
#
# Compressibility (1/GPa) = 0.02746789
#
# Stress axis : x y z
#
# Youngs Moduli (GPa) = 84.28618 37.60367 94.29720
#
# Poissons Ratio (x) = 0.11387 0.36781
# Poissons Ratio (y) = 0.25523 0.36479
# Poissons Ratio (z) = 0.32876 0.14547
#
# Static dielectric constant tensor:
#      x y z
#    x 3.895900 0.000000 0.000000 
#    y 0.000000 3.533680 0.000000 
#    z 0.000000 0.000000 3.623860 
# 
# 
# High freq. dielectric constant tensor:
#      x y z
#    x 1.803700 0.000000 0.000000 
#    y 0.000000 1.767690 0.000000 
#    z 0.000000 0.000000 1.785350 
# 
# From -- ./inp_files/29416.got.cif
#   From: 2010.03.12/outbox.cif.g09.slc.cpg/sg51_15_cif.got.tgz:29416.got - 2010.04.16 13:43:02.
