data_PCOD8212300
_publ_section_title
;
Structure prediction by ZEFSAII (Michael W. Deem and Ramdas Pophale) SiO2 
 PCOD8212300
Probable space group: P M M A
;
_chemical_formula_sum "Si O2"
_cell_formula_units_Z 64
_cell_length_a 8.808224
_cell_length_b 14.206925
_cell_length_c 25.481139
_cell_angle_alpha 90.000000
_cell_angle_beta 90.000000
_cell_angle_gamma 90.000000
_cell_volume 3188.653109
_symmetry_space_group_name_H-M "P M M A"
_symmetry_group_IT_number 51
_symmetry_cell_setting 'orthorhombic'
loop_
_space_group_symop_operation_xyz
x,y,z
1/2-x,-y,z
1/2+x,-y,-z
-x,y,-z
-x,-y,-z
1/2+x,y,-z
1/2-x,y,z
x,-y,z
loop_
_atom_site_type_symbol
_atom_site_label
_atom_site_fract_x
_atom_site_fract_y
_atom_site_fract_z
Si Si1 0.428217 0.285545 0.552876
Si Si2 0.922683 0.104399 0.298541
Si Si3 0.426341 0.893387 0.407458
Si Si4 0.572761 0.099141 0.056244
Si Si5 0.073981 0.703297 0.749771
Si Si6 0.926310 0.389941 0.650109
Si Si7 0.925086 0.391874 0.846395
Si Si8 0.570168 0.303750 0.057487
O O1 0.500000 0.329425 0.500000
O O2 0.250000 0.294176 0.548724
O O3 0.476338 0.176255 0.556612
O O4 0.483056 0.341988 0.603295
O O5 0.750000 0.111924 0.319863
O O6 0.951748 0.183857 0.254736
O O7 0.034800 0.123788 0.346638
O O8 0.952060 0.000000 0.274409
O O9 0.250000 0.870962 0.415607
O O10 0.466975 0.000000 0.423898
O O11 0.750000 0.100773 0.046873
O O12 0.528247 0.199533 0.082063
O O13 0.527739 0.000000 0.086561
O O14 0.500000 0.095819 0.000000
O O15 0.250000 0.676828 0.743713
O O16 0.980776 0.648957 0.705615
O O17 0.016354 0.673573 0.806503
O O18 0.750000 0.366449 0.643191
O O19 0.959224 0.500000 0.648404
O O20 0.750000 0.361678 0.846446
O O21 0.943947 0.500000 0.829365
O O22 0.994698 0.379438 0.904205
O O23 0.750000 0.320525 0.054483
O O24 0.500000 0.317213 0.000000
#
# Coordination Sequence:
#
# PCOD8212300 Si02
#       8
#     8   8   8   8   8   8   8   8
#     4  12  25  41  61  86 119 159 201 251 303 357
#     4   9  18  34  58  89 123 158 194 233 285 350
#     4  10  20  35  58  88 121 158 199 243 293 352
#     4   8  14  26  47  77 111 146 184 225 271 327
#     4  11  22  38  64  94 121 154 194 242 294 349
#     4  11  24  42  64  89 118 154 196 245 302 362
#     4  11  25  43  61  83 114 154 199 250 303 351
#     4  10  20  36  60  88 119 156 196 240 291 350
#
# _framework density 20.071169000000001
#
# number of rings (size 3 to 8) (size 9 to 14) (size 15 to 20)
#    0.000    1.750    1.250    3.375    0.000    6.000 
#    0.000    0.625    0.000    3.750    0.000    0.000 
#    0.000    0.000    0.000    0.000    0.000    0.000 
#
# Total GULP energy -793356.587411 kJ/mol
# GULP energy per Si atom -12396.196678 kJ/mol
# Density = 2.002549 g / cm^3
# Si number density = 20.071169 Si / 1000 Ang^3
#
#
#
# Elastic Constant Matrix: (Units=GPa)
#
#
# Indices 1 2 3 4 5 6 
#
# 1 98.3942 50.2554 29.4373 0.0000 0.0000 0.0000
# 2 50.2554 86.7532 36.8010 0.0000 0.0000 0.0000
# 3 29.4373 36.8010 86.3196 0.0000 0.0000 0.0000
# 4 0.0000 0.0000 0.0000 13.7584 0.0000 0.0000
# 5 0.0000 0.0000 0.0000 0.0000 34.5464 0.0000
# 6 0.0000 0.0000 0.0000 0.0000 0.0000 22.1645
#
#
#
# Elastic Compliance Matrix: (Units=1/GPa)
#
#
# Indices 1 2 3 4 5 6 
#
# 1 0.014631 -0.007763 -0.001680 0.000000 0.000000 0.000000
# 2 -0.007763 0.018191 -0.005108 0.000000 0.000000 0.000000
# 3 -0.001680 -0.005108 0.014335 0.000000 0.000000 0.000000
# 4 0.000000 0.000000 0.000000 0.072683 0.000000 0.000000
# 5 0.000000 0.000000 0.000000 0.000000 0.028947 0.000000
# 6 0.000000 0.000000 0.000000 0.000000 0.000000 0.045117
#
#
# Mechanical properties :
#
#
# Convention : Reuss Voigt Hill
#
# Bulk Modulus (GPa) = 55.38498 56.05048 55.71773
# Shear Modulus (GPa) = 21.83182 24.42541 23.12861
#
# Velocity S-wave (km/s) = 3.30164 3.49225 3.39828
# Velocity P-wave (km/s) = 6.49528 6.65189 6.57405
#
# Compressibility (1/GPa) = 0.01805544
#
# Stress axis : x y z
#
# Youngs Moduli (GPa) = 68.34950 54.97310 69.75713
#
# Poissons Ratio (x) = 0.42675 0.11718
# Poissons Ratio (y) = 0.53058 0.35632
# Poissons Ratio (z) = 0.11482 0.28080
#
# Static dielectric constant tensor:
#      x y z
#    x 3.708100 0.000000 0.000000 
#    y 0.000000 4.166290 0.000000 
#    z 0.000000 0.000000 3.353500 
# 
# 
# High freq. dielectric constant tensor:
#      x y z
#    x 1.793450 0.000000 0.000000 
#    y 0.000000 1.800720 0.000000 
#    z 0.000000 0.000000 1.756820 
# 
# From -- ./inp_files/34872.got.cif
#   From: 2010.03.12/outbox.cif.g09.slc.cpg/sg51_18_cif.got.tgz:34872.got - 2010.04.16 13:43:02.
