data_PCOD8212958
_publ_section_title
;
Structure prediction by ZEFSAII (Michael W. Deem and Ramdas Pophale) SiO2 
 PCOD8212958
Probable space group: P M M A
;
_chemical_formula_sum "Si O2"
_cell_formula_units_Z 44
_cell_length_a 9.926391
_cell_length_b 7.910789
_cell_length_c 29.499854
_cell_angle_alpha 90.000000
_cell_angle_beta 90.000000
_cell_angle_gamma 90.000000
_cell_volume 2316.493285
_symmetry_space_group_name_H-M "P M M A"
_symmetry_group_IT_number 51
_symmetry_cell_setting 'orthorhombic'
loop_
_space_group_symop_operation_xyz
x,y,z
1/2-x,-y,z
1/2+x,-y,-z
-x,y,-z
-x,-y,-z
1/2+x,y,-z
1/2-x,y,z
x,-y,z
loop_
_atom_site_type_symbol
_atom_site_label
_atom_site_fract_x
_atom_site_fract_y
_atom_site_fract_z
Si Si1 0.404986 0.696672 0.389604
Si Si2 0.600938 0.305889 0.311616
Si Si3 0.403618 0.301464 0.138710
Si Si4 0.899199 0.806823 0.215437
Si Si5 0.899714 0.298759 0.962595
Si Si6 0.594982 0.000000 0.542942
O O1 0.250000 0.711993 0.374360
O O2 0.436890 0.500000 0.403371
O O3 0.494631 0.766047 0.347751
O O4 0.436184 0.826201 0.430187
O O5 0.750000 0.219565 0.316096
O O6 0.616386 0.500000 0.322966
O O7 0.545095 0.285547 0.260388
O O8 0.250000 0.248348 0.149034
O O9 0.421676 0.500000 0.143824
O O10 0.501488 0.211702 0.173508
O O11 0.443577 0.242211 0.087901
O O12 0.750000 0.736352 0.202476
O O13 0.889160 0.000000 0.228881
O O14 0.750000 0.230811 0.973252
O O15 0.900085 0.500000 0.964954
O O16 0.000000 0.220135 0.000000
O O17 0.500000 0.000000 0.500000
O O18 0.750000 0.000000 0.527199
#
# Coordination Sequence:
#
# PCOD8212958 Si02
#       6
#     8   8   8   8   8   4
#     4   9  19  36  56  79 109 142 177 220 265 312
#     4   9  18  33  53  77 103 132 169 211 255 304
#     4   9  18  32  49  70  97 128 163 204 249 301
#     4  10  21  34  48  71 102 134 168 208 252 301
#     4   8  14  25  42  66  93 118 150 196 247 298
#     4  10  22  38  56  82 112 144 182 222 265 312
#
# _framework density 18.994226000000001
#
# number of rings (size 3 to 8) (size 9 to 14) (size 15 to 20)
#    0.000    2.909    0.000    1.636    1.273    4.000 
#    0.000    3.636    0.000    0.545    0.000    0.000 
#    0.000    0.000    0.000    0.000    0.000    0.000 
#
# Total GULP energy -545299.042060 kJ/mol
# GULP energy per Si atom -12393.160047 kJ/mol
# Density = 1.895099 g / cm^3
# Si number density = 18.994226 Si / 1000 Ang^3
#
#
#
# Elastic Constant Matrix: (Units=GPa)
#
#
# Indices 1 2 3 4 5 6 
#
# 1 108.0485 30.9597 98.2668 0.0000 0.0000 0.0000
# 2 30.9597 50.7359 35.2017 0.0000 0.0000 0.0000
# 3 98.2668 35.2017 151.7433 0.0000 0.0000 0.0000
# 4 0.0000 0.0000 0.0000 10.0323 0.0000 0.0000
# 5 0.0000 0.0000 0.0000 0.0000 44.3143 0.0000
# 6 0.0000 0.0000 0.0000 0.0000 0.0000 17.4963
#
#
#
# Elastic Compliance Matrix: (Units=1/GPa)
#
#
# Indices 1 2 3 4 5 6 
#
# 1 0.023339 -0.004476 -0.014076 0.000000 0.000000 0.000000
# 2 -0.004476 0.024349 -0.002750 0.000000 0.000000 0.000000
# 3 -0.014076 -0.002750 0.016343 0.000000 0.000000 0.000000
# 4 0.000000 0.000000 0.000000 0.099678 0.000000 0.000000
# 5 0.000000 0.000000 0.000000 0.000000 0.022566 0.000000
# 6 0.000000 0.000000 0.000000 0.000000 0.000000 0.057155
#
#
# Mechanical properties :
#
#
# Convention : Reuss Voigt Hill
#
# Bulk Modulus (GPa) = 46.66728 71.04267 58.85497
# Shear Modulus (GPa) = 17.05460 24.10855 20.58158
#
# Velocity S-wave (km/s) = 2.99972 3.56653 3.29533
# Velocity P-wave (km/s) = 6.05147 7.37859 6.74774
#
# Compressibility (1/GPa) = 0.02142829
#
# Stress axis : x y z
#
# Youngs Moduli (GPa) = 42.84688 41.06919 61.18727
#
# Poissons Ratio (x) = 0.18381 0.86125
# Poissons Ratio (y) = 0.19177 0.16828
# Poissons Ratio (z) = 0.60310 0.11295
#
# Static dielectric constant tensor:
#      x y z
#    x 3.935200 0.000000 0.000000 
#    y 0.000000 3.301820 0.000000 
#    z 0.000000 0.000000 3.449890 
# 
# 
# High freq. dielectric constant tensor:
#      x y z
#    x 1.737610 0.000000 0.000000 
#    y 0.000000 1.724900 0.000000 
#    z 0.000000 0.000000 1.731570 
# 
# From -- ./inp_files/36760.got.cif
#   From: 2010.03.12/outbox.cif.g09.slc.cpg/sg51_19_cif.got.tgz:36760.got - 2010.04.16 13:43:02.
