data_PCOD8212505
_publ_section_title
;
Structure prediction by ZEFSAII (Michael W. Deem and Ramdas Pophale) SiO2 
 PCOD8212505
Probable space group: P M M A
;
_chemical_formula_sum "Si O2"
_cell_formula_units_Z 64
_cell_length_a 23.919332
_cell_length_b 8.666008
_cell_length_c 14.929101
_cell_angle_alpha 90.000000
_cell_angle_beta 90.000000
_cell_angle_gamma 90.000000
_cell_volume 3094.580529
_symmetry_space_group_name_H-M "P M M A"
_symmetry_group_IT_number 51
_symmetry_cell_setting 'orthorhombic'
loop_
_space_group_symop_operation_xyz
x,y,z
1/2-x,-y,z
1/2+x,-y,-z
-x,y,-z
-x,-y,-z
1/2+x,y,-z
1/2-x,y,z
x,-y,z
loop_
_atom_site_type_symbol
_atom_site_label
_atom_site_fract_x
_atom_site_fract_y
_atom_site_fract_z
Si Si1 0.011327 0.170934 0.104438
Si Si2 0.687026 0.323430 0.786163
Si Si3 0.900663 0.319727 0.146335
Si Si4 0.685289 0.681350 0.483494
Si Si5 0.382347 0.324666 0.051345
Si Si6 0.387541 0.179668 0.358719
Si Si7 0.496212 0.320154 0.604615
Si Si8 0.117920 0.819379 0.672240
O O1 0.073416 0.236694 0.114616
O O2 0.966851 0.282609 0.152050
O O3 0.007514 0.000000 0.147727
O O4 0.000000 0.163473 0.000000
O O5 0.750000 0.269220 0.769738
O O6 0.678322 0.500000 0.753936
O O7 0.675075 0.310734 0.893107
O O8 0.647480 0.211804 0.730367
O O9 0.890667 0.500000 0.161614
O O10 0.869687 0.226361 0.224694
O O11 0.876167 0.260351 0.050210
O O12 0.750000 0.729113 0.495125
O O13 0.677204 0.500000 0.496325
O O14 0.647535 0.766426 0.555936
O O15 0.663950 0.730022 0.385939
O O16 0.403453 0.500000 0.041559
O O17 0.446328 0.267660 0.349223
O O18 0.400113 0.000000 0.368348
O O19 0.500000 0.282659 0.500000
O O20 0.486026 0.500000 0.622933
O O21 0.444811 0.227041 0.645796
O O22 0.126200 0.000000 0.658526
#
# Coordination Sequence:
#
# PCOD8212505 Si02
#       8
#     8   8   8   8   8   8   8   8
#     4   9  17  30  50  78 111 146 187 239 298 356
#     4  10  22  41  63  87 119 161 210 260 310 368
#     4  10  20  36  58  84 119 160 202 249 302 364
#     4  11  24  44  68  91 119 160 208 254 301 359
#     4   9  19  36  58  83 112 152 204 254 302 357
#     4  12  25  40  63  94 128 162 201 251 310 372
#     4  11  23  41  66  92 125 166 207 251 306 372
#     4  12  25  40  62  93 130 165 204 254 310 370
#
# _framework density 20.681317
#
# number of rings (size 3 to 8) (size 9 to 14) (size 15 to 20)
#    0.000    1.500    1.250    4.125    1.750    5.750 
#    0.000    0.625    0.000    2.250    0.000    0.000 
#    0.000    0.000    0.000    0.000    0.000    0.000 
#
# Total GULP energy -793712.203559 kJ/mol
# GULP energy per Si atom -12401.753181 kJ/mol
# Density = 2.063425 g / cm^3
# Si number density = 20.681317 Si / 1000 Ang^3
#
#
#
# Elastic Constant Matrix: (Units=GPa)
#
#
# Indices 1 2 3 4 5 6 
#
# 1 70.3245 14.9133 12.1119 0.0000 0.0000 0.0000
# 2 14.9133 50.2689 18.3029 0.0000 0.0000 0.0000
# 3 12.1119 18.3029 86.3711 0.0000 0.0000 0.0000
# 4 0.0000 0.0000 0.0000 27.6700 0.0000 0.0000
# 5 0.0000 0.0000 0.0000 0.0000 25.2922 0.0000
# 6 0.0000 0.0000 0.0000 0.0000 0.0000 16.4488
#
#
#
# Elastic Compliance Matrix: (Units=1/GPa)
#
#
# Indices 1 2 3 4 5 6 
#
# 1 0.015305 -0.004073 -0.001283 0.000000 0.000000 0.000000
# 2 -0.004073 0.022640 -0.004227 0.000000 0.000000 0.000000
# 3 -0.001283 -0.004227 0.012654 0.000000 0.000000 0.000000
# 4 0.000000 0.000000 0.000000 0.036140 0.000000 0.000000
# 5 0.000000 0.000000 0.000000 0.000000 0.039538 0.000000
# 6 0.000000 0.000000 0.000000 0.000000 0.000000 0.060795
#
#
# Mechanical properties :
#
#
# Convention : Reuss Voigt Hill
#
# Bulk Modulus (GPa) = 31.81391 33.06898 32.44145
# Shear Modulus (GPa) = 23.07184 24.65795 23.86490
#
# Velocity S-wave (km/s) = 3.34367 3.45669 3.40065
# Velocity P-wave (km/s) = 5.50664 5.65297 5.58029
#
# Compressibility (1/GPa) = 0.03143279
#
# Stress axis : x y z
#
# Youngs Moduli (GPa) = 65.34003 44.16895 79.02951
#
# Poissons Ratio (x) = 0.17991 0.10140
# Poissons Ratio (y) = 0.26615 0.33402
# Poissons Ratio (z) = 0.08383 0.18668
#
# Static dielectric constant tensor:
#      x y z
#    x 3.690570 0.000000 0.000000 
#    y 0.000000 3.793220 0.000000 
#    z 0.000000 0.000000 3.920930 
# 
# 
# High freq. dielectric constant tensor:
#      x y z
#    x 1.792070 0.000000 0.000000 
#    y 0.000000 1.810080 0.000000 
#    z 0.000000 0.000000 1.819840 
# 
# From -- ./inp_files/26213.got.cif
#   From: 2010.03.12/outbox.cif.g09.slc.cpg/sg51_14_cif.got.tgz:26213.got - 2010.04.16 13:43:02.
