data_PCOD8212963
_publ_section_title
;
Structure prediction by ZEFSAII (Michael W. Deem and Ramdas Pophale) SiO2 
 PCOD8212963
Probable space group: P M M A
;
_chemical_formula_sum "Si O2"
_cell_formula_units_Z 56
_cell_length_a 18.307580
_cell_length_b 19.425617
_cell_length_c 8.309723
_cell_angle_alpha 90.000000
_cell_angle_beta 90.000000
_cell_angle_gamma 90.000000
_cell_volume 2955.236959
_symmetry_space_group_name_H-M "P M M A"
_symmetry_group_IT_number 51
_symmetry_cell_setting 'orthorhombic'
loop_
_space_group_symop_operation_xyz
x,y,z
1/2-x,-y,z
1/2+x,-y,-z
-x,y,-z
-x,-y,-z
1/2+x,y,-z
1/2-x,y,z
x,-y,z
loop_
_atom_site_type_symbol
_atom_site_label
_atom_site_fract_x
_atom_site_fract_y
_atom_site_fract_z
Si Si1 0.972906 0.075456 0.816286
Si Si2 0.434861 0.307977 0.609823
Si Si3 0.834930 0.695512 0.680823
Si Si4 0.561860 0.805595 0.133573
Si Si5 0.836368 0.162493 0.861871
Si Si6 0.333366 0.577111 0.090940
Si Si7 0.952072 0.577475 0.148654
O O1 0.888354 0.100497 0.796655
O O2 0.030047 0.132877 0.749424
O O3 0.979859 0.000000 0.733291
O O4 0.000000 0.069704 0.000000
O O5 0.500000 0.279335 0.500000
O O6 0.363667 0.312028 0.499896
O O7 0.418705 0.258545 0.758087
O O8 0.458704 0.380659 0.686045
O O9 0.750000 0.683605 0.668037
O O10 0.853282 0.769673 0.756740
O O11 0.869073 0.633772 0.789131
O O12 0.500000 0.787315 0.000000
O O13 0.638141 0.824604 0.045779
O O14 0.750000 0.142589 0.856577
O O15 0.250000 0.595959 0.061152
O O16 0.343704 0.500000 0.164276
O O17 0.369026 0.580878 0.914558
O O18 0.977731 0.500000 0.188932
O O19 0.000000 0.606806 0.000000
#
# Coordination Sequence:
#
# PCOD8212963 Si02
#       7
#     8   8   8   8   8   8   8
#     4   8  15  29  49  75 102 123 154 202 244 279
#     4  12  22  32  50  72  98 132 166 202 245 290
#     4  10  21  34  49  73 103 130 160 203 248 286
#     4   9  18  32  51  72  96 128 165 200 236 283
#     4   9  17  31  51  73  99 131 162 195 240 291
#     4   9  18  35  56  72  92 128 168 203 243 293
#     4  10  21  35  51  72  97 126 163 207 250 292
#
# _framework density 18.949411000000001
#
# number of rings (size 3 to 8) (size 9 to 14) (size 15 to 20)
#    0.000    2.714    0.000    3.857    0.000    2.286 
#    0.000    0.000    0.000    3.857    0.000    0.000 
#    0.000    0.000    0.000    0.000    0.000    0.000 
#
# Total GULP energy -693804.628871 kJ/mol
# GULP energy per Si atom -12389.368373 kJ/mol
# Density = 1.890628 g / cm^3
# Si number density = 18.949411 Si / 1000 Ang^3
#
#
#
# Elastic Constant Matrix: (Units=GPa)
#
#
# Indices 1 2 3 4 5 6 
#
# 1 72.7685 21.9628 19.3230 0.0000 0.0000 0.0000
# 2 21.9628 80.7520 20.5486 0.0000 0.0000 0.0000
# 3 19.3230 20.5486 52.5406 0.0000 0.0000 0.0000
# 4 0.0000 0.0000 0.0000 4.0054 0.0000 0.0000
# 5 0.0000 0.0000 0.0000 0.0000 28.7620 0.0000
# 6 0.0000 0.0000 0.0000 0.0000 0.0000 17.4239
#
#
#
# Elastic Compliance Matrix: (Units=1/GPa)
#
#
# Indices 1 2 3 4 5 6 
#
# 1 0.015921 -0.003154 -0.004622 0.000000 0.000000 0.000000
# 2 -0.003154 0.014377 -0.004463 0.000000 0.000000 0.000000
# 3 -0.004622 -0.004463 0.022478 0.000000 0.000000 0.000000
# 4 0.000000 0.000000 0.000000 0.249662 0.000000 0.000000
# 5 0.000000 0.000000 0.000000 0.000000 0.034768 0.000000
# 6 0.000000 0.000000 0.000000 0.000000 0.000000 0.057392
#
#
# Mechanical properties :
#
#
# Convention : Reuss Voigt Hill
#
# Bulk Modulus (GPa) = 35.33711 36.63666 35.98688
# Shear Modulus (GPa) = 11.66835 19.65339 15.66087
#
# Velocity S-wave (km/s) = 2.48415 3.22398 2.87793
# Velocity P-wave (km/s) = 5.18812 5.76495 5.48412
#
# Compressibility (1/GPa) = 0.02829886
#
# Stress axis : x y z
#
# Youngs Moduli (GPa) = 62.80822 69.55500 44.48772
#
# Poissons Ratio (x) = 0.21939 0.20562
# Poissons Ratio (y) = 0.19811 0.19854
# Poissons Ratio (z) = 0.29029 0.31041
#
# Static dielectric constant tensor:
#      x y z
#    x 3.520400 0.000000 0.000000 
#    y 0.000000 4.005030 0.000000 
#    z 0.000000 0.000000 3.317750 
# 
# 
# High freq. dielectric constant tensor:
#      x y z
#    x 1.738870 0.000000 0.000000 
#    y 0.000000 1.741340 0.000000 
#    z 0.000000 0.000000 1.699190 
# 
# From -- ./inp_files/9960.got.cif
#   From: 2010.03.12/outbox.cif.g09.slc.cpg/sg51_5_cif.got.tgz:9960.got - 2010.04.16 13:43:02.
