data_PCOD8212370
_publ_section_title
;
Structure prediction by ZEFSAII (Michael W. Deem and Ramdas Pophale) SiO2 
 PCOD8212370
Probable space group: P M M A
;
_chemical_formula_sum "Si O2"
_cell_formula_units_Z 32
_cell_length_a 10.155657
_cell_length_b 13.905547
_cell_length_c 12.495486
_cell_angle_alpha 90.000000
_cell_angle_beta 90.000000
_cell_angle_gamma 90.000000
_cell_volume 1764.612105
_symmetry_space_group_name_H-M "P M M A"
_symmetry_group_IT_number 51
_symmetry_cell_setting 'orthorhombic'
loop_
_space_group_symop_operation_xyz
x,y,z
1/2-x,-y,z
1/2+x,-y,-z
-x,y,-z
-x,-y,-z
1/2+x,y,-z
1/2-x,y,z
x,-y,z
loop_
_atom_site_type_symbol
_atom_site_label
_atom_site_fract_x
_atom_site_fract_y
_atom_site_fract_z
Si Si1 0.500000 0.163831 0.000000
Si Si2 0.402358 0.296524 0.810985
Si Si3 0.905458 0.500000 0.101014
Si Si4 0.096131 0.205856 0.594461
Si Si5 0.608724 0.000000 0.869137
Si Si6 0.101920 0.000000 0.683088
O O1 0.436971 0.232096 0.911971
O O2 0.606127 0.094836 0.943450
O O3 0.250000 0.286228 0.792838
O O4 0.442749 0.407014 0.829116
O O5 0.463312 0.258101 0.700149
O O6 0.750000 0.500000 0.067457
O O7 0.000000 0.500000 0.000000
O O8 0.250000 0.231208 0.569830
O O9 0.000000 0.240688 0.500000
O O10 0.078503 0.091974 0.609188
O O11 0.491510 0.000000 0.785298
O O12 0.750000 0.000000 0.809481
O O13 0.250000 0.000000 0.730365
#
# Coordination Sequence:
#
# PCOD8212370 Si02
#       6
#     4   8   4   8   4   4
#     4  11  20  35  54  78 118 155 186 215 282 336
#     4  10  20  36  58  82 113 150 185 225 282 336
#     4  10  20  36  59  88 116 146 183 227 276 335
#     4  10  21  38  57  79 107 148 190 231 277 328
#     4  11  23  32  50  86 118 146 188 232 268 328
#     4  10  20  36  56  75 110 151 186 226 280 339
#
# _framework density 18.134297
#
# number of rings (size 3 to 8) (size 9 to 14) (size 15 to 20)
#    0.000    1.750    3.750    1.125    0.000    3.000 
#    0.000    1.875    0.000    0.000    0.000    0.000 
#    0.000    0.000    0.000    0.000    0.000    0.000 
#
# Total GULP energy -396647.591769 kJ/mol
# GULP energy per Si atom -12395.237243 kJ/mol
# Density = 1.809302 g / cm^3
# Si number density = 18.134297 Si / 1000 Ang^3
#
#
#
# Elastic Constant Matrix: (Units=GPa)
#
#
# Indices 1 2 3 4 5 6 
#
# 1 47.9006 3.4074 23.8374 0.0000 0.0000 0.0000
# 2 3.4074 99.6698 25.5174 0.0000 0.0000 0.0000
# 3 23.8374 25.5174 107.1921 0.0000 0.0000 0.0000
# 4 0.0000 0.0000 0.0000 19.4179 0.0000 0.0000
# 5 0.0000 0.0000 0.0000 0.0000 30.6614 0.0000
# 6 0.0000 0.0000 0.0000 0.0000 0.0000 63.2025
#
#
#
# Elastic Compliance Matrix: (Units=1/GPa)
#
#
# Indices 1 2 3 4 5 6 
#
# 1 0.023505 0.000569 -0.005363 0.000000 0.000000 0.000000
# 2 0.000569 0.010698 -0.002673 0.000000 0.000000 0.000000
# 3 -0.005363 -0.002673 0.011158 0.000000 0.000000 0.000000
# 4 0.000000 0.000000 0.000000 0.051499 0.000000 0.000000
# 5 0.000000 0.000000 0.000000 0.000000 0.032614 0.000000
# 6 0.000000 0.000000 0.000000 0.000000 0.000000 0.015822
#
#
# Mechanical properties :
#
#
# Convention : Reuss Voigt Hill
#
# Bulk Modulus (GPa) = 32.86470 40.03186 36.44828
# Shear Modulus (GPa) = 29.34762 36.12307 32.73534
#
# Velocity S-wave (km/s) = 4.02724 4.46800 4.25333
# Velocity P-wave (km/s) = 6.30770 6.98144 6.65310
#
# Compressibility (1/GPa) = 0.03042779
#
# Stress axis : x y z
#
# Youngs Moduli (GPa) = 42.54468 93.47463 89.62220
#
# Poissons Ratio (x) = -0.05322 0.48060
# Poissons Ratio (y) = -0.02422 0.23959
# Poissons Ratio (z) = 0.22815 0.24989
#
# Static dielectric constant tensor:
#      x y z
#    x 3.330000 0.000000 0.000000 
#    y 0.000000 3.348570 0.000000 
#    z 0.000000 0.000000 3.366160 
# 
# 
# High freq. dielectric constant tensor:
#      x y z
#    x 1.690290 0.000000 0.000000 
#    y 0.000000 1.705990 0.000000 
#    z 0.000000 0.000000 1.699130 
# 
# From -- ./inp_files/15139.got.cif
#   From: 2010.03.12/outbox.cif.g09.slc.cpg/sg51_8_cif.got.tgz:15139.got - 2010.04.16 13:43:02.
