data_PCOD8212471
_publ_section_title
;
Structure prediction by ZEFSAII (Michael W. Deem and Ramdas Pophale) SiO2 
 PCOD8212471
Probable space group: P M M A
;
_chemical_formula_sum "Si O2"
_cell_formula_units_Z 48
_cell_length_a 14.582683
_cell_length_b 9.385428
_cell_length_c 19.259201
_cell_angle_alpha 90.000000
_cell_angle_beta 90.000000
_cell_angle_gamma 90.000000
_cell_volume 2635.905178
_symmetry_space_group_name_H-M "P M M A"
_symmetry_group_IT_number 51
_symmetry_cell_setting 'orthorhombic'
loop_
_space_group_symop_operation_xyz
x,y,z
1/2-x,-y,z
1/2+x,-y,-z
-x,y,-z
-x,-y,-z
1/2+x,y,-z
1/2-x,y,z
x,-y,z
loop_
_atom_site_type_symbol
_atom_site_label
_atom_site_fract_x
_atom_site_fract_y
_atom_site_fract_z
Si Si1 0.250000 0.667283 0.878788
Si Si2 0.057688 0.666657 0.818082
Si Si3 0.144879 0.835904 0.402738
Si Si4 0.250000 0.162599 0.019167
Si Si5 0.142930 0.161703 0.562292
Si Si6 0.513257 0.332339 0.338849
Si Si7 0.051206 0.165118 0.069708
O O1 0.250000 0.500000 0.890969
O O2 0.160590 0.716317 0.836390
O O3 0.250000 0.737667 0.953276
O O4 0.044057 0.500000 0.831321
O O5 0.041334 0.708378 0.738788
O O6 0.984169 0.747381 0.864947
O O7 0.250000 0.794749 0.389994
O O8 0.117187 0.808864 0.482477
O O9 0.085392 0.735836 0.353459
O O10 0.127229 0.000000 0.383273
O O11 0.159960 0.193467 0.064839
O O12 0.250000 0.000000 0.992502
O O13 0.250000 0.186162 0.574596
O O14 0.089192 0.271560 0.609589
O O15 0.115274 0.000000 0.581881
O O16 0.507226 0.500000 0.350358
O O17 0.028632 0.000000 0.082297
O O18 0.000000 0.218393 0.000000
#
# Coordination Sequence:
#
# PCOD8212471 Si02
#       7
#     4   8   8   4   8   8   8
#     4  10  20  36  58  80 106 145 182 215 264 325
#     4  10  23  39  55  79 113 149 183 219 265 325
#     4   9  19  38  61  81 106 144 189 234 277 325
#     4  10  20  36  58  86 112 135 172 227 282 321
#     4   9  19  36  58  84 111 143 186 231 274 327
#     4  11  23  36  54  82 116 150 182 225 279 330
#     4  10  20  36  59  84 111 140 177 226 273 320
#
# _framework density 18.210063999999999
#
# number of rings (size 3 to 8) (size 9 to 14) (size 15 to 20)
#    0.000    2.167    1.667    2.000    1.167    5.667 
#    1.500    1.667    0.000    0.000    0.000    0.000 
#    0.000    0.000    0.000    0.000    0.000    0.000 
#
# Total GULP energy -595356.373529 kJ/mol
# GULP energy per Si atom -12403.257782 kJ/mol
# Density = 1.816862 g / cm^3
# Si number density = 18.210064 Si / 1000 Ang^3
#
#
#
# Elastic Constant Matrix: (Units=GPa)
#
#
# Indices 1 2 3 4 5 6 
#
# 1 125.3115 46.2369 58.3387 0.0000 0.0000 0.0000
# 2 46.2369 60.6483 51.5578 0.0000 0.0000 0.0000
# 3 58.3387 51.5578 91.7418 0.0000 0.0000 0.0000
# 4 0.0000 0.0000 0.0000 11.9551 0.0000 0.0000
# 5 0.0000 0.0000 0.0000 0.0000 -0.4256 0.0000
# 6 0.0000 0.0000 0.0000 0.0000 0.0000 22.7427
#
#
#
# Elastic Compliance Matrix: (Units=1/GPa)
#
#
# Indices 1 2 3 4 5 6 
#
# 1 0.012121 -0.005148 -0.004815 0.000000 0.000000 0.000000
# 2 -0.005148 0.033758 -0.015698 0.000000 0.000000 0.000000
# 3 -0.004815 -0.015698 0.022784 0.000000 0.000000 0.000000
# 4 0.000000 0.000000 0.000000 0.083646 0.000000 0.000000
# 5 0.000000 0.000000 0.000000 0.000000 -2.349354 0.000000
# 6 0.000000 0.000000 0.000000 0.000000 0.000000 0.043970
#
#
# Mechanical properties :
#
#
# Convention : Reuss Voigt Hill
#
# Bulk Modulus (GPa) = 57.66407 65.55205 61.60806
# Shear Modulus (GPa) = -2.38553 14.95898 6.28673
#
# Velocity S-wave (km/s) = -1.14580 2.86924 1.86006
# Velocity P-wave (km/s) = 5.47579 6.85948 6.20632
#
# Compressibility (1/GPa) = 0.01734182
#
# Stress axis : x y z
#
# Youngs Moduli (GPa) = 82.50134 29.62225 43.88988
#
# Poissons Ratio (x) = 0.15248 0.21132
# Poissons Ratio (y) = 0.42469 0.68900
# Poissons Ratio (z) = 0.39723 0.46502
#
# Static dielectric constant tensor:
#      x y z
#    x 4.337070 0.000000 0.000000 
#    y 0.000000 3.286620 0.000000 
#    z 0.000000 0.000000 3.247110 
# 
# 
# High freq. dielectric constant tensor:
#      x y z
#    x 1.722770 0.000000 0.000000 
#    y 0.000000 1.702350 0.000000 
#    z 0.000000 0.000000 1.697000 
# 
# From -- ./inp_files/29506.got.cif
#   From: 2010.03.12/outbox.cif.g09.slc.cpg/sg51_15_cif.got.tgz:29506.got - 2010.04.16 13:43:02.
