data_PCOD8212105
_publ_section_title
;
Structure prediction by ZEFSAII (Michael W. Deem and Ramdas Pophale) SiO2 
 PCOD8212105
Probable space group: P M M A
;
_chemical_formula_sum "Si O2"
_cell_formula_units_Z 56
_cell_length_a 14.914201
_cell_length_b 9.197608
_cell_length_c 21.560635
_cell_angle_alpha 90.000000
_cell_angle_beta 90.000000
_cell_angle_gamma 90.000000
_cell_volume 2957.579555
_symmetry_space_group_name_H-M "P M M A"
_symmetry_group_IT_number 51
_symmetry_cell_setting 'orthorhombic'
loop_
_space_group_symop_operation_xyz
x,y,z
1/2-x,-y,z
1/2+x,-y,-z
-x,y,-z
-x,-y,-z
1/2+x,y,-z
1/2-x,y,z
x,-y,z
loop_
_atom_site_type_symbol
_atom_site_label
_atom_site_fract_x
_atom_site_fract_y
_atom_site_fract_z
Si Si1 0.148247 0.671443 0.006653
Si Si2 0.108510 0.670977 0.564333
Si Si3 0.149034 0.666674 0.297436
Si Si4 0.999626 0.173110 0.225912
Si Si5 0.992019 0.672207 0.096794
Si Si6 0.597556 0.670722 0.570005
Si Si7 0.347734 0.163928 0.681808
O O1 0.250000 0.739487 0.008811
O O2 0.157462 0.500000 0.007816
O O3 0.086582 0.719683 0.065018
O O4 0.093833 0.717293 0.944953
O O5 0.125177 0.500000 0.570107
O O6 0.138154 0.728991 0.495546
O O7 0.163131 0.748848 0.617948
O O8 0.005681 0.713393 0.574987
O O9 0.250000 0.673707 0.272928
O O10 0.113034 0.500000 0.295453
O O11 0.093042 0.767791 0.251898
O O12 0.146170 0.729277 0.368116
O O13 0.980531 0.239578 0.159336
O O14 0.920732 0.229819 0.271259
O O15 0.002541 0.000000 0.220825
O O16 0.992314 0.500000 0.109478
O O17 0.609352 0.500000 0.566721
O O18 0.250000 0.169649 0.714387
O O19 0.375657 0.000000 0.665141
#
# Coordination Sequence:
#
# PCOD8212105 Si02
#       7
#     8   8   8   8   8   8   8
#     4   8  15  31  56  85 113 137 166 209 257 302
#     4   9  16  30  54  79 101 128 167 220 276 328
#     4  10  20  35  56  78 102 137 179 221 267 322
#     4  11  23  38  54  74 108 148 181 221 264 306
#     4   9  18  33  56  83 108 138 175 212 251 303
#     4   8  15  29  51  79 105 127 160 216 278 327
#     4  10  22  38  52  70 101 142 184 223 268 319
#
# _framework density 18.934401000000001
#
# number of rings (size 3 to 8) (size 9 to 14) (size 15 to 20)
#    0.000    2.714    1.429    2.143    0.000    2.857 
#    0.000    6.429    0.000    0.857    0.000    0.000 
#    0.000    0.000    0.000    0.000    0.000    0.000 
#
# Total GULP energy -693938.462570 kJ/mol
# GULP energy per Si atom -12391.758260 kJ/mol
# Density = 1.889131 g / cm^3
# Si number density = 18.934401 Si / 1000 Ang^3
#
#
#
# Elastic Constant Matrix: (Units=GPa)
#
#
# Indices 1 2 3 4 5 6 
#
# 1 91.9504 21.9388 39.8925 0.0000 0.0000 0.0000
# 2 21.9388 45.5076 36.2385 0.0000 0.0000 0.0000
# 3 39.8925 36.2385 116.9738 0.0000 0.0000 0.0000
# 4 0.0000 0.0000 0.0000 6.1353 0.0000 0.0000
# 5 0.0000 0.0000 0.0000 0.0000 8.3800 0.0000
# 6 0.0000 0.0000 0.0000 0.0000 0.0000 17.6904
#
#
#
# Elastic Compliance Matrix: (Units=1/GPa)
#
#
# Indices 1 2 3 4 5 6 
#
# 1 0.013216 -0.003693 -0.003363 0.000000 0.000000 0.000000
# 2 -0.003693 0.030203 -0.008097 0.000000 0.000000 0.000000
# 3 -0.003363 -0.008097 0.012204 0.000000 0.000000 0.000000
# 4 0.000000 0.000000 0.000000 0.162992 0.000000 0.000000
# 5 0.000000 0.000000 0.000000 0.000000 0.119332 0.000000
# 6 0.000000 0.000000 0.000000 0.000000 0.000000 0.056528
#
#
# Mechanical properties :
#
#
# Convention : Reuss Voigt Hill
#
# Bulk Modulus (GPa) = 39.50073 50.06349 44.78211
# Shear Modulus (GPa) = 11.54146 16.86525 14.20336
#
# Velocity S-wave (km/s) = 2.47159 2.98773 2.74183
# Velocity P-wave (km/s) = 5.39000 6.19677 5.80741
#
# Compressibility (1/GPa) = 0.02531599
#
# Stress axis : x y z
#
# Youngs Moduli (GPa) = 75.66830 33.10942 81.93807
#
# Poissons Ratio (x) = 0.12228 0.27555
# Poissons Ratio (y) = 0.27946 0.66348
# Poissons Ratio (z) = 0.25446 0.26810
#
# Static dielectric constant tensor:
#      x y z
#    x 3.678940 0.000000 0.000000 
#    y 0.000000 3.058670 0.000000 
#    z 0.000000 0.000000 3.508740 
# 
# 
# High freq. dielectric constant tensor:
#      x y z
#    x 1.741530 0.000000 0.000000 
#    y 0.000000 1.691670 0.000000 
#    z 0.000000 0.000000 1.738130 
# 
# From -- ./inp_files/33400.got.cif
#   From: 2010.03.12/outbox.cif.g09.slc.cpg/sg51_17_cif.got.tgz:33400.got - 2010.04.16 13:43:02.
