data_PCOD8212842
_publ_section_title
;
Structure prediction by ZEFSAII (Michael W. Deem and Ramdas Pophale) SiO2 
 PCOD8212842
Probable space group: P M M A
;
_chemical_formula_sum "Si O2"
_cell_formula_units_Z 64
_cell_length_a 29.598234
_cell_length_b 12.273801
_cell_length_c 8.993351
_cell_angle_alpha 90.000000
_cell_angle_beta 90.000000
_cell_angle_gamma 90.000000
_cell_volume 3267.130039
_symmetry_space_group_name_H-M "P M M A"
_symmetry_group_IT_number 51
_symmetry_cell_setting 'orthorhombic'
loop_
_space_group_symop_operation_xyz
x,y,z
1/2-x,-y,z
1/2+x,-y,-z
-x,y,-z
-x,-y,-z
1/2+x,y,-z
1/2-x,y,z
x,-y,z
loop_
_atom_site_type_symbol
_atom_site_label
_atom_site_fract_x
_atom_site_fract_y
_atom_site_fract_z
Si Si1 0.089501 0.118635 0.861412
Si Si2 0.976757 0.794618 0.353925
Si Si3 0.698375 0.124369 0.459698
Si Si4 0.906932 0.374657 0.441483
Si Si5 0.446841 0.875580 0.168572
Si Si6 0.661252 0.280327 0.216143
Si Si7 0.862956 0.238840 0.697110
Si Si8 0.698079 0.626195 0.924266
O O1 0.064480 0.129821 0.702011
O O2 0.127748 0.207803 0.882868
O O3 0.112275 0.000000 0.869182
O O4 0.052084 0.132604 0.989935
O O5 0.954704 0.676801 0.387390
O O6 0.000000 0.845705 0.500000
O O7 0.015941 0.790882 0.229838
O O8 0.750000 0.132066 0.509961
O O9 0.691569 0.200628 0.316220
O O10 0.669055 0.164270 0.597451
O O11 0.685017 0.000000 0.418917
O O12 0.916627 0.500000 0.470347
O O13 0.867541 0.362184 0.318829
O O14 0.891467 0.321576 0.595875
O O15 0.396961 0.842674 0.221420
O O16 0.457482 0.000000 0.219579
O O17 0.691214 0.346812 0.099056
O O18 0.833715 0.304521 0.816790
O O19 0.750000 0.650817 0.883321
O O20 0.686492 0.500000 0.898759
#
# Coordination Sequence:
#
# PCOD8212842 Si02
#       8
#     8   8   8   8   8   8   8   8
#     4  10  21  37  59  83 118 155 187 232 285 350
#     4  11  22  38  56  89 114 151 192 243 285 338
#     4  10  21  37  58  87 122 157 193 239 296 357
#     4  10  22  40  61  83 114 157 198 242 293 346
#     4  11  22  38  58  83 117 153 190 232 293 353
#     4  10  20  38  62  85 120 150 198 239 296 349
#     4  11  21  40  59  86 116 158 195 245 289 354
#     4  11  23  39  62  90 118 152 198 251 301 349
#
# _framework density 19.589057
#
# number of rings (size 3 to 8) (size 9 to 14) (size 15 to 20)
#    0.000    1.500    2.500    3.000    0.000    2.250 
#    0.000    0.000    0.000   10.500    0.000    0.000 
#    0.000    0.000    0.000    0.000    0.000    0.000 
#
# Total GULP energy -793520.503377 kJ/mol
# GULP energy per Si atom -12398.757865 kJ/mol
# Density = 1.954447 g / cm^3
# Si number density = 19.589057 Si / 1000 Ang^3
#
#
#
# Elastic Constant Matrix: (Units=GPa)
#
#
# Indices 1 2 3 4 5 6 
#
# 1 85.7935 40.2139 24.9119 0.0000 0.0000 0.0000
# 2 40.2139 91.9703 38.4002 0.0000 0.0000 0.0000
# 3 24.9119 38.4002 79.8304 0.0000 0.0000 0.0000
# 4 0.0000 0.0000 0.0000 21.9189 0.0000 0.0000
# 5 0.0000 0.0000 0.0000 0.0000 30.3739 0.0000
# 6 0.0000 0.0000 0.0000 0.0000 0.0000 16.9213
#
#
#
# Elastic Compliance Matrix: (Units=1/GPa)
#
#
# Indices 1 2 3 4 5 6 
#
# 1 0.014886 -0.005718 -0.001895 0.000000 0.000000 0.000000
# 2 -0.005718 0.015802 -0.005817 0.000000 0.000000 0.000000
# 3 -0.001895 -0.005817 0.015916 0.000000 0.000000 0.000000
# 4 0.000000 0.000000 0.000000 0.045623 0.000000 0.000000
# 5 0.000000 0.000000 0.000000 0.000000 0.032923 0.000000
# 6 0.000000 0.000000 0.000000 0.000000 0.000000 0.059097
#
#
# Mechanical properties :
#
#
# Convention : Reuss Voigt Hill
#
# Bulk Modulus (GPa) = 50.64602 51.62736 51.13669
# Shear Modulus (GPa) = 22.96872 24.11405 23.54139
#
# Velocity S-wave (km/s) = 3.42793 3.51236 3.47040
# Velocity P-wave (km/s) = 6.44810 6.54686 6.49767
#
# Compressibility (1/GPa) = 0.01974489
#
# Stress axis : x y z
#
# Youngs Moduli (GPa) = 67.17616 63.28391 62.83026
#
# Poissons Ratio (x) = 0.36184 0.11907
# Poissons Ratio (y) = 0.38410 0.36547
# Poissons Ratio (z) = 0.12730 0.36811
#
# Static dielectric constant tensor:
#      x y z
#    x 3.611920 0.000000 0.000000 
#    y 0.000000 3.436860 0.000000 
#    z 0.000000 0.000000 3.635060 
# 
# 
# High freq. dielectric constant tensor:
#      x y z
#    x 1.770570 0.000000 0.000000 
#    y 0.000000 1.752900 0.000000 
#    z 0.000000 0.000000 1.772120 
# 
# From -- ./inp_files/13164.got.cif
#   From: 2010.03.12/outbox.cif.g09.slc.cpg/sg51_7_cif.got.tgz:13164.got - 2010.04.16 13:43:02.
