data_PCOD8212937
_publ_section_title
;
Structure prediction by ZEFSAII (Michael W. Deem and Ramdas Pophale) SiO2 
 PCOD8212937
Probable space group: P M M A
;
_chemical_formula_sum "Si O2"
_cell_formula_units_Z 64
_cell_length_a 9.364448
_cell_length_b 14.471653
_cell_length_c 28.644458
_cell_angle_alpha 90.000000
_cell_angle_beta 90.000000
_cell_angle_gamma 90.000000
_cell_volume 3881.869507
_symmetry_space_group_name_H-M "P M M A"
_symmetry_group_IT_number 51
_symmetry_cell_setting 'orthorhombic'
loop_
_space_group_symop_operation_xyz
x,y,z
1/2-x,-y,z
1/2+x,-y,-z
-x,y,-z
-x,-y,-z
1/2+x,y,-z
1/2-x,y,z
x,-y,z
loop_
_atom_site_type_symbol
_atom_site_label
_atom_site_fract_x
_atom_site_fract_y
_atom_site_fract_z
Si Si1 0.585416 0.107366 0.186415
Si Si2 0.082926 0.892470 0.635202
Si Si3 0.588529 0.109604 0.543771
Si Si4 0.914462 0.103183 0.904061
Si Si5 0.415075 0.282763 0.045297
Si Si6 0.085692 0.392819 0.135541
Si Si7 0.083167 0.396270 0.772412
Si Si8 0.082500 0.785135 0.724839
O O1 0.750000 0.133136 0.178261
O O2 0.502072 0.138309 0.140398
O O3 0.519164 0.161706 0.230368
O O4 0.564017 0.000000 0.196860
O O5 0.250000 0.875030 0.624935
O O6 0.021477 0.828590 0.677135
O O7 0.993231 0.860441 0.590506
O O8 0.056628 0.000000 0.647625
O O9 0.500000 0.150421 0.500000
O O10 0.750000 0.149750 0.543754
O O11 0.594345 0.000000 0.539938
O O12 0.750000 0.104924 0.888956
O O13 0.941866 0.173345 0.946639
O O14 0.962000 0.000000 0.919702
O O15 0.250000 0.305374 0.036465
O O16 0.471256 0.337581 0.090597
O O17 0.500000 0.316154 0.000000
O O18 0.250000 0.368022 0.145698
O O19 0.064277 0.500000 0.124451
O O20 0.996424 0.363510 0.180904
O O21 0.250000 0.392894 0.784049
O O22 0.036037 0.500000 0.757142
O O23 0.046723 0.324367 0.730491
O O24 0.250000 0.804125 0.723732
#
# Coordination Sequence:
#
# PCOD8212937 Si02
#       8
#     8   8   8   8   8   8   8   8
#     4   9  16  26  42  63  83 106 139 172 199 235
#     4   9  16  26  40  58  83 117 152 181 212 250
#     4   9  16  26  40  58  82 114 152 190 222 252
#     4   9  18  32  46  60  81 107 133 163 199 237
#     4  10  21  34  47  64  84 105 130 161 199 243
#     4   9  18  33  50  66  85 107 130 160 201 247
#     4   9  17  29  46  67  87 109 140 173 202 239
#     4   9  16  26  41  61  87 115 140 171 210 247
#
# _framework density 16.486902000000001
#
# number of rings (size 3 to 8) (size 9 to 14) (size 15 to 20)
#    0.000    2.875    0.000    1.500    0.000    4.500 
#    0.000    1.250    0.000    3.000    0.000    0.000 
#    0.000    0.500    0.000    0.875    0.000    1.250 
#
# Total GULP energy -793416.569344 kJ/mol
# GULP energy per Si atom -12397.133896 kJ/mol
# Density = 1.644938 g / cm^3
# Si number density = 16.486902 Si / 1000 Ang^3
#
#
#
# Elastic Constant Matrix: (Units=GPa)
#
#
# Indices 1 2 3 4 5 6 
#
# 1 54.1278 22.8482 45.4073 0.0000 0.0000 0.0000
# 2 22.8482 60.9885 47.8013 0.0000 0.0000 0.0000
# 3 45.4073 47.8013 110.8497 0.0000 0.0000 0.0000
# 4 0.0000 0.0000 0.0000 18.5059 0.0000 0.0000
# 5 0.0000 0.0000 0.0000 0.0000 25.6366 0.0000
# 6 0.0000 0.0000 0.0000 0.0000 0.0000 13.9630
#
#
#
# Elastic Compliance Matrix: (Units=1/GPa)
#
#
# Indices 1 2 3 4 5 6 
#
# 1 0.028358 -0.002295 -0.010627 0.000000 0.000000 0.000000
# 2 -0.002295 0.024953 -0.009820 0.000000 0.000000 0.000000
# 3 -0.010627 -0.009820 0.017609 0.000000 0.000000 0.000000
# 4 0.000000 0.000000 0.000000 0.054037 0.000000 0.000000
# 5 0.000000 0.000000 0.000000 0.000000 0.039007 0.000000
# 6 0.000000 0.000000 0.000000 0.000000 0.000000 0.071618
#
#
# Mechanical properties :
#
#
# Convention : Reuss Voigt Hill
#
# Bulk Modulus (GPa) = 39.31371 50.89772 45.10572
# Shear Modulus (GPa) = 17.26849 18.94839 18.10844
#
# Velocity S-wave (km/s) = 3.23988 3.39381 3.31774
# Velocity P-wave (km/s) = 6.15572 6.80411 6.48802
#
# Compressibility (1/GPa) = 0.02543642
#
# Stress axis : x y z
#
# Youngs Moduli (GPa) = 35.26325 40.07482 56.78885
#
# Poissons Ratio (x) = 0.09197 0.60348
# Poissons Ratio (y) = 0.08092 0.55769
# Poissons Ratio (z) = 0.37473 0.39355
#
# Static dielectric constant tensor:
#      x y z
#    x 3.045850 0.000000 0.000000 
#    y 0.000000 3.122150 0.000000 
#    z 0.000000 0.000000 3.064570 
# 
# 
# High freq. dielectric constant tensor:
#      x y z
#    x 1.622310 0.000000 0.000000 
#    y 0.000000 1.619460 0.000000 
#    z 0.000000 0.000000 1.620100 
# 
# From -- ./inp_files/37540.got.cif
#   From: 2010.03.12/outbox.cif.g09.slc.cpg/sg51_19_cif.got.tgz:37540.got - 2010.04.16 13:43:02.
