data_PCOD8212037
_publ_section_title
;
Structure prediction by ZEFSAII (Michael W. Deem and Ramdas Pophale) SiO2 
 PCOD8212037
Probable space group: P M M A
;
_chemical_formula_sum "Si O2"
_cell_formula_units_Z 48
_cell_length_a 17.973836
_cell_length_b 9.318990
_cell_length_c 15.392713
_cell_angle_alpha 90.000000
_cell_angle_beta 90.000000
_cell_angle_gamma 90.000000
_cell_volume 2578.248610
_symmetry_space_group_name_H-M "P M M A"
_symmetry_group_IT_number 51
_symmetry_cell_setting 'orthorhombic'
loop_
_space_group_symop_operation_xyz
x,y,z
1/2-x,-y,z
1/2+x,-y,-z
-x,y,-z
-x,-y,-z
1/2+x,y,-z
1/2-x,y,z
x,-y,z
loop_
_atom_site_type_symbol
_atom_site_label
_atom_site_fract_x
_atom_site_fract_y
_atom_site_fract_z
Si Si1 0.332845 0.829170 0.332198
Si Si2 0.836038 0.163202 0.003416
Si Si3 0.075719 0.834802 0.168980
Si Si4 0.338591 0.840535 0.522162
Si Si5 0.664782 0.332058 0.313918
Si Si6 0.925371 0.329610 0.145213
O O1 0.250000 0.765474 0.316061
O O2 0.388973 0.774178 0.258256
O O3 0.363846 0.781463 0.427302
O O4 0.327559 0.000000 0.329258
O O5 0.750000 0.205267 0.008089
O O6 0.881074 0.272381 0.062720
O O7 0.849505 0.000000 0.035545
O O8 0.861873 0.179922 0.904497
O O9 0.006816 0.736572 0.143986
O O10 0.049625 0.000000 0.178393
O O11 0.250000 0.844167 0.522173
O O12 0.368674 0.740571 0.599421
O O13 0.370603 0.000000 0.538075
O O14 0.750000 0.284986 0.297300
O O15 0.658554 0.500000 0.328345
O O16 0.617012 0.280101 0.232154
O O17 0.930855 0.500000 0.138205
#
# Coordination Sequence:
#
# PCOD8212037 Si02
#       6
#     8   8   8   8   8   8
#     4   8  14  28  52  79 104 131 166 209 256 304
#     4  10  21  37  58  82 103 127 166 213 256 301
#     4  10  20  35  55  78 105 136 168 205 252 305
#     4   8  14  26  48  77 102 125 161 210 257 298
#     4   9  18  33  51  70  95 131 173 212 251 296
#     4  11  23  37  52  73 105 142 174 207 252 303
#
# _framework density 18.617290000000001
#
# number of rings (size 3 to 8) (size 9 to 14) (size 15 to 20)
#    0.000    2.667    0.000    3.000    0.000    7.000 
#    0.000    3.333    0.000    7.500    0.000    0.000 
#    0.000    0.000    0.000    0.000    0.000    0.000 
#
# Total GULP energy -595134.982087 kJ/mol
# GULP energy per Si atom -12398.645460 kJ/mol
# Density = 1.857492 g / cm^3
# Si number density = 18.617290 Si / 1000 Ang^3
#
#
#
# Elastic Constant Matrix: (Units=GPa)
#
#
# Indices 1 2 3 4 5 6 
#
# 1 61.0614 20.0590 15.9778 0.0000 0.0000 0.0000
# 2 20.0590 45.2222 28.4823 0.0000 0.0000 0.0000
# 3 15.9778 28.4823 101.6386 0.0000 0.0000 0.0000
# 4 0.0000 0.0000 0.0000 7.3858 0.0000 0.0000
# 5 0.0000 0.0000 0.0000 0.0000 98.2417 0.0000
# 6 0.0000 0.0000 0.0000 0.0000 0.0000 13.2597
#
#
#
# Elastic Compliance Matrix: (Units=1/GPa)
#
#
# Indices 1 2 3 4 5 6 
#
# 1 0.019220 -0.008042 -0.000768 0.000000 0.000000 0.000000
# 2 -0.008042 0.030217 -0.007204 0.000000 0.000000 0.000000
# 3 -0.000768 -0.007204 0.011978 0.000000 0.000000 0.000000
# 4 0.000000 0.000000 0.000000 0.135396 0.000000 0.000000
# 5 0.000000 0.000000 0.000000 0.000000 0.010179 0.000000
# 6 0.000000 0.000000 0.000000 0.000000 0.000000 0.075417
#
#
# Mechanical properties :
#
#
# Convention : Reuss Voigt Hill
#
# Bulk Modulus (GPa) = 34.02659 37.44004 35.73332
# Shear Modulus (GPa) = 15.42124 33.33764 24.37944
#
# Velocity S-wave (km/s) = 2.88119 4.23624 3.62263
# Velocity P-wave (km/s) = 5.42079 6.63940 6.06080
#
# Compressibility (1/GPa) = 0.02938878
#
# Stress axis : x y z
#
# Youngs Moduli (GPa) = 52.03037 33.09391 83.48517
#
# Poissons Ratio (x) = 0.26612 0.06411
# Poissons Ratio (y) = 0.41840 0.60140
# Poissons Ratio (z) = 0.03995 0.23840
#
# Static dielectric constant tensor:
#      x y z
#    x 3.299160 0.000000 0.000000 
#    y 0.000000 3.226610 0.000000 
#    z 0.000000 0.000000 3.789770 
# 
# 
# High freq. dielectric constant tensor:
#      x y z
#    x 1.705520 0.000000 0.000000 
#    y 0.000000 1.696640 0.000000 
#    z 0.000000 0.000000 1.740720 
# 
# From -- ./inp_files/24782.got.cif
#   From: 2010.03.12/outbox.cif.g09.slc.cpg/sg51_13_cif.got.tgz:24782.got - 2010.04.16 13:43:02.
