data_PCOD8212633
_publ_section_title
;
Structure prediction by ZEFSAII (Michael W. Deem and Ramdas Pophale) SiO2 
 PCOD8212633
Probable space group: P M M A
;
_chemical_formula_sum "Si O2"
_cell_formula_units_Z 48
_cell_length_a 16.661124
_cell_length_b 14.067155
_cell_length_c 10.253380
_cell_angle_alpha 90.000000
_cell_angle_beta 90.000000
_cell_angle_gamma 90.000000
_cell_volume 2403.131977
_symmetry_space_group_name_H-M "P M M A"
_symmetry_group_IT_number 51
_symmetry_cell_setting 'orthorhombic'
loop_
_space_group_symop_operation_xyz
x,y,z
1/2-x,-y,z
1/2+x,-y,-z
-x,y,-z
-x,-y,-z
1/2+x,y,-z
1/2-x,y,z
x,-y,z
loop_
_atom_site_type_symbol
_atom_site_label
_atom_site_fract_x
_atom_site_fract_y
_atom_site_fract_z
Si Si1 0.592423 0.606053 0.964872
Si Si2 0.656994 0.607853 0.681822
Si Si3 0.656610 0.888160 0.784423
Si Si4 0.908529 0.782197 0.542360
Si Si5 0.343998 0.894393 0.696243
Si Si6 0.343527 0.204780 0.950571
O O1 0.624840 0.500000 0.997751
O O2 0.639021 0.682586 0.052320
O O3 0.500000 0.614624 0.000000
O O4 0.606406 0.627971 0.812467
O O5 0.750000 0.629385 0.713132
O O6 0.645092 0.500000 0.632952
O O7 0.624958 0.676316 0.568104
O O8 0.750000 0.860701 0.760500
O O9 0.601702 0.846530 0.670249
O O10 0.645258 0.000000 0.790240
O O11 0.622636 0.843623 0.918326
O O12 0.857921 0.829107 0.427998
O O13 0.000000 0.776457 0.500000
O O14 0.250000 0.904572 0.716670
O O15 0.383253 0.845048 0.824149
O O16 0.381732 0.000000 0.677426
O O17 0.250000 0.186671 0.945496
#
# Coordination Sequence:
#
# PCOD8212633 Si02
#       6
#     8   8   8   8   8   8
#     4  10  21  36  60  92 125 156 191 244 308 363
#     4  10  21  41  68  92 117 159 213 257 299 364
#     4  10  20  37  62  88 115 155 212 263 300 359
#     4  12  25  38  58  88 123 162 200 254 308 364
#     4  10  22  40  60  85 122 163 200 247 308 365
#     4  10  20  36  62  91 118 154 203 253 303 362
#
# _framework density 19.973935000000001
#
# number of rings (size 3 to 8) (size 9 to 14) (size 15 to 20)
#    0.000    1.667    1.667    3.000    2.333    6.000 
#    0.000    0.833    0.000    4.000    0.000    0.000 
#    0.000    0.000    0.000    0.000    0.000    0.000 
#
# Total GULP energy -595244.773936 kJ/mol
# GULP energy per Si atom -12400.932790 kJ/mol
# Density = 1.992847 g / cm^3
# Si number density = 19.973935 Si / 1000 Ang^3
#
#
#
# Elastic Constant Matrix: (Units=GPa)
#
#
# Indices 1 2 3 4 5 6 
#
# 1 58.0809 33.6314 38.8850 0.0000 0.0000 0.0000
# 2 33.6314 169.8856 83.2871 0.0000 0.0000 0.0000
# 3 38.8850 83.2871 151.4203 0.0000 0.0000 0.0000
# 4 0.0000 0.0000 0.0000 39.4679 0.0000 0.0000
# 5 0.0000 0.0000 0.0000 0.0000 -1.2099 0.0000
# 6 0.0000 0.0000 0.0000 0.0000 0.0000 -52.3520
#
#
#
# Elastic Compliance Matrix: (Units=1/GPa)
#
#
# Indices 1 2 3 4 5 6 
#
# 1 0.021328 -0.002105 -0.004319 0.000000 0.000000 0.000000
# 2 -0.002105 0.008267 -0.004007 0.000000 0.000000 0.000000
# 3 -0.004319 -0.004007 0.009917 0.000000 0.000000 0.000000
# 4 0.000000 0.000000 0.000000 0.025337 0.000000 0.000000
# 5 0.000000 0.000000 0.000000 0.000000 -0.826538 0.000000
# 6 0.000000 0.000000 0.000000 0.000000 0.000000 -0.019101
#
#
# Mechanical properties :
#
#
# Convention : Reuss Voigt Hill
#
# Bulk Modulus (GPa) = 53.61724 76.77711 65.19718
# Shear Modulus (GPa) = -6.63384 12.08675 2.72646
#
# Velocity S-wave (km/s) = -1.82441 2.46260 1.16960
# Velocity P-wave (km/s) = 4.73961 6.82700 5.87673
#
# Compressibility (1/GPa) = 0.01865072
#
# Stress axis : x y z
#
# Youngs Moduli (GPa) = 46.88706 120.95785 100.83354
#
# Poissons Ratio (x) = 0.25456 0.43555
# Poissons Ratio (y) = 0.09868 0.40403
# Poissons Ratio (z) = 0.20253 0.48467
#
# Static dielectric constant tensor:
#      x y z
#    x 3.382310 0.000000 0.000000 
#    y 0.000000 4.000960 0.000000 
#    z 0.000000 0.000000 3.751040 
# 
# 
# High freq. dielectric constant tensor:
#      x y z
#    x 1.759810 0.000000 0.000000 
#    y 0.000000 1.801210 0.000000 
#    z 0.000000 0.000000 1.775550 
# 
# From -- ./inp_files/9583.got.cif
#   From: 2010.03.12/outbox.cif.g09.slc.cpg/sg51_5_cif.got.tgz:9583.got - 2010.04.16 13:43:02.
