data_PCOD8212944
_publ_section_title
;
Structure prediction by ZEFSAII (Michael W. Deem and Ramdas Pophale) SiO2 
 PCOD8212944
Probable space group: P M M A
;
_chemical_formula_sum "Si O2"
_cell_formula_units_Z 56
_cell_length_a 16.720103
_cell_length_b 19.293453
_cell_length_c 9.203189
_cell_angle_alpha 90.000000
_cell_angle_beta 90.000000
_cell_angle_gamma 90.000000
_cell_volume 2968.843132
_symmetry_space_group_name_H-M "P M M A"
_symmetry_group_IT_number 51
_symmetry_cell_setting 'orthorhombic'
loop_
_space_group_symop_operation_xyz
x,y,z
1/2-x,-y,z
1/2+x,-y,-z
-x,y,-z
-x,-y,-z
1/2+x,y,-z
1/2-x,y,z
x,-y,z
loop_
_atom_site_type_symbol
_atom_site_label
_atom_site_fract_x
_atom_site_fract_y
_atom_site_fract_z
Si Si1 0.987135 0.581591 0.834546
Si Si2 0.076132 0.334296 0.595824
Si Si3 0.659035 0.811966 0.709261
Si Si4 0.579744 0.921429 0.908160
Si Si5 0.342157 0.802730 0.626196
Si Si6 0.341501 0.925859 0.806962
Si Si7 0.841964 0.651557 0.691765
O O1 0.996736 0.500000 0.822049
O O2 0.053622 0.612974 0.724831
O O3 0.897682 0.602805 0.789090
O O4 0.000000 0.606961 0.000000
O O5 0.109425 0.265463 0.670898
O O6 0.141764 0.362916 0.480379
O O7 0.000000 0.314018 0.500000
O O8 0.750000 0.828439 0.758510
O O9 0.649358 0.825122 0.539335
O O10 0.639189 0.731057 0.737155
O O11 0.595913 0.863322 0.786261
O O12 0.652820 0.914416 0.020735
O O13 0.576299 0.000000 0.842338
O O14 0.500000 0.904648 0.000000
O O15 0.250000 0.789396 0.668669
O O16 0.383208 0.864061 0.719084
O O17 0.250000 0.928137 0.759330
O O18 0.382612 0.000000 0.766903
O O19 0.750000 0.632710 0.723168
#
# Coordination Sequence:
#
# PCOD8212944 Si02
#       7
#     8   8   8   8   8   8   8
#     4  10  22  39  57  81 113 145 177 215 262 320
#     4   9  18  33  56  80 105 138 174 212 260 317
#     4   9  18  33  53  76 100 128 168 216 261 307
#     4  10  21  34  47  68 100 136 175 218 260 308
#     4   9  18  33  53  77 103 130 168 218 263 306
#     4   9  18  32  48  68  97 132 168 207 253 304
#     4   9  19  36  57  82 110 140 179 227 272 319
#
# _framework density 18.862566000000001
#
# number of rings (size 3 to 8) (size 9 to 14) (size 15 to 20)
#    0.000    2.714    0.000    1.714    0.000    9.429 
#    0.000    4.286    0.000    6.000    0.000    0.000 
#    0.000    0.000    0.000    0.000    0.000    0.000 
#
# Total GULP energy -693998.846848 kJ/mol
# GULP energy per Si atom -12392.836551 kJ/mol
# Density = 1.881963 g / cm^3
# Si number density = 18.862566 Si / 1000 Ang^3
#
#
#
# Elastic Constant Matrix: (Units=GPa)
#
#
# Indices 1 2 3 4 5 6 
#
# 1 67.7646 42.1007 36.3735 0.0000 0.0000 0.0000
# 2 42.1007 104.5975 64.7643 0.0000 0.0000 0.0000
# 3 36.3735 64.7643 86.4303 0.0000 0.0000 0.0000
# 4 0.0000 0.0000 0.0000 35.7823 0.0000 0.0000
# 5 0.0000 0.0000 0.0000 0.0000 25.6360 0.0000
# 6 0.0000 0.0000 0.0000 0.0000 0.0000 27.5139
#
#
#
# Elastic Compliance Matrix: (Units=1/GPa)
#
#
# Indices 1 2 3 4 5 6 
#
# 1 0.020607 -0.005456 -0.004584 0.000000 0.000000 0.000000
# 2 -0.005456 0.019280 -0.012151 0.000000 0.000000 0.000000
# 3 -0.004584 -0.012151 0.022604 0.000000 0.000000 0.000000
# 4 0.000000 0.000000 0.000000 0.027947 0.000000 0.000000
# 5 0.000000 0.000000 0.000000 0.000000 0.039008 0.000000
# 6 0.000000 0.000000 0.000000 0.000000 0.000000 0.036345
#
#
# Mechanical properties :
#
#
# Convention : Reuss Voigt Hill
#
# Bulk Modulus (GPa) = 55.21981 60.58551 57.90266
# Shear Modulus (GPa) = 23.12569 25.49001 24.30785
#
# Velocity S-wave (km/s) = 3.50524 3.68007 3.59372
# Velocity P-wave (km/s) = 6.76170 7.08847 6.92701
#
# Compressibility (1/GPa) = 0.01810944
#
# Stress axis : x y z
#
# Youngs Moduli (GPa) = 48.52653 51.86689 44.23978
#
# Poissons Ratio (x) = 0.28300 0.20279
# Poissons Ratio (y) = 0.26477 0.53755
# Poissons Ratio (z) = 0.22244 0.63023
#
# Static dielectric constant tensor:
#      x y z
#    x 3.508260 0.000000 0.000000 
#    y 0.000000 3.479210 0.000000 
#    z 0.000000 0.000000 3.452320 
# 
# 
# High freq. dielectric constant tensor:
#      x y z
#    x 1.731300 0.000000 0.000000 
#    y 0.000000 1.730120 0.000000 
#    z 0.000000 0.000000 1.719550 
# 
# From -- ./inp_files/8550.got.cif
#   From: 2010.03.12/outbox.cif.g09.slc.cpg/sg51_5_cif.got.tgz:8550.got - 2010.04.16 13:43:02.
