data_PCOD8212643
_publ_section_title
;
Structure prediction by ZEFSAII (Michael W. Deem and Ramdas Pophale) SiO2 
 PCOD8212643
Probable space group: P M M A
;
_chemical_formula_sum "Si O2"
_cell_formula_units_Z 56
_cell_length_a 18.112609
_cell_length_b 14.476380
_cell_length_c 12.355228
_cell_angle_alpha 90.000000
_cell_angle_beta 90.000000
_cell_angle_gamma 90.000000
_cell_volume 3239.602690
_symmetry_space_group_name_H-M "P M M A"
_symmetry_group_IT_number 51
_symmetry_cell_setting 'orthorhombic'
loop_
_space_group_symop_operation_xyz
x,y,z
1/2-x,-y,z
1/2+x,-y,-z
-x,y,-z
-x,-y,-z
1/2+x,y,-z
1/2-x,y,z
x,-y,z
loop_
_atom_site_type_symbol
_atom_site_label
_atom_site_fract_x
_atom_site_fract_y
_atom_site_fract_z
Si Si1 0.894075 0.892582 0.176909
Si Si2 0.063310 0.106265 0.192916
Si Si3 0.837544 0.399161 0.063879
Si Si4 0.837571 0.600282 0.306546
Si Si5 0.162995 0.206929 0.613317
Si Si6 0.923797 0.892694 0.558171
Si Si7 0.664174 0.210406 0.972787
O O1 0.876022 0.852334 0.293998
O O2 0.980354 0.877892 0.151392
O O3 0.873707 0.000000 0.178651
O O4 0.846187 0.844181 0.084654
O O5 0.070587 0.136148 0.317302
O O6 0.118415 0.168100 0.124571
O O7 0.086267 0.000000 0.177143
O O8 0.750000 0.394516 0.069902
O O9 0.862993 0.500000 0.018590
O O10 0.865088 0.315827 0.987721
O O11 0.868940 0.385050 0.185149
O O12 0.750000 0.599057 0.301605
O O13 0.865447 0.500000 0.351651
O O14 0.863993 0.685959 0.380259
O O15 0.250000 0.198774 0.628872
O O16 0.140633 0.167355 0.496651
O O17 0.000000 0.868335 0.500000
O O18 0.904236 0.000000 0.544603
O O19 0.750000 0.206996 0.941075
#
# Coordination Sequence:
#
# PCOD8212643 Si02
#       7
#     8   8   8   8   8   8   8
#     4  11  21  34  51  75 107 141 173 209 259 314
#     4  10  22  38  54  70 100 149 186 203 246 322
#     4   8  14  27  48  73 102 135 169 207 256 312
#     4   8  14  27  48  76 108 134 161 205 263 320
#     4  11  20  31  54  85 105 126 171 228 269 294
#     4  10  20  37  55  72  99 140 182 214 252 307
#     4  11  21  33  52  80 109 135 170 217 262 305
#
# _framework density 17.286071
#
# number of rings (size 3 to 8) (size 9 to 14) (size 15 to 20)
#    0.000    2.143    2.857    2.571    0.000    4.571 
#    0.000    1.429    0.000    3.857    0.000    4.000 
#    0.000    0.000    0.000    0.000    0.000    0.000 
#
# Total GULP energy -694229.293659 kJ/mol
# GULP energy per Si atom -12396.951672 kJ/mol
# Density = 1.724673 g / cm^3
# Si number density = 17.286071 Si / 1000 Ang^3
#
#
#
# Elastic Constant Matrix: (Units=GPa)
#
#
# Indices 1 2 3 4 5 6 
#
# 1 41.2425 32.8848 12.3283 0.0000 0.0000 0.0000
# 2 32.8848 124.6014 38.0319 0.0000 0.0000 0.0000
# 3 12.3283 38.0319 63.3686 0.0000 0.0000 0.0000
# 4 0.0000 0.0000 0.0000 20.8999 0.0000 0.0000
# 5 0.0000 0.0000 0.0000 0.0000 30.7611 0.0000
# 6 0.0000 0.0000 0.0000 0.0000 0.0000 0.7739
#
#
#
# Elastic Compliance Matrix: (Units=1/GPa)
#
#
# Indices 1 2 3 4 5 6 
#
# 1 0.030805 -0.007714 -0.001363 0.000000 0.000000 0.000000
# 2 -0.007714 0.011757 -0.005556 0.000000 0.000000 0.000000
# 3 -0.001363 -0.005556 0.019380 0.000000 0.000000 0.000000
# 4 0.000000 0.000000 0.000000 0.047847 0.000000 0.000000
# 5 0.000000 0.000000 0.000000 0.000000 0.032509 0.000000
# 6 0.000000 0.000000 0.000000 0.000000 0.000000 1.292220
#
#
# Mechanical properties :
#
#
# Convention : Reuss Voigt Hill
#
# Bulk Modulus (GPa) = 30.60289 43.96693 37.28491
# Shear Modulus (GPa) = 3.39057 20.21814 11.80436
#
# Velocity S-wave (km/s) = 1.40204 3.42368 2.61604
# Velocity P-wave (km/s) = 4.51256 6.41240 5.54446
#
# Compressibility (1/GPa) = 0.03267665
#
# Stress axis : x y z
#
# Youngs Moduli (GPa) = 32.46216 85.05451 51.59901
#
# Poissons Ratio (x) = 0.65610 0.07035
# Poissons Ratio (y) = 0.25041 0.28666
# Poissons Ratio (z) = 0.04426 0.47252
#
# Static dielectric constant tensor:
#      x y z
#    x 2.970880 0.000000 0.000000 
#    y 0.000000 3.663860 0.000000 
#    z 0.000000 0.000000 3.102540 
# 
# 
# High freq. dielectric constant tensor:
#      x y z
#    x 1.641670 0.000000 0.000000 
#    y 0.000000 1.678630 0.000000 
#    z 0.000000 0.000000 1.650330 
# 
# From -- ./inp_files/16575.got.cif
#   From: 2010.03.12/outbox.cif.g09.slc.cpg/sg51_9_cif.got.tgz:16575.got - 2010.04.16 13:43:02.
