data_PCOD8212451
_publ_section_title
;
Structure prediction by ZEFSAII (Michael W. Deem and Ramdas Pophale) SiO2 
 PCOD8212451
Probable space group: P M M A
;
_chemical_formula_sum "Si O2"
_cell_formula_units_Z 36
_cell_length_a 8.765650
_cell_length_b 22.643325
_cell_length_c 9.432446
_cell_angle_alpha 90.000000
_cell_angle_beta 90.000000
_cell_angle_gamma 90.000000
_cell_volume 1872.184535
_symmetry_space_group_name_H-M "P M M A"
_symmetry_group_IT_number 51
_symmetry_cell_setting 'orthorhombic'
loop_
_space_group_symop_operation_xyz
x,y,z
1/2-x,-y,z
1/2+x,-y,-z
-x,y,-z
-x,-y,-z
1/2+x,y,-z
1/2-x,y,z
x,-y,z
loop_
_atom_site_type_symbol
_atom_site_label
_atom_site_fract_x
_atom_site_fract_y
_atom_site_fract_z
Si Si1 0.430627 0.896713 0.656037
Si Si2 0.070425 0.341457 0.853820
Si Si3 0.074710 0.565355 0.348427
Si Si4 0.432303 0.000000 0.157470
Si Si5 0.428008 0.791246 0.854087
O O1 0.500000 0.901218 0.500000
O O2 0.250000 0.908719 0.649123
O O3 0.469896 0.832565 0.721069
O O4 0.509737 0.943224 0.758611
O O5 0.250000 0.343842 0.866068
O O6 0.013227 0.274886 0.818821
O O7 0.016575 0.385681 0.735091
O O8 0.000000 0.363805 0.000000
O O9 0.250000 0.584693 0.360072
O O10 0.060526 0.500000 0.277927
O O11 0.000000 0.562846 0.500000
O O12 0.250000 0.000000 0.149211
O O13 0.500000 0.000000 0.000000
O O14 0.250000 0.791370 0.882009
O O15 0.500000 0.815442 0.000000
#
# Coordination Sequence:
#
# PCOD8212451 Si02
#       5
#     8   8   8   4   8
#     4  11  23  40  60  86 118 152 189 231 279 329
#     4  10  20  36  57  83 113 146 185 230 278 329
#     4  10  21  37  56  79 108 144 185 229 279 335
#     4  12  25  42  63  88 116 150 190 232 279 332
#     4   9  20  37  58  83 112 146 186 229 276 331
#
# _framework density 19.228874999999999
#
# number of rings (size 3 to 8) (size 9 to 14) (size 15 to 20)
#    0.000    1.778    0.000    4.000    0.000    7.111 
#    0.000    2.222    0.000    0.000    0.000    0.000 
#    0.000    0.000    0.000    0.000    0.000    0.000 
#
# Total GULP energy -446411.610445 kJ/mol
# GULP energy per Si atom -12400.322512 kJ/mol
# Density = 1.918511 g / cm^3
# Si number density = 19.228875 Si / 1000 Ang^3
#
#
#
# Elastic Constant Matrix: (Units=GPa)
#
#
# Indices 1 2 3 4 5 6 
#
# 1 98.5129 46.5390 50.5613 0.0000 0.0000 0.0000
# 2 46.5390 105.9723 68.2855 0.0000 0.0000 0.0000
# 3 50.5613 68.2855 134.4577 0.0000 0.0000 0.0000
# 4 0.0000 0.0000 0.0000 44.1506 0.0000 0.0000
# 5 0.0000 0.0000 0.0000 0.0000 40.3859 0.0000
# 6 0.0000 0.0000 0.0000 0.0000 0.0000 30.1596
#
#
#
# Elastic Compliance Matrix: (Units=1/GPa)
#
#
# Indices 1 2 3 4 5 6 
#
# 1 0.013625 -0.003987 -0.003099 0.000000 0.000000 0.000000
# 2 -0.003987 0.015193 -0.006217 0.000000 0.000000 0.000000
# 3 -0.003099 -0.006217 0.011760 0.000000 0.000000 0.000000
# 4 0.000000 0.000000 0.000000 0.022650 0.000000 0.000000
# 5 0.000000 0.000000 0.000000 0.000000 0.024761 0.000000
# 6 0.000000 0.000000 0.000000 0.000000 0.000000 0.033157
#
#
# Mechanical properties :
#
#
# Convention : Reuss Voigt Hill
#
# Bulk Modulus (GPa) = 71.56583 74.41272 72.98927
# Shear Modulus (GPa) = 32.80669 34.50968 33.65819
#
# Velocity S-wave (km/s) = 4.13500 4.24096 4.18831
# Velocity P-wave (km/s) = 7.75218 7.92234 7.83772
#
# Compressibility (1/GPa) = 0.01397315
#
# Stress axis : x y z
#
# Youngs Moduli (GPa) = 73.39572 65.81895 85.03550
#
# Poissons Ratio (x) = 0.26240 0.26350
# Poissons Ratio (y) = 0.29261 0.52865
# Poissons Ratio (z) = 0.22743 0.40918
#
# Static dielectric constant tensor:
#      x y z
#    x 3.655500 0.000000 0.000000 
#    y 0.000000 3.981080 0.000000 
#    z 0.000000 0.000000 3.532690 
# 
# 
# High freq. dielectric constant tensor:
#      x y z
#    x 1.761450 0.000000 0.000000 
#    y 0.000000 1.761650 0.000000 
#    z 0.000000 0.000000 1.746940 
# 
# From -- ./inp_files/5277.got.cif
#   From: 2010.03.12/outbox.cif.g09.slc.cpg/sg51_3_cif.got.tgz:5277.got - 2010.04.16 13:43:02.
