data_PCOD8212525
_publ_section_title
;
Structure prediction by ZEFSAII (Michael W. Deem and Ramdas Pophale) SiO2 
 PCOD8212525
Probable space group: P M M A
;
_chemical_formula_sum "Si O2"
_cell_formula_units_Z 48
_cell_length_a 15.510910
_cell_length_b 18.546038
_cell_length_c 9.049972
_cell_angle_alpha 90.000000
_cell_angle_beta 90.000000
_cell_angle_gamma 90.000000
_cell_volume 2603.368578
_symmetry_space_group_name_H-M "P M M A"
_symmetry_group_IT_number 51
_symmetry_cell_setting 'orthorhombic'
loop_
_space_group_symop_operation_xyz
x,y,z
1/2-x,-y,z
1/2+x,-y,-z
-x,y,-z
-x,-y,-z
1/2+x,y,-z
1/2-x,y,z
x,-y,z
loop_
_atom_site_type_symbol
_atom_site_label
_atom_site_fract_x
_atom_site_fract_y
_atom_site_fract_z
Si Si1 0.655088 0.669464 0.688406
Si Si2 0.349156 0.831952 0.665810
Si Si3 0.417204 0.319029 0.604287
Si Si4 0.651689 0.834793 0.678643
Si Si5 0.492733 0.584494 0.170723
Si Si6 0.502894 0.084718 0.170361
O O1 0.750000 0.658255 0.750337
O O2 0.654341 0.652679 0.511752
O O3 0.624774 0.752170 0.712020
O O4 0.599198 0.613306 0.778773
O O5 0.250000 0.837990 0.721682
O O6 0.384602 0.751351 0.690140
O O7 0.354908 0.852130 0.494283
O O8 0.409714 0.884868 0.758389
O O9 0.500000 0.302693 0.500000
O O10 0.433572 0.378281 0.730351
O O11 0.750000 0.849295 0.732750
O O12 0.585017 0.886125 0.759502
O O13 0.499485 0.500000 0.198260
O O14 0.500000 0.605089 0.000000
O O15 0.504607 0.000000 0.194757
O O16 0.500000 0.106734 0.000000
#
# Coordination Sequence:
#
# PCOD8212525 Si02
#       6
#     8   8   8   8   8   8
#     4   9  18  34  56  80 104 130 169 221 267 310
#     4  10  20  36  59  83 106 134 174 224 270 314
#     4   9  17  32  57  81 103 134 173 216 263 314
#     4   9  19  37  60  84 106 133 175 224 269 313
#     4  10  21  35  50  73 108 145 177 211 256 311
#     4  11  24  38  52  76 112 148 178 213 260 314
#
# _framework density 18.437649
#
# number of rings (size 3 to 8) (size 9 to 14) (size 15 to 20)
#    0.000    2.333    0.000    5.000    0.000    8.667 
#    0.000    6.667    0.000    3.500    0.000    0.000 
#    0.000    0.000    0.000    0.000    0.000    0.000 
#
# Total GULP energy -595031.524854 kJ/mol
# GULP energy per Si atom -12396.490101 kJ/mol
# Density = 1.839568 g / cm^3
# Si number density = 18.437649 Si / 1000 Ang^3
#
#
#
# Elastic Constant Matrix: (Units=GPa)
#
#
# Indices 1 2 3 4 5 6 
#
# 1 101.0728 52.7268 47.5248 0.0000 0.0000 0.0000
# 2 52.7268 86.5545 66.5160 0.0000 0.0000 0.0000
# 3 47.5248 66.5160 93.6450 0.0000 0.0000 0.0000
# 4 0.0000 0.0000 0.0000 59.2534 0.0000 0.0000
# 5 0.0000 0.0000 0.0000 0.0000 14.6169 0.0000
# 6 0.0000 0.0000 0.0000 0.0000 0.0000 14.1964
#
#
#
# Elastic Compliance Matrix: (Units=1/GPa)
#
#
# Indices 1 2 3 4 5 6 
#
# 1 0.014749 -0.007118 -0.002429 0.000000 0.000000 0.000000
# 2 -0.007118 0.028875 -0.016898 0.000000 0.000000 0.000000
# 3 -0.002429 -0.016898 0.023914 0.000000 0.000000 0.000000
# 4 0.000000 0.000000 0.000000 0.016877 0.000000 0.000000
# 5 0.000000 0.000000 0.000000 0.000000 0.068414 0.000000
# 6 0.000000 0.000000 0.000000 0.000000 0.000000 0.070440
#
#
# Mechanical properties :
#
#
# Convention : Reuss Voigt Hill
#
# Bulk Modulus (GPa) = 68.26673 68.31194 68.28934
# Shear Modulus (GPa) = 17.79094 25.24701 21.51897
#
# Velocity S-wave (km/s) = 3.10969 3.70444 3.42002
# Velocity P-wave (km/s) = 7.07105 7.44499 7.26043
#
# Compressibility (1/GPa) = 0.01464842
#
# Stress axis : x y z
#
# Youngs Moduli (GPa) = 67.79920 34.63194 41.81671
#
# Poissons Ratio (x) = 0.24651 0.10159
# Poissons Ratio (y) = 0.48259 0.70660
# Poissons Ratio (z) = 0.16471 0.58520
#
# Static dielectric constant tensor:
#      x y z
#    x 3.750380 0.000000 0.000000 
#    y 0.000000 3.272370 0.000000 
#    z 0.000000 0.000000 3.388430 
# 
# 
# High freq. dielectric constant tensor:
#      x y z
#    x 1.725220 0.000000 0.000000 
#    y 0.000000 1.707570 0.000000 
#    z 0.000000 0.000000 1.707770 
# 
# From -- ./inp_files/8238.got.cif
#   From: 2010.03.12/outbox.cif.g09.slc.cpg/sg51_5_cif.got.tgz:8238.got - 2010.04.16 13:43:02.
