data_PCOD8212522
_publ_section_title
;
Structure prediction by ZEFSAII (Michael W. Deem and Ramdas Pophale) SiO2 
 PCOD8212522
Probable space group: P M M A
;
_chemical_formula_sum "Si O2"
_cell_formula_units_Z 40
_cell_length_a 16.244668
_cell_length_b 9.261515
_cell_length_c 13.744998
_cell_angle_alpha 90.000000
_cell_angle_beta 90.000000
_cell_angle_gamma 90.000000
_cell_volume 2067.938198
_symmetry_space_group_name_H-M "P M M A"
_symmetry_group_IT_number 51
_symmetry_cell_setting 'orthorhombic'
loop_
_space_group_symop_operation_xyz
x,y,z
1/2-x,-y,z
1/2+x,-y,-z
-x,y,-z
-x,-y,-z
1/2+x,y,-z
1/2-x,y,z
x,-y,z
loop_
_atom_site_type_symbol
_atom_site_label
_atom_site_fract_x
_atom_site_fract_y
_atom_site_fract_z
Si Si1 0.911252 0.165659 0.139106
Si Si2 0.936458 0.329052 0.777463
Si Si3 0.156308 0.835792 0.066941
Si Si4 0.250000 0.328256 0.540072
Si Si5 0.080666 0.671465 0.443354
Si Si6 0.250000 0.835996 0.737939
O O1 0.827888 0.195477 0.195703
O O2 0.977681 0.272236 0.182805
O O3 0.939920 0.000000 0.151127
O O4 0.900086 0.202960 0.025467
O O5 0.935596 0.500000 0.783268
O O6 0.862795 0.267879 0.842895
O O7 0.923856 0.274713 0.667465
O O8 0.250000 0.813899 0.034897
O O9 0.139685 0.000000 0.099711
O O10 0.250000 0.500000 0.540557
O O11 0.333278 0.269737 0.488028
O O12 0.250000 0.273868 0.649513
O O13 0.079838 0.500000 0.449463
O O14 0.000000 0.732857 0.500000
O O15 0.250000 0.000000 0.698618
#
# Coordination Sequence:
#
# PCOD8212522 Si02
#       6
#     8   8   8   4   8   4
#     4  10  20  38  60  82 112 152 193 230 280 346
#     4  11  23  36  57  87 117 147 189 240 287 330
#     4  10  21  39  60  82 112 155 196 227 275 348
#     4  10  20  36  59  80 108 152 191 230 291 350
#     4   9  19  36  56  80 111 149 192 231 276 345
#     4  10  20  36  59  86 112 142 189 246 287 326
#
# _framework density 19.342936999999999
#
# number of rings (size 3 to 8) (size 9 to 14) (size 15 to 20)
#    0.000    2.000    1.000    2.400    1.400    6.000 
#    0.000    2.000    0.000    5.400    0.000    0.000 
#    0.000    0.000    0.000    0.000    0.000    0.000 
#
# Total GULP energy -496047.749622 kJ/mol
# GULP energy per Si atom -12401.193741 kJ/mol
# Density = 1.929891 g / cm^3
# Si number density = 19.342937 Si / 1000 Ang^3
#
#
#
# Elastic Constant Matrix: (Units=GPa)
#
#
# Indices 1 2 3 4 5 6 
#
# 1 117.4109 24.9510 48.1861 0.0000 0.0000 0.0000
# 2 24.9510 50.8096 44.6682 0.0000 0.0000 0.0000
# 3 48.1861 44.6682 142.2213 0.0000 0.0000 0.0000
# 4 0.0000 0.0000 0.0000 27.0437 0.0000 0.0000
# 5 0.0000 0.0000 0.0000 0.0000 60.5307 0.0000
# 6 0.0000 0.0000 0.0000 0.0000 0.0000 19.3418
#
#
#
# Elastic Compliance Matrix: (Units=1/GPa)
#
#
# Indices 1 2 3 4 5 6 
#
# 1 0.010156 -0.002711 -0.002590 0.000000 0.000000 0.000000
# 2 -0.002711 0.027912 -0.007848 0.000000 0.000000 0.000000
# 3 -0.002590 -0.007848 0.010374 0.000000 0.000000 0.000000
# 4 0.000000 0.000000 0.000000 0.036977 0.000000 0.000000
# 5 0.000000 0.000000 0.000000 0.000000 0.016521 0.000000
# 6 0.000000 0.000000 0.000000 0.000000 0.000000 0.051701
#
#
# Mechanical properties :
#
#
# Convention : Reuss Voigt Hill
#
# Bulk Modulus (GPa) = 45.15741 60.67252 52.91496
# Shear Modulus (GPa) = 26.69249 34.22567 30.45908
#
# Velocity S-wave (km/s) = 3.71881 4.21100 3.97254
# Velocity P-wave (km/s) = 6.46806 7.42147 6.96111
#
# Compressibility (1/GPa) = 0.02214476
#
# Stress axis : x y z
#
# Youngs Moduli (GPa) = 98.46474 35.82706 96.39907
#
# Poissons Ratio (x) = 0.09712 0.24963
# Poissons Ratio (y) = 0.26691 0.75654
# Poissons Ratio (z) = 0.25498 0.28117
#
# Static dielectric constant tensor:
#      x y z
#    x 3.758950 0.000000 0.000000 
#    y 0.000000 3.258270 0.000000 
#    z 0.000000 0.000000 3.684630 
# 
# 
# High freq. dielectric constant tensor:
#      x y z
#    x 1.771520 0.000000 0.000000 
#    y 0.000000 1.723550 0.000000 
#    z 0.000000 0.000000 1.764390 
# 
# From -- ./inp_files/23777.got.cif
#   From: 2010.03.12/outbox.cif.g09.slc.cpg/sg51_12_cif.got.tgz:23777.got - 2010.04.16 13:43:02.
