data_PCOD8212856
_publ_section_title
;
Structure prediction by ZEFSAII (Michael W. Deem and Ramdas Pophale) SiO2 
 PCOD8212856
Probable space group: P M M A
;
_chemical_formula_sum "Si O2"
_cell_formula_units_Z 64
_cell_length_a 18.725680
_cell_length_b 8.675040
_cell_length_c 19.354389
_cell_angle_alpha 90.000000
_cell_angle_beta 90.000000
_cell_angle_gamma 90.000000
_cell_volume 3144.043521
_symmetry_space_group_name_H-M "P M M A"
_symmetry_group_IT_number 51
_symmetry_cell_setting 'orthorhombic'
loop_
_space_group_symop_operation_xyz
x,y,z
1/2-x,-y,z
1/2+x,-y,-z
-x,y,-z
-x,-y,-z
1/2+x,y,-z
1/2-x,y,z
x,-y,z
loop_
_atom_site_type_symbol
_atom_site_label
_atom_site_fract_x
_atom_site_fract_y
_atom_site_fract_z
Si Si1 0.083477 0.181568 0.650988
Si Si2 0.170727 0.817151 0.781672
Si Si3 0.667396 0.320681 0.472316
Si Si4 0.590576 0.821160 0.081685
Si Si5 0.667450 0.823175 0.616289
Si Si6 0.942233 0.178523 0.855679
Si Si7 0.445575 0.319166 0.291529
Si Si8 0.832033 0.680713 0.953108
O O1 0.133976 0.244736 0.712234
O O2 0.119319 0.220084 0.578403
O O3 0.008388 0.267734 0.657042
O O4 0.070304 0.000000 0.657090
O O5 0.250000 0.746168 0.786050
O O6 0.126259 0.762189 0.847669
O O7 0.173941 0.000000 0.779453
O O8 0.750000 0.277650 0.459332
O O9 0.652728 0.500000 0.459761
O O10 0.645151 0.277220 0.549909
O O11 0.505417 0.795290 0.088209
O O12 0.608072 0.000000 0.066635
O O13 0.623543 0.719800 0.021297
O O14 0.750000 0.801990 0.633958
O O15 0.626542 0.762504 0.683408
O O16 0.648145 0.000000 0.600904
O O17 0.961987 0.269729 0.786618
O O18 0.867763 0.235353 0.887700
O O19 0.936415 0.000000 0.835928
O O20 0.435250 0.500000 0.295168
O O21 0.750000 0.736962 0.960272
O O22 0.835588 0.500000 0.939699
#
# Coordination Sequence:
#
# PCOD8212856 Si02
#       8
#     8   8   8   8   8   8   8   8
#     4  11  21  37  59  87 124 164 210 254 295 357
#     4   9  17  31  55  86 119 156 198 245 294 345
#     4  10  21  38  60  90 128 165 203 252 311 369
#     4  10  20  38  63  90 120 157 201 249 298 356
#     4  10  22  42  67  92 118 155 205 256 305 363
#     4  11  23  42  66  91 119 158 206 252 301 361
#     4  12  25  41  63  91 125 162 199 248 311 369
#     4  11  25  42  60  89 126 161 200 249 305 362
#
# _framework density 20.355953
#
# number of rings (size 3 to 8) (size 9 to 14) (size 15 to 20)
#    0.000    1.500    1.250    4.125    0.000    7.000 
#    0.000    2.500    0.000    2.250    0.000    0.000 
#    0.000    0.000    0.000    0.000    0.000    0.000 
#
# Total GULP energy -793962.067404 kJ/mol
# GULP energy per Si atom -12405.657303 kJ/mol
# Density = 2.030962 g / cm^3
# Si number density = 20.355953 Si / 1000 Ang^3
#
#
#
# Elastic Constant Matrix: (Units=GPa)
#
#
# Indices 1 2 3 4 5 6 
#
# 1 106.1698 41.7490 37.4502 0.0000 0.0000 0.0000
# 2 41.7490 59.4587 16.1763 0.0000 0.0000 0.0000
# 3 37.4502 16.1763 65.9833 0.0000 0.0000 0.0000
# 4 0.0000 0.0000 0.0000 32.9428 0.0000 0.0000
# 5 0.0000 0.0000 0.0000 0.0000 38.4933 0.0000
# 6 0.0000 0.0000 0.0000 0.0000 0.0000 29.6620
#
#
#
# Elastic Compliance Matrix: (Units=1/GPa)
#
#
# Indices 1 2 3 4 5 6 
#
# 1 0.015197 -0.008919 -0.006439 0.000000 0.000000 0.000000
# 2 -0.008919 0.023255 -0.000639 0.000000 0.000000 0.000000
# 3 -0.006439 -0.000639 0.018967 0.000000 0.000000 0.000000
# 4 0.000000 0.000000 0.000000 0.030356 0.000000 0.000000
# 5 0.000000 0.000000 0.000000 0.000000 0.025979 0.000000
# 6 0.000000 0.000000 0.000000 0.000000 0.000000 0.033713
#
#
# Mechanical properties :
#
#
# Convention : Reuss Voigt Hill
#
# Bulk Modulus (GPa) = 39.33168 46.92919 43.13043
# Shear Modulus (GPa) = 26.60495 29.30204 27.95349
#
# Velocity S-wave (km/s) = 3.61915 3.79817 3.70974
# Velocity P-wave (km/s) = 6.06863 6.50685 6.29155
#
# Compressibility (1/GPa) = 0.02542480
#
# Stress axis : x y z
#
# Youngs Moduli (GPa) = 65.80069 43.00201 52.72429
#
# Poissons Ratio (x) = 0.38354 0.33949
# Poissons Ratio (y) = 0.58688 0.03368
# Poissons Ratio (z) = 0.42369 0.02747
#
# Static dielectric constant tensor:
#      x y z
#    x 3.870890 0.000000 0.000000 
#    y 0.000000 3.554520 0.000000 
#    z 0.000000 0.000000 3.636540 
# 
# 
# High freq. dielectric constant tensor:
#      x y z
#    x 1.803840 0.000000 0.000000 
#    y 0.000000 1.787510 0.000000 
#    z 0.000000 0.000000 1.798660 
# 
# From -- ./inp_files/33890.got.cif
#   From: 2010.03.12/outbox.cif.g09.slc.cpg/sg51_17_cif.got.tgz:33890.got - 2010.04.16 13:43:02.
