data_PCOD8212358
_publ_section_title
;
Structure prediction by ZEFSAII (Michael W. Deem and Ramdas Pophale) SiO2 
 PCOD8212358
Probable space group: P M M A
;
_chemical_formula_sum "Si O2"
_cell_formula_units_Z 64
_cell_length_a 19.771071
_cell_length_b 8.773378
_cell_length_c 19.822143
_cell_angle_alpha 90.000000
_cell_angle_beta 90.000000
_cell_angle_gamma 90.000000
_cell_volume 3438.330675
_symmetry_space_group_name_H-M "P M M A"
_symmetry_group_IT_number 51
_symmetry_cell_setting 'orthorhombic'
loop_
_space_group_symop_operation_xyz
x,y,z
1/2-x,-y,z
1/2+x,-y,-z
-x,y,-z
-x,-y,-z
1/2+x,y,-z
1/2-x,y,z
x,-y,z
loop_
_atom_site_type_symbol
_atom_site_label
_atom_site_fract_x
_atom_site_fract_y
_atom_site_fract_z
Si Si1 0.896047 0.822149 0.686226
Si Si2 0.539974 0.320800 0.332719
Si Si3 0.569550 0.821570 0.197126
Si Si4 0.919442 0.824235 0.837446
Si Si5 0.675582 0.320172 0.945549
Si Si6 0.828169 0.325922 0.568038
Si Si7 0.928967 0.177977 0.466888
Si Si8 0.328709 0.325010 0.902737
O O1 0.884852 0.789533 0.765371
O O2 0.839723 0.730232 0.644773
O O3 0.969680 0.768827 0.662910
O O4 0.890016 0.000000 0.669702
O O5 0.526703 0.500000 0.331139
O O6 0.581254 0.270692 0.266296
O O7 0.582705 0.273815 0.398496
O O8 0.497752 0.773518 0.164362
O O9 0.629411 0.783162 0.146360
O O10 0.568933 0.000000 0.214317
O O11 0.881859 0.730675 0.894569
O O12 0.912815 0.000000 0.856447
O O13 0.750000 0.254432 0.925524
O O14 0.679790 0.500000 0.945221
O O15 0.656914 0.267338 0.021214
O O16 0.750000 0.309743 0.549950
O O17 0.852699 0.500000 0.561270
O O18 0.869207 0.219135 0.517660
O O19 0.000000 0.224978 0.500000
O O20 0.926121 0.000000 0.449925
O O21 0.250000 0.307253 0.885024
O O22 0.351738 0.500000 0.893315
#
# Coordination Sequence:
#
# PCOD8212358 Si02
#       8
#     8   8   8   8   8   8   8   8
#     4  10  20  36  55  78 110 148 187 226 275 332
#     4  11  21  35  59  86 112 142 182 230 276 325
#     4  10  21  37  56  82 115 145 182 230 278 332
#     4   9  20  35  52  78 112 146 182 227 274 324
#     4   9  19  35  54  77 107 144 186 231 277 331
#     4  11  24  39  56  83 116 149 189 235 280 330
#     4  11  22  37  61  87 112 147 187 229 277 333
#     4   9  19  37  58  80 108 143 185 231 281 336
#
# _framework density 18.613683000000002
#
# number of rings (size 3 to 8) (size 9 to 14) (size 15 to 20)
#    0.000    2.000    1.250    4.125    0.000    6.500 
#    0.000    6.875    0.000    3.750    0.000    0.000 
#    0.000    0.000    0.000    0.000    0.000    0.000 
#
# Total GULP energy -793773.917857 kJ/mol
# GULP energy per Si atom -12402.717467 kJ/mol
# Density = 1.857132 g / cm^3
# Si number density = 18.613683 Si / 1000 Ang^3
#
#
#
# Elastic Constant Matrix: (Units=GPa)
#
#
# Indices 1 2 3 4 5 6 
#
# 1 70.8584 25.5167 50.1166 0.0000 0.0000 0.0000
# 2 25.5167 57.5833 33.4874 0.0000 0.0000 0.0000
# 3 50.1166 33.4874 112.8449 0.0000 0.0000 0.0000
# 4 0.0000 0.0000 0.0000 35.4072 0.0000 0.0000
# 5 0.0000 0.0000 0.0000 0.0000 27.4825 0.0000
# 6 0.0000 0.0000 0.0000 0.0000 0.0000 27.5685
#
#
#
# Elastic Compliance Matrix: (Units=1/GPa)
#
#
# Indices 1 2 3 4 5 6 
#
# 1 0.021634 -0.004833 -0.008174 0.000000 0.000000 0.000000
# 2 -0.004833 0.022068 -0.004402 0.000000 0.000000 0.000000
# 3 -0.008174 -0.004402 0.013798 0.000000 0.000000 0.000000
# 4 0.000000 0.000000 0.000000 0.028243 0.000000 0.000000
# 5 0.000000 0.000000 0.000000 0.000000 0.036387 0.000000
# 6 0.000000 0.000000 0.000000 0.000000 0.000000 0.036273
#
#
# Mechanical properties :
#
#
# Convention : Reuss Voigt Hill
#
# Bulk Modulus (GPa) = 44.08822 51.05868 47.57345
# Shear Modulus (GPa) = 24.90245 26.90268 25.90257
#
# Velocity S-wave (km/s) = 3.66164 3.80586 3.73445
# Velocity P-wave (km/s) = 6.45090 6.84127 6.64895
#
# Compressibility (1/GPa) = 0.02268179
#
# Stress axis : x y z
#
# Youngs Moduli (GPa) = 46.22259 45.31440 72.47242
#
# Poissons Ratio (x) = 0.21902 0.59239
# Poissons Ratio (y) = 0.22341 0.31904
# Poissons Ratio (z) = 0.37782 0.19949
#
# Static dielectric constant tensor:
#      x y z
#    x 3.269070 0.000000 0.000000 
#    y 0.000000 3.379350 0.000000 
#    z 0.000000 0.000000 3.575710 
# 
# 
# High freq. dielectric constant tensor:
#      x y z
#    x 1.705120 0.000000 0.000000 
#    y 0.000000 1.727510 0.000000 
#    z 0.000000 0.000000 1.730330 
# 
# From -- ./inp_files/33910.got.cif
#   From: 2010.03.12/outbox.cif.g09.slc.cpg/sg51_17_cif.got.tgz:33910.got - 2010.04.16 13:43:02.
