data_PCOD8212492
_publ_section_title
;
Structure prediction by ZEFSAII (Michael W. Deem and Ramdas Pophale) SiO2 
 PCOD8212492
Probable space group: P M M A
;
_chemical_formula_sum "Si O2"
_cell_formula_units_Z 36
_cell_length_a 8.773821
_cell_length_b 22.554442
_cell_length_c 9.487346
_cell_angle_alpha 90.000000
_cell_angle_beta 90.000000
_cell_angle_gamma 90.000000
_cell_volume 1877.437967
_symmetry_space_group_name_H-M "P M M A"
_symmetry_group_IT_number 51
_symmetry_cell_setting 'orthorhombic'
loop_
_space_group_symop_operation_xyz
x,y,z
1/2-x,-y,z
1/2+x,-y,-z
-x,y,-z
-x,-y,-z
1/2+x,y,-z
1/2-x,y,z
x,-y,z
loop_
_atom_site_type_symbol
_atom_site_label
_atom_site_fract_x
_atom_site_fract_y
_atom_site_fract_z
Si Si1 0.427575 0.068968 0.353899
Si Si2 0.568962 0.393002 0.650870
Si Si3 0.570555 0.500000 0.846916
Si Si4 0.429394 0.730719 0.648774
Si Si5 0.928700 0.160717 0.151656
O O1 0.500000 0.091452 0.500000
O O2 0.250000 0.083004 0.360420
O O3 0.501589 0.102783 0.223692
O O4 0.462155 0.000000 0.330082
O O5 0.500000 0.410310 0.500000
O O6 0.750000 0.389715 0.636939
O O7 0.515519 0.441903 0.763045
O O8 0.504295 0.330105 0.703479
O O9 0.750000 0.500000 0.862886
O O10 0.500000 0.500000 0.000000
O O11 0.500000 0.750056 0.500000
O O12 0.250000 0.721403 0.630374
O O13 0.470425 0.781144 0.759932
O O14 0.750000 0.151113 0.137800
O O15 0.000000 0.169534 0.000000
#
# Coordination Sequence:
#
# PCOD8212492 Si02
#       5
#     8   8   4   8   8
#     4  10  21  38  61  87 114 146 186 231 277 328
#     4  10  20  36  58  83 109 141 182 227 273 323
#     4  10  23  38  54  80 112 146 183 222 270 326
#     4  10  21  37  58  84 110 142 184 228 275 326
#     4  11  24  39  57  82 114 151 188 229 279 333
#
# _framework density 19.175068
#
# number of rings (size 3 to 8) (size 9 to 14) (size 15 to 20)
#    0.000    1.778    0.000    5.000    0.000    9.778 
#    0.000    4.444    0.000    0.000    0.000    0.000 
#    0.000    0.000    0.000    0.000    0.000    0.000 
#
# Total GULP energy -446579.846711 kJ/mol
# GULP energy per Si atom -12404.995742 kJ/mol
# Density = 1.913142 g / cm^3
# Si number density = 19.175068 Si / 1000 Ang^3
#
#
#
# Elastic Constant Matrix: (Units=GPa)
#
#
# Indices 1 2 3 4 5 6 
#
# 1 104.3830 71.2925 68.0653 0.0000 0.0000 0.0000
# 2 71.2925 121.9411 92.9222 0.0000 0.0000 0.0000
# 3 68.0653 92.9222 152.2758 0.0000 0.0000 0.0000
# 4 0.0000 0.0000 0.0000 19.1755 0.0000 0.0000
# 5 0.0000 0.0000 0.0000 0.0000 38.4594 0.0000
# 6 0.0000 0.0000 0.0000 0.0000 0.0000 28.5135
#
#
#
# Elastic Compliance Matrix: (Units=1/GPa)
#
#
# Indices 1 2 3 4 5 6 
#
# 1 0.016560 -0.007554 -0.002793 0.000000 0.000000 0.000000
# 2 -0.007554 0.018774 -0.008080 0.000000 0.000000 0.000000
# 3 -0.002793 -0.008080 0.012746 0.000000 0.000000 0.000000
# 4 0.000000 0.000000 0.000000 0.052150 0.000000 0.000000
# 5 0.000000 0.000000 0.000000 0.000000 0.026001 0.000000
# 6 0.000000 0.000000 0.000000 0.000000 0.000000 0.035071
#
#
# Mechanical properties :
#
#
# Convention : Reuss Voigt Hill
#
# Bulk Modulus (GPa) = 89.06797 93.68442 91.37619
# Shear Modulus (GPa) = 24.76493 26.98433 25.87463
#
# Velocity S-wave (km/s) = 3.59767 3.75542 3.67739
# Velocity P-wave (km/s) = 7.98801 8.23211 8.11098
#
# Compressibility (1/GPa) = 0.01122738
#
# Stress axis : x y z
#
# Youngs Moduli (GPa) = 60.38515 53.26483 78.45650
#
# Poissons Ratio (x) = 0.40235 0.21911
# Poissons Ratio (y) = 0.45614 0.63392
# Poissons Ratio (z) = 0.16864 0.43038
#
# Static dielectric constant tensor:
#      x y z
#    x 3.619280 0.000000 0.000000 
#    y 0.000000 3.686560 0.000000 
#    z 0.000000 0.000000 3.501110 
# 
# 
# High freq. dielectric constant tensor:
#      x y z
#    x 1.761170 0.000000 0.000000 
#    y 0.000000 1.759310 0.000000 
#    z 0.000000 0.000000 1.743900 
# 
# From -- ./inp_files/5221.got.cif
#   From: 2010.03.12/outbox.cif.g09.slc.cpg/sg51_3_cif.got.tgz:5221.got - 2010.04.16 13:43:02.
