data_PCOD8212456
_publ_section_title
;
Structure prediction by ZEFSAII (Michael W. Deem and Ramdas Pophale) SiO2 
 PCOD8212456
Probable space group: P M M A
;
_chemical_formula_sum "Si O2"
_cell_formula_units_Z 64
_cell_length_a 8.637394
_cell_length_b 23.539367
_cell_length_c 15.130794
_cell_angle_alpha 90.000000
_cell_angle_beta 90.000000
_cell_angle_gamma 90.000000
_cell_volume 3076.374687
_symmetry_space_group_name_H-M "P M M A"
_symmetry_group_IT_number 51
_symmetry_cell_setting 'orthorhombic'
loop_
_space_group_symop_operation_xyz
x,y,z
1/2-x,-y,z
1/2+x,-y,-z
-x,y,-z
-x,-y,-z
1/2+x,y,-z
1/2-x,y,z
x,-y,z
loop_
_atom_site_type_symbol
_atom_site_label
_atom_site_fract_x
_atom_site_fract_y
_atom_site_fract_z
Si Si1 0.567798 0.762968 0.092411
Si Si2 0.931710 0.114524 0.908152
Si Si3 0.933407 0.720965 0.404678
Si Si4 0.071083 0.935792 0.741651
Si Si5 0.929889 0.436937 0.233211
Si Si6 0.931579 0.149113 0.406915
Si Si7 0.580285 0.564652 0.583693
Si Si8 0.569603 0.322966 0.771525
O O1 0.750000 0.767540 0.083237
O O2 0.501529 0.824381 0.115857
O O3 0.526236 0.721695 0.172017
O O4 0.500000 0.739685 0.000000
O O5 0.750000 0.120561 0.918285
O O6 0.974772 0.070698 0.831467
O O7 0.000000 0.091139 0.000000
O O8 0.750000 0.711299 0.401972
O O9 0.977990 0.786314 0.383532
O O10 0.000000 0.703831 0.500000
O O11 0.015985 0.681635 0.330997
O O12 0.250000 0.921772 0.761540
O O13 0.002781 0.892686 0.668503
O O14 0.050437 0.000000 0.706918
O O15 0.750000 0.427135 0.213098
O O16 0.981628 0.500000 0.198865
O O17 0.959244 0.432293 0.337137
O O18 0.029744 0.386032 0.189865
O O19 0.750000 0.142204 0.414466
O O20 0.000000 0.129670 0.500000
O O21 0.500000 0.596238 0.500000
O O22 0.750000 0.592098 0.607099
O O23 0.611996 0.500000 0.557022
O O24 0.750000 0.310663 0.781740
#
# Coordination Sequence:
#
# PCOD8212456 Si02
#       8
#     8   8   8   8   8   8   8   8
#     4  11  22  40  65  93 122 150 186 233 288 347
#     4  11  22  38  61  88 118 152 190 234 289 349
#     4  10  20  36  57  83 116 153 196 246 299 353
#     4  10  21  37  56  81 116 158 202 245 290 343
#     4  10  21  37  55  76 105 144 188 230 277 336
#     4   9  19  35  56  80 109 148 192 242 295 344
#     4   9  16  27  44  66  93 128 172 221 269 318
#     4  12  24  38  59  88 119 152 191 236 289 345
#
# _framework density 20.803706999999999
#
# number of rings (size 3 to 8) (size 9 to 14) (size 15 to 20)
#    0.000    1.750    0.000    6.000    0.000    5.500 
#    0.000    2.500    0.000    0.375    0.000    0.000 
#    0.000    0.000    0.000    0.000    0.000    0.000 
#
# Total GULP energy -793611.591703 kJ/mol
# GULP energy per Si atom -12400.181120 kJ/mol
# Density = 2.075636 g / cm^3
# Si number density = 20.803707 Si / 1000 Ang^3
#
#
#
# Elastic Constant Matrix: (Units=GPa)
#
#
# Indices 1 2 3 4 5 6 
#
# 1 114.5301 33.1765 23.6370 0.0000 0.0000 0.0000
# 2 33.1765 94.9329 31.8631 0.0000 0.0000 0.0000
# 3 23.6370 31.8631 70.2376 0.0000 0.0000 0.0000
# 4 0.0000 0.0000 0.0000 6.0921 0.0000 0.0000
# 5 0.0000 0.0000 0.0000 0.0000 33.3785 0.0000
# 6 0.0000 0.0000 0.0000 0.0000 0.0000 27.6243
#
#
#
# Elastic Compliance Matrix: (Units=1/GPa)
#
#
# Indices 1 2 3 4 5 6 
#
# 1 0.009969 -0.002781 -0.002093 0.000000 0.000000 0.000000
# 2 -0.002781 0.013202 -0.005053 0.000000 0.000000 0.000000
# 3 -0.002093 -0.005053 0.017234 0.000000 0.000000 0.000000
# 4 0.000000 0.000000 0.000000 0.164147 0.000000 0.000000
# 5 0.000000 0.000000 0.000000 0.000000 0.029959 0.000000
# 6 0.000000 0.000000 0.000000 0.000000 0.000000 0.036200
#
#
# Mechanical properties :
#
#
# Convention : Reuss Voigt Hill
#
# Bulk Modulus (GPa) = 48.66188 50.78378 49.72283
# Shear Modulus (GPa) = 16.81147 26.15391 21.48269
#
# Velocity S-wave (km/s) = 2.84579 3.54951 3.21695
# Velocity P-wave (km/s) = 5.85148 6.42360 6.14420
#
# Compressibility (1/GPa) = 0.02054997
#
# Stress axis : x y z
#
# Youngs Moduli (GPa) = 100.31095 75.74762 58.02471
#
# Poissons Ratio (x) = 0.21068 0.12145
# Poissons Ratio (y) = 0.27900 0.29319
# Poissons Ratio (z) = 0.20996 0.38275
#
# Static dielectric constant tensor:
#      x y z
#    x 3.828970 0.000000 0.000000 
#    y 0.000000 3.964290 0.000000 
#    z 0.000000 0.000000 3.637190 
# 
# 
# High freq. dielectric constant tensor:
#      x y z
#    x 1.820690 0.000000 0.000000 
#    y 0.000000 1.821530 0.000000 
#    z 0.000000 0.000000 1.791510 
# 
# From -- ./inp_files/22287.got.cif
#   From: 2010.03.12/outbox.cif.g09.slc.cpg/sg51_12_cif.got.tgz:22287.got - 2010.04.16 13:43:02.
