data_PCOD8212596
_publ_section_title
;
Structure prediction by ZEFSAII (Michael W. Deem and Ramdas Pophale) SiO2 
 PCOD8212596
Probable space group: P M M A
;
_chemical_formula_sum "Si O2"
_cell_formula_units_Z 40
_cell_length_a 15.813384
_cell_length_b 13.022637
_cell_length_c 10.226157
_cell_angle_alpha 90.000000
_cell_angle_beta 90.000000
_cell_angle_gamma 90.000000
_cell_volume 2105.892550
_symmetry_space_group_name_H-M "P M M A"
_symmetry_group_IT_number 51
_symmetry_cell_setting 'orthorhombic'
loop_
_space_group_symop_operation_xyz
x,y,z
1/2-x,-y,z
1/2+x,-y,-z
-x,y,-z
-x,-y,-z
1/2+x,y,-z
1/2-x,y,z
x,-y,z
loop_
_atom_site_type_symbol
_atom_site_label
_atom_site_fract_x
_atom_site_fract_y
_atom_site_fract_z
Si Si1 0.151776 0.383020 0.208682
Si Si2 0.565742 0.805517 0.381650
Si Si3 0.049445 0.193405 0.132350
Si Si4 0.851024 0.000000 0.772354
Si Si5 0.151847 0.000000 0.523553
Si Si6 0.600249 0.389411 0.498596
O O1 0.250000 0.368484 0.176099
O O2 0.122678 0.500000 0.176757
O O3 0.098651 0.302079 0.122985
O O4 0.135737 0.357599 0.360261
O O5 0.500000 0.809295 0.500000
O O6 0.520521 0.803290 0.244035
O O7 0.623197 0.701960 0.397663
O O8 0.625952 0.902797 0.390769
O O9 0.115613 0.101767 0.156142
O O10 0.000000 0.172083 0.000000
O O11 0.750000 0.000000 0.778438
O O12 0.887412 0.000000 0.623135
O O13 0.250000 0.000000 0.503146
O O14 0.500000 0.400948 0.500000
O O15 0.639713 0.500000 0.455896
#
# Coordination Sequence:
#
# PCOD8212596 Si02
#       6
#     8   8   8   4   4   8
#     4  10  20  36  60  88 117 152 195 239 283 340
#     4  11  19  36  58  83 116 148 186 238 285 343
#     4  12  24  38  57  87 118 154 195 237 284 344
#     4  11  22  39  61  84 110 147 195 242 287 347
#     4  11  22  36  61  89 112 143 193 246 294 342
#     4   9  16  30  56  87 114 142 183 233 284 334
#
# _framework density 18.994319999999998
#
# number of rings (size 3 to 8) (size 9 to 14) (size 15 to 20)
#    0.000    1.400    6.000    1.800    0.000    2.800 
#    0.000    3.000    0.000    0.000    0.000    2.800 
#    0.000    0.000    0.000    0.000    0.000    0.000 
#
# Total GULP energy -495852.211664 kJ/mol
# GULP energy per Si atom -12396.305292 kJ/mol
# Density = 1.895109 g / cm^3
# Si number density = 18.994320 Si / 1000 Ang^3
#
#
#
# Elastic Constant Matrix: (Units=GPa)
#
#
# Indices 1 2 3 4 5 6 
#
# 1 52.0935 37.9837 25.4920 0.0000 0.0000 0.0000
# 2 37.9837 169.6548 33.2990 0.0000 0.0000 0.0000
# 3 25.4920 33.2990 73.4820 0.0000 0.0000 0.0000
# 4 0.0000 0.0000 0.0000 29.8934 0.0000 0.0000
# 5 0.0000 0.0000 0.0000 0.0000 17.2339 0.0000
# 6 0.0000 0.0000 0.0000 0.0000 0.0000 25.5018
#
#
#
# Elastic Compliance Matrix: (Units=1/GPa)
#
#
# Indices 1 2 3 4 5 6 
#
# 1 0.025820 -0.004415 -0.006956 0.000000 0.000000 0.000000
# 2 -0.004415 0.007225 -0.001742 0.000000 0.000000 0.000000
# 3 -0.006956 -0.001742 0.016812 0.000000 0.000000 0.000000
# 4 0.000000 0.000000 0.000000 0.033452 0.000000 0.000000
# 5 0.000000 0.000000 0.000000 0.000000 0.058025 0.000000
# 6 0.000000 0.000000 0.000000 0.000000 0.000000 0.039213
#
#
# Mechanical properties :
#
#
# Convention : Reuss Voigt Hill
#
# Bulk Modulus (GPa) = 42.32238 54.30887 48.31562
# Shear Modulus (GPa) = 23.29368 27.75619 25.52493
#
# Velocity S-wave (km/s) = 3.50573 3.82683 3.66979
# Velocity P-wave (km/s) = 6.22228 6.94121 6.59155
#
# Compressibility (1/GPa) = 0.02362816
#
# Stress axis : x y z
#
# Youngs Moduli (GPa) = 38.72993 138.41160 59.48284
#
# Poissons Ratio (x) = 0.61114 0.41379
# Poissons Ratio (y) = 0.17101 0.10363
# Poissons Ratio (z) = 0.26942 0.24115
#
# Static dielectric constant tensor:
#      x y z
#    x 3.655560 0.000000 0.000000 
#    y 0.000000 4.651490 0.000000 
#    z 0.000000 0.000000 3.524920 
# 
# 
# High freq. dielectric constant tensor:
#      x y z
#    x 1.723890 0.000000 0.000000 
#    y 0.000000 1.771600 0.000000 
#    z 0.000000 0.000000 1.697370 
# 
# From -- ./inp_files/8033.got.cif
#   From: 2010.03.12/outbox.cif.g09.slc.cpg/sg51_5_cif.got.tgz:8033.got - 2010.04.16 13:43:02.
