data_PCOD8212600
_publ_section_title
;
Structure prediction by ZEFSAII (Michael W. Deem and Ramdas Pophale) SiO2 
 PCOD8212600
Probable space group: P M M A
;
_chemical_formula_sum "Si O2"
_cell_formula_units_Z 48
_cell_length_a 15.707631
_cell_length_b 9.226090
_cell_length_c 16.996846
_cell_angle_alpha 90.000000
_cell_angle_beta 90.000000
_cell_angle_gamma 90.000000
_cell_volume 2463.183216
_symmetry_space_group_name_H-M "P M M A"
_symmetry_group_IT_number 51
_symmetry_cell_setting 'orthorhombic'
loop_
_space_group_symop_operation_xyz
x,y,z
1/2-x,-y,z
1/2+x,-y,-z
-x,y,-z
-x,-y,-z
1/2+x,y,-z
1/2-x,y,z
x,-y,z
loop_
_atom_site_type_symbol
_atom_site_label
_atom_site_fract_x
_atom_site_fract_y
_atom_site_fract_z
Si Si1 0.410813 0.835511 0.827139
Si Si2 0.152044 0.664381 0.973367
Si Si3 0.150516 0.664790 0.682346
Si Si4 0.750000 0.170770 0.764684
Si Si5 0.101480 0.836574 0.120067
Si Si6 0.750000 0.673071 0.598511
Si Si7 0.095850 0.671786 0.511048
O O1 0.359172 0.745260 0.891242
O O2 0.397414 0.769094 0.741761
O O3 0.510407 0.828119 0.841064
O O4 0.377175 0.000000 0.829313
O O5 0.250000 0.670915 0.998311
O O6 0.120164 0.500000 0.963376
O O7 0.098498 0.738660 0.042426
O O8 0.250000 0.673454 0.698559
O O9 0.117819 0.500000 0.693349
O O10 0.129626 0.722586 0.595580
O O11 0.668117 0.218804 0.815168
O O12 0.750000 0.258659 0.684369
O O13 0.750000 0.000000 0.745970
O O14 0.124858 0.000000 0.093635
O O15 0.750000 0.500000 0.605162
O O16 0.835807 0.727659 0.553657
O O17 0.093127 0.500000 0.506009
O O18 0.000000 0.735365 0.500000
#
# Coordination Sequence:
#
# PCOD8212600 Si02
#       7
#     8   8   8   4   8   4   8
#     4  11  24  38  57  86 116 149 193 236 281 339
#     4  11  23  39  60  87 116 148 190 235 282 336
#     4  10  20  37  59  83 115 153 193 235 282 338
#     4  10  22  40  60  81 114 153 184 227 290 343
#     4  10  22  41  61  81 112 154 192 230 282 342
#     4  10  20  36  60  89 114 143 194 241 278 345
#     4   9  18  34  57  85 116 150 186 235 294 341
#
# _framework density 19.486979000000002
#
# number of rings (size 3 to 8) (size 9 to 14) (size 15 to 20)
#    0.000    1.833    1.667    2.000    2.333    7.333 
#    0.000    0.833    0.000    1.000    0.000    0.000 
#    0.000    0.000    0.000    0.000    0.000    0.000 
#
# Total GULP energy -595334.717979 kJ/mol
# GULP energy per Si atom -12402.806625 kJ/mol
# Density = 1.944263 g / cm^3
# Si number density = 19.486979 Si / 1000 Ang^3
#
#
#
# Elastic Constant Matrix: (Units=GPa)
#
#
# Indices 1 2 3 4 5 6 
#
# 1 68.0310 21.5335 16.2725 0.0000 0.0000 0.0000
# 2 21.5335 91.3736 51.1336 0.0000 0.0000 0.0000
# 3 16.2725 51.1336 116.4295 0.0000 0.0000 0.0000
# 4 0.0000 0.0000 0.0000 -13.5526 0.0000 0.0000
# 5 0.0000 0.0000 0.0000 0.0000 102.9653 0.0000
# 6 0.0000 0.0000 0.0000 0.0000 0.0000 17.7240
#
#
#
# Elastic Compliance Matrix: (Units=1/GPa)
#
#
# Indices 1 2 3 4 5 6 
#
# 1 0.015935 -0.003327 -0.000766 0.000000 0.000000 0.000000
# 2 -0.003327 0.015205 -0.006213 0.000000 0.000000 0.000000
# 3 -0.000766 -0.006213 0.011424 0.000000 0.000000 0.000000
# 4 0.000000 0.000000 0.000000 -0.073787 0.000000 0.000000
# 5 0.000000 0.000000 0.000000 0.000000 0.009712 0.000000
# 6 0.000000 0.000000 0.000000 0.000000 0.000000 0.056421
#
#
# Mechanical properties :
#
#
# Convention : Reuss Voigt Hill
#
# Bulk Modulus (GPa) = 45.55065 50.41259 47.98162
# Shear Modulus (GPa) = 79.56741 33.88697 56.72719
#
# Velocity S-wave (km/s) = 6.39685 4.17460 5.40125
# Velocity P-wave (km/s) = 8.83093 7.01159 7.97332
#
# Compressibility (1/GPa) = 0.02195358
#
# Stress axis : x y z
#
# Youngs Moduli (GPa) = 62.75335 65.76898 87.53148
#
# Poissons Ratio (x) = 0.21879 0.06706
# Poissons Ratio (y) = 0.20876 0.54381
# Poissons Ratio (z) = 0.04808 0.40860
#
# Static dielectric constant tensor:
#      x y z
#    x 3.704400 0.000000 0.000000 
#    y 0.000000 3.495610 0.000000 
#    z 0.000000 0.000000 3.534450 
# 
# 
# High freq. dielectric constant tensor:
#      x y z
#    x 1.771500 0.000000 0.000000 
#    y 0.000000 1.738040 0.000000 
#    z 0.000000 0.000000 1.766760 
# 
# From -- ./inp_files/24940.got.cif
#   From: 2010.03.12/outbox.cif.g09.slc.cpg/sg51_13_cif.got.tgz:24940.got - 2010.04.16 13:43:02.
