data_PCOD8212076
_publ_section_title
;
Structure prediction by ZEFSAII (Michael W. Deem and Ramdas Pophale) SiO2 
 PCOD8212076
Probable space group: P M M A
;
_chemical_formula_sum "Si O2"
_cell_formula_units_Z 56
_cell_length_a 15.201971
_cell_length_b 8.792422
_cell_length_c 22.027498
_cell_angle_alpha 90.000000
_cell_angle_beta 90.000000
_cell_angle_gamma 90.000000
_cell_volume 2944.242615
_symmetry_space_group_name_H-M "P M M A"
_symmetry_group_IT_number 51
_symmetry_cell_setting 'orthorhombic'
loop_
_space_group_symop_operation_xyz
x,y,z
1/2-x,-y,z
1/2+x,-y,-z
-x,y,-z
-x,-y,-z
1/2+x,y,-z
1/2-x,y,z
x,-y,z
loop_
_atom_site_type_symbol
_atom_site_label
_atom_site_fract_x
_atom_site_fract_y
_atom_site_fract_z
Si Si1 0.070043 0.180121 0.316561
Si Si2 0.073866 0.179337 0.454886
Si Si3 0.146053 0.670266 0.001509
Si Si4 0.852433 0.178879 0.122172
Si Si5 0.996639 0.319799 0.205003
Si Si6 0.250000 0.671045 0.314597
Si Si7 0.750000 0.331978 0.541595
Si Si8 0.148045 0.179340 0.126071
O O1 0.053563 0.232143 0.386037
O O2 0.165080 0.236057 0.292771
O O3 0.997205 0.261786 0.274746
O O4 0.064212 0.000000 0.308995
O O5 0.164262 0.244556 0.481201
O O6 0.000000 0.242650 0.500000
O O7 0.081183 0.000000 0.457097
O O8 0.250000 0.662804 0.998770
O O9 0.106149 0.500000 0.005123
O O10 0.116392 0.766545 0.059710
O O11 0.111527 0.752957 0.941073
O O12 0.750000 0.218400 0.133059
O O13 0.908613 0.252649 0.175705
O O14 0.868444 0.000000 0.120779
O O15 0.993056 0.500000 0.202114
O O16 0.086232 0.261190 0.174336
O O17 0.250000 0.500000 0.287019
O O18 0.250000 0.662386 0.386471
O O19 0.750000 0.500000 0.513368
O O20 0.250000 0.224647 0.138269
O O21 0.134416 0.000000 0.130616
#
# Coordination Sequence:
#
# PCOD8212076 Si02
#       8
#     8   8   8   8   8   4   4   8
#     4  10  20  35  55  80 112 146 185 226 271 325
#     4   9  18  34  58  84 111 146 187 229 271 318
#     4   9  17  32  55  82 111 141 177 223 278 333
#     4  10  21  39  62  83 104 136 183 235 282 330
#     4  12  25  38  55  80 112 146 184 228 275 333
#     4   9  17  31  51  77 109 145 181 216 261 318
#     4   9  17  29  49  81 115 145 179 218 265 318
#     4  10  21  37  56  80 113 149 185 225 272 327
#
# _framework density 19.020171000000001
#
# number of rings (size 3 to 8) (size 9 to 14) (size 15 to 20)
#    0.000    2.143    0.000    3.429    1.000    6.571 
#    0.000    2.857    1.571    0.000    0.000    0.000 
#    0.000    0.000    0.000    0.000    0.000    0.000 
#
# Total GULP energy -694431.026557 kJ/mol
# GULP energy per Si atom -12400.554046 kJ/mol
# Density = 1.897688 g / cm^3
# Si number density = 19.020171 Si / 1000 Ang^3
#
#
#
# Elastic Constant Matrix: (Units=GPa)
#
#
# Indices 1 2 3 4 5 6 
#
# 1 89.0443 34.2007 51.6326 0.0000 0.0000 0.0000
# 2 34.2007 88.3811 31.9074 0.0000 0.0000 0.0000
# 3 51.6326 31.9074 92.3036 0.0000 0.0000 0.0000
# 4 0.0000 0.0000 0.0000 24.7313 0.0000 0.0000
# 5 0.0000 0.0000 0.0000 0.0000 26.4220 0.0000
# 6 0.0000 0.0000 0.0000 0.0000 0.0000 20.0189
#
#
#
# Elastic Compliance Matrix: (Units=1/GPa)
#
#
# Indices 1 2 3 4 5 6 
#
# 1 0.017635 -0.003728 -0.008576 0.000000 0.000000 0.000000
# 2 -0.003728 0.013716 -0.002656 0.000000 0.000000 0.000000
# 3 -0.008576 -0.002656 0.016549 0.000000 0.000000 0.000000
# 4 0.000000 0.000000 0.000000 0.040435 0.000000 0.000000
# 5 0.000000 0.000000 0.000000 0.000000 0.037847 0.000000
# 6 0.000000 0.000000 0.000000 0.000000 0.000000 0.049953
#
#
# Mechanical properties :
#
#
# Convention : Reuss Voigt Hill
#
# Bulk Modulus (GPa) = 55.61641 56.13449 55.87545
# Shear Modulus (GPa) = 23.57953 24.36701 23.97327
#
# Velocity S-wave (km/s) = 3.52477 3.58315 3.55408
# Velocity P-wave (km/s) = 6.77271 6.83343 6.80314
#
# Compressibility (1/GPa) = 0.01798031
#
# Stress axis : x y z
#
# Youngs Moduli (GPa) = 56.70523 72.90676 60.42619
#
# Poissons Ratio (x) = 0.27180 0.51821
# Poissons Ratio (y) = 0.21140 0.16049
# Poissons Ratio (z) = 0.48630 0.19364
#
# Static dielectric constant tensor:
#      x y z
#    x 3.440980 0.000000 0.000000 
#    y 0.000000 3.615540 0.000000 
#    z 0.000000 0.000000 3.535240 
# 
# 
# High freq. dielectric constant tensor:
#      x y z
#    x 1.726180 0.000000 0.000000 
#    y 0.000000 1.752080 0.000000 
#    z 0.000000 0.000000 1.727600 
# 
# From -- ./inp_files/33498.got.cif
#   From: 2010.03.12/outbox.cif.g09.slc.cpg/sg51_17_cif.got.tgz:33498.got - 2010.04.16 13:43:02.
