data_PCOD8212250
_publ_section_title
;
Structure prediction by ZEFSAII (Michael W. Deem and Ramdas Pophale) SiO2 
 PCOD8212250
Probable space group: P M M A
;
_chemical_formula_sum "Si O2"
_cell_formula_units_Z 44
_cell_length_a 8.989601
_cell_length_b 7.688967
_cell_length_c 30.136793
_cell_angle_alpha 90.000000
_cell_angle_beta 90.000000
_cell_angle_gamma 90.000000
_cell_volume 2083.077597
_symmetry_space_group_name_H-M "P M M A"
_symmetry_group_IT_number 51
_symmetry_cell_setting 'orthorhombic'
loop_
_space_group_symop_operation_xyz
x,y,z
1/2-x,-y,z
1/2+x,-y,-z
-x,y,-z
-x,-y,-z
1/2+x,y,-z
1/2-x,y,z
x,-y,z
loop_
_atom_site_type_symbol
_atom_site_label
_atom_site_fract_x
_atom_site_fract_y
_atom_site_fract_z
Si Si1 0.415309 0.703821 0.128325
Si Si2 0.577671 0.697667 0.602380
Si Si3 0.927766 0.000000 0.452097
Si Si4 0.080187 0.206697 0.689758
Si Si5 0.583807 0.795927 0.776312
Si Si6 0.416188 0.707599 0.956688
O O1 0.250000 0.786296 0.126911
O O2 0.406463 0.500000 0.121231
O O3 0.488589 0.746856 0.176107
O O4 0.509872 0.784717 0.088051
O O5 0.750000 0.755207 0.600316
O O6 0.558764 0.500000 0.584813
O O7 0.479130 0.826050 0.572806
O O8 0.521953 0.705388 0.652764
O O9 0.000000 0.000000 0.500000
O O10 0.750000 0.000000 0.455245
O O11 0.250000 0.268230 0.684087
O O12 0.020859 0.276061 0.737178
O O13 0.067759 0.000000 0.685289
O O14 0.750000 0.713871 0.772592
O O15 0.594497 0.000000 0.771315
O O16 0.250000 0.780137 0.958619
O O17 0.418600 0.500000 0.956206
O O18 0.500000 0.779388 0.000000
#
# Coordination Sequence:
#
# PCOD8212250 Si02
#       6
#     8   8   4   8   8   8
#     4   9  17  29  45  66  93 124 162 211 265 321
#     4  11  24  42  67  98 131 170 216 265 316 372
#     4  12  26  46  72 100 134 176 216 264 319 372
#     4  10  20  35  57  85 117 156 199 247 301 356
#     4   9  18  32  50  72 102 143 184 224 273 336
#     4   9  16  26  42  64  89 118 154 199 255 317
#
# _framework density 21.122595
#
# number of rings (size 3 to 8) (size 9 to 14) (size 15 to 20)
#    0.000    2.182    0.909    2.455    0.000    6.182 
#    0.000    1.818    0.000    0.545    0.000    0.000 
#    0.000    0.000    0.000    0.000    0.000    0.000 
#
# Total GULP energy -545556.659558 kJ/mol
# GULP energy per Si atom -12399.014990 kJ/mol
# Density = 2.107452 g / cm^3
# Si number density = 21.122595 Si / 1000 Ang^3
#
#
#
# Elastic Constant Matrix: (Units=GPa)
#
#
# Indices 1 2 3 4 5 6 
#
# 1 154.4614 33.5883 81.0428 0.0000 0.0000 0.0000
# 2 33.5883 52.3630 30.3507 0.0000 0.0000 0.0000
# 3 81.0428 30.3507 177.3766 0.0000 0.0000 0.0000
# 4 0.0000 0.0000 0.0000 22.5207 0.0000 0.0000
# 5 0.0000 0.0000 0.0000 0.0000 40.5103 0.0000
# 6 0.0000 0.0000 0.0000 0.0000 0.0000 16.5970
#
#
#
# Elastic Compliance Matrix: (Units=1/GPa)
#
#
# Indices 1 2 3 4 5 6 
#
# 1 0.009159 -0.003829 -0.003529 0.000000 0.000000 0.000000
# 2 -0.003829 0.022801 -0.002152 0.000000 0.000000 0.000000
# 3 -0.003529 -0.002152 0.007618 0.000000 0.000000 0.000000
# 4 0.000000 0.000000 0.000000 0.044404 0.000000 0.000000
# 5 0.000000 0.000000 0.000000 0.000000 0.024685 0.000000
# 6 0.000000 0.000000 0.000000 0.000000 0.000000 0.060252
#
#
# Mechanical properties :
#
#
# Convention : Reuss Voigt Hill
#
# Bulk Modulus (GPa) = 48.64464 74.90719 61.77592
# Shear Modulus (GPa) = 25.66844 31.87353 28.77098
#
# Velocity S-wave (km/s) = 3.48977 3.88877 3.69466
# Velocity P-wave (km/s) = 6.27038 7.46347 6.89279
#
# Compressibility (1/GPa) = 0.02055725
#
# Stress axis : x y z
#
# Youngs Moduli (GPa) = 109.18799 43.85786 131.25990
#
# Poissons Ratio (x) = 0.16794 0.46326
# Poissons Ratio (y) = 0.41809 0.28246
# Poissons Ratio (z) = 0.38536 0.09438
#
# Static dielectric constant tensor:
#      x y z
#    x 3.993050 0.000000 0.000000 
#    y 0.000000 3.485570 0.000000 
#    z 0.000000 0.000000 4.045900 
# 
# 
# High freq. dielectric constant tensor:
#      x y z
#    x 1.825690 0.000000 0.000000 
#    y 0.000000 1.805640 0.000000 
#    z 0.000000 0.000000 1.837220 
# 
# From -- ./inp_files/36736.got.cif
#   From: 2010.03.12/outbox.cif.g09.slc.cpg/sg51_19_cif.got.tgz:36736.got - 2010.04.16 13:43:02.
