data_PCOD8212479
_publ_section_title
;
Structure prediction by ZEFSAII (Michael W. Deem and Ramdas Pophale) SiO2 
 PCOD8212479
Probable space group: P M M A
;
_chemical_formula_sum "Si O2"
_cell_formula_units_Z 48
_cell_length_a 16.099234
_cell_length_b 9.318855
_cell_length_c 17.682196
_cell_angle_alpha 90.000000
_cell_angle_beta 90.000000
_cell_angle_gamma 90.000000
_cell_volume 2652.796692
_symmetry_space_group_name_H-M "P M M A"
_symmetry_group_IT_number 51
_symmetry_cell_setting 'orthorhombic'
loop_
_space_group_symop_operation_xyz
x,y,z
1/2-x,-y,z
1/2+x,-y,-z
-x,y,-z
-x,-y,-z
1/2+x,y,-z
1/2-x,y,z
x,-y,z
loop_
_atom_site_type_symbol
_atom_site_label
_atom_site_fract_x
_atom_site_fract_y
_atom_site_fract_z
Si Si1 0.250000 0.669636 0.945917
Si Si2 0.413738 0.669584 0.037013
Si Si3 0.011625 0.667625 0.412533
Si Si4 0.250000 0.167482 0.789328
Si Si5 0.419077 0.833103 0.710385
Si Si6 0.844325 0.836728 0.658568
Si Si7 0.072624 0.162901 0.188002
O O1 0.250000 0.500000 0.934446
O O2 0.333493 0.719971 0.989206
O O3 0.250000 0.742570 0.865111
O O4 0.415217 0.500000 0.044995
O O5 0.404850 0.733293 0.120036
O O6 0.500000 0.725224 0.000000
O O7 0.008580 0.500000 0.394803
O O8 0.938671 0.743501 0.364970
O O9 0.000000 0.702013 0.500000
O O10 0.101073 0.727969 0.389563
O O11 0.171355 0.210184 0.738964
O O12 0.250000 0.000000 0.810825
O O13 0.483507 0.794755 0.776978
O O14 0.426025 0.000000 0.689049
O O15 0.750000 0.802857 0.638054
O O16 0.857623 0.814988 0.748059
O O17 0.868960 0.000000 0.637185
O O18 0.071363 0.000000 0.157826
#
# Coordination Sequence:
#
# PCOD8212479 Si02
#       7
#     4   8   8   4   8   8   8
#     4  10  22  36  50  74 107 142 179 222 275 326
#     4  10  21  35  49  70 103 141 179 220 267 320
#     4  10  21  37  56  81 113 145 178 216 262 317
#     4  10  20  36  58  82 105 134 183 232 269 316
#     4   9  19  36  57  81 108 140 179 225 270 319
#     4   9  19  36  57  82 109 140 178 221 269 319
#     4   9  18  32  53  77 103 135 174 220 267 315
#
# _framework density 18.094111999999999
#
# number of rings (size 3 to 8) (size 9 to 14) (size 15 to 20)
#    0.000    2.500    0.000    2.500    1.167    6.000 
#    1.500    0.000    0.000    0.000    0.000    0.000 
#    0.000    0.000    0.000    0.000    0.000    0.000 
#
# Total GULP energy -595278.964507 kJ/mol
# GULP energy per Si atom -12401.645094 kJ/mol
# Density = 1.805293 g / cm^3
# Si number density = 18.094112 Si / 1000 Ang^3
#
#
#
# Elastic Constant Matrix: (Units=GPa)
#
#
# Indices 1 2 3 4 5 6 
#
# 1 135.8875 46.0258 71.6212 0.0000 0.0000 0.0000
# 2 46.0258 59.2715 67.5570 0.0000 0.0000 0.0000
# 3 71.6212 67.5570 129.7143 0.0000 0.0000 0.0000
# 4 0.0000 0.0000 0.0000 62.4646 0.0000 0.0000
# 5 0.0000 0.0000 0.0000 0.0000 14.0532 0.0000
# 6 0.0000 0.0000 0.0000 0.0000 0.0000 12.8600
#
#
#
# Elastic Compliance Matrix: (Units=1/GPa)
#
#
# Indices 1 2 3 4 5 6 
#
# 1 0.010732 -0.003887 -0.003901 0.000000 0.000000 0.000000
# 2 -0.003887 0.042924 -0.020209 0.000000 0.000000 0.000000
# 3 -0.003901 -0.020209 0.020388 0.000000 0.000000 0.000000
# 4 0.000000 0.000000 0.000000 0.016009 0.000000 0.000000
# 5 0.000000 0.000000 0.000000 0.000000 0.071158 0.000000
# 6 0.000000 0.000000 0.000000 0.000000 0.000000 0.077760
#
#
# Mechanical properties :
#
#
# Convention : Reuss Voigt Hill
#
# Bulk Modulus (GPa) = 55.40285 77.25348 66.32816
# Shear Modulus (GPa) = 16.61218 27.18684 21.89951
#
# Velocity S-wave (km/s) = 3.03330 3.88045 3.48273
# Velocity P-wave (km/s) = 6.55390 7.92876 7.27389
#
# Compressibility (1/GPa) = 0.01804961
#
# Stress axis : x y z
#
# Youngs Moduli (GPa) = 93.18203 23.29675 49.04731
#
# Poissons Ratio (x) = 0.09056 0.19133
# Poissons Ratio (y) = 0.36221 0.99122
# Poissons Ratio (z) = 0.36350 0.47081
#
# Static dielectric constant tensor:
#      x y z
#    x 3.667650 0.000000 0.000000 
#    y 0.000000 3.260160 0.000000 
#    z 0.000000 0.000000 3.184510 
# 
# 
# High freq. dielectric constant tensor:
#      x y z
#    x 1.710640 0.000000 0.000000 
#    y 0.000000 1.696690 0.000000 
#    z 0.000000 0.000000 1.695780 
# 
# From -- ./inp_files/29626.got.cif
#   From: 2010.03.12/outbox.cif.g09.slc.cpg/sg51_15_cif.got.tgz:29626.got - 2010.04.16 13:43:02.
