data_PCOD8212484
_publ_section_title
;
Structure prediction by ZEFSAII (Michael W. Deem and Ramdas Pophale) SiO2 
 PCOD8212484
Probable space group: P M M A
;
_chemical_formula_sum "Si O2"
_cell_formula_units_Z 56
_cell_length_a 8.785652
_cell_length_b 23.543878
_cell_length_c 14.390863
_cell_angle_alpha 90.000000
_cell_angle_beta 90.000000
_cell_angle_gamma 90.000000
_cell_volume 2976.725818
_symmetry_space_group_name_H-M "P M M A"
_symmetry_group_IT_number 51
_symmetry_cell_setting 'orthorhombic'
loop_
_space_group_symop_operation_xyz
x,y,z
1/2-x,-y,z
1/2+x,-y,-z
-x,y,-z
-x,-y,-z
1/2+x,y,-z
1/2-x,y,z
x,-y,z
loop_
_atom_site_type_symbol
_atom_site_label
_atom_site_fract_x
_atom_site_fract_y
_atom_site_fract_z
Si Si1 0.570716 0.652281 0.601085
Si Si2 0.070373 0.936259 0.404716
Si Si3 0.928682 0.645136 0.100867
Si Si4 0.071682 0.435173 0.241834
Si Si5 0.074126 0.062970 0.900541
Si Si6 0.071226 0.733480 0.742219
Si Si7 0.570654 0.144579 0.758703
O O1 0.500000 0.643628 0.500000
O O2 0.750000 0.657396 0.589747
O O3 0.522754 0.598959 0.665596
O O4 0.509642 0.709352 0.649928
O O5 0.250000 0.935822 0.412797
O O6 0.013131 0.892638 0.327707
O O7 0.000000 0.914032 0.500000
O O8 0.011846 0.000000 0.381562
O O9 0.750000 0.640364 0.088101
O O10 0.975936 0.697940 0.166320
O O11 0.987968 0.587884 0.149993
O O12 0.000000 0.654033 0.000000
O O13 0.250000 0.428750 0.223795
O O14 0.022379 0.500000 0.257371
O O15 0.250000 0.082267 0.905304
O O16 0.973771 0.109273 0.848637
O O17 0.061420 0.000000 0.854450
O O18 0.000000 0.059718 0.000000
O O19 0.250000 0.730629 0.724970
O O20 0.019046 0.797063 0.758835
O O21 0.750000 0.156311 0.757071
#
# Coordination Sequence:
#
# PCOD8212484 Si02
#       7
#     8   8   8   8   8   8   8
#     4  10  20  36  58  82 110 146 185 224 272 324
#     4   9  19  35  54  77 105 137 173 214 262 317
#     4  10  21  37  58  81 107 143 182 223 271 320
#     4   9  19  36  57  83 115 147 181 222 265 315
#     4  10  21  37  57  81 109 142 180 223 273 329
#     4  10  22  39  56  78 108 141 184 232 273 320
#     4  11  22  36  56  81 110 143 179 223 276 330
#
# _framework density 18.812615000000001
#
# number of rings (size 3 to 8) (size 9 to 14) (size 15 to 20)
#    0.000    2.143    0.000    2.571    0.000    6.857 
#    0.000    4.286    0.000    0.000    0.000    0.000 
#    0.000    0.000    0.000    0.000    0.000    0.000 
#
# Total GULP energy -694493.635499 kJ/mol
# GULP energy per Si atom -12401.672062 kJ/mol
# Density = 1.876980 g / cm^3
# Si number density = 18.812615 Si / 1000 Ang^3
#
#
#
# Elastic Constant Matrix: (Units=GPa)
#
#
# Indices 1 2 3 4 5 6 
#
# 1 54.9661 26.3574 41.3246 0.0000 0.0000 0.0000
# 2 26.3574 119.2672 55.9761 0.0000 0.0000 0.0000
# 3 41.3246 55.9761 128.2346 0.0000 0.0000 0.0000
# 4 0.0000 0.0000 0.0000 25.3512 0.0000 0.0000
# 5 0.0000 0.0000 0.0000 0.0000 36.5325 0.0000
# 6 0.0000 0.0000 0.0000 0.0000 0.0000 33.6738
#
#
#
# Elastic Compliance Matrix: (Units=1/GPa)
#
#
# Indices 1 2 3 4 5 6 
#
# 1 0.024438 -0.002144 -0.006940 0.000000 0.000000 0.000000
# 2 -0.002144 0.010733 -0.003994 0.000000 0.000000 0.000000
# 3 -0.006940 -0.003994 0.011778 0.000000 0.000000 0.000000
# 4 0.000000 0.000000 0.000000 0.039446 0.000000 0.000000
# 5 0.000000 0.000000 0.000000 0.000000 0.027373 0.000000
# 6 0.000000 0.000000 0.000000 0.000000 0.000000 0.029697
#
#
# Mechanical properties :
#
#
# Convention : Reuss Voigt Hill
#
# Bulk Modulus (GPa) = 48.09053 61.08713 54.58883
# Shear Modulus (GPa) = 28.32034 31.03215 29.67625
#
# Velocity S-wave (km/s) = 3.88415 4.06586 3.97604
# Velocity P-wave (km/s) = 6.76268 7.38806 7.08228
#
# Compressibility (1/GPa) = 0.02079412
#
# Stress axis : x y z
#
# Youngs Moduli (GPa) = 40.91923 93.17139 84.90318
#
# Poissons Ratio (x) = 0.19973 0.58920
# Poissons Ratio (y) = 0.08772 0.33912
# Poissons Ratio (z) = 0.28397 0.37215
#
# Static dielectric constant tensor:
#      x y z
#    x 3.666970 0.000000 0.000000 
#    y 0.000000 3.547420 0.000000 
#    z 0.000000 0.000000 3.470690 
# 
# 
# High freq. dielectric constant tensor:
#      x y z
#    x 1.738980 0.000000 0.000000 
#    y 0.000000 1.731720 0.000000 
#    z 0.000000 0.000000 1.734120 
# 
# From -- ./inp_files/21859.got.cif
#   From: 2010.03.12/outbox.cif.g09.slc.cpg/sg51_11_cif.got.tgz:21859.got - 2010.04.16 13:43:02.
