data_PCOD8212304
_publ_section_title
;
Structure prediction by ZEFSAII (Michael W. Deem and Ramdas Pophale) SiO2 
 PCOD8212304
Probable space group: P M M A
;
_chemical_formula_sum "Si O2"
_cell_formula_units_Z 40
_cell_length_a 8.771962
_cell_length_b 14.186479
_cell_length_c 15.637695
_cell_angle_alpha 90.000000
_cell_angle_beta 90.000000
_cell_angle_gamma 90.000000
_cell_volume 1946.005662
_symmetry_space_group_name_H-M "P M M A"
_symmetry_group_IT_number 51
_symmetry_cell_setting 'orthorhombic'
loop_
_space_group_symop_operation_xyz
x,y,z
1/2-x,-y,z
1/2+x,-y,-z
-x,y,-z
-x,-y,-z
1/2+x,y,-z
1/2-x,y,z
x,-y,z
loop_
_atom_site_type_symbol
_atom_site_label
_atom_site_fract_x
_atom_site_fract_y
_atom_site_fract_z
Si Si1 0.069981 0.221098 0.586013
Si Si2 0.428889 0.213306 0.086102
Si Si3 0.928446 0.606580 0.151922
Si Si4 0.072608 0.109243 0.755066
Si Si5 0.926468 0.606906 0.666188
O O1 0.250000 0.231179 0.577030
O O2 0.023108 0.155949 0.665753
O O3 0.000000 0.175042 0.500000
O O4 0.993379 0.324039 0.594731
O O5 0.250000 0.208548 0.078120
O O6 0.481684 0.322081 0.091224
O O7 0.479679 0.154800 0.168163
O O8 0.500000 0.168404 0.000000
O O9 0.750000 0.627046 0.144310
O O10 0.969819 0.500000 0.124177
O O11 0.976932 0.625445 0.248851
O O12 0.250000 0.126389 0.773150
O O13 0.031105 0.000000 0.749241
O O14 0.750000 0.629295 0.685405
O O15 0.947430 0.500000 0.633619
#
# Coordination Sequence:
#
# PCOD8212304 Si02
#       5
#     8   8   8   8   8
#     4  11  23  39  63  92 126 165 207 256 309 367
#     4  12  25  41  65  94 127 165 208 256 308 368
#     4  10  20  36  60  90 126 167 208 251 303 363
#     4  10  23  45  69  92 122 160 204 258 317 374
#     4  10  20  35  58  89 125 165 208 253 303 362
#
# _framework density 20.554922999999999
#
# number of rings (size 3 to 8) (size 9 to 14) (size 15 to 20)
#    0.000    1.400    2.000    3.600    0.000    5.200 
#    0.000    0.000    0.000    0.000    0.000    0.000 
#    0.000    0.000    0.000    0.000    0.000    0.000 
#
# Total GULP energy -496183.294162 kJ/mol
# GULP energy per Si atom -12404.582354 kJ/mol
# Density = 2.050814 g / cm^3
# Si number density = 20.554923 Si / 1000 Ang^3
#
#
#
# Elastic Constant Matrix: (Units=GPa)
#
#
# Indices 1 2 3 4 5 6 
#
# 1 125.1264 58.6787 73.2607 0.0000 0.0000 0.0000
# 2 58.6787 109.1840 61.0993 0.0000 0.0000 0.0000
# 3 73.2607 61.0993 147.6139 0.0000 0.0000 0.0000
# 4 0.0000 0.0000 0.0000 6.5699 0.0000 0.0000
# 5 0.0000 0.0000 0.0000 0.0000 39.1215 0.0000
# 6 0.0000 0.0000 0.0000 0.0000 0.0000 24.6378
#
#
#
# Elastic Compliance Matrix: (Units=1/GPa)
#
#
# Indices 1 2 3 4 5 6 
#
# 1 0.012629 -0.004268 -0.004501 0.000000 0.000000 0.000000
# 2 -0.004268 0.013362 -0.003412 0.000000 0.000000 0.000000
# 3 -0.004501 -0.003412 0.010421 0.000000 0.000000 0.000000
# 4 0.000000 0.000000 0.000000 0.152210 0.000000 0.000000
# 5 0.000000 0.000000 0.000000 0.000000 0.025561 0.000000
# 6 0.000000 0.000000 0.000000 0.000000 0.000000 0.040588
#
#
# Mechanical properties :
#
#
# Convention : Reuss Voigt Hill
#
# Bulk Modulus (GPa) = 82.99886 85.33354 84.16620
# Shear Modulus (GPa) = 17.65841 26.65821 22.15831
#
# Velocity S-wave (km/s) = 2.93419 3.60519 3.28686
# Velocity P-wave (km/s) = 7.20736 7.67691 7.44584
#
# Compressibility (1/GPa) = 0.01204836
#
# Stress axis : x y z
#
# Youngs Moduli (GPa) = 79.18348 74.83664 95.96262
#
# Poissons Ratio (x) = 0.31943 0.43192
# Poissons Ratio (y) = 0.33799 0.32747
# Poissons Ratio (z) = 0.35640 0.25538
#
# Static dielectric constant tensor:
#      x y z
#    x 3.736210 0.000000 0.000000 
#    y 0.000000 3.821810 0.000000 
#    z 0.000000 0.000000 3.711140 
# 
# 
# High freq. dielectric constant tensor:
#      x y z
#    x 1.811740 0.000000 0.000000 
#    y 0.000000 1.800890 0.000000 
#    z 0.000000 0.000000 1.805990 
# 
# From -- ./inp_files/20472.got.cif
#   From: 2010.03.12/outbox.cif.g09.slc.cpg/sg51_11_cif.got.tgz:20472.got - 2010.04.16 13:43:02.
