data_PCOD8212114
_publ_section_title
;
Structure prediction by ZEFSAII (Michael W. Deem and Ramdas Pophale) SiO2 
 PCOD8212114
Probable space group: P M M A
;
_chemical_formula_sum "Si O2"
_cell_formula_units_Z 64
_cell_length_a 9.503880
_cell_length_b 22.235142
_cell_length_c 16.499722
_cell_angle_alpha 90.000000
_cell_angle_beta 90.000000
_cell_angle_gamma 90.000000
_cell_volume 3486.723255
_symmetry_space_group_name_H-M "P M M A"
_symmetry_group_IT_number 51
_symmetry_cell_setting 'orthorhombic'
loop_
_space_group_symop_operation_xyz
x,y,z
1/2-x,-y,z
1/2+x,-y,-z
-x,y,-z
-x,-y,-z
1/2+x,y,-z
1/2-x,y,z
x,-y,z
loop_
_atom_site_type_symbol
_atom_site_label
_atom_site_fract_x
_atom_site_fract_y
_atom_site_fract_z
Si Si1 0.583687 0.868154 0.250992
Si Si2 0.903320 0.644021 0.220461
Si Si3 0.596931 0.565743 0.067417
Si Si4 0.413297 0.569347 0.626455
Si Si5 0.913112 0.070422 0.079342
Si Si6 0.089074 0.252768 0.265952
Si Si7 0.589347 0.321871 0.568902
Si Si8 0.412193 0.929388 0.578374
O O1 0.750000 0.856006 0.251350
O O2 0.540683 0.901117 0.166365
O O3 0.498772 0.806830 0.253259
O O4 0.540032 0.903466 0.333642
O O5 0.750000 0.672527 0.242834
O O6 0.898062 0.614528 0.135069
O O7 0.937963 0.589807 0.281420
O O8 0.021254 0.694867 0.212357
O O9 0.750000 0.557460 0.029142
O O10 0.540509 0.500000 0.096615
O O11 0.500000 0.594584 0.000000
O O12 0.250000 0.577200 0.600583
O O13 0.460866 0.500000 0.616138
O O14 0.515421 0.612796 0.576208
O O15 0.750000 0.084733 0.062007
O O16 0.940893 0.000000 0.089415
O O17 0.000000 0.094609 0.000000
O O18 0.250000 0.241829 0.239894
O O19 0.077298 0.276858 0.356832
O O20 0.500000 0.287466 0.500000
O O21 0.750000 0.332962 0.543654
O O22 0.500000 0.904438 0.500000
O O23 0.250000 0.913101 0.561441
O O24 0.436556 0.000000 0.585746
#
# Coordination Sequence:
#
# PCOD8212114 Si02
#       8
#     8   8   8   8   8   8   8   8
#     4  10  20  35  56  79 106 143 181 215 257 310
#     4   9  17  32  52  70  93 127 164 200 242 296
#     4   9  17  29  47  73 101 126 155 194 241 295
#     4   9  17  30  50  74  96 121 156 199 249 303
#     4   9  18  34  57  85 114 142 174 213 258 309
#     4  10  22  37  52  73  99 127 167 215 254 291
#     4  10  21  36  52  70  95 128 164 205 252 300
#     4   9  18  33  53  79 111 144 177 214 257 307
#
# _framework density 18.355343999999999
#
# number of rings (size 3 to 8) (size 9 to 14) (size 15 to 20)
#    0.000    2.625    0.000    1.500    0.000    7.000 
#    0.000    3.125    0.000    6.000    0.000    0.000 
#    0.000    0.000    0.000    0.000    0.000    0.000 
#
# Total GULP energy -792868.681380 kJ/mol
# GULP energy per Si atom -12388.573147 kJ/mol
# Density = 1.831357 g / cm^3
# Si number density = 18.355344 Si / 1000 Ang^3
#
#
#
# Elastic Constant Matrix: (Units=GPa)
#
#
# Indices 1 2 3 4 5 6 
#
# 1 93.1769 40.7562 58.6897 0.0000 0.0000 0.0000
# 2 40.7562 67.0770 36.7880 0.0000 0.0000 0.0000
# 3 58.6897 36.7880 117.6672 0.0000 0.0000 0.0000
# 4 0.0000 0.0000 0.0000 14.6884 0.0000 0.0000
# 5 0.0000 0.0000 0.0000 0.0000 31.3245 0.0000
# 6 0.0000 0.0000 0.0000 0.0000 0.0000 26.1529
#
#
#
# Elastic Compliance Matrix: (Units=1/GPa)
#
#
# Indices 1 2 3 4 5 6 
#
# 1 0.018225 -0.007348 -0.006793 0.000000 0.000000 0.000000
# 2 -0.007348 0.020956 -0.002887 0.000000 0.000000 0.000000
# 3 -0.006793 -0.002887 0.012789 0.000000 0.000000 0.000000
# 4 0.000000 0.000000 0.000000 0.068081 0.000000 0.000000
# 5 0.000000 0.000000 0.000000 0.000000 0.031924 0.000000
# 6 0.000000 0.000000 0.000000 0.000000 0.000000 0.038237
#
#
# Mechanical properties :
#
#
# Convention : Reuss Voigt Hill
#
# Bulk Modulus (GPa) = 55.81931 61.15433 58.48682
# Shear Modulus (GPa) = 21.71656 23.87898 22.79777
#
# Velocity S-wave (km/s) = 3.44338 3.61075 3.52806
# Velocity P-wave (km/s) = 6.80335 7.12549 6.96628
#
# Compressibility (1/GPa) = 0.01791495
#
# Stress axis : x y z
#
# Youngs Moduli (GPa) = 54.86961 47.71855 78.19089
#
# Poissons Ratio (x) = 0.35064 0.53114
# Poissons Ratio (y) = 0.40319 0.22572
# Poissons Ratio (z) = 0.37272 0.13775
#
# Static dielectric constant tensor:
#      x y z
#    x 3.616040 0.000000 0.000000 
#    y 0.000000 3.200380 0.000000 
#    z 0.000000 0.000000 8.554110 
# 
# 
# High freq. dielectric constant tensor:
#      x y z
#    x 1.712770 0.000000 0.000000 
#    y 0.000000 1.697740 0.000000 
#    z 0.000000 0.000000 1.713900 
# 
# From -- ./inp_files/28381.got.cif
#   From: 2010.03.12/outbox.cif.g09.slc.cpg/sg51_15_cif.got.tgz:28381.got - 2010.04.16 13:43:02.
