data_PCOD8212080
_publ_section_title
;
Structure prediction by ZEFSAII (Michael W. Deem and Ramdas Pophale) SiO2 
 PCOD8212080
Probable space group: P M M A
;
_chemical_formula_sum "Si O2"
_cell_formula_units_Z 40
_cell_length_a 13.806591
_cell_length_b 15.557654
_cell_length_c 8.572005
_cell_angle_alpha 90.000000
_cell_angle_beta 90.000000
_cell_angle_gamma 90.000000
_cell_volume 1841.250950
_symmetry_space_group_name_H-M "P M M A"
_symmetry_group_IT_number 51
_symmetry_cell_setting 'orthorhombic'
loop_
_space_group_symop_operation_xyz
x,y,z
1/2-x,-y,z
1/2+x,-y,-z
-x,y,-z
-x,-y,-z
1/2+x,y,-z
1/2-x,y,z
x,-y,z
loop_
_atom_site_type_symbol
_atom_site_label
_atom_site_fract_x
_atom_site_fract_y
_atom_site_fract_z
Si Si1 0.860157 0.753910 0.916091
Si Si2 0.048537 0.904319 0.257250
Si Si3 0.359205 0.859528 0.581099
Si Si4 0.033511 0.406558 0.176397
Si Si5 0.857204 0.312454 0.261001
O O1 0.750000 0.777249 0.877143
O O2 0.927896 0.834856 0.875329
O O3 0.887604 0.669568 0.812555
O O4 0.876673 0.736810 0.098195
O O5 0.115332 0.882299 0.404892
O O6 0.935046 0.903907 0.302127
O O7 0.073637 0.000000 0.196037
O O8 0.250000 0.891363 0.620420
O O9 0.365825 0.756347 0.600060
O O10 0.074999 0.500000 0.230963
O O11 0.939340 0.384668 0.283158
O O12 0.000000 0.414729 0.000000
O O13 0.750000 0.355065 0.259316
#
# Coordination Sequence:
#
# PCOD8212080 Si02
#       5
#     8   8   8   8   8
#     4  10  20  35  55  80 113 146 181 225 269 318
#     4  11  23  37  56  80 107 145 185 223 270 320
#     4  10  20  36  57  79 107 141 180 224 268 319
#     4   9  17  31  54  82 111 141 177 222 270 320
#     4   9  18  34  57  81 110 145 178 219 272 322
#
# _framework density 21.724359
#
# number of rings (size 3 to 8) (size 9 to 14) (size 15 to 20)
#    0.000    2.200    2.000    1.800    0.000    3.600 
#    0.000    7.000    0.000    9.600    0.000    2.800 
#    0.000    0.000    0.000    0.000    0.000    0.000 
#
# Total GULP energy -495820.928623 kJ/mol
# GULP energy per Si atom -12395.523216 kJ/mol
# Density = 2.167491 g / cm^3
# Si number density = 21.724359 Si / 1000 Ang^3
#
#
#
# Elastic Constant Matrix: (Units=GPa)
#
#
# Indices 1 2 3 4 5 6 
#
# 1 109.7822 35.1365 16.1963 0.0000 0.0000 0.0000
# 2 35.1365 134.2222 13.1227 0.0000 0.0000 0.0000
# 3 16.1963 13.1227 14.7998 0.0000 0.0000 0.0000
# 4 0.0000 0.0000 0.0000 12.4994 0.0000 0.0000
# 5 0.0000 0.0000 0.0000 0.0000 19.6886 0.0000
# 6 0.0000 0.0000 0.0000 0.0000 0.0000 17.2655
#
#
#
# Elastic Compliance Matrix: (Units=1/GPa)
#
#
# Indices 1 2 3 4 5 6 
#
# 1 0.011295 -0.001914 -0.010663 0.000000 0.000000 0.000000
# 2 -0.001914 0.008482 -0.005426 0.000000 0.000000 0.000000
# 3 -0.010663 -0.005426 0.084049 0.000000 0.000000 0.000000
# 4 0.000000 0.000000 0.000000 0.080004 0.000000 0.000000
# 5 0.000000 0.000000 0.000000 0.000000 0.050791 0.000000
# 6 0.000000 0.000000 0.000000 0.000000 0.000000 0.057919
#
#
# Mechanical properties :
#
#
# Convention : Reuss Voigt Hill
#
# Bulk Modulus (GPa) = 14.74512 43.07947 28.91230
# Shear Modulus (GPa) = 14.23883 22.84729 18.54306
#
# Velocity S-wave (km/s) = 2.56292 3.24649 2.92475
# Velocity P-wave (km/s) = 3.94464 5.82461 4.97424
#
# Compressibility (1/GPa) = 0.06781903
#
# Stress axis : x y z
#
# Youngs Moduli (GPa) = 88.53661 117.89790 11.89779
#
# Poissons Ratio (x) = 0.22568 0.12687
# Poissons Ratio (y) = 0.16948 0.06456
# Poissons Ratio (z) = 0.94409 0.63971
#
# Static dielectric constant tensor:
#      x y z
#    x 4.145840 0.000000 0.000000 
#    y 0.000000 4.130680 0.000000 
#    z 0.000000 0.000000 3.537030 
# 
# 
# High freq. dielectric constant tensor:
#      x y z
#    x 1.862390 0.000000 0.000000 
#    y 0.000000 1.844130 0.000000 
#    z 0.000000 0.000000 1.814360 
# 
# From -- ./inp_files/7940.got.cif
#   From: 2010.03.12/outbox.cif.g09.slc.cpg/sg51_4_cif.got.tgz:7940.got - 2010.04.16 13:43:02.
