data_PCOD8212189
_publ_section_title
;
Structure prediction by ZEFSAII (Michael W. Deem and Ramdas Pophale) SiO2 
 PCOD8212189
Probable space group: P M M A
;
_chemical_formula_sum "Si O2"
_cell_formula_units_Z 48
_cell_length_a 19.104141
_cell_length_b 7.975373
_cell_length_c 14.880349
_cell_angle_alpha 90.000000
_cell_angle_beta 90.000000
_cell_angle_gamma 90.000000
_cell_volume 2267.209411
_symmetry_space_group_name_H-M "P M M A"
_symmetry_group_IT_number 51
_symmetry_cell_setting 'orthorhombic'
loop_
_space_group_symop_operation_xyz
x,y,z
1/2-x,-y,z
1/2+x,-y,-z
-x,y,-z
-x,-y,-z
1/2+x,y,-z
1/2-x,y,z
x,-y,z
loop_
_atom_site_type_symbol
_atom_site_label
_atom_site_fract_x
_atom_site_fract_y
_atom_site_fract_z
Si Si1 0.828850 0.500000 0.691225
Si Si2 0.421236 0.801437 0.004473
Si Si3 0.670265 0.805276 0.158540
Si Si4 0.169822 0.193634 0.174946
Si Si5 0.032503 0.500000 0.399382
Si Si6 0.672350 0.691879 0.354120
Si Si7 0.467274 0.821984 0.597696
O O1 0.750000 0.500000 0.652063
O O2 0.842057 0.328515 0.746183
O O3 0.883220 0.500000 0.607378
O O4 0.381978 0.748755 0.095619
O O5 0.422332 0.000000 0.997882
O O6 0.500000 0.727933 0.000000
O O7 0.378748 0.729904 0.919378
O O8 0.750000 0.777836 0.127704
O O9 0.653330 0.705196 0.249119
O O10 0.654706 0.000000 0.177154
O O11 0.250000 0.205025 0.140564
O O12 0.154310 0.000000 0.206245
O O13 0.000000 0.500000 0.500000
O O14 0.002586 0.333704 0.349012
O O15 0.750000 0.766314 0.372107
O O16 0.668719 0.500000 0.384083
O O17 0.616193 0.795009 0.412248
O O18 0.500000 0.831515 0.500000
O O19 0.481355 0.000000 0.647688
#
# Coordination Sequence:
#
# PCOD8212189 Si02
#       7
#     4   8   8   8   4   8   8
#     4  10  22  40  63  91 116 151 204 251 299 358
#     4   9  17  30  49  77 112 152 200 247 293 344
#     4   9  17  30  49  73 106 151 197 240 289 343
#     4   9  18  35  58  83 115 155 200 252 302 347
#     4  10  22  42  62  87 124 151 186 239 297 366
#     4  10  20  35  56  86 121 157 199 247 298 353
#     4  10  21  39  63  88 117 155 193 236 298 365
#
# _framework density 21.171399999999998
#
# number of rings (size 3 to 8) (size 9 to 14) (size 15 to 20)
#    0.000    2.500    0.833    1.000    0.000    5.000 
#    1.500    5.417    0.000    1.000    0.000    0.000 
#    0.000    0.000    0.000    0.000    0.000    0.000 
#
# Total GULP energy -594783.057089 kJ/mol
# GULP energy per Si atom -12391.313689 kJ/mol
# Density = 2.112321 g / cm^3
# Si number density = 21.171400 Si / 1000 Ang^3
#
#
#
# Elastic Constant Matrix: (Units=GPa)
#
#
# Indices 1 2 3 4 5 6 
#
# 1 176.3831 46.9052 65.5228 0.0000 0.0000 0.0000
# 2 46.9052 127.1850 17.8724 0.0000 0.0000 0.0000
# 3 65.5228 17.8724 63.4980 0.0000 0.0000 0.0000
# 4 0.0000 0.0000 0.0000 15.1566 0.0000 0.0000
# 5 0.0000 0.0000 0.0000 0.0000 41.4236 0.0000
# 6 0.0000 0.0000 0.0000 0.0000 0.0000 19.4617
#
#
#
# Elastic Compliance Matrix: (Units=1/GPa)
#
#
# Indices 1 2 3 4 5 6 
#
# 1 0.009791 -0.002281 -0.009461 0.000000 0.000000 0.000000
# 2 -0.002281 0.008718 -0.000100 0.000000 0.000000 0.000000
# 3 -0.009461 -0.000100 0.025539 0.000000 0.000000 0.000000
# 4 0.000000 0.000000 0.000000 0.065978 0.000000 0.000000
# 5 0.000000 0.000000 0.000000 0.000000 0.024141 0.000000
# 6 0.000000 0.000000 0.000000 0.000000 0.000000 0.051383
#
#
# Mechanical properties :
#
#
# Convention : Reuss Voigt Hill
#
# Bulk Modulus (GPa) = 49.10621 69.74076 59.42348
# Shear Modulus (GPa) = 23.14594 30.99276 27.06935
#
# Velocity S-wave (km/s) = 3.31004 3.83024 3.57960
# Velocity P-wave (km/s) = 6.15252 7.25076 6.72410
#
# Compressibility (1/GPa) = 0.02036402
#
# Stress axis : x y z
#
# Youngs Moduli (GPa) = 102.13889 114.70649 39.15585
#
# Poissons Ratio (x) = 0.26168 0.37044
# Poissons Ratio (y) = 0.23301 0.00391
# Poissons Ratio (z) = 0.96630 0.01144
#
# Static dielectric constant tensor:
#      x y z
#    x 4.200940 0.000000 0.000000 
#    y 0.000000 4.978430 0.000000 
#    z 0.000000 0.000000 3.365090 
# 
# 
# High freq. dielectric constant tensor:
#      x y z
#    x 1.841980 0.000000 0.000000 
#    y 0.000000 1.832120 0.000000 
#    z 0.000000 0.000000 1.787730 
# 
# From -- ./inp_files/24968.got.cif
#   From: 2010.03.12/outbox.cif.g09.slc.cpg/sg51_13_cif.got.tgz:24968.got - 2010.04.16 13:43:02.
