data_PCOD8212976
_publ_section_title
;
Structure prediction by ZEFSAII (Michael W. Deem and Ramdas Pophale) SiO2 
 PCOD8212976
Probable space group: P M M A
;
_chemical_formula_sum "Si O2"
_cell_formula_units_Z 48
_cell_length_a 15.097003
_cell_length_b 9.324852
_cell_length_c 17.225497
_cell_angle_alpha 90.000000
_cell_angle_beta 90.000000
_cell_angle_gamma 90.000000
_cell_volume 2424.959280
_symmetry_space_group_name_H-M "P M M A"
_symmetry_group_IT_number 51
_symmetry_cell_setting 'orthorhombic'
loop_
_space_group_symop_operation_xyz
x,y,z
1/2-x,-y,z
1/2+x,-y,-z
-x,y,-z
-x,-y,-z
1/2+x,y,-z
1/2-x,y,z
x,-y,z
loop_
_atom_site_type_symbol
_atom_site_label
_atom_site_fract_x
_atom_site_fract_y
_atom_site_fract_z
Si Si1 0.603570 0.659514 0.997531
Si Si2 0.852700 0.841849 0.849031
Si Si3 0.647964 0.341711 0.165816
Si Si4 0.351789 0.666583 0.297659
Si Si5 0.145667 0.832936 0.688624
Si Si6 0.509203 0.333861 0.410199
O O1 0.645016 0.500000 0.985142
O O2 0.634824 0.724320 0.080075
O O3 0.500000 0.647725 0.000000
O O4 0.633855 0.764229 0.930416
O O5 0.750000 0.859157 0.833885
O O6 0.890658 0.750312 0.777233
O O7 0.897394 0.000000 0.851330
O O8 0.750000 0.360065 0.184019
O O9 0.601959 0.500000 0.171008
O O10 0.609334 0.235115 0.230659
O O11 0.250000 0.709269 0.318787
O O12 0.356646 0.500000 0.276304
O O13 0.415692 0.705433 0.369431
O O14 0.250000 0.805524 0.674821
O O15 0.091051 0.760051 0.619764
O O16 0.123874 0.000000 0.691368
O O17 0.500000 0.296778 0.500000
O O18 0.532951 0.500000 0.396445
#
# Coordination Sequence:
#
# PCOD8212976 Si02
#       6
#     8   8   8   8   8   8
#     4  10  21  34  51  79 112 146 186 232 279 328
#     4  10  21  36  54  78 109 146 187 230 277 329
#     4   9  18  34  55  77 105 146 192 235 279 327
#     4   9  19  37  60  84 113 150 190 232 281 340
#     4  10  22  39  59  85 118 156 194 233 283 341
#     4  10  22  39  62  91 118 147 186 235 289 343
#
# _framework density 19.794145
#
# number of rings (size 3 to 8) (size 9 to 14) (size 15 to 20)
#    0.000    2.333    0.000    1.500    2.333    5.333 
#    0.000    3.333    0.000    2.000    0.000    0.000 
#    0.000    0.000    0.000    0.000    0.000    0.000 
#
# Total GULP energy -595097.694811 kJ/mol
# GULP energy per Si atom -12397.868642 kJ/mol
# Density = 1.974909 g / cm^3
# Si number density = 19.794145 Si / 1000 Ang^3
#
#
#
# Elastic Constant Matrix: (Units=GPa)
#
#
# Indices 1 2 3 4 5 6 
#
# 1 61.1901 46.7594 49.5616 0.0000 0.0000 0.0000
# 2 46.7594 117.2541 89.9578 0.0000 0.0000 0.0000
# 3 49.5616 89.9578 178.1925 0.0000 0.0000 0.0000
# 4 0.0000 0.0000 0.0000 9.7271 0.0000 0.0000
# 5 0.0000 0.0000 0.0000 0.0000 32.1019 0.0000
# 6 0.0000 0.0000 0.0000 0.0000 0.0000 23.5239
#
#
#
# Elastic Compliance Matrix: (Units=1/GPa)
#
#
# Indices 1 2 3 4 5 6 
#
# 1 0.024494 -0.007412 -0.003071 0.000000 0.000000 0.000000
# 2 -0.007412 0.016163 -0.006098 0.000000 0.000000 0.000000
# 3 -0.003071 -0.006098 0.009544 0.000000 0.000000 0.000000
# 4 0.000000 0.000000 0.000000 0.102806 0.000000 0.000000
# 5 0.000000 0.000000 0.000000 0.000000 0.031151 0.000000
# 6 0.000000 0.000000 0.000000 0.000000 0.000000 0.042510
#
#
# Mechanical properties :
#
#
# Convention : Reuss Voigt Hill
#
# Bulk Modulus (GPa) = 58.68705 81.02160 69.85432
# Shear Modulus (GPa) = 18.83180 24.42777 21.62978
#
# Velocity S-wave (km/s) = 3.08779 3.51677 3.30924
# Velocity P-wave (km/s) = 6.51350 7.58362 7.06884
#
# Compressibility (1/GPa) = 0.01703954
#
# Stress axis : x y z
#
# Youngs Moduli (GPa) = 40.82703 61.87127 104.77278
#
# Poissons Ratio (x) = 0.45858 0.32174
# Poissons Ratio (y) = 0.30260 0.63890
# Poissons Ratio (z) = 0.12537 0.37729
#
# Static dielectric constant tensor:
#      x y z
#    x 3.535630 0.000000 0.000000 
#    y 0.000000 3.904860 0.000000 
#    z 0.000000 0.000000 3.450980 
# 
# 
# High freq. dielectric constant tensor:
#      x y z
#    x 1.767480 0.000000 0.000000 
#    y 0.000000 1.766010 0.000000 
#    z 0.000000 0.000000 1.771110 
# 
# From -- ./inp_files/29399.got.cif
#   From: 2010.03.12/outbox.cif.g09.slc.cpg/sg51_15_cif.got.tgz:29399.got - 2010.04.16 13:43:02.
