data_PCOD8212169
_publ_section_title
;
Structure prediction by ZEFSAII (Michael W. Deem and Ramdas Pophale) SiO2 
 PCOD8212169
Probable space group: P M M A
;
_chemical_formula_sum "Si O2"
_cell_formula_units_Z 48
_cell_length_a 8.934662
_cell_length_b 9.772001
_cell_length_c 29.331127
_cell_angle_alpha 90.000000
_cell_angle_beta 90.000000
_cell_angle_gamma 90.000000
_cell_volume 2560.886795
_symmetry_space_group_name_H-M "P M M A"
_symmetry_group_IT_number 51
_symmetry_cell_setting 'orthorhombic'
loop_
_space_group_symop_operation_xyz
x,y,z
1/2-x,-y,z
1/2+x,-y,-z
-x,y,-z
-x,-y,-z
1/2+x,y,-z
1/2-x,y,z
x,-y,z
loop_
_atom_site_type_symbol
_atom_site_label
_atom_site_fract_x
_atom_site_fract_y
_atom_site_fract_z
Si Si1 0.574739 0.234828 0.104281
Si Si2 0.077276 0.160038 0.192988
Si Si3 0.075191 0.157316 0.712751
Si Si4 0.574095 0.000000 0.951089
Si Si5 0.573306 0.155917 0.452625
Si Si6 0.072167 0.343997 0.629346
Si Si7 0.078987 0.500000 0.951847
O O1 0.750000 0.196645 0.102560
O O2 0.520500 0.243674 0.156475
O O3 0.474461 0.129204 0.077428
O O4 0.535875 0.374118 0.079503
O O5 0.250000 0.203101 0.189412
O O6 0.017559 0.198087 0.242752
O O7 0.055068 0.000000 0.183006
O O8 0.250000 0.177696 0.723144
O O9 0.018095 0.260072 0.673604
O O10 0.043740 0.000000 0.697984
O O11 0.750000 0.000000 0.958127
O O12 0.500000 0.000000 0.000000
O O13 0.500000 0.200252 0.500000
O O14 0.750000 0.168079 0.457790
O O15 0.512070 0.261219 0.414608
O O16 0.528221 0.000000 0.439384
O O17 0.250000 0.346851 0.628310
O O18 0.008948 0.500000 0.629856
O O19 0.250000 0.500000 0.965334
O O20 0.000000 0.500000 0.000000
#
# Coordination Sequence:
#
# PCOD8212169 Si02
#       7
#     8   8   8   4   8   8   4
#     4  11  22  39  61  85 113 146 186 230 275 326
#     4  10  20  35  56  83 112 140 177 222 272 326
#     4   9  17  31  53  76  98 131 174 216 262 314
#     4  12  24  38  58  88 118 148 186 228 275 328
#     4   9  17  30  49  73 101 134 174 218 262 314
#     4   9  17  30  49  74 102 133 173 220 266 313
#     4  10  24  42  60  84 112 146 186 226 269 324
#
# _framework density 18.743507000000001
#
# number of rings (size 3 to 8) (size 9 to 14) (size 15 to 20)
#    0.000    2.167    0.833    2.750    0.000    5.667 
#    1.500    0.833    0.000    5.000    0.000    0.000 
#    0.000    0.000    0.000    0.000    0.000    0.000 
#
# Total GULP energy -595197.279240 kJ/mol
# GULP energy per Si atom -12399.943318 kJ/mol
# Density = 1.870085 g / cm^3
# Si number density = 18.743507 Si / 1000 Ang^3
#
#
#
# Elastic Constant Matrix: (Units=GPa)
#
#
# Indices 1 2 3 4 5 6 
#
# 1 73.6074 44.0393 54.1687 0.0000 0.0000 0.0000
# 2 44.0393 130.4338 87.1732 0.0000 0.0000 0.0000
# 3 54.1687 87.1732 168.3961 0.0000 0.0000 0.0000
# 4 0.0000 0.0000 0.0000 39.7808 0.0000 0.0000
# 5 0.0000 0.0000 0.0000 0.0000 33.6163 0.0000
# 6 0.0000 0.0000 0.0000 0.0000 0.0000 21.3898
#
#
#
# Elastic Compliance Matrix: (Units=1/GPa)
#
#
# Indices 1 2 3 4 5 6 
#
# 1 0.018803 -0.003526 -0.004223 0.000000 0.000000 0.000000
# 2 -0.003526 0.012384 -0.005276 0.000000 0.000000 0.000000
# 3 -0.004223 -0.005276 0.010028 0.000000 0.000000 0.000000
# 4 0.000000 0.000000 0.000000 0.025138 0.000000 0.000000
# 5 0.000000 0.000000 0.000000 0.000000 0.029747 0.000000
# 6 0.000000 0.000000 0.000000 0.000000 0.000000 0.046751
#
#
# Mechanical properties :
#
#
# Convention : Reuss Voigt Hill
#
# Bulk Modulus (GPa) = 65.94661 82.57776 74.26218
# Shear Modulus (GPa) = 28.74266 31.42777 30.08521
#
# Velocity S-wave (km/s) = 3.92021 4.09923 4.01072
# Velocity P-wave (km/s) = 7.46664 8.15826 7.82010
#
# Compressibility (1/GPa) = 0.01516378
#
# Stress axis : x y z
#
# Youngs Moduli (GPa) = 53.18252 80.75169 99.71860
#
# Poissons Ratio (x) = 0.28475 0.42112
# Poissons Ratio (y) = 0.18753 0.52615
# Poissons Ratio (z) = 0.22459 0.42607
#
# Static dielectric constant tensor:
#      x y z
#    x 3.272190 0.000000 0.000000 
#    y 0.000000 3.481570 0.000000 
#    z 0.000000 0.000000 4.554140 
# 
# 
# High freq. dielectric constant tensor:
#      x y z
#    x 1.711240 0.000000 0.000000 
#    y 0.000000 1.721160 0.000000 
#    z 0.000000 0.000000 1.742720 
# 
# From -- ./inp_files/37201.got.cif
#   From: 2010.03.12/outbox.cif.g09.slc.cpg/sg51_19_cif.got.tgz:37201.got - 2010.04.16 13:43:02.
