data_PCOD8212930
_publ_section_title
;
Structure prediction by ZEFSAII (Michael W. Deem and Ramdas Pophale) SiO2 
 PCOD8212930
Probable space group: P M M A
;
_chemical_formula_sum "Si O2"
_cell_formula_units_Z 64
_cell_length_a 19.174873
_cell_length_b 9.168863
_cell_length_c 21.436903
_cell_angle_alpha 90.000000
_cell_angle_beta 90.000000
_cell_angle_gamma 90.000000
_cell_volume 3768.860151
_symmetry_space_group_name_H-M "P M M A"
_symmetry_group_IT_number 51
_symmetry_cell_setting 'orthorhombic'
loop_
_space_group_symop_operation_xyz
x,y,z
1/2-x,-y,z
1/2+x,-y,-z
-x,y,-z
-x,-y,-z
1/2+x,y,-z
1/2-x,y,z
x,-y,z
loop_
_atom_site_type_symbol
_atom_site_label
_atom_site_fract_x
_atom_site_fract_y
_atom_site_fract_z
Si Si1 0.439185 0.829721 0.307629
Si Si2 0.483554 0.329178 0.194758
Si Si3 0.590920 0.835112 0.358937
Si Si4 0.670083 0.830417 0.589963
Si Si5 0.329749 0.671461 0.535546
Si Si6 0.174466 0.668332 0.882638
Si Si7 0.530217 0.671643 0.063251
Si Si8 0.122975 0.167364 0.775340
O O1 0.428408 0.750425 0.240436
O O2 0.512368 0.788681 0.340411
O O3 0.376650 0.778226 0.352118
O O4 0.436442 0.000000 0.293329
O O5 0.476739 0.500000 0.206192
O O6 0.477415 0.291263 0.120684
O O7 0.558549 0.273671 0.214532
O O8 0.619383 0.726478 0.410640
O O9 0.641449 0.825442 0.298150
O O10 0.591342 0.000000 0.385446
O O11 0.750000 0.796953 0.607407
O O12 0.646243 0.742130 0.529300
O O13 0.657825 0.000000 0.575561
O O14 0.250000 0.716449 0.550760
O O15 0.338126 0.500000 0.529358
O O16 0.250000 0.683052 0.917219
O O17 0.160318 0.500000 0.864291
O O18 0.109747 0.728144 0.924281
O O19 0.182403 0.765765 0.819684
O O20 0.534920 0.500000 0.053770
O O21 0.500000 0.745043 0.000000
O O22 0.105715 0.000000 0.793879
#
# Coordination Sequence:
#
# PCOD8212930 Si02
#       8
#     8   8   8   8   8   8   8   8
#     4   9  18  32  50  72  95 118 149 192 235 274
#     4   9  16  27  46  70  93 118 148 184 227 270
#     4   9  18  31  46  65  90 120 151 183 223 274
#     4   9  18  34  54  70  86 116 156 192 231 282
#     4  10  21  34  46  63  89 119 151 191 235 276
#     4   9  17  28  43  65  91 119 154 195 233 269
#     4   8  14  26  45  67  91 121 155 186 219 266
#     4   9  17  29  44  63  89 120 151 184 224 269
#
# _framework density 16.981262000000001
#
# number of rings (size 3 to 8) (size 9 to 14) (size 15 to 20)
#    0.000    3.000    0.000    2.625    0.000    5.000 
#    0.000    5.000    0.000   10.125    0.000    1.750 
#    0.000    0.000    0.000    0.000    0.000    0.000 
#
# Total GULP energy -792968.244812 kJ/mol
# GULP energy per Si atom -12390.128825 kJ/mol
# Density = 1.694261 g / cm^3
# Si number density = 16.981262 Si / 1000 Ang^3
#
#
#
# Elastic Constant Matrix: (Units=GPa)
#
#
# Indices 1 2 3 4 5 6 
#
# 1 72.9556 25.9954 62.4731 0.0000 0.0000 0.0000
# 2 25.9954 50.7395 53.7406 0.0000 0.0000 0.0000
# 3 62.4731 53.7406 136.8126 0.0000 0.0000 0.0000
# 4 0.0000 0.0000 0.0000 20.1884 0.0000 0.0000
# 5 0.0000 0.0000 0.0000 0.0000 20.8694 0.0000
# 6 0.0000 0.0000 0.0000 0.0000 0.0000 17.3008
#
#
#
# Elastic Compliance Matrix: (Units=1/GPa)
#
#
# Indices 1 2 3 4 5 6 
#
# 1 0.022544 -0.001108 -0.009859 0.000000 0.000000 0.000000
# 2 -0.001108 0.033804 -0.012773 0.000000 0.000000 0.000000
# 3 -0.009859 -0.012773 0.016829 0.000000 0.000000 0.000000
# 4 0.000000 0.000000 0.000000 0.049533 0.000000 0.000000
# 5 0.000000 0.000000 0.000000 0.000000 0.047917 0.000000
# 6 0.000000 0.000000 0.000000 0.000000 0.000000 0.057801
#
#
# Mechanical properties :
#
#
# Convention : Reuss Voigt Hill
#
# Bulk Modulus (GPa) = 38.91396 60.54729 49.73063
# Shear Modulus (GPa) = 17.57632 19.55828 18.56730
#
# Velocity S-wave (km/s) = 3.22070 3.39744 3.31025
# Velocity P-wave (km/s) = 6.06598 7.15002 6.63019
#
# Compressibility (1/GPa) = 0.02569772
#
# Stress axis : x y z
#
# Youngs Moduli (GPa) = 44.35683 29.58226 59.42281
#
# Poissons Ratio (x) = 0.03277 0.58588
# Poissons Ratio (y) = 0.04913 0.75898
# Poissons Ratio (z) = 0.43733 0.37784
#
# Static dielectric constant tensor:
#      x y z
#    x 3.165820 0.000000 0.000000 
#    y 0.000000 3.181550 0.000000 
#    z 0.000000 0.000000 3.501380 
# 
# 
# High freq. dielectric constant tensor:
#      x y z
#    x 1.630910 0.000000 0.000000 
#    y 0.000000 1.647850 0.000000 
#    z 0.000000 0.000000 1.647670 
# 
# From -- ./inp_files/34060.got.cif
#   From: 2010.03.12/outbox.cif.g09.slc.cpg/sg51_18_cif.got.tgz:34060.got - 2010.04.16 13:43:02.
