data_PCOD8212584
_publ_section_title
;
Structure prediction by ZEFSAII (Michael W. Deem and Ramdas Pophale) SiO2 
 PCOD8212584
Probable space group: P M M A
;
_chemical_formula_sum "Si O2"
_cell_formula_units_Z 64
_cell_length_a 18.657752
_cell_length_b 8.968164
_cell_length_c 20.408699
_cell_angle_alpha 90.000000
_cell_angle_beta 90.000000
_cell_angle_gamma 90.000000
_cell_volume 3414.901475
_symmetry_space_group_name_H-M "P M M A"
_symmetry_group_IT_number 51
_symmetry_cell_setting 'orthorhombic'
loop_
_space_group_symop_operation_xyz
x,y,z
1/2-x,-y,z
1/2+x,-y,-z
-x,y,-z
-x,-y,-z
1/2+x,y,-z
1/2-x,y,z
x,-y,z
loop_
_atom_site_type_symbol
_atom_site_label
_atom_site_fract_x
_atom_site_fract_y
_atom_site_fract_z
Si Si1 0.913092 0.823778 0.703318
Si Si2 0.835372 0.168012 0.090403
Si Si3 0.427684 0.176636 0.671940
Si Si4 0.833045 0.825028 0.830765
Si Si5 0.334024 0.827199 0.425546
Si Si6 0.665071 0.670557 0.220924
Si Si7 0.575273 0.324398 0.467824
Si Si8 0.335366 0.331936 0.038057
O O1 0.877300 0.759416 0.769299
O O2 0.871877 0.762396 0.639563
O O3 0.995452 0.773314 0.700410
O O4 0.904349 0.000000 0.704251
O O5 0.750000 0.168220 0.088584
O O6 0.863308 0.259318 0.153083
O O7 0.865193 0.000000 0.094767
O O8 0.866242 0.244196 0.024751
O O9 0.366436 0.237941 0.718884
O O10 0.415949 0.243979 0.600890
O O11 0.421424 0.000000 0.667019
O O12 0.750000 0.787607 0.818403
O O13 0.863007 0.745568 0.895730
O O14 0.845005 0.000000 0.840310
O O15 0.250000 0.805444 0.416900
O O16 0.360196 0.730667 0.486695
O O17 0.354339 0.000000 0.437233
O O18 0.750000 0.683446 0.225705
O O19 0.639440 0.500000 0.224077
O O20 0.500000 0.277564 0.500000
O O21 0.581018 0.500000 0.457171
O O22 0.250000 0.328458 0.036277
O O23 0.364576 0.500000 0.035641
#
# Coordination Sequence:
#
# PCOD8212584 Si02
#       8
#     8   8   8   8   8   8   8   8
#     4   9  18  33  54  80 108 140 178 221 266 315
#     4   9  16  28  49  76 104 136 177 222 268 321
#     4  11  22  37  60  83 107 141 181 223 266 320
#     4   9  16  28  48  74 105 140 178 219 262 311
#     4  10  20  36  60  87 112 141 180 226 274 323
#     4  10  21  37  56  80 111 142 174 220 275 327
#     4  11  23  39  58  80 109 145 182 222 271 325
#     4   9  16  26  42  69 105 142 179 219 266 315
#
# _framework density 18.741389000000002
#
# number of rings (size 3 to 8) (size 9 to 14) (size 15 to 20)
#    0.000    2.250    1.250    2.250    0.000    6.500 
#    0.000    1.875    0.000    2.250    0.000    5.250 
#    0.000    0.000    0.000    0.000    0.000    0.000 
#
# Total GULP energy -793747.222190 kJ/mol
# GULP energy per Si atom -12402.300347 kJ/mol
# Density = 1.869873 g / cm^3
# Si number density = 18.741389 Si / 1000 Ang^3
#
#
#
# Elastic Constant Matrix: (Units=GPa)
#
#
# Indices 1 2 3 4 5 6 
#
# 1 39.4517 30.1109 37.5517 0.0000 0.0000 0.0000
# 2 30.1109 87.3579 63.2326 0.0000 0.0000 0.0000
# 3 37.5517 63.2326 178.8885 0.0000 0.0000 0.0000
# 4 0.0000 0.0000 0.0000 14.0651 0.0000 0.0000
# 5 0.0000 0.0000 0.0000 0.0000 20.4315 0.0000
# 6 0.0000 0.0000 0.0000 0.0000 0.0000 15.7560
#
#
#
# Elastic Compliance Matrix: (Units=1/GPa)
#
#
# Indices 1 2 3 4 5 6 
#
# 1 0.036754 -0.009520 -0.004350 0.000000 0.000000 0.000000
# 2 -0.009520 0.017849 -0.004311 0.000000 0.000000 0.000000
# 3 -0.004350 -0.004311 0.008027 0.000000 0.000000 0.000000
# 4 0.000000 0.000000 0.000000 0.071098 0.000000 0.000000
# 5 0.000000 0.000000 0.000000 0.000000 0.048944 0.000000
# 6 0.000000 0.000000 0.000000 0.000000 0.000000 0.063468
#
#
# Mechanical properties :
#
#
# Convention : Reuss Voigt Hill
#
# Bulk Modulus (GPa) = 38.06867 63.05428 50.56148
# Shear Modulus (GPa) = 17.16694 21.70402 19.43548
#
# Velocity S-wave (km/s) = 3.02982 3.40675 3.22380
# Velocity P-wave (km/s) = 5.70933 7.01370 6.39486
#
# Compressibility (1/GPa) = 0.02626832
#
# Stress axis : x y z
#
# Youngs Moduli (GPa) = 27.20794 56.02657 124.57916
#
# Poissons Ratio (x) = 0.53335 0.54196
# Poissons Ratio (y) = 0.25901 0.53703
# Poissons Ratio (z) = 0.11836 0.24152
#
# Static dielectric constant tensor:
#      x y z
#    x 3.164770 0.000000 0.000000 
#    y 0.000000 3.419880 0.000000 
#    z 0.000000 0.000000 3.666680 
# 
# 
# High freq. dielectric constant tensor:
#      x y z
#    x 1.694870 0.000000 0.000000 
#    y 0.000000 1.723080 0.000000 
#    z 0.000000 0.000000 1.745700 
# 
# From -- ./inp_files/30561.got.cif
#   From: 2010.03.12/outbox.cif.g09.slc.cpg/sg51_16_cif.got.tgz:30561.got - 2010.04.16 13:43:02.
