data_PCOD8212109
_publ_section_title
;
Structure prediction by ZEFSAII (Michael W. Deem and Ramdas Pophale) SiO2 
 PCOD8212109
Probable space group: P M M A
;
_chemical_formula_sum "Si O2"
_cell_formula_units_Z 40
_cell_length_a 19.284775
_cell_length_b 8.715594
_cell_length_c 12.796765
_cell_angle_alpha 90.000000
_cell_angle_beta 90.000000
_cell_angle_gamma 90.000000
_cell_volume 2150.858114
_symmetry_space_group_name_H-M "P M M A"
_symmetry_group_IT_number 51
_symmetry_cell_setting 'orthorhombic'
loop_
_space_group_symop_operation_xyz
x,y,z
1/2-x,-y,z
1/2+x,-y,-z
-x,y,-z
-x,-y,-z
1/2+x,y,-z
1/2-x,y,z
x,-y,z
loop_
_atom_site_type_symbol
_atom_site_label
_atom_site_fract_x
_atom_site_fract_y
_atom_site_fract_z
Si Si1 0.667609 0.172475 0.511471
Si Si2 0.426880 0.318396 0.888645
Si Si3 0.426328 0.180234 0.108786
Si Si4 0.670807 0.680249 0.299304
Si Si5 0.331826 0.675860 0.277216
O O1 0.750000 0.177663 0.508663
O O2 0.639352 0.241522 0.403067
O O3 0.640630 0.272351 0.609029
O O4 0.639622 0.000000 0.524312
O O5 0.425253 0.500000 0.905801
O O6 0.503786 0.266647 0.856450
O O7 0.374269 0.265065 0.798792
O O8 0.402513 0.236578 0.994725
O O9 0.365964 0.218501 0.189648
O O10 0.440468 0.000000 0.106039
O O11 0.750000 0.731296 0.278657
O O12 0.665603 0.500000 0.316723
O O13 0.250000 0.700373 0.268432
O O14 0.353045 0.500000 0.259463
#
# Coordination Sequence:
#
# PCOD8212109 Si02
#       5
#     8   8   8   8   8
#     4   9  17  30  50  77 108 138 167 205 256 308
#     4  10  20  36  56  76 103 140 179 215 255 309
#     4  11  22  36  54  76 105 138 173 216 265 313
#     4   9  18  33  54  79 105 135 172 212 253 301
#     4  10  20  35  56  79 104 136 174 214 256 307
#
# _framework density 18.59723
#
# number of rings (size 3 to 8) (size 9 to 14) (size 15 to 20)
#    0.000    2.200    0.000    4.800    0.000    6.000 
#    0.000    3.000    0.000    6.000    0.000    0.000 
#    0.000    0.000    0.000    0.000    0.000    0.000 
#
# Total GULP energy -496088.402777 kJ/mol
# GULP energy per Si atom -12402.210069 kJ/mol
# Density = 1.855490 g / cm^3
# Si number density = 18.597230 Si / 1000 Ang^3
#
#
#
# Elastic Constant Matrix: (Units=GPa)
#
#
# Indices 1 2 3 4 5 6 
#
# 1 47.8706 21.1129 55.4818 0.0000 0.0000 0.0000
# 2 21.1129 63.5933 42.9232 0.0000 0.0000 0.0000
# 3 55.4818 42.9232 140.8973 0.0000 0.0000 0.0000
# 4 0.0000 0.0000 0.0000 24.1473 0.0000 0.0000
# 5 0.0000 0.0000 0.0000 0.0000 7.1525 0.0000
# 6 0.0000 0.0000 0.0000 0.0000 0.0000 20.9746
#
#
#
# Elastic Compliance Matrix: (Units=1/GPa)
#
#
# Indices 1 2 3 4 5 6 
#
# 1 0.038952 -0.003247 -0.014349 0.000000 0.000000 0.000000
# 2 -0.003247 0.020066 -0.004834 0.000000 0.000000 0.000000
# 3 -0.014349 -0.004834 0.014221 0.000000 0.000000 0.000000
# 4 0.000000 0.000000 0.000000 0.041413 0.000000 0.000000
# 5 0.000000 0.000000 0.000000 0.000000 0.139810 0.000000
# 6 0.000000 0.000000 0.000000 0.000000 0.000000 0.047677
#
#
# Mechanical properties :
#
#
# Convention : Reuss Voigt Hill
#
# Bulk Modulus (GPa) = 35.23898 54.59966 44.91932
# Shear Modulus (GPa) = 14.02686 19.31112 16.66899
#
# Velocity S-wave (km/s) = 2.74933 3.22590 2.99710
# Velocity P-wave (km/s) = 5.39148 6.58012 6.01523
#
# Compressibility (1/GPa) = 0.02837767
#
# Stress axis : x y z
#
# Youngs Moduli (GPa) = 25.67234 49.83578 70.32088
#
# Poissons Ratio (x) = 0.16181 1.00906
# Poissons Ratio (y) = 0.08336 0.33996
# Poissons Ratio (z) = 0.36838 0.24092
#
# Static dielectric constant tensor:
#      x y z
#    x 3.182220 0.000000 0.000000 
#    y 0.000000 3.489890 0.000000 
#    z 0.000000 0.000000 3.583480 
# 
# 
# High freq. dielectric constant tensor:
#      x y z
#    x 1.691840 0.000000 0.000000 
#    y 0.000000 1.733040 0.000000 
#    z 0.000000 0.000000 1.734470 
# 
# From -- ./inp_files/17093.got.cif
#   From: 2010.03.12/outbox.cif.g09.slc.cpg/sg51_9_cif.got.tgz:17093.got - 2010.04.16 13:43:02.
