data_PCOD8212392
_publ_section_title
;
Structure prediction by ZEFSAII (Michael W. Deem and Ramdas Pophale) SiO2 
 PCOD8212392
Probable space group: P M M A
;
_chemical_formula_sum "Si O2"
_cell_formula_units_Z 48
_cell_length_a 8.722365
_cell_length_b 30.673175
_cell_length_c 9.432164
_cell_angle_alpha 90.000000
_cell_angle_beta 90.000000
_cell_angle_gamma 90.000000
_cell_volume 2523.505945
_symmetry_space_group_name_H-M "P M M A"
_symmetry_group_IT_number 51
_symmetry_cell_setting 'orthorhombic'
loop_
_space_group_symop_operation_xyz
x,y,z
1/2-x,-y,z
1/2+x,-y,-z
-x,y,-z
-x,-y,-z
1/2+x,y,-z
1/2-x,y,z
x,-y,z
loop_
_atom_site_type_symbol
_atom_site_label
_atom_site_fract_x
_atom_site_fract_y
_atom_site_fract_z
Si Si1 0.428715 0.076872 0.150092
Si Si2 0.569361 0.581087 0.844052
Si Si3 0.931625 0.000000 0.653775
Si Si4 0.931693 0.500000 0.656970
Si Si5 0.930591 0.175579 0.847755
Si Si6 0.431795 0.338039 0.345909
Si Si7 0.568494 0.752149 0.347204
O O1 0.250000 0.070476 0.130146
O O2 0.492730 0.043207 0.266302
O O3 0.467348 0.126033 0.199138
O O4 0.500000 0.065232 0.000000
O O5 0.750000 0.578347 0.861309
O O6 0.509763 0.541871 0.744779
O O7 0.518415 0.625594 0.767319
O O8 0.500000 0.578007 0.000000
O O9 0.000000 0.000000 0.500000
O O10 0.750000 0.000000 0.643251
O O11 0.750000 0.500000 0.641000
O O12 0.000000 0.500000 0.500000
O O13 0.750000 0.185453 0.846782
O O14 0.020432 0.206876 0.744119
O O15 0.000000 0.184968 0.000000
O O16 0.500000 0.349468 0.500000
O O17 0.250000 0.334641 0.361579
O O18 0.498943 0.292731 0.285570
O O19 0.500000 0.760801 0.500000
O O20 0.750000 0.747973 0.354691
#
# Coordination Sequence:
#
# PCOD8212392 Si02
#       7
#     8   8   4   4   8   8   8
#     4   9  19  35  56  79 106 139 178 219 263 316
#     4  10  22  37  56  82 113 144 180 223 269 318
#     4  10  21  36  52  78 110 140 175 218 264 314
#     4  10  21  38  58  84 112 144 183 222 264 318
#     4  10  20  36  56  81 110 142 180 224 270 323
#     4  10  20  36  56  80 108 142 183 226 268 322
#     4  11  22  37  57  81 109 145 183 226 275 325
#
# _framework density 19.021156999999999
#
# number of rings (size 3 to 8) (size 9 to 14) (size 15 to 20)
#    0.000    2.000    0.000    4.500    0.000    4.667 
#    0.000    3.333    0.000    0.000    0.000    0.000 
#    0.000    0.000    0.000    0.000    0.000    0.000 
#
# Total GULP energy -595245.401661 kJ/mol
# GULP energy per Si atom -12400.945868 kJ/mol
# Density = 1.897786 g / cm^3
# Si number density = 19.021157 Si / 1000 Ang^3
#
#
#
# Elastic Constant Matrix: (Units=GPa)
#
#
# Indices 1 2 3 4 5 6 
#
# 1 74.3515 52.6490 48.8234 0.0000 0.0000 0.0000
# 2 52.6490 166.7433 107.8060 0.0000 0.0000 0.0000
# 3 48.8234 107.8060 143.6501 0.0000 0.0000 0.0000
# 4 0.0000 0.0000 0.0000 39.8560 0.0000 0.0000
# 5 0.0000 0.0000 0.0000 0.0000 38.0083 0.0000
# 6 0.0000 0.0000 0.0000 0.0000 0.0000 68.6538
#
#
#
# Elastic Compliance Matrix: (Units=1/GPa)
#
#
# Indices 1 2 3 4 5 6 
#
# 1 0.018257 -0.003405 -0.003650 0.000000 0.000000 0.000000
# 2 -0.003405 0.012285 -0.008062 0.000000 0.000000 0.000000
# 3 -0.003650 -0.008062 0.014252 0.000000 0.000000 0.000000
# 4 0.000000 0.000000 0.000000 0.025090 0.000000 0.000000
# 5 0.000000 0.000000 0.000000 0.000000 0.026310 0.000000
# 6 0.000000 0.000000 0.000000 0.000000 0.000000 0.014566
#
#
# Mechanical properties :
#
#
# Convention : Reuss Voigt Hill
#
# Bulk Modulus (GPa) = 68.67913 89.25574 78.96743
# Shear Modulus (GPa) = 34.28205 41.00140 37.64172
#
# Velocity S-wave (km/s) = 4.24997 4.64785 4.45335
# Velocity P-wave (km/s) = 7.76325 8.70802 8.24917
#
# Compressibility (1/GPa) = 0.01456046
#
# Stress axis : x y z
#
# Youngs Moduli (GPa) = 54.77217 81.40052 70.16327
#
# Poissons Ratio (x) = 0.27716 0.25609
# Poissons Ratio (y) = 0.18649 0.56568
# Poissons Ratio (z) = 0.19992 0.65628
#
# Static dielectric constant tensor:
#      x y z
#    x 3.487540 0.000000 0.000000 
#    y 0.000000 3.945050 0.000000 
#    z 0.000000 0.000000 3.305860 
# 
# 
# High freq. dielectric constant tensor:
#      x y z
#    x 1.742150 0.000000 0.000000 
#    y 0.000000 1.757560 0.000000 
#    z 0.000000 0.000000 1.738370 
# 
# From -- ./inp_files/6187.got.cif
#   From: 2010.03.12/outbox.cif.g09.slc.cpg/sg51_4_cif.got.tgz:6187.got - 2010.04.16 13:43:02.
