data_PCOD8212058
_publ_section_title
;
Structure prediction by ZEFSAII (Michael W. Deem and Ramdas Pophale) SiO2 
 PCOD8212058
Probable space group: P M M A
;
_chemical_formula_sum "Si O2"
_cell_formula_units_Z 52
_cell_length_a 21.408005
_cell_length_b 9.428836
_cell_length_c 13.618413
_cell_angle_alpha 90.000000
_cell_angle_beta 90.000000
_cell_angle_gamma 90.000000
_cell_volume 2748.911639
_symmetry_space_group_name_H-M "P M M A"
_symmetry_group_IT_number 51
_symmetry_cell_setting 'orthorhombic'
loop_
_space_group_symop_operation_xyz
x,y,z
1/2-x,-y,z
1/2+x,-y,-z
-x,y,-z
-x,-y,-z
1/2+x,y,-z
1/2-x,y,z
x,-y,z
loop_
_atom_site_type_symbol
_atom_site_label
_atom_site_fract_x
_atom_site_fract_y
_atom_site_fract_z
Si Si1 0.029818 0.656602 0.707141
Si Si2 0.633620 0.161200 0.573709
Si Si3 0.250000 0.671587 0.516146
Si Si4 0.122978 0.161144 0.806649
Si Si5 0.418156 0.836484 0.221612
Si Si6 0.500000 0.740276 0.500000
Si Si7 0.250000 0.157314 0.710135
Si Si8 0.569914 0.833452 0.993106
O O1 0.035688 0.500000 0.751459
O O2 0.093053 0.743339 0.721399
O O3 0.978179 0.740192 0.766766
O O4 0.015334 0.642178 0.592074
O O5 0.685891 0.268229 0.531934
O O6 0.631284 0.194562 0.691378
O O7 0.563554 0.171869 0.526648
O O8 0.656268 0.000000 0.555300
O O9 0.250000 0.500000 0.508801
O O10 0.250000 0.720349 0.628776
O O11 0.195210 0.172988 0.787292
O O12 0.098248 0.000000 0.796107
O O13 0.109614 0.225695 0.915050
O O14 0.394769 0.799518 0.110831
O O15 0.439571 0.000000 0.228199
O O16 0.250000 0.000000 0.659524
O O17 0.564955 0.000000 0.005662
O O18 0.500000 0.768067 0.000000
#
# Coordination Sequence:
#
# PCOD8212058 Si02
#       8
#     8   8   4   8   8   4   4   8
#     4  11  21  32  49  76 109 144 181 225 274 331
#     4  10  21  38  61  87 115 148 194 242 286 339
#     4  12  26  42  61  82 116 162 199 232 289 352
#     4  10  20  35  55  79 108 142 183 228 280 335
#     4   9  18  34  56  83 111 143 180 224 276 330
#     4  10  22  36  56  84 114 148 186 240 300 346
#     4  10  22  38  57  80 106 140 187 238 277 326
#     4   9  15  29  56  84 112 143 175 222 282 340
#
# _framework density 18.916577
#
# number of rings (size 3 to 8) (size 9 to 14) (size 15 to 20)
#    0.000    2.000    1.538    2.538    0.000    8.000 
#    0.000    2.308    0.000    3.692    0.000    1.077 
#    0.000    0.000    0.000    0.000    0.000    0.000 
#
# Total GULP energy -644220.343487 kJ/mol
# GULP energy per Si atom -12388.852759 kJ/mol
# Density = 1.887352 g / cm^3
# Si number density = 18.916577 Si / 1000 Ang^3
#
#
#
# Elastic Constant Matrix: (Units=GPa)
#
#
# Indices 1 2 3 4 5 6 
#
# 1 106.8397 47.4094 56.0825 0.0000 0.0000 0.0000
# 2 47.4094 100.4426 38.5467 0.0000 0.0000 0.0000
# 3 56.0825 38.5467 137.1689 0.0000 0.0000 0.0000
# 4 0.0000 0.0000 0.0000 11.3292 0.0000 0.0000
# 5 0.0000 0.0000 0.0000 0.0000 21.6512 0.0000
# 6 0.0000 0.0000 0.0000 0.0000 0.0000 -11.1737
#
#
#
# Elastic Compliance Matrix: (Units=1/GPa)
#
#
# Indices 1 2 3 4 5 6 
#
# 1 0.013749 -0.004856 -0.004257 0.000000 0.000000 0.000000
# 2 -0.004856 0.012875 -0.001633 0.000000 0.000000 0.000000
# 3 -0.004257 -0.001633 0.009489 0.000000 0.000000 0.000000
# 4 0.000000 0.000000 0.000000 0.088268 0.000000 0.000000
# 5 0.000000 0.000000 0.000000 0.000000 0.046187 0.000000
# 6 0.000000 0.000000 0.000000 0.000000 0.000000 -0.089496
#
#
# Mechanical properties :
#
#
# Convention : Reuss Voigt Hill
#
# Bulk Modulus (GPa) = 68.38824 69.83649 69.11236
# Shear Modulus (GPa) = 46.53916 17.85552 32.19734
#
# Velocity S-wave (km/s) = 4.96545 3.07564 4.13009
# Velocity P-wave (km/s) = 8.31296 7.04351 7.70443
#
# Compressibility (1/GPa) = 0.01462240
#
# Stress axis : x y z
#
# Youngs Moduli (GPa) = 72.73183 77.67288 105.37985
#
# Poissons Ratio (x) = 0.37718 0.44858
# Poissons Ratio (y) = 0.35319 0.17204
# Poissons Ratio (z) = 0.30961 0.12680
#
# Static dielectric constant tensor:
#      x y z
#    x 3.416050 0.000000 0.000000 
#    y 0.000000 3.267870 0.000000 
#    z 0.000000 0.000000 3.823470 
# 
# 
# High freq. dielectric constant tensor:
#      x y z
#    x 1.714950 0.000000 0.000000 
#    y 0.000000 1.709980 0.000000 
#    z 0.000000 0.000000 1.750800 
# 
# From -- ./inp_files/25592.got.cif
#   From: 2010.03.12/outbox.cif.g09.slc.cpg/sg51_13_cif.got.tgz:25592.got - 2010.04.16 13:43:02.
