data_PCOD8212373
_publ_section_title
;
Structure prediction by ZEFSAII (Michael W. Deem and Ramdas Pophale) SiO2 
 PCOD8212373
Probable space group: P M M A
;
_chemical_formula_sum "Si O2"
_cell_formula_units_Z 48
_cell_length_a 8.965119
_cell_length_b 30.646961
_cell_length_c 9.686742
_cell_angle_alpha 90.000000
_cell_angle_beta 90.000000
_cell_angle_gamma 90.000000
_cell_volume 2661.467744
_symmetry_space_group_name_H-M "P M M A"
_symmetry_group_IT_number 51
_symmetry_cell_setting 'orthorhombic'
loop_
_space_group_symop_operation_xyz
x,y,z
1/2-x,-y,z
1/2+x,-y,-z
-x,y,-z
-x,-y,-z
1/2+x,y,-z
1/2-x,y,z
x,-y,z
loop_
_atom_site_type_symbol
_atom_site_label
_atom_site_fract_x
_atom_site_fract_y
_atom_site_fract_z
Si Si1 0.425834 0.859790 0.647425
Si Si2 0.076323 0.789363 0.859706
Si Si3 0.074178 0.689026 0.855011
Si Si4 0.424114 0.953933 0.646530
Si Si5 0.924230 0.450753 0.860733
Si Si6 0.427005 0.623176 0.350635
O O1 0.500000 0.854488 0.500000
O O2 0.250000 0.854619 0.628033
O O3 0.489328 0.821145 0.742581
O O4 0.466856 0.907422 0.717300
O O5 0.250000 0.796978 0.879644
O O6 0.040669 0.739445 0.821802
O O7 0.000000 0.803591 0.000000
O O8 0.250000 0.678911 0.862466
O O9 0.997687 0.663593 0.730199
O O10 0.000000 0.675074 0.000000
O O11 0.500000 0.954778 0.500000
O O12 0.250000 0.953616 0.618566
O O13 0.467395 0.000000 0.726041
O O14 0.750000 0.449097 0.888540
O O15 0.978834 0.500000 0.828360
O O16 0.968653 0.420985 0.731180
O O17 0.000000 0.432651 0.000000
O O18 0.500000 0.619669 0.500000
O O19 0.250000 0.629794 0.364083
#
# Coordination Sequence:
#
# PCOD8212373 Si02
#       6
#     8   8   8   8   8   8
#     4   9  17  29  45  68  95 121 154 195 239 286
#     4   9  19  34  51  71  95 126 162 199 239 287
#     4  10  20  36  56  76  99 129 168 209 249 296
#     4   8  13  22  38  60  86 116 149 187 231 278
#     4   9  19  36  57  80 105 135 172 210 247 291
#     4  11  23  37  54  78 108 139 170 207 253 299
#
# _framework density 18.035160999999999
#
# number of rings (size 3 to 8) (size 9 to 14) (size 15 to 20)
#    0.000    2.667    0.000    1.500    0.000    5.000 
#    0.000    1.667    0.000    0.500    0.000    0.000 
#    0.000    0.000    0.000    0.000    0.000    0.000 
#
# Total GULP energy -594769.119540 kJ/mol
# GULP energy per Si atom -12391.023324 kJ/mol
# Density = 1.799411 g / cm^3
# Si number density = 18.035161 Si / 1000 Ang^3
#
#
#
# Elastic Constant Matrix: (Units=GPa)
#
#
# Indices 1 2 3 4 5 6 
#
# 1 51.0944 47.4735 49.6669 0.0000 0.0000 0.0000
# 2 47.4735 134.3598 88.2705 0.0000 0.0000 0.0000
# 3 49.6669 88.2705 133.5543 0.0000 0.0000 0.0000
# 4 0.0000 0.0000 0.0000 22.2908 0.0000 0.0000
# 5 0.0000 0.0000 0.0000 0.0000 30.2913 0.0000
# 6 0.0000 0.0000 0.0000 0.0000 0.0000 22.5535
#
#
#
# Elastic Compliance Matrix: (Units=1/GPa)
#
#
# Indices 1 2 3 4 5 6 
#
# 1 0.033555 -0.006465 -0.008206 0.000000 0.000000 0.000000
# 2 -0.006465 0.014400 -0.007113 0.000000 0.000000 0.000000
# 3 -0.008206 -0.007113 0.015241 0.000000 0.000000 0.000000
# 4 0.000000 0.000000 0.000000 0.044862 0.000000 0.000000
# 5 0.000000 0.000000 0.000000 0.000000 0.033013 0.000000
# 6 0.000000 0.000000 0.000000 0.000000 0.000000 0.044339
#
#
# Mechanical properties :
#
#
# Convention : Reuss Voigt Hill
#
# Bulk Modulus (GPa) = 50.94845 76.64781 63.79813
# Shear Modulus (GPa) = 21.22963 23.93363 22.58163
#
# Velocity S-wave (km/s) = 3.43465 3.64683 3.54233
# Velocity P-wave (km/s) = 6.63626 7.76684 7.22370
#
# Compressibility (1/GPa) = 0.01962768
#
# Stress axis : x y z
#
# Youngs Moduli (GPa) = 29.80185 69.44293 65.61437
#
# Poissons Ratio (x) = 0.44896 0.53840
# Poissons Ratio (y) = 0.19267 0.46674
# Poissons Ratio (z) = 0.24454 0.49397
#
# Static dielectric constant tensor:
#      x y z
#    x 3.321910 0.000000 0.000000 
#    y 0.000000 4.041820 0.000000 
#    z 0.000000 0.000000 3.146520 
# 
# 
# High freq. dielectric constant tensor:
#      x y z
#    x 1.699560 0.000000 0.000000 
#    y 0.000000 1.723330 0.000000 
#    z 0.000000 0.000000 1.667080 
# 
# From -- ./inp_files/6065.got.cif
#   From: 2010.03.12/outbox.cif.g09.slc.cpg/sg51_4_cif.got.tgz:6065.got - 2010.04.16 13:43:02.
