data_PCOD8212264
_publ_section_title
;
Structure prediction by ZEFSAII (Michael W. Deem and Ramdas Pophale) SiO2 
 PCOD8212264
Probable space group: P M M A
;
_chemical_formula_sum "Si O2"
_cell_formula_units_Z 48
_cell_length_a 27.801423
_cell_length_b 9.317670
_cell_length_c 9.990440
_cell_angle_alpha 90.000000
_cell_angle_beta 90.000000
_cell_angle_gamma 90.000000
_cell_volume 2587.968385
_symmetry_space_group_name_H-M "P M M A"
_symmetry_group_IT_number 51
_symmetry_cell_setting 'orthorhombic'
loop_
_space_group_symop_operation_xyz
x,y,z
1/2-x,-y,z
1/2+x,-y,-z
-x,y,-z
-x,-y,-z
1/2+x,y,-z
1/2-x,y,z
x,-y,z
loop_
_atom_site_type_symbol
_atom_site_label
_atom_site_fract_x
_atom_site_fract_y
_atom_site_fract_z
Si Si1 0.347044 0.666104 0.518231
Si Si2 0.750000 0.330266 0.617424
Si Si3 0.606461 0.832811 0.249816
Si Si4 0.410382 0.332281 0.263842
Si Si5 0.750000 0.837610 0.888289
Si Si6 0.355270 0.165618 0.037307
Si Si7 0.999061 0.167874 0.344994
O O1 0.343570 0.500000 0.555475
O O2 0.296613 0.723865 0.461860
O O3 0.357752 0.751296 0.652316
O O4 0.388287 0.695046 0.409688
O O5 0.750000 0.500000 0.635070
O O6 0.750000 0.267938 0.764569
O O7 0.551695 0.790235 0.280243
O O8 0.615066 0.000000 0.273600
O O9 0.619206 0.786705 0.099514
O O10 0.416188 0.500000 0.232568
O O11 0.375340 0.264570 0.154562
O O12 0.462074 0.256482 0.260353
O O13 0.797758 0.810204 0.977005
O O14 0.750000 0.000000 0.832938
O O15 0.367122 0.000000 0.070565
O O16 0.000000 0.214357 0.500000
O O17 0.010715 0.000000 0.329986
#
# Coordination Sequence:
#
# PCOD8212264 Si02
#       7
#     8   4   8   8   4   8   8
#     4  10  21  36  57  84 114 146 185 234 283 333
#     4  10  20  37  58  84 116 148 188 235 282 340
#     4  10  22  39  59  84 116 153 190 235 290 341
#     4  11  22  36  59  87 113 149 191 236 284 335
#     4  10  20  35  58  84 110 146 188 231 280 334
#     4  10  22  39  58  83 116 150 188 235 287 343
#     4  10  20  36  59  84 113 152 194 236 285 344
#
# _framework density 18.547366
#
# number of rings (size 3 to 8) (size 9 to 14) (size 15 to 20)
#    0.000    1.833    3.333    0.500    0.000    4.333 
#    0.000    4.167    0.000    0.000    0.000    0.000 
#    0.000    0.000    0.000    0.000    0.000    0.000 
#
# Total GULP energy -595394.739309 kJ/mol
# GULP energy per Si atom -12404.057069 kJ/mol
# Density = 1.850515 g / cm^3
# Si number density = 18.547366 Si / 1000 Ang^3
#
#
#
# Elastic Constant Matrix: (Units=GPa)
#
#
# Indices 1 2 3 4 5 6 
#
# 1 118.2196 36.1639 33.4897 0.0000 0.0000 0.0000
# 2 36.1639 53.4681 35.0701 0.0000 0.0000 0.0000
# 3 33.4897 35.0701 73.0737 0.0000 0.0000 0.0000
# 4 0.0000 0.0000 0.0000 24.6550 0.0000 0.0000
# 5 0.0000 0.0000 0.0000 0.0000 35.1665 0.0000
# 6 0.0000 0.0000 0.0000 0.0000 0.0000 26.5302
#
#
#
# Elastic Compliance Matrix: (Units=1/GPa)
#
#
# Indices 1 2 3 4 5 6 
#
# 1 0.010887 -0.005970 -0.002124 0.000000 0.000000 0.000000
# 2 -0.005970 0.030569 -0.011935 0.000000 0.000000 0.000000
# 3 -0.002124 -0.011935 0.020386 0.000000 0.000000 0.000000
# 4 0.000000 0.000000 0.000000 0.040560 0.000000 0.000000
# 5 0.000000 0.000000 0.000000 0.000000 0.028436 0.000000
# 6 0.000000 0.000000 0.000000 0.000000 0.000000 0.037693
#
#
# Mechanical properties :
#
#
# Convention : Reuss Voigt Hill
#
# Bulk Modulus (GPa) = 45.90600 50.46766 48.18683
# Shear Modulus (GPa) = 23.16426 26.60620 24.88523
#
# Velocity S-wave (km/s) = 3.53785 3.79159 3.66691
# Velocity P-wave (km/s) = 6.44150 6.81450 6.63062
#
# Compressibility (1/GPa) = 0.02178365
#
# Stress axis : x y z
#
# Youngs Moduli (GPa) = 91.85343 32.71313 49.05307
#
# Poissons Ratio (x) = 0.19531 0.10420
# Poissons Ratio (y) = 0.54839 0.58543
# Poissons Ratio (z) = 0.19511 0.39042
#
# Static dielectric constant tensor:
#      x y z
#    x 3.639650 0.000000 0.000000 
#    y 0.000000 3.331380 0.000000 
#    z 0.000000 0.000000 3.265940 
# 
# 
# High freq. dielectric constant tensor:
#      x y z
#    x 1.735050 0.000000 0.000000 
#    y 0.000000 1.715760 0.000000 
#    z 0.000000 0.000000 1.710550 
# 
# From -- ./inp_files/12954.got.cif
#   From: 2010.03.12/outbox.cif.g09.slc.cpg/sg51_7_cif.got.tgz:12954.got - 2010.04.16 13:43:02.
