data_PCOD8212813
_publ_section_title
;
Structure prediction by ZEFSAII (Michael W. Deem and Ramdas Pophale) SiO2 
 PCOD8212813
Probable space group: P M M A
;
_chemical_formula_sum "Si O2"
_cell_formula_units_Z 32
_cell_length_a 14.969418
_cell_length_b 7.693279
_cell_length_c 13.776562
_cell_angle_alpha 90.000000
_cell_angle_beta 90.000000
_cell_angle_gamma 90.000000
_cell_volume 1586.562734
_symmetry_space_group_name_H-M "P M M A"
_symmetry_group_IT_number 51
_symmetry_cell_setting 'orthorhombic'
loop_
_space_group_symop_operation_xyz
x,y,z
1/2-x,-y,z
1/2+x,-y,-z
-x,y,-z
-x,-y,-z
1/2+x,y,-z
1/2-x,y,z
x,-y,z
loop_
_atom_site_type_symbol
_atom_site_label
_atom_site_fract_x
_atom_site_fract_y
_atom_site_fract_z
Si Si1 0.604461 0.699897 0.250154
Si Si2 0.750000 0.699679 0.094342
Si Si3 0.394210 0.000000 0.607626
Si Si4 0.750000 0.804627 0.880711
Si Si5 0.605236 0.000000 0.607413
Si Si6 0.100768 0.305271 0.254239
O O1 0.620983 0.500000 0.282465
O O2 0.661560 0.746011 0.155271
O O3 0.637109 0.825737 0.336729
O O4 0.501160 0.736028 0.224043
O O5 0.750000 0.500000 0.063409
O O6 0.750000 0.810153 0.996729
O O7 0.499735 0.000000 0.598314
O O8 0.351211 0.000000 0.499948
O O9 0.661139 0.709643 0.841734
O O10 0.750000 0.000000 0.841332
O O11 0.636664 0.827040 0.663986
O O12 0.108035 0.500000 0.297003
#
# Coordination Sequence:
#
# PCOD8212813 Si02
#       6
#     8   4   4   4   4   8
#     4   9  20  37  59  84 114 151 187 227 276 330
#     4  10  22  40  58  83 114 145 188 232 276 335
#     4   9  18  33  59  82 119 145 188 230 276 324
#     4  12  24  38  58  84 111 146 190 233 285 339
#     4   9  18  35  55  88 111 151 188 230 272 332
#     4  10  20  38  59  82 115 150 186 231 278 327
#
# _framework density 20.169388999999999
#
# number of rings (size 3 to 8) (size 9 to 14) (size 15 to 20)
#    0.000    2.250    1.250    1.125    1.750    2.000 
#    0.000   12.500    0.000    3.000    0.000    0.000 
#    0.000    0.000    0.000    0.000    0.000    0.000 
#
# Total GULP energy -396792.781472 kJ/mol
# GULP energy per Si atom -12399.774421 kJ/mol
# Density = 2.012348 g / cm^3
# Si number density = 20.169389 Si / 1000 Ang^3
#
#
#
# Elastic Constant Matrix: (Units=GPa)
#
#
# Indices 1 2 3 4 5 6 
#
# 1 91.5071 36.0555 52.0735 0.0000 0.0000 0.0000
# 2 36.0555 132.6709 68.8900 0.0000 0.0000 0.0000
# 3 52.0735 68.8900 155.8755 0.0000 0.0000 0.0000
# 4 0.0000 0.0000 0.0000 27.6962 0.0000 0.0000
# 5 0.0000 0.0000 0.0000 0.0000 10.8655 0.0000
# 6 0.0000 0.0000 0.0000 0.0000 0.0000 17.8556
#
#
#
# Elastic Compliance Matrix: (Units=1/GPa)
#
#
# Indices 1 2 3 4 5 6 
#
# 1 0.013803 -0.001761 -0.003833 0.000000 0.000000 0.000000
# 2 -0.001761 0.010007 -0.003834 0.000000 0.000000 0.000000
# 3 -0.003833 -0.003834 0.009390 0.000000 0.000000 0.000000
# 4 0.000000 0.000000 0.000000 0.036106 0.000000 0.000000
# 5 0.000000 0.000000 0.000000 0.000000 0.092034 0.000000
# 6 0.000000 0.000000 0.000000 0.000000 0.000000 0.056005
#
#
# Mechanical properties :
#
#
# Convention : Reuss Voigt Hill
#
# Bulk Modulus (GPa) = 69.71515 77.12127 73.41821
# Shear Modulus (GPa) = 20.74829 26.15245 23.45037
#
# Velocity S-wave (km/s) = 3.21082 3.60480 3.41350
# Velocity P-wave (km/s) = 6.95598 7.45962 7.21220
#
# Compressibility (1/GPa) = 0.01434408
#
# Stress axis : x y z
#
# Youngs Moduli (GPa) = 72.44714 99.92968 106.49071
#
# Poissons Ratio (x) = 0.17597 0.40818
# Poissons Ratio (y) = 0.12758 0.40833
# Poissons Ratio (z) = 0.27769 0.38317
#
# Static dielectric constant tensor:
#      x y z
#    x 3.598180 0.000000 0.000000 
#    y 0.000000 3.804030 0.000000 
#    z 0.000000 0.000000 3.578860 
# 
# 
# High freq. dielectric constant tensor:
#      x y z
#    x 1.786270 0.000000 0.000000 
#    y 0.000000 1.801060 0.000000 
#    z 0.000000 0.000000 1.768250 
# 
# From -- ./inp_files/16003.got.cif
#   From: 2010.03.12/outbox.cif.g09.slc.cpg/sg51_9_cif.got.tgz:16003.got - 2010.04.16 13:43:02.
