data_PCOD8212482
_publ_section_title
;
Structure prediction by ZEFSAII (Michael W. Deem and Ramdas Pophale) SiO2 
 PCOD8212482
Probable space group: P M M A
;
_chemical_formula_sum "Si O2"
_cell_formula_units_Z 64
_cell_length_a 8.810173
_cell_length_b 18.264378
_cell_length_c 20.676880
_cell_angle_alpha 90.000000
_cell_angle_beta 90.000000
_cell_angle_gamma 90.000000
_cell_volume 3327.164936
_symmetry_space_group_name_H-M "P M M A"
_symmetry_group_IT_number 51
_symmetry_cell_setting 'orthorhombic'
loop_
_space_group_symop_operation_xyz
x,y,z
1/2-x,-y,z
1/2+x,-y,-z
-x,y,-z
-x,-y,-z
1/2+x,y,-z
1/2-x,y,z
x,-y,z
loop_
_atom_site_type_symbol
_atom_site_label
_atom_site_fract_x
_atom_site_fract_y
_atom_site_fract_z
Si Si1 0.568863 0.582857 0.685709
Si Si2 0.069644 0.668240 0.190041
Si Si3 0.576023 0.085862 0.308568
Si Si4 0.929375 0.845863 0.567970
Si Si5 0.429819 0.164979 0.188353
Si Si6 0.571852 0.322229 0.566741
Si Si7 0.070818 0.416422 0.065910
Si Si8 0.428378 0.915435 0.932809
O O1 0.750000 0.583647 0.686465
O O2 0.506838 0.500000 0.683816
O O3 0.504067 0.623202 0.749159
O O4 0.506897 0.626582 0.623511
O O5 0.250000 0.663797 0.190866
O O6 0.014393 0.751539 0.193875
O O7 0.005910 0.631750 0.124677
O O8 0.750000 0.112548 0.306866
O O9 0.502746 0.104386 0.377203
O O10 0.481971 0.124352 0.252493
O O11 0.565208 0.000000 0.296589
O O12 0.750000 0.858417 0.566391
O O13 0.971903 0.761528 0.582319
O O14 0.000000 0.871052 0.500000
O O15 0.250000 0.158934 0.182255
O O16 0.503791 0.130821 0.125195
O O17 0.500000 0.349274 0.500000
O O18 0.750000 0.331024 0.560046
O O19 0.250000 0.409844 0.060786
O O20 0.019693 0.500000 0.077561
O O21 0.000000 0.385192 0.000000
O O22 0.250000 0.902874 0.935961
O O23 0.470159 0.000000 0.920778
O O24 0.500000 0.887732 0.000000
#
# Coordination Sequence:
#
# PCOD8212482 Si02
#       8
#     8   8   8   8   8   8   8   8
#     4   9  16  28  49  75 102 134 174 218 259 301
#     4   9  18  32  50  75 104 134 173 218 261 307
#     4  11  24  40  57  79 108 141 179 223 269 320
#     4  10  20  36  58  82 110 143 179 220 266 319
#     4  11  22  36  56  81 110 143 180 223 269 320
#     4   9  18  32  51  77 106 136 171 211 257 309
#     4   9  17  31  52  76 103 136 172 211 256 306
#     4  10  21  38  59  82 109 141 178 220 266 319
#
# _framework density 19.235596999999999
#
# number of rings (size 3 to 8) (size 9 to 14) (size 15 to 20)
#    0.000    2.250    0.000    3.000    0.000    8.250 
#    0.000    2.500    0.000    0.750    0.000    0.000 
#    0.000    0.000    0.000    0.000    0.000    0.000 
#
# Total GULP energy -793768.129643 kJ/mol
# GULP energy per Si atom -12402.627026 kJ/mol
# Density = 1.919182 g / cm^3
# Si number density = 19.235597 Si / 1000 Ang^3
#
#
#
# Elastic Constant Matrix: (Units=GPa)
#
#
# Indices 1 2 3 4 5 6 
#
# 1 34.8015 19.6391 18.3563 0.0000 0.0000 0.0000
# 2 19.6391 88.1004 54.6233 0.0000 0.0000 0.0000
# 3 18.3563 54.6233 144.2991 0.0000 0.0000 0.0000
# 4 0.0000 0.0000 0.0000 44.5063 0.0000 0.0000
# 5 0.0000 0.0000 0.0000 0.0000 36.7020 0.0000
# 6 0.0000 0.0000 0.0000 0.0000 0.0000 69.7933
#
#
#
# Elastic Compliance Matrix: (Units=1/GPa)
#
#
# Indices 1 2 3 4 5 6 
#
# 1 0.033247 -0.006258 -0.001861 0.000000 0.000000 0.000000
# 2 -0.006258 0.016010 -0.005264 0.000000 0.000000 0.000000
# 3 -0.001861 -0.005264 0.009159 0.000000 0.000000 0.000000
# 4 0.000000 0.000000 0.000000 0.022469 0.000000 0.000000
# 5 0.000000 0.000000 0.000000 0.000000 0.027246 0.000000
# 6 0.000000 0.000000 0.000000 0.000000 0.000000 0.014328
#
#
# Mechanical properties :
#
#
# Convention : Reuss Voigt Hill
#
# Bulk Modulus (GPa) = 31.59459 50.27094 40.93277
# Shear Modulus (GPa) = 31.29406 41.83917 36.56661
#
# Velocity S-wave (km/s) = 4.03784 4.66885 4.36476
# Velocity P-wave (km/s) = 6.18058 7.43339 6.83574
#
# Compressibility (1/GPa) = 0.03165099
#
# Stress axis : x y z
#
# Youngs Moduli (GPa) = 30.07781 62.46277 109.17678
#
# Poissons Ratio (x) = 0.39088 0.20313
# Poissons Ratio (y) = 0.18822 0.57473
# Poissons Ratio (z) = 0.05596 0.32882
#
# Static dielectric constant tensor:
#      x y z
#    x 3.305680 0.000000 0.000000 
#    y 0.000000 3.622740 0.000000 
#    z 0.000000 0.000000 3.717630 
# 
# 
# High freq. dielectric constant tensor:
#      x y z
#    x 1.726220 0.000000 0.000000 
#    y 0.000000 1.749570 0.000000 
#    z 0.000000 0.000000 1.767010 
# 
# From -- ./inp_files/32358.got.cif
#   From: 2010.03.12/outbox.cif.g09.slc.cpg/sg51_17_cif.got.tgz:32358.got - 2010.04.16 13:43:02.
