data_PCOD8212677
_publ_section_title
;
Structure prediction by ZEFSAII (Michael W. Deem and Ramdas Pophale) SiO2 
 PCOD8212677
Probable space group: P M M A
;
_chemical_formula_sum "Si O2"
_cell_formula_units_Z 48
_cell_length_a 8.586592
_cell_length_b 30.117870
_cell_length_c 9.531437
_cell_angle_alpha 90.000000
_cell_angle_beta 90.000000
_cell_angle_gamma 90.000000
_cell_volume 2464.923603
_symmetry_space_group_name_H-M "P M M A"
_symmetry_group_IT_number 51
_symmetry_cell_setting 'orthorhombic'
loop_
_space_group_symop_operation_xyz
x,y,z
1/2-x,-y,z
1/2+x,-y,-z
-x,y,-z
-x,-y,-z
1/2+x,y,-z
1/2-x,y,z
x,-y,z
loop_
_atom_site_type_symbol
_atom_site_label
_atom_site_fract_x
_atom_site_fract_y
_atom_site_fract_z
Si Si1 0.931204 0.948052 0.351428
Si Si2 0.934086 0.122695 0.844083
Si Si3 0.566002 0.549033 0.651276
Si Si4 0.934585 0.724676 0.848744
Si Si5 0.065546 0.201257 0.655870
Si Si6 0.433660 0.624097 0.147079
O O1 0.750000 0.935570 0.347653
O O2 0.000000 0.931827 0.500000
O O3 0.019897 0.924286 0.224233
O O4 0.960322 0.000000 0.330471
O O5 0.750000 0.128069 0.849901
O O6 0.005891 0.161004 0.749430
O O7 0.000000 0.125783 0.000000
O O8 0.500000 0.558022 0.500000
O O9 0.750000 0.552332 0.645298
O O10 0.515108 0.500000 0.706357
O O11 0.495404 0.588287 0.745795
O O12 0.750000 0.731173 0.850293
O O13 0.985737 0.674146 0.815376
O O14 0.009092 0.753050 0.724750
O O15 0.000000 0.739899 0.000000
O O16 0.250000 0.200186 0.649053
O O17 0.000000 0.196939 0.500000
O O18 0.250000 0.621360 0.141866
O O19 0.500000 0.609092 0.000000
#
# Coordination Sequence:
#
# PCOD8212677 Si02
#       6
#     8   8   8   8   8   8
#     4  10  21  39  63  91 123 159 198 240 287 338
#     4  12  25  42  63  88 119 155 195 238 286 338
#     4   9  18  33  51  73 103 139 179 223 271 323
#     4  10  20  37  58  82 112 146 184 226 277 333
#     4  12  25  42  62  86 115 148 188 232 281 335
#     4   9  19  34  53  78 108 141 178 222 270 324
#
# _framework density 19.473220000000001
#
# number of rings (size 3 to 8) (size 9 to 14) (size 15 to 20)
#    0.000    1.667    0.000    5.000    0.000    3.667 
#    0.000    1.667    0.000    0.000    0.000    0.000 
#    0.000    0.000    0.000    0.000    0.000    0.000 
#
# Total GULP energy -595288.880140 kJ/mol
# GULP energy per Si atom -12401.851670 kJ/mol
# Density = 1.942890 g / cm^3
# Si number density = 19.473220 Si / 1000 Ang^3
#
#
#
# Elastic Constant Matrix: (Units=GPa)
#
#
# Indices 1 2 3 4 5 6 
#
# 1 101.5211 41.3470 58.4989 0.0000 0.0000 0.0000
# 2 41.3470 113.7737 88.0449 0.0000 0.0000 0.0000
# 3 58.4989 88.0449 162.9997 0.0000 0.0000 0.0000
# 4 0.0000 0.0000 0.0000 42.7231 0.0000 0.0000
# 5 0.0000 0.0000 0.0000 0.0000 38.8390 0.0000
# 6 0.0000 0.0000 0.0000 0.0000 0.0000 31.1177
#
#
#
# Elastic Compliance Matrix: (Units=1/GPa)
#
#
# Indices 1 2 3 4 5 6 
#
# 1 0.012644 -0.001861 -0.003532 0.000000 0.000000 0.000000
# 2 -0.001861 0.015376 -0.007637 0.000000 0.000000 0.000000
# 3 -0.003532 -0.007637 0.011528 0.000000 0.000000 0.000000
# 4 0.000000 0.000000 0.000000 0.023407 0.000000 0.000000
# 5 0.000000 0.000000 0.000000 0.000000 0.025747 0.000000
# 6 0.000000 0.000000 0.000000 0.000000 0.000000 0.032136
#
#
# Mechanical properties :
#
#
# Convention : Reuss Voigt Hill
#
# Bulk Modulus (GPa) = 74.15282 83.78623 78.96953
# Shear Modulus (GPa) = 33.02618 35.22956 34.12787
#
# Velocity S-wave (km/s) = 4.12269 4.25800 4.19089
# Velocity P-wave (km/s) = 7.79899 8.20328 8.00369
#
# Compressibility (1/GPa) = 0.01348566
#
# Stress axis : x y z
#
# Youngs Moduli (GPa) = 79.09120 65.03573 86.74501
#
# Poissons Ratio (x) = 0.12106 0.30640
# Poissons Ratio (y) = 0.14722 0.66251
# Poissons Ratio (z) = 0.27937 0.49671
#
# Static dielectric constant tensor:
#      x y z
#    x 3.636550 0.000000 0.000000 
#    y 0.000000 3.926350 0.000000 
#    z 0.000000 0.000000 3.666770 
# 
# 
# High freq. dielectric constant tensor:
#      x y z
#    x 1.767000 0.000000 0.000000 
#    y 0.000000 1.773540 0.000000 
#    z 0.000000 0.000000 1.760950 
# 
# From -- ./inp_files/5976.got.cif
#   From: 2010.03.12/outbox.cif.g09.slc.cpg/sg51_3_cif.got.tgz:5976.got - 2010.04.16 13:43:02.
