data_PCOD8212746
_publ_section_title
;
Structure prediction by ZEFSAII (Michael W. Deem and Ramdas Pophale) SiO2 
 PCOD8212746
Probable space group: P M M A
;
_chemical_formula_sum "Si O2"
_cell_formula_units_Z 56
_cell_length_a 21.070976
_cell_length_b 18.099436
_cell_length_c 7.753697
_cell_angle_alpha 90.000000
_cell_angle_beta 90.000000
_cell_angle_gamma 90.000000
_cell_volume 2957.048992
_symmetry_space_group_name_H-M "P M M A"
_symmetry_group_IT_number 51
_symmetry_cell_setting 'orthorhombic'
loop_
_space_group_symop_operation_xyz
x,y,z
1/2-x,-y,z
1/2+x,-y,-z
-x,y,-z
-x,-y,-z
1/2+x,y,-z
1/2-x,y,z
x,-y,z
loop_
_atom_site_type_symbol
_atom_site_label
_atom_site_fract_x
_atom_site_fract_y
_atom_site_fract_z
Si Si1 0.508744 0.718173 0.803930
Si Si2 0.626298 0.234664 0.234072
Si Si3 0.941847 0.582587 0.630494
Si Si4 0.820332 0.675271 0.541096
Si Si5 0.175655 0.078827 0.271089
Si Si6 0.137128 0.229053 0.158124
Si Si7 0.675425 0.083801 0.335638
O O1 0.444927 0.741736 0.704159
O O2 0.531469 0.633255 0.784042
O O3 0.568354 0.768063 0.747283
O O4 0.500000 0.736543 0.000000
O O5 0.672572 0.274104 0.369979
O O6 0.635699 0.145963 0.233252
O O7 0.638982 0.262507 0.036887
O O8 0.927644 0.500000 0.698735
O O9 0.876199 0.614077 0.549256
O O10 0.000000 0.581625 0.500000
O O11 0.750000 0.638189 0.527676
O O12 0.817204 0.725046 0.714952
O O13 0.250000 0.071290 0.263284
O O14 0.154703 0.143311 0.143586
O O15 0.155456 0.095328 0.466515
O O16 0.146001 0.000000 0.210456
O O17 0.750000 0.097562 0.305989
O O18 0.657937 0.000000 0.275155
#
# Coordination Sequence:
#
# PCOD8212746 Si02
#       7
#     8   8   8   8   8   8   8
#     4   9  20  37  56  83 110 143 187 235 272 326
#     4  11  20  35  56  80 110 146 188 232 280 328
#     4  10  20  37  61  85 110 146 185 219 266 333
#     4  11  22  36  57  85 116 146 179 229 281 325
#     4   9  17  31  49  71 104 142 182 230 279 330
#     4  10  21  34  54  80 109 145 188 231 279 332
#     4   9  18  32  50  74 106 145 186 228 279 333
#
# _framework density 18.937798999999998
#
# number of rings (size 3 to 8) (size 9 to 14) (size 15 to 20)
#    0.000    2.143    2.857    1.714    0.000    3.429 
#    0.000    2.143    0.000    4.286    0.000    2.000 
#    0.000    0.000    0.000    0.000    0.000    0.000 
#
# Total GULP energy -693761.733673 kJ/mol
# GULP energy per Si atom -12388.602387 kJ/mol
# Density = 1.889470 g / cm^3
# Si number density = 18.937799 Si / 1000 Ang^3
#
#
#
# Elastic Constant Matrix: (Units=GPa)
#
#
# Indices 1 2 3 4 5 6 
#
# 1 93.7601 33.4910 20.9010 0.0000 0.0000 0.0000
# 2 33.4910 105.5804 14.9279 0.0000 0.0000 0.0000
# 3 20.9010 14.9279 57.9160 0.0000 0.0000 0.0000
# 4 0.0000 0.0000 0.0000 18.8021 0.0000 0.0000
# 5 0.0000 0.0000 0.0000 0.0000 15.4402 0.0000
# 6 0.0000 0.0000 0.0000 0.0000 0.0000 26.9288
#
#
#
# Elastic Compliance Matrix: (Units=1/GPa)
#
#
# Indices 1 2 3 4 5 6 
#
# 1 0.012746 -0.003521 -0.003692 0.000000 0.000000 0.000000
# 2 -0.003521 0.010802 -0.001514 0.000000 0.000000 0.000000
# 3 -0.003692 -0.001514 0.018989 0.000000 0.000000 0.000000
# 4 0.000000 0.000000 0.000000 0.053186 0.000000 0.000000
# 5 0.000000 0.000000 0.000000 0.000000 0.064766 0.000000
# 6 0.000000 0.000000 0.000000 0.000000 0.000000 0.037135
#
#
# Mechanical properties :
#
#
# Convention : Reuss Voigt Hill
#
# Bulk Modulus (GPa) = 39.86684 43.98848 41.92766
# Shear Modulus (GPa) = 22.37738 24.76333 23.57036
#
# Velocity S-wave (km/s) = 3.44121 3.62002 3.53174
# Velocity P-wave (km/s) = 6.07342 6.38365 6.23046
#
# Compressibility (1/GPa) = 0.02508350
#
# Stress axis : x y z
#
# Youngs Moduli (GPa) = 78.45354 92.57191 52.66200
#
# Poissons Ratio (x) = 0.32596 0.19445
# Poissons Ratio (y) = 0.27625 0.07971
# Poissons Ratio (z) = 0.28968 0.14011
#
# Static dielectric constant tensor:
#      x y z
#    x 3.803830 0.000000 0.000000 
#    y 0.000000 3.552440 0.000000 
#    z 0.000000 0.000000 3.412450 
# 
# 
# High freq. dielectric constant tensor:
#      x y z
#    x 1.730210 0.000000 0.000000 
#    y 0.000000 1.723980 0.000000 
#    z 0.000000 0.000000 1.727690 
# 
# From -- ./inp_files/11114.got.cif
#   From: 2010.03.12/outbox.cif.g09.slc.cpg/sg51_6_cif.got.tgz:11114.got - 2010.04.16 13:43:02.
