data_PCOD8212420
_publ_section_title
;
Structure prediction by ZEFSAII (Michael W. Deem and Ramdas Pophale) SiO2 
 PCOD8212420
Probable space group: P M M A
;
_chemical_formula_sum "Si O2"
_cell_formula_units_Z 44
_cell_length_a 8.890234
_cell_length_b 28.321622
_cell_length_c 9.507013
_cell_angle_alpha 90.000000
_cell_angle_beta 90.000000
_cell_angle_gamma 90.000000
_cell_volume 2393.731319
_symmetry_space_group_name_H-M "P M M A"
_symmetry_group_IT_number 51
_symmetry_cell_setting 'orthorhombic'
loop_
_space_group_symop_operation_xyz
x,y,z
1/2-x,-y,z
1/2+x,-y,-z
-x,y,-z
-x,-y,-z
1/2+x,y,-z
1/2-x,y,z
x,-y,z
loop_
_atom_site_type_symbol
_atom_site_label
_atom_site_fract_x
_atom_site_fract_y
_atom_site_fract_z
Si Si1 0.572517 0.000000 0.650420
Si Si2 0.426218 0.549798 0.849685
Si Si3 0.927029 0.348041 0.151655
Si Si4 0.572118 0.811244 0.852376
Si Si5 0.425457 0.919505 0.143607
Si Si6 0.429213 0.736971 0.652395
O O1 0.500000 0.000000 0.500000
O O2 0.516753 0.953108 0.731586
O O3 0.750000 0.000000 0.632888
O O4 0.250000 0.550424 0.873413
O O5 0.470989 0.500000 0.768733
O O6 0.472971 0.600257 0.781025
O O7 0.500000 0.548174 0.000000
O O8 0.750000 0.343993 0.129216
O O9 0.983217 0.308764 0.260254
O O10 0.000000 0.339405 0.000000
O O11 0.750000 0.801843 0.857665
O O12 0.532274 0.865637 0.820964
O O13 0.495759 0.783093 0.726227
O O14 0.500000 0.794894 0.000000
O O15 0.250000 0.925664 0.121178
O O16 0.500000 0.936589 0.000000
O O17 0.500000 0.732250 0.500000
O O18 0.250000 0.741020 0.641958
#
# Coordination Sequence:
#
# PCOD8212420 Si02
#       6
#     4   8   8   8   8   8
#     4  10  21  36  52  76 108 140 173 208 248 294
#     4   8  13  23  41  66  94 121 151 192 241 290
#     4   9  18  31  49  73  98 126 162 202 246 296
#     4  10  20  36  57  81 106 133 168 210 254 302
#     4   9  19  35  56  80 105 133 168 208 249 296
#     4  11  23  37  52  72 100 135 172 211 256 304
#
# _framework density 18.381343999999999
#
# number of rings (size 3 to 8) (size 9 to 14) (size 15 to 20)
#    0.000    2.545    0.000    1.909    0.000    5.091 
#    0.000    1.818    0.000    0.545    0.000    0.000 
#    0.000    0.000    0.000    0.000    0.000    0.182 
#
# Total GULP energy -545208.694085 kJ/mol
# GULP energy per Si atom -12391.106684 kJ/mol
# Density = 1.833951 g / cm^3
# Si number density = 18.381344 Si / 1000 Ang^3
#
#
#
# Elastic Constant Matrix: (Units=GPa)
#
#
# Indices 1 2 3 4 5 6 
#
# 1 45.5374 42.0070 41.1857 0.0000 0.0000 0.0000
# 2 42.0070 147.4090 88.4747 0.0000 0.0000 0.0000
# 3 41.1857 88.4747 135.2867 0.0000 0.0000 0.0000
# 4 0.0000 0.0000 0.0000 5.6902 0.0000 0.0000
# 5 0.0000 0.0000 0.0000 0.0000 30.9755 0.0000
# 6 0.0000 0.0000 0.0000 0.0000 0.0000 22.0383
#
#
#
# Elastic Compliance Matrix: (Units=1/GPa)
#
#
# Indices 1 2 3 4 5 6 
#
# 1 0.032828 -0.005525 -0.006380 0.000000 0.000000 0.000000
# 2 -0.005525 0.012097 -0.006229 0.000000 0.000000 0.000000
# 3 -0.006380 -0.006229 0.013408 0.000000 0.000000 0.000000
# 4 0.000000 0.000000 0.000000 0.175740 0.000000 0.000000
# 5 0.000000 0.000000 0.000000 0.000000 0.032284 0.000000
# 6 0.000000 0.000000 0.000000 0.000000 0.000000 0.045376
#
#
# Mechanical properties :
#
#
# Convention : Reuss Voigt Hill
#
# Bulk Modulus (GPa) = 45.32514 74.61864 59.97189
# Shear Modulus (GPa) = 14.07040 22.17852 18.12446
#
# Velocity S-wave (km/s) = 2.76972 3.47735 3.14351
# Velocity P-wave (km/s) = 5.91102 7.53694 6.77295
#
# Compressibility (1/GPa) = 0.02206281
#
# Stress axis : x y z
#
# Youngs Moduli (GPa) = 30.46225 82.66408 74.58337
#
# Poissons Ratio (x) = 0.45675 0.47586
# Poissons Ratio (y) = 0.16832 0.46459
# Poissons Ratio (z) = 0.19436 0.51493
#
# Static dielectric constant tensor:
#      x y z
#    x 3.358060 0.000000 0.000000 
#    y 0.000000 4.189210 0.000000 
#    z 0.000000 0.000000 3.392510 
# 
# 
# High freq. dielectric constant tensor:
#      x y z
#    x 1.713000 0.000000 0.000000 
#    y 0.000000 1.742370 0.000000 
#    z 0.000000 0.000000 1.678200 
# 
# From -- ./inp_files/5781.got.cif
#   From: 2010.03.12/outbox.cif.g09.slc.cpg/sg51_3_cif.got.tgz:5781.got - 2010.04.16 13:43:02.
