data_PCOD8212351
_publ_section_title
;
Structure prediction by ZEFSAII (Michael W. Deem and Ramdas Pophale) SiO2 
 PCOD8212351
Probable space group: P M M A
;
_chemical_formula_sum "Si O2"
_cell_formula_units_Z 48
_cell_length_a 9.686930
_cell_length_b 18.646356
_cell_length_c 14.471135
_cell_angle_alpha 90.000000
_cell_angle_beta 90.000000
_cell_angle_gamma 90.000000
_cell_volume 2613.862439
_symmetry_space_group_name_H-M "P M M A"
_symmetry_group_IT_number 51
_symmetry_cell_setting 'orthorhombic'
loop_
_space_group_symop_operation_xyz
x,y,z
1/2-x,-y,z
1/2+x,-y,-z
-x,y,-z
-x,-y,-z
1/2+x,y,-z
1/2-x,y,z
x,-y,z
loop_
_atom_site_type_symbol
_atom_site_label
_atom_site_fract_x
_atom_site_fract_y
_atom_site_fract_z
Si Si1 0.589414 0.419965 0.828268
Si Si2 0.407324 0.792710 0.278625
Si Si3 0.591758 0.918576 0.586518
Si Si4 0.597510 0.422195 0.345977
Si Si5 0.406223 0.723696 0.580607
Si Si6 0.091802 0.271797 0.084108
O O1 0.750000 0.412902 0.805720
O O2 0.555494 0.500000 0.869914
O O3 0.514143 0.408417 0.732127
O O4 0.545385 0.354108 0.894143
O O5 0.250000 0.768153 0.303203
O O6 0.434059 0.872328 0.320068
O O7 0.522990 0.741992 0.322508
O O8 0.429638 0.784269 0.168833
O O9 0.500000 0.891094 0.500000
O O10 0.750000 0.912724 0.554383
O O11 0.551415 0.000000 0.612293
O O12 0.750000 0.418325 0.299503
O O13 0.573815 0.500000 0.392587
O O14 0.590199 0.362598 0.426206
O O15 0.500000 0.757825 0.500000
O O16 0.250000 0.753922 0.573363
O O17 0.250000 0.271097 0.052254
O O18 0.000000 0.242925 0.000000
#
# Coordination Sequence:
#
# PCOD8212351 Si02
#       6
#     8   8   8   8   8   8
#     4   9  17  31  51  72  95 126 166 214 267 315
#     4  10  20  36  55  76 105 137 170 210 256 305
#     4   9  18  33  55  83 112 140 170 204 245 296
#     4   9  18  32  48  67  93 127 168 212 256 302
#     4  11  22  33  49  73 101 134 172 211 254 305
#     4  10  21  35  52  75 102 133 172 216 262 312
#
# _framework density 18.363627999999999
#
# number of rings (size 3 to 8) (size 9 to 14) (size 15 to 20)
#    0.000    2.333    1.667    1.000    0.000    4.667 
#    0.000    0.000    0.000    0.500    0.000    0.000 
#    0.000    0.000    0.000    0.000    0.000    0.000 
#
# Total GULP energy -594759.682632 kJ/mol
# GULP energy per Si atom -12390.826721 kJ/mol
# Density = 1.832183 g / cm^3
# Si number density = 18.363628 Si / 1000 Ang^3
#
#
#
# Elastic Constant Matrix: (Units=GPa)
#
#
# Indices 1 2 3 4 5 6 
#
# 1 89.8094 32.6760 50.6649 0.0000 0.0000 0.0000
# 2 32.6760 92.8345 42.4102 0.0000 0.0000 0.0000
# 3 50.6649 42.4102 92.0156 0.0000 0.0000 0.0000
# 4 0.0000 0.0000 0.0000 21.3110 0.0000 0.0000
# 5 0.0000 0.0000 0.0000 0.0000 32.1739 0.0000
# 6 0.0000 0.0000 0.0000 0.0000 0.0000 18.9620
#
#
#
# Elastic Compliance Matrix: (Units=1/GPa)
#
#
# Indices 1 2 3 4 5 6 
#
# 1 0.016467 -0.002095 -0.008101 0.000000 0.000000 0.000000
# 2 -0.002095 0.013911 -0.005258 0.000000 0.000000 0.000000
# 3 -0.008101 -0.005258 0.017752 0.000000 0.000000 0.000000
# 4 0.000000 0.000000 0.000000 0.046924 0.000000 0.000000
# 5 0.000000 0.000000 0.000000 0.000000 0.031081 0.000000
# 6 0.000000 0.000000 0.000000 0.000000 0.000000 0.052737
#
#
# Mechanical properties :
#
#
# Convention : Reuss Voigt Hill
#
# Bulk Modulus (GPa) = 58.06806 58.46239 58.26522
# Shear Modulus (GPa) = 23.19939 24.41662 23.80800
#
# Velocity S-wave (km/s) = 3.55820 3.65035 3.60457
# Velocity P-wave (km/s) = 6.96928 7.04782 7.00866
#
# Compressibility (1/GPa) = 0.01722117
#
# Stress axis : x y z
#
# Youngs Moduli (GPa) = 60.72632 71.88320 56.33168
#
# Poissons Ratio (x) = 0.15061 0.45637
# Poissons Ratio (y) = 0.12723 0.29620
# Poissons Ratio (z) = 0.49197 0.37798
#
# Static dielectric constant tensor:
#      x y z
#    x 3.631640 0.000000 0.000000 
#    y 0.000000 3.542830 0.000000 
#    z 0.000000 0.000000 3.001910 
# 
# 
# High freq. dielectric constant tensor:
#      x y z
#    x 1.721440 0.000000 0.000000 
#    y 0.000000 1.709150 0.000000 
#    z 0.000000 0.000000 1.674370 
# 
# From -- ./inp_files/21408.got.cif
#   From: 2010.03.12/outbox.cif.g09.slc.cpg/sg51_11_cif.got.tgz:21408.got - 2010.04.16 13:43:02.
