data_PCOD8212208
_publ_section_title
;
Structure prediction by ZEFSAII (Michael W. Deem and Ramdas Pophale) SiO2 
 PCOD8212208
Probable space group: P M M A
;
_chemical_formula_sum "Si O2"
_cell_formula_units_Z 56
_cell_length_a 19.251479
_cell_length_b 8.963197
_cell_length_c 17.297001
_cell_angle_alpha 90.000000
_cell_angle_beta 90.000000
_cell_angle_gamma 90.000000
_cell_volume 2984.680528
_symmetry_space_group_name_H-M "P M M A"
_symmetry_group_IT_number 51
_symmetry_cell_setting 'orthorhombic'
loop_
_space_group_symop_operation_xyz
x,y,z
1/2-x,-y,z
1/2+x,-y,-z
-x,y,-z
-x,-y,-z
1/2+x,y,-z
1/2-x,y,z
x,-y,z
loop_
_atom_site_type_symbol
_atom_site_label
_atom_site_fract_x
_atom_site_fract_y
_atom_site_fract_z
Si Si1 0.668306 0.172117 0.081817
Si Si2 0.429313 0.324617 0.800205
Si Si3 0.572003 0.174836 0.805066
Si Si4 0.937599 0.326328 0.377369
Si Si5 0.668106 0.328121 0.925001
Si Si6 0.171072 0.675385 0.494942
Si Si7 0.921196 0.826399 0.626160
O O1 0.750000 0.191005 0.092524
O O2 0.633918 0.249009 0.155447
O O3 0.646170 0.000000 0.076461
O O4 0.642192 0.254578 0.004633
O O5 0.429753 0.500000 0.816063
O O6 0.501249 0.255693 0.830555
O O7 0.417817 0.286095 0.710313
O O8 0.634864 0.240677 0.853968
O O9 0.589102 0.209810 0.716187
O O10 0.563942 0.000000 0.820733
O O11 0.953924 0.500000 0.386716
O O12 0.873719 0.274888 0.430743
O O13 0.006460 0.240713 0.404553
O O14 0.750000 0.310508 0.915814
O O15 0.644856 0.500000 0.924269
O O16 0.250000 0.726560 0.509736
O O17 0.166133 0.500000 0.481482
O O18 0.143292 0.754128 0.418075
O O19 0.922407 0.000000 0.608901
#
# Coordination Sequence:
#
# PCOD8212208 Si02
#       7
#     8   8   8   8   8   8   8
#     4  10  21  37  56  79 110 146 180 215 263 322
#     4  10  20  35  57  83 109 138 178 226 269 312
#     4  10  21  37  56  79 109 142 177 219 268 322
#     4   9  19  36  57  79 105 140 179 219 265 316
#     4  10  21  37  57  81 108 139 179 224 267 314
#     4  10  21  36  54  78 108 141 178 219 263 313
#     4  10  21  36  55  79 107 140 177 218 265 317
#
# _framework density 18.762475999999999
#
# number of rings (size 3 to 8) (size 9 to 14) (size 15 to 20)
#    0.000    2.143    0.000    2.571    0.000    8.286 
#    0.000    7.143    0.000    0.000    0.000    0.000 
#    0.000    0.000    0.000    0.000    0.000    0.000 
#
# Total GULP energy -694694.752723 kJ/mol
# GULP energy per Si atom -12405.263441 kJ/mol
# Density = 1.871977 g / cm^3
# Si number density = 18.762476 Si / 1000 Ang^3
#
#
#
# Elastic Constant Matrix: (Units=GPa)
#
#
# Indices 1 2 3 4 5 6 
#
# 1 88.5297 44.3481 54.0887 0.0000 0.0000 0.0000
# 2 44.3481 80.9329 46.8223 0.0000 0.0000 0.0000
# 3 54.0887 46.8223 89.5295 0.0000 0.0000 0.0000
# 4 0.0000 0.0000 0.0000 33.4509 0.0000 0.0000
# 5 0.0000 0.0000 0.0000 0.0000 35.5918 0.0000
# 6 0.0000 0.0000 0.0000 0.0000 0.0000 30.7334
#
#
#
# Elastic Compliance Matrix: (Units=1/GPa)
#
#
# Indices 1 2 3 4 5 6 
#
# 1 0.019500 -0.005548 -0.008879 0.000000 0.000000 0.000000
# 2 -0.005548 0.019295 -0.006739 0.000000 0.000000 0.000000
# 3 -0.008879 -0.006739 0.020058 0.000000 0.000000 0.000000
# 4 0.000000 0.000000 0.000000 0.029895 0.000000 0.000000
# 5 0.000000 0.000000 0.000000 0.000000 0.028096 0.000000
# 6 0.000000 0.000000 0.000000 0.000000 0.000000 0.032538
#
#
# Mechanical properties :
#
#
# Convention : Reuss Voigt Hill
#
# Bulk Modulus (GPa) = 60.53181 61.05669 60.79425
# Shear Modulus (GPa) = 25.35233 27.53744 26.44488
#
# Velocity S-wave (km/s) = 3.67989 3.83520 3.75834
# Velocity P-wave (km/s) = 7.09843 7.22663 7.16282
#
# Compressibility (1/GPa) = 0.01652024
#
# Stress axis : x y z
#
# Youngs Moduli (GPa) = 51.28256 51.82738 49.85542
#
# Poissons Ratio (x) = 0.28756 0.44267
# Poissons Ratio (y) = 0.28453 0.33597
# Poissons Ratio (z) = 0.45534 0.34926
#
# Static dielectric constant tensor:
#      x y z
#    x 3.418510 0.000000 0.000000 
#    y 0.000000 3.550740 0.000000 
#    z 0.000000 0.000000 3.503480 
# 
# 
# High freq. dielectric constant tensor:
#      x y z
#    x 1.725450 0.000000 0.000000 
#    y 0.000000 1.738600 0.000000 
#    z 0.000000 0.000000 1.734400 
# 
# From -- ./inp_files/25701.got.cif
#   From: 2010.03.12/outbox.cif.g09.slc.cpg/sg51_13_cif.got.tgz:25701.got - 2010.04.16 13:43:02.
