data_PCOD8212313
_publ_section_title
;
Structure prediction by ZEFSAII (Michael W. Deem and Ramdas Pophale) SiO2 
 PCOD8212313
Probable space group: P M M A
;
_chemical_formula_sum "Si O2"
_cell_formula_units_Z 64
_cell_length_a 15.687328
_cell_length_b 23.406015
_cell_length_c 8.703330
_cell_angle_alpha 90.000000
_cell_angle_beta 90.000000
_cell_angle_gamma 90.000000
_cell_volume 3195.669862
_symmetry_space_group_name_H-M "P M M A"
_symmetry_group_IT_number 51
_symmetry_cell_setting 'orthorhombic'
loop_
_space_group_symop_operation_xyz
x,y,z
1/2-x,-y,z
1/2+x,-y,-z
-x,y,-z
-x,-y,-z
1/2+x,y,-z
1/2-x,y,z
x,-y,z
loop_
_atom_site_type_symbol
_atom_site_label
_atom_site_fract_x
_atom_site_fract_y
_atom_site_fract_z
Si Si1 0.845283 0.137136 0.821890
Si Si2 0.099164 0.751872 0.333345
Si Si3 0.903076 0.757043 0.318966
Si Si4 0.491180 0.566447 0.324057
Si Si5 0.919589 0.347872 0.106551
Si Si6 0.845603 0.634068 0.803196
Si Si7 0.497340 0.933089 0.322670
Si Si8 0.346131 0.129382 0.823633
O O1 0.750000 0.111574 0.799249
O O2 0.844084 0.200085 0.747545
O O3 0.913772 0.095957 0.745852
O O4 0.868392 0.142286 0.000332
O O5 0.127194 0.741830 0.509230
O O6 0.107719 0.691953 0.248068
O O7 0.002386 0.773339 0.319255
O O8 0.884321 0.704950 0.204513
O O9 0.849580 0.811255 0.266248
O O10 0.500000 0.586012 0.500000
O O11 0.510326 0.500000 0.302879
O O12 0.558869 0.600678 0.221791
O O13 0.395541 0.580416 0.268508
O O14 0.846232 0.368666 0.989165
O O15 0.000000 0.330612 0.000000
O O16 0.750000 0.631789 0.740875
O O17 0.500000 0.915334 0.500000
O O18 0.585404 0.915060 0.242152
O O19 0.486410 0.000000 0.298556
O O20 0.250000 0.104377 0.804787
#
# Coordination Sequence:
#
# PCOD8212313 Si02
#       8
#     8   8   8   8   8   8   8   8
#     4  11  24  41  63  92 125 160 202 249 302 363
#     4  11  21  36  60  90 123 160 198 243 297 363
#     4  11  21  35  60  90 122 157 201 243 298 357
#     4  10  21  40  64  86 111 155 209 248 293 358
#     4  10  20  35  59  85 117 156 196 241 290 355
#     4  11  23  37  58  90 123 155 195 246 304 356
#     4  11  25  44  66  90 119 160 205 252 304 357
#     4  11  25  41  63  94 125 160 201 248 302 361
#
# _framework density 20.027100000000001
#
# number of rings (size 3 to 8) (size 9 to 14) (size 15 to 20)
#    0.000    1.250    3.750    3.000    0.000    8.000 
#    0.000    4.375    0.000    0.750    0.000    0.000 
#    0.000    0.000    0.000    0.000    0.000    0.000 
#
# Total GULP energy -793764.557573 kJ/mol
# GULP energy per Si atom -12402.571212 kJ/mol
# Density = 1.998152 g / cm^3
# Si number density = 20.027100 Si / 1000 Ang^3
#
#
#
# Elastic Constant Matrix: (Units=GPa)
#
#
# Indices 1 2 3 4 5 6 
#
# 1 75.9142 15.9092 30.3361 0.0000 0.0000 0.0000
# 2 15.9092 66.0331 42.5280 0.0000 0.0000 0.0000
# 3 30.3361 42.5280 148.2118 0.0000 0.0000 0.0000
# 4 0.0000 0.0000 0.0000 18.7643 0.0000 0.0000
# 5 0.0000 0.0000 0.0000 0.0000 17.8606 0.0000
# 6 0.0000 0.0000 0.0000 0.0000 0.0000 14.7611
#
#
#
# Elastic Compliance Matrix: (Units=1/GPa)
#
#
# Indices 1 2 3 4 5 6 
#
# 1 0.014547 -0.001947 -0.002419 0.000000 0.000000 0.000000
# 2 -0.001947 0.018838 -0.005007 0.000000 0.000000 0.000000
# 3 -0.002419 -0.005007 0.008679 0.000000 0.000000 0.000000
# 4 0.000000 0.000000 0.000000 0.053293 0.000000 0.000000
# 5 0.000000 0.000000 0.000000 0.000000 0.055989 0.000000
# 6 0.000000 0.000000 0.000000 0.000000 0.000000 0.067746
#
#
# Mechanical properties :
#
#
# Convention : Reuss Voigt Hill
#
# Bulk Modulus (GPa) = 42.88438 51.96729 47.42584
# Shear Modulus (GPa) = 20.35751 23.70291 22.03021
#
# Velocity S-wave (km/s) = 3.19172 3.44400 3.32025
# Velocity P-wave (km/s) = 5.91966 6.46681 6.19928
#
# Compressibility (1/GPa) = 0.02331852
#
# Stress axis : x y z
#
# Youngs Moduli (GPa) = 68.74078 53.08545 115.22276
#
# Poissons Ratio (x) = 0.10336 0.27871
# Poissons Ratio (y) = 0.13384 0.57689
# Poissons Ratio (z) = 0.16628 0.26579
#
# Static dielectric constant tensor:
#      x y z
#    x 3.644810 0.000000 0.000000 
#    y 0.000000 3.439170 0.000000 
#    z 0.000000 0.000000 4.108650 
# 
# 
# High freq. dielectric constant tensor:
#      x y z
#    x 1.774460 0.000000 0.000000 
#    y 0.000000 1.770440 0.000000 
#    z 0.000000 0.000000 1.803870 
# 
# From -- ./inp_files/8757.got.cif
#   From: 2010.03.12/outbox.cif.g09.slc.cpg/sg51_5_cif.got.tgz:8757.got - 2010.04.16 13:43:02.
