data_PCOD8212887
_publ_section_title
;
Structure prediction by ZEFSAII (Michael W. Deem and Ramdas Pophale) SiO2 
 PCOD8212887
Probable space group: P M M A
;
_chemical_formula_sum "Si O2"
_cell_formula_units_Z 48
_cell_length_a 15.847826
_cell_length_b 8.971730
_cell_length_c 16.784919
_cell_angle_alpha 90.000000
_cell_angle_beta 90.000000
_cell_angle_gamma 90.000000
_cell_volume 2386.520335
_symmetry_space_group_name_H-M "P M M A"
_symmetry_group_IT_number 51
_symmetry_cell_setting 'orthorhombic'
loop_
_space_group_symop_operation_xyz
x,y,z
1/2-x,-y,z
1/2+x,-y,-z
-x,y,-z
-x,-y,-z
1/2+x,y,-z
1/2-x,y,z
x,-y,z
loop_
_atom_site_type_symbol
_atom_site_label
_atom_site_fract_x
_atom_site_fract_y
_atom_site_fract_z
Si Si1 0.653324 0.672475 0.808707
Si Si2 0.924233 0.824407 0.662731
Si Si3 0.403055 0.673256 0.660923
Si Si4 0.250000 0.328124 0.775493
Si Si5 0.750000 0.823980 0.056797
Si Si6 0.087694 0.176214 0.040339
Si Si7 0.847614 0.327917 0.515731
O O1 0.750000 0.695207 0.835062
O O2 0.629523 0.500000 0.800563
O O3 0.641042 0.749792 0.723571
O O4 0.592281 0.746820 0.873663
O O5 0.903514 0.773054 0.573360
O O6 0.018125 0.773933 0.685024
O O7 0.916043 0.000000 0.669477
O O8 0.428467 0.500000 0.663909
O O9 0.331600 0.712039 0.724254
O O10 0.369350 0.717164 0.574044
O O11 0.250000 0.500000 0.800527
O O12 0.250000 0.229670 0.853474
O O13 0.750000 0.000000 0.056910
O O14 0.665687 0.765151 0.013026
O O15 0.091777 0.000000 0.053216
O O16 0.000000 0.225005 0.000000
O O17 0.750000 0.295980 0.532139
O O18 0.869935 0.500000 0.531846
#
# Coordination Sequence:
#
# PCOD8212887 Si02
#       7
#     8   8   8   4   4   8   8
#     4  11  24  43  66  92 121 157 206 257 307 359
#     4  12  26  39  58  90 126 162 203 249 304 365
#     4  10  21  41  64  89 120 159 204 254 306 355
#     4  10  22  40  64  91 120 155 202 255 302 355
#     4  10  22  40  62  91 130 167 200 247 306 369
#     4  10  22  41  65  93 127 165 203 245 306 375
#     4  10  20  39  65  89 119 160 206 252 303 359
#
# _framework density 20.112964999999999
#
# number of rings (size 3 to 8) (size 9 to 14) (size 15 to 20)
#    0.000    1.500    1.667    3.000    2.333    7.667 
#    0.000    0.000    0.000    0.000    0.000    0.000 
#    0.000    0.000    0.000    0.000    0.000    0.000 
#
# Total GULP energy -595515.072017 kJ/mol
# GULP energy per Si atom -12406.564000 kJ/mol
# Density = 2.006719 g / cm^3
# Si number density = 20.112965 Si / 1000 Ang^3
#
#
#
# Elastic Constant Matrix: (Units=GPa)
#
#
# Indices 1 2 3 4 5 6 
#
# 1 104.8774 32.3170 25.7471 0.0000 0.0000 0.0000
# 2 32.3170 67.9610 29.2472 0.0000 0.0000 0.0000
# 3 25.7471 29.2472 104.4768 0.0000 0.0000 0.0000
# 4 0.0000 0.0000 0.0000 15.1854 0.0000 0.0000
# 5 0.0000 0.0000 0.0000 0.0000 100.2807 0.0000
# 6 0.0000 0.0000 0.0000 0.0000 0.0000 21.7225
#
#
#
# Elastic Compliance Matrix: (Units=1/GPa)
#
#
# Indices 1 2 3 4 5 6 
#
# 1 0.011366 -0.004774 -0.001464 0.000000 0.000000 0.000000
# 2 -0.004774 0.018735 -0.004068 0.000000 0.000000 0.000000
# 3 -0.001464 -0.004068 0.011071 0.000000 0.000000 0.000000
# 4 0.000000 0.000000 0.000000 0.065853 0.000000 0.000000
# 5 0.000000 0.000000 0.000000 0.000000 0.009972 0.000000
# 6 0.000000 0.000000 0.000000 0.000000 0.000000 0.046035
#
#
# Mechanical properties :
#
#
# Convention : Reuss Voigt Hill
#
# Bulk Modulus (GPa) = 48.64210 50.21529 49.42869
# Shear Modulus (GPa) = 26.24685 40.10463 33.17574
#
# Velocity S-wave (km/s) = 3.61636 4.47023 4.06577
# Velocity P-wave (km/s) = 6.45557 7.18782 6.83151
#
# Compressibility (1/GPa) = 0.02055832
#
# Stress axis : x y z
#
# Youngs Moduli (GPa) = 87.98446 53.37484 90.32420
#
# Poissons Ratio (x) = 0.25483 0.13227
# Poissons Ratio (y) = 0.42007 0.36746
# Poissons Ratio (z) = 0.12884 0.21714
#
# Static dielectric constant tensor:
#      x y z
#    x 3.792860 0.000000 0.000000 
#    y 0.000000 3.492700 0.000000 
#    z 0.000000 0.000000 3.612080 
# 
# 
# High freq. dielectric constant tensor:
#      x y z
#    x 1.797470 0.000000 0.000000 
#    y 0.000000 1.772870 0.000000 
#    z 0.000000 0.000000 1.795170 
# 
# From -- ./inp_files/29526.got.cif
#   From: 2010.03.12/outbox.cif.g09.slc.cpg/sg51_15_cif.got.tgz:29526.got - 2010.04.16 13:43:02.
