data_PCOD8212127
_publ_section_title
;
Structure prediction by ZEFSAII (Michael W. Deem and Ramdas Pophale) SiO2 
 PCOD8212127
Probable space group: P M M A
;
_chemical_formula_sum "Si O2"
_cell_formula_units_Z 40
_cell_length_a 19.151876
_cell_length_b 8.693424
_cell_length_c 12.796372
_cell_angle_alpha 90.000000
_cell_angle_beta 90.000000
_cell_angle_gamma 90.000000
_cell_volume 2130.536799
_symmetry_space_group_name_H-M "P M M A"
_symmetry_group_IT_number 51
_symmetry_cell_setting 'orthorhombic'
loop_
_space_group_symop_operation_xyz
x,y,z
1/2-x,-y,z
1/2+x,-y,-z
-x,y,-z
-x,-y,-z
1/2+x,y,-z
1/2-x,y,z
x,-y,z
loop_
_atom_site_type_symbol
_atom_site_label
_atom_site_fract_x
_atom_site_fract_y
_atom_site_fract_z
Si Si1 0.928577 0.677953 0.286082
Si Si2 0.582566 0.830868 0.493253
Si Si3 0.670027 0.321573 0.901982
Si Si4 0.668357 0.822704 0.118276
Si Si5 0.421579 0.819056 0.276595
O O1 0.948508 0.500000 0.281311
O O2 0.895769 0.715615 0.400505
O O3 0.871110 0.716293 0.200268
O O4 0.997277 0.777423 0.263757
O O5 0.500000 0.843790 0.500000
O O6 0.607576 0.773981 0.607781
O O7 0.613956 0.000000 0.468334
O O8 0.750000 0.282900 0.874245
O O9 0.659865 0.500000 0.928372
O O10 0.623339 0.277078 0.804158
O O11 0.644954 0.224353 0.001919
O O12 0.750000 0.790975 0.133095
O O13 0.648993 0.000000 0.137025
O O14 0.413100 0.000000 0.256262
#
# Coordination Sequence:
#
# PCOD8212127 Si02
#       5
#     8   8   8   8   8
#     4  11  21  33  54  82 110 138 172 217 266 312
#     4   8  16  32  52  75 105 140 175 212 256 307
#     4  10  21  37  56  79 108 138 171 216 268 316
#     4  10  21  38  58  77 102 139 179 216 259 314
#     4  10  20  35  56  80 107 140 179 217 254 307
#
# _framework density 18.774609999999999
#
# number of rings (size 3 to 8) (size 9 to 14) (size 15 to 20)
#    0.000    2.200    0.000    4.800    0.000    7.600 
#    0.000    5.000    0.000    1.200    0.000    0.000 
#    0.000    0.000    0.000    0.000    0.000    0.000 
#
# Total GULP energy -495995.267102 kJ/mol
# GULP energy per Si atom -12399.881678 kJ/mol
# Density = 1.873188 g / cm^3
# Si number density = 18.774610 Si / 1000 Ang^3
#
#
#
# Elastic Constant Matrix: (Units=GPa)
#
#
# Indices 1 2 3 4 5 6 
#
# 1 42.7775 15.4759 42.1798 0.0000 0.0000 0.0000
# 2 15.4759 59.5317 23.9352 0.0000 0.0000 0.0000
# 3 42.1798 23.9352 121.8495 0.0000 0.0000 0.0000
# 4 0.0000 0.0000 0.0000 22.9435 0.0000 0.0000
# 5 0.0000 0.0000 0.0000 0.0000 -137.2793 0.0000
# 6 0.0000 0.0000 0.0000 0.0000 0.0000 26.8296
#
#
#
# Elastic Compliance Matrix: (Units=1/GPa)
#
#
# Indices 1 2 3 4 5 6 
#
# 1 0.036720 -0.004815 -0.011765 0.000000 0.000000 0.000000
# 2 -0.004815 0.018870 -0.002040 0.000000 0.000000 0.000000
# 3 -0.011765 -0.002040 0.012680 0.000000 0.000000 0.000000
# 4 0.000000 0.000000 0.000000 0.043585 0.000000 0.000000
# 5 0.000000 0.000000 0.000000 0.000000 -0.007284 0.000000
# 6 0.000000 0.000000 0.000000 0.000000 0.000000 0.037272
#
#
# Mechanical properties :
#
#
# Convention : Reuss Voigt Hill
#
# Bulk Modulus (GPa) = 32.22790 43.03784 37.63287
# Shear Modulus (GPa) = 26.39554 -7.99674 9.19940
#
# Velocity S-wave (km/s) = 3.75362 -2.06605 2.21598
# Velocity P-wave (km/s) = 5.99910 4.15713 5.16096
#
# Compressibility (1/GPa) = 0.03102902
#
# Stress axis : x y z
#
# Youngs Moduli (GPa) = 27.23345 52.99511 78.86352
#
# Poissons Ratio (x) = 0.25519 0.92783
# Poissons Ratio (y) = 0.13114 0.16086
# Poissons Ratio (z) = 0.32040 0.10809
#
# Static dielectric constant tensor:
#      x y z
#    x 3.121940 0.000000 0.000000 
#    y 0.000000 3.459200 0.000000 
#    z 0.000000 0.000000 3.807710 
# 
# 
# High freq. dielectric constant tensor:
#      x y z
#    x 1.696080 0.000000 0.000000 
#    y 0.000000 1.737240 0.000000 
#    z 0.000000 0.000000 1.744450 
# 
# From -- ./inp_files/17897.got.cif
#   From: 2010.03.12/outbox.cif.g09.slc.cpg/sg51_9_cif.got.tgz:17897.got - 2010.04.16 13:43:02.
