data_PCOD8212099
_publ_section_title
;
Structure prediction by ZEFSAII (Michael W. Deem and Ramdas Pophale) SiO2 
 PCOD8212099
Probable space group: P M M A
;
_chemical_formula_sum "Si O2"
_cell_formula_units_Z 64
_cell_length_a 28.498195
_cell_length_b 8.884708
_cell_length_c 12.537276
_cell_angle_alpha 90.000000
_cell_angle_beta 90.000000
_cell_angle_gamma 90.000000
_cell_volume 3174.414978
_symmetry_space_group_name_H-M "P M M A"
_symmetry_group_IT_number 51
_symmetry_cell_setting 'orthorhombic'
loop_
_space_group_symop_operation_xyz
x,y,z
1/2-x,-y,z
1/2+x,-y,-z
-x,y,-z
-x,-y,-z
1/2+x,y,-z
1/2-x,y,z
x,-y,z
loop_
_atom_site_type_symbol
_atom_site_label
_atom_site_fract_x
_atom_site_fract_y
_atom_site_fract_z
Si Si1 0.449391 0.825718 0.983288
Si Si2 0.658912 0.174861 0.280462
Si Si3 0.804623 0.674549 0.069769
Si Si4 0.374801 0.678517 0.335521
Si Si5 0.055543 0.170279 0.740293
Si Si6 0.978872 0.322683 0.609406
Si Si7 0.696947 0.327318 0.482295
Si Si8 0.638509 0.820585 0.889071
O O1 0.432781 0.800457 0.863371
O O2 0.454147 0.000000 0.012942
O O3 0.500000 0.746351 0.000000
O O4 0.410434 0.756775 0.062087
O O5 0.668500 0.264542 0.172713
O O6 0.604938 0.201956 0.318374
O O7 0.691825 0.230254 0.375553
O O8 0.668343 0.000000 0.257214
O O9 0.750000 0.702576 0.087936
O O10 0.816831 0.500000 0.055552
O O11 0.819425 0.761139 0.962517
O O12 0.374600 0.500000 0.318458
O O13 0.426720 0.739385 0.366671
O O14 0.338901 0.728948 0.427599
O O15 0.356287 0.757327 0.229280
O O16 0.014241 0.279808 0.703725
O O17 0.038062 0.000000 0.721055
O O18 0.976093 0.500000 0.599411
O O19 0.000000 0.252906 0.500000
O O20 0.750000 0.307695 0.525149
O O21 0.686275 0.500000 0.452570
O O22 0.640282 0.000000 0.887478
#
# Coordination Sequence:
#
# PCOD8212099 Si02
#       8
#     8   8   8   8   8   8   8   8
#     4   9  17  32  54  80 113 152 190 232 285 345
#     4  11  22  38  61  91 125 156 194 252 311 362
#     4  11  24  41  62  88 121 162 204 248 304 369
#     4  10  22  40  60  86 124 163 204 252 303 365
#     4  10  20  35  55  83 118 154 195 240 295 357
#     4  10  21  37  57  84 119 160 204 250 300 352
#     4  10  22  41  64  87 114 155 203 250 305 367
#     4  11  22  39  62  88 121 159 201 251 304 357
#
# _framework density 20.161194999999999
#
# number of rings (size 3 to 8) (size 9 to 14) (size 15 to 20)
#    0.000    1.750    1.250    3.000    0.000    7.500 
#    0.000    1.250    0.000    2.625    0.000    0.000 
#    0.000    0.000    0.000    0.000    0.000    0.000 
#
# Total GULP energy -793738.166142 kJ/mol
# GULP energy per Si atom -12402.158846 kJ/mol
# Density = 2.011531 g / cm^3
# Si number density = 20.161195 Si / 1000 Ang^3
#
#
#
# Elastic Constant Matrix: (Units=GPa)
#
#
# Indices 1 2 3 4 5 6 
#
# 1 106.5250 31.9799 43.9567 0.0000 0.0000 0.0000
# 2 31.9799 49.4662 34.5898 0.0000 0.0000 0.0000
# 3 43.9567 34.5898 106.4453 0.0000 0.0000 0.0000
# 4 0.0000 0.0000 0.0000 25.1969 0.0000 0.0000
# 5 0.0000 0.0000 0.0000 0.0000 35.7193 0.0000
# 6 0.0000 0.0000 0.0000 0.0000 0.0000 24.1332
#
#
#
# Elastic Compliance Matrix: (Units=1/GPa)
#
#
# Indices 1 2 3 4 5 6 
#
# 1 0.012472 -0.005774 -0.003274 0.000000 0.000000 0.000000
# 2 -0.005774 0.028833 -0.006985 0.000000 0.000000 0.000000
# 3 -0.003274 -0.006985 0.013016 0.000000 0.000000 0.000000
# 4 0.000000 0.000000 0.000000 0.039687 0.000000 0.000000
# 5 0.000000 0.000000 0.000000 0.000000 0.027996 0.000000
# 6 0.000000 0.000000 0.000000 0.000000 0.000000 0.041437
#
#
# Mechanical properties :
#
#
# Convention : Reuss Voigt Hill
#
# Bulk Modulus (GPa) = 44.93283 53.72104 49.32693
# Shear Modulus (GPa) = 24.63959 27.13721 25.88840
#
# Velocity S-wave (km/s) = 3.49969 3.67278 3.58728
# Velocity P-wave (km/s) = 6.21817 6.68501 6.45581
#
# Compressibility (1/GPa) = 0.02225544
#
# Stress axis : x y z
#
# Youngs Moduli (GPa) = 80.18107 34.68262 76.82623
#
# Poissons Ratio (x) = 0.20024 0.25154
# Poissons Ratio (y) = 0.46293 0.53664
# Poissons Ratio (z) = 0.26252 0.24226
#
# Static dielectric constant tensor:
#      x y z
#    x 3.876990 0.000000 0.000000 
#    y 0.000000 3.441060 0.000000 
#    z 0.000000 0.000000 3.608370 
# 
# 
# High freq. dielectric constant tensor:
#      x y z
#    x 1.801490 0.000000 0.000000 
#    y 0.000000 1.767390 0.000000 
#    z 0.000000 0.000000 1.789070 
# 
# From -- ./inp_files/19643.got.cif
#   From: 2010.03.12/outbox.cif.g09.slc.cpg/sg51_10_cif.got.tgz:19643.got - 2010.04.16 13:43:02.
