data_PCOD8212205
_publ_section_title
;
Structure prediction by ZEFSAII (Michael W. Deem and Ramdas Pophale) SiO2 
 PCOD8212205
Probable space group: P M M A
;
_chemical_formula_sum "Si O2"
_cell_formula_units_Z 48
_cell_length_a 9.021029
_cell_length_b 9.017992
_cell_length_c 31.010653
_cell_angle_alpha 90.000000
_cell_angle_beta 90.000000
_cell_angle_gamma 90.000000
_cell_volume 2522.765226
_symmetry_space_group_name_H-M "P M M A"
_symmetry_group_IT_number 51
_symmetry_cell_setting 'orthorhombic'
loop_
_space_group_symop_operation_xyz
x,y,z
1/2-x,-y,z
1/2+x,-y,-z
-x,y,-z
-x,-y,-z
1/2+x,y,-z
1/2-x,y,z
x,-y,z
loop_
_atom_site_type_symbol
_atom_site_label
_atom_site_fract_x
_atom_site_fract_y
_atom_site_fract_z
Si Si1 0.082888 0.176724 0.042004
Si Si2 0.922456 0.327450 0.622690
Si Si3 0.426176 0.333150 0.787603
Si Si4 0.921218 0.825300 0.298561
Si Si5 0.923216 0.827727 0.127470
Si Si6 0.923444 0.170508 0.455213
O O1 0.250000 0.236289 0.041316
O O2 0.004032 0.235768 0.085168
O O3 0.077275 0.000000 0.041267
O O4 0.000000 0.240980 0.000000
O O5 0.750000 0.293513 0.615623
O O6 0.952912 0.500000 0.630875
O O7 0.979071 0.236540 0.663397
O O8 0.010691 0.277240 0.580695
O O9 0.250000 0.329562 0.789026
O O10 0.487581 0.500000 0.784808
O O11 0.481661 0.243633 0.745929
O O12 0.487890 0.257355 0.830974
O O13 0.750000 0.781599 0.306994
O O14 0.940673 0.000000 0.295698
O O15 0.750000 0.798616 0.121013
O O16 0.957436 0.000000 0.134580
O O17 0.750000 0.201110 0.459775
O O18 0.000000 0.211754 0.500000
O O19 0.955216 0.000000 0.442413
#
# Coordination Sequence:
#
# PCOD8212205 Si02
#       6
#     8   8   8   8   8   8
#     4   9  16  26  42  66  95 125 158 199 247 296
#     4  11  24  39  55  79 112 148 184 222 267 318
#     4   9  17  30  50  75 102 133 169 209 254 305
#     4  10  20  35  57  83 108 137 177 222 266 314
#     4   9  16  27  45  69  96 126 162 204 248 296
#     4  10  21  38  61  87 113 144 183 225 269 317
#
# _framework density 19.026741000000001
#
# number of rings (size 3 to 8) (size 9 to 14) (size 15 to 20)
#    0.000    2.333    0.000    3.000    0.000    9.667 
#    0.000    0.833    0.000    4.000    0.000    0.000 
#    0.000    0.000    0.000    0.000    0.000    0.000 
#
# Total GULP energy -595314.940427 kJ/mol
# GULP energy per Si atom -12402.394592 kJ/mol
# Density = 1.898343 g / cm^3
# Si number density = 19.026741 Si / 1000 Ang^3
#
#
#
# Elastic Constant Matrix: (Units=GPa)
#
#
# Indices 1 2 3 4 5 6 
#
# 1 79.9163 35.1650 59.3615 0.0000 0.0000 0.0000
# 2 35.1650 72.8519 54.8465 0.0000 0.0000 0.0000
# 3 59.3615 54.8465 165.8661 0.0000 0.0000 0.0000
# 4 0.0000 0.0000 0.0000 0.7247 0.0000 0.0000
# 5 0.0000 0.0000 0.0000 0.0000 33.2572 0.0000
# 6 0.0000 0.0000 0.0000 0.0000 0.0000 19.2876
#
#
#
# Elastic Compliance Matrix: (Units=1/GPa)
#
#
# Indices 1 2 3 4 5 6 
#
# 1 0.018430 -0.005233 -0.004865 0.000000 0.000000 0.000000
# 2 -0.005233 0.019762 -0.004662 0.000000 0.000000 0.000000
# 3 -0.004865 -0.004662 0.009312 0.000000 0.000000 0.000000
# 4 0.000000 0.000000 0.000000 1.379818 0.000000 0.000000
# 5 0.000000 0.000000 0.000000 0.000000 0.030069 0.000000
# 6 0.000000 0.000000 0.000000 0.000000 0.000000 0.051847
#
#
# Mechanical properties :
#
#
# Convention : Reuss Voigt Hill
#
# Bulk Modulus (GPa) = 55.60775 68.59778 62.10276
# Shear Modulus (GPa) = 3.23677 21.93799 12.58738
#
# Velocity S-wave (km/s) = 1.30570 3.39928 2.57488
# Velocity P-wave (km/s) = 5.61807 7.17903 6.44597
#
# Compressibility (1/GPa) = 0.01798311
#
# Stress axis : x y z
#
# Youngs Moduli (GPa) = 54.26023 50.60205 107.39117
#
# Poissons Ratio (x) = 0.26480 0.52250
# Poissons Ratio (y) = 0.28394 0.50064
# Poissons Ratio (z) = 0.26400 0.23590
#
# Static dielectric constant tensor:
#      x y z
#    x 3.370270 0.000000 0.000000 
#    y 0.000000 3.361200 0.000000 
#    z 0.000000 0.000000 3.827600 
# 
# 
# High freq. dielectric constant tensor:
#      x y z
#    x 1.723590 0.000000 0.000000 
#    y 0.000000 1.722430 0.000000 
#    z 0.000000 0.000000 1.758660 
# 
# From -- ./inp_files/37007.got.cif
#   From: 2010.03.12/outbox.cif.g09.slc.cpg/sg51_19_cif.got.tgz:37007.got - 2010.04.16 13:43:02.
