data_PCOD8212809
_publ_section_title
;
Structure prediction by ZEFSAII (Michael W. Deem and Ramdas Pophale) SiO2 
 PCOD8212809
Probable space group: P M M A
;
_chemical_formula_sum "Si O2"
_cell_formula_units_Z 48
_cell_length_a 9.419663
_cell_length_b 9.421102
_cell_length_c 29.194325
_cell_angle_alpha 90.000000
_cell_angle_beta 90.000000
_cell_angle_gamma 90.000000
_cell_volume 2590.809673
_symmetry_space_group_name_H-M "P M M A"
_symmetry_group_IT_number 51
_symmetry_cell_setting 'orthorhombic'
loop_
_space_group_symop_operation_xyz
x,y,z
1/2-x,-y,z
1/2+x,-y,-z
-x,y,-z
-x,-y,-z
1/2+x,y,-z
1/2-x,y,z
x,-y,z
loop_
_atom_site_type_symbol
_atom_site_label
_atom_site_fract_x
_atom_site_fract_y
_atom_site_fract_z
Si Si1 0.476764 0.160358 0.101049
Si Si2 0.914686 0.838896 0.798780
Si Si3 0.750000 0.331920 0.951051
Si Si4 0.087739 0.665807 0.288180
Si Si5 0.914784 0.332802 0.377326
Si Si6 0.250000 0.155816 0.958786
Si Si7 0.415593 0.164971 0.453811
O O1 0.497902 0.199204 0.154540
O O2 0.384209 0.277795 0.076406
O O3 0.622219 0.171606 0.075377
O O4 0.412164 0.000000 0.097531
O O5 0.750000 0.810426 0.809171
O O6 0.969442 0.741205 0.757532
O O7 0.942469 0.000000 0.783585
O O8 0.750000 0.500000 0.953445
O O9 0.750000 0.274838 0.002730
O O10 0.250000 0.713004 0.299821
O O11 0.081149 0.500000 0.278847
O O12 0.982392 0.710466 0.328787
O O13 0.750000 0.284252 0.378974
O O14 0.928006 0.500000 0.385948
O O15 0.008141 0.254993 0.415021
O O16 0.250000 0.000000 0.982832
O O17 0.500000 0.199194 0.500000
O O18 0.250000 0.209673 0.458907
O O19 0.427751 0.000000 0.440945
#
# Coordination Sequence:
#
# PCOD8212809 Si02
#       7
#     8   8   4   8   8   4   8
#     4  10  20  38  59  80 107 142 182 223 269 326
#     4   9  17  32  55  80 104 133 175 225 270 319
#     4  12  24  36  56  82 110 142 180 224 271 324
#     4   9  18  33  53  76 104 139 179 223 271 323
#     4  10  21  37  56  80 113 152 192 230 272 329
#     4  10  22  38  58  80 106 144 182 220 271 328
#     4  10  21  37  58  84 114 149 189 236 288 337
#
# _framework density 18.527027
#
# number of rings (size 3 to 8) (size 9 to 14) (size 15 to 20)
#    0.000    2.167    0.833    2.250    0.000    6.333 
#    1.500    1.667    0.000    0.000    0.000    0.000 
#    0.000    0.000    0.000    0.000    0.000    0.000 
#
# Total GULP energy -595127.895939 kJ/mol
# GULP energy per Si atom -12398.497832 kJ/mol
# Density = 1.848486 g / cm^3
# Si number density = 18.527027 Si / 1000 Ang^3
#
#
#
# Elastic Constant Matrix: (Units=GPa)
#
#
# Indices 1 2 3 4 5 6 
#
# 1 117.4465 54.5113 70.8230 0.0000 0.0000 0.0000
# 2 54.5113 86.8009 76.4835 0.0000 0.0000 0.0000
# 3 70.8230 76.4835 160.4247 0.0000 0.0000 0.0000
# 4 0.0000 0.0000 0.0000 456.5482 0.0000 0.0000
# 5 0.0000 0.0000 0.0000 0.0000 93.6099 0.0000
# 6 0.0000 0.0000 0.0000 0.0000 0.0000 17.0852
#
#
#
# Elastic Compliance Matrix: (Units=1/GPa)
#
#
# Indices 1 2 3 4 5 6 
#
# 1 0.012882 -0.005309 -0.003156 0.000000 0.000000 0.000000
# 2 -0.005309 0.022054 -0.008171 0.000000 0.000000 0.000000
# 3 -0.003156 -0.008171 0.011522 0.000000 0.000000 0.000000
# 4 0.000000 0.000000 0.000000 0.002190 0.000000 0.000000
# 5 0.000000 0.000000 0.000000 0.000000 0.010683 0.000000
# 6 0.000000 0.000000 0.000000 0.000000 0.000000 0.058530
#
#
# Mechanical properties :
#
#
# Convention : Reuss Voigt Hill
#
# Bulk Modulus (GPa) = 75.83278 85.36752 80.60015
# Shear Modulus (GPa) = 32.14862 124.30563 78.22713
#
# Velocity S-wave (km/s) = 4.17013 8.19999 6.50499
# Velocity P-wave (km/s) = 8.01289 11.65463 10.00092
#
# Compressibility (1/GPa) = 0.01318691
#
# Stress axis : x y z
#
# Youngs Moduli (GPa) = 77.62983 45.34275 86.79019
#
# Poissons Ratio (x) = 0.24073 0.27389
# Poissons Ratio (y) = 0.41214 0.70913
# Poissons Ratio (z) = 0.24498 0.37048
#
# Static dielectric constant tensor:
#      x y z
#    x 3.436400 0.000000 0.000000 
#    y 0.000000 3.391110 0.000000 
#    z 0.000000 0.000000 3.545450 
# 
# 
# High freq. dielectric constant tensor:
#      x y z
#    x 1.715970 0.000000 0.000000 
#    y 0.000000 1.710050 0.000000 
#    z 0.000000 0.000000 1.730920 
# 
# From -- ./inp_files/37107.got.cif
#   From: 2010.03.12/outbox.cif.g09.slc.cpg/sg51_19_cif.got.tgz:37107.got - 2010.04.16 13:43:02.
