data_PCOD8212079
_publ_section_title
;
Structure prediction by ZEFSAII (Michael W. Deem and Ramdas Pophale) SiO2 
 PCOD8212079
Probable space group: P M M A
;
_chemical_formula_sum "Si O2"
_cell_formula_units_Z 48
_cell_length_a 9.363274
_cell_length_b 16.619306
_cell_length_c 15.654969
_cell_angle_alpha 90.000000
_cell_angle_beta 90.000000
_cell_angle_gamma 90.000000
_cell_volume 2436.087193
_symmetry_space_group_name_H-M "P M M A"
_symmetry_group_IT_number 51
_symmetry_cell_setting 'orthorhombic'
loop_
_space_group_symop_operation_xyz
x,y,z
1/2-x,-y,z
1/2+x,-y,-z
-x,y,-z
-x,-y,-z
1/2+x,y,-z
1/2-x,y,z
x,-y,z
loop_
_atom_site_type_symbol
_atom_site_label
_atom_site_fract_x
_atom_site_fract_y
_atom_site_fract_z
Si Si1 0.587644 0.165538 0.669355
Si Si2 0.913786 0.595111 0.259896
Si Si3 0.081418 0.000000 0.412621
Si Si4 0.415807 0.328743 0.415078
Si Si5 0.418830 0.000000 0.912573
Si Si6 0.413730 0.672533 0.917257
Si Si7 0.413394 0.165516 0.831979
O O1 0.750000 0.157841 0.699775
O O2 0.571436 0.232243 0.595457
O O3 0.497923 0.195386 0.749669
O O4 0.531318 0.079183 0.637944
O O5 0.750000 0.623650 0.276057
O O6 0.924608 0.500000 0.258242
O O7 0.968150 0.628134 0.168396
O O8 0.015753 0.627380 0.334036
O O9 0.000000 0.000000 0.500000
O O10 0.250000 0.000000 0.430181
O O11 0.500000 0.355214 0.500000
O O12 0.250000 0.354757 0.423276
O O13 0.469765 0.078745 0.861699
O O14 0.250000 0.000000 0.929682
O O15 0.500000 0.000000 0.000000
O O16 0.250000 0.649954 0.934129
O O17 0.434494 0.768705 0.906332
O O18 0.500000 0.642779 0.000000
O O19 0.250000 0.159569 0.804053
#
# Coordination Sequence:
#
# PCOD8212079 Si02
#       7
#     8   8   4   8   4   8   8
#     4  10  21  36  56  83 114 151 195 240 288 340
#     4  10  22  42  65  88 118 155 194 240 296 356
#     4  10  21  36  52  78 114 150 193 239 283 337
#     4  11  23  39  62  91 121 156 197 241 293 352
#     4  10  21  34  50  78 112 150 195 239 287 343
#     4  10  21  37  59  87 118 154 194 238 289 346
#     4  10  20  35  55  80 112 151 195 239 287 342
#
# _framework density 19.703727000000001
#
# number of rings (size 3 to 8) (size 9 to 14) (size 15 to 20)
#    0.000    1.833    1.667    2.000    0.000    4.333 
#    0.000    0.000    0.000    0.000    0.000    0.000 
#    0.000    0.000    0.000    0.000    0.000    0.000 
#
# Total GULP energy -595316.586176 kJ/mol
# GULP energy per Si atom -12402.428879 kJ/mol
# Density = 1.965888 g / cm^3
# Si number density = 19.703727 Si / 1000 Ang^3
#
#
#
# Elastic Constant Matrix: (Units=GPa)
#
#
# Indices 1 2 3 4 5 6 
#
# 1 83.9052 28.3877 74.8046 0.0000 0.0000 0.0000
# 2 28.3877 84.8687 32.9839 0.0000 0.0000 0.0000
# 3 74.8046 32.9839 150.2915 0.0000 0.0000 0.0000
# 4 0.0000 0.0000 0.0000 18.7408 0.0000 0.0000
# 5 0.0000 0.0000 0.0000 0.0000 44.4077 0.0000
# 6 0.0000 0.0000 0.0000 0.0000 0.0000 23.9020
#
#
#
# Elastic Compliance Matrix: (Units=1/GPa)
#
#
# Indices 1 2 3 4 5 6 
#
# 1 0.022308 -0.003440 -0.010348 0.000000 0.000000 0.000000
# 2 -0.003440 0.013412 -0.001231 0.000000 0.000000 0.000000
# 3 -0.010348 -0.001231 0.012075 0.000000 0.000000 0.000000
# 4 0.000000 0.000000 0.000000 0.053360 0.000000 0.000000
# 5 0.000000 0.000000 0.000000 0.000000 0.022519 0.000000
# 6 0.000000 0.000000 0.000000 0.000000 0.000000 0.041837
#
#
# Mechanical properties :
#
#
# Convention : Reuss Voigt Hill
#
# Bulk Modulus (GPa) = 56.32084 65.71309 61.01697
# Shear Modulus (GPa) = 24.81779 29.60272 27.21026
#
# Velocity S-wave (km/s) = 3.55286 3.88028 3.72017
# Velocity P-wave (km/s) = 6.74361 7.31426 7.03472
#
# Compressibility (1/GPa) = 0.01775542
#
# Stress axis : x y z
#
# Youngs Moduli (GPa) = 44.82681 74.55962 82.81769
#
# Poissons Ratio (x) = 0.25648 0.85704
# Poissons Ratio (y) = 0.15420 0.10198
# Poissons Ratio (z) = 0.46389 0.09181
#
# Static dielectric constant tensor:
#      x y z
#    x 3.551820 0.000000 0.000000 
#    y 0.000000 3.927980 0.000000 
#    z 0.000000 0.000000 3.527810 
# 
# 
# High freq. dielectric constant tensor:
#      x y z
#    x 1.762280 0.000000 0.000000 
#    y 0.000000 1.776470 0.000000 
#    z 0.000000 0.000000 1.765710 
# 
# From -- ./inp_files/21137.got.cif
#   From: 2010.03.12/outbox.cif.g09.slc.cpg/sg51_11_cif.got.tgz:21137.got - 2010.04.16 13:43:02.
