data_PCOD8212914
_publ_section_title
;
Structure prediction by ZEFSAII (Michael W. Deem and Ramdas Pophale) SiO2 
 PCOD8212914
Probable space group: P M M A
;
_chemical_formula_sum "Si O2"
_cell_formula_units_Z 64
_cell_length_a 15.115789
_cell_length_b 9.533150
_cell_length_c 24.638570
_cell_angle_alpha 90.000000
_cell_angle_beta 90.000000
_cell_angle_gamma 90.000000
_cell_volume 3550.444643
_symmetry_space_group_name_H-M "P M M A"
_symmetry_group_IT_number 51
_symmetry_cell_setting 'orthorhombic'
loop_
_space_group_symop_operation_xyz
x,y,z
1/2-x,-y,z
1/2+x,-y,-z
-x,y,-z
-x,-y,-z
1/2+x,y,-z
1/2-x,y,z
x,-y,z
loop_
_atom_site_type_symbol
_atom_site_label
_atom_site_fract_x
_atom_site_fract_y
_atom_site_fract_z
Si Si1 0.354637 0.152744 0.997267
Si Si2 0.348925 0.831784 0.113709
Si Si3 0.848611 0.168070 0.119289
Si Si4 0.495517 0.834593 0.683097
Si Si5 0.647433 0.335362 0.381161
Si Si6 0.996379 0.166710 0.805802
Si Si7 0.851103 0.163109 0.601819
Si Si8 0.854726 0.345635 0.502303
O O1 0.250000 0.133847 0.998031
O O2 0.379745 0.229017 0.940156
O O3 0.400402 0.000000 0.996879
O O4 0.381205 0.228251 0.054315
O O5 0.250000 0.779246 0.127522
O O6 0.412831 0.773641 0.160684
O O7 0.350906 0.000000 0.110813
O O8 0.750000 0.221283 0.134034
O O9 0.914180 0.223313 0.165855
O O10 0.849535 0.000000 0.115610
O O11 0.411146 0.755248 0.659389
O O12 0.508427 0.779382 0.744306
O O13 0.586179 0.796427 0.651950
O O14 0.475949 0.000000 0.680591
O O15 0.750000 0.295558 0.371832
O O16 0.632683 0.500000 0.370642
O O17 0.616334 0.295723 0.442338
O O18 0.994509 0.000000 0.806658
O O19 0.750000 0.208300 0.615842
O O20 0.888782 0.240009 0.548313
O O21 0.855563 0.000000 0.588513
O O22 0.750000 0.353873 0.502921
O O23 0.894115 0.500000 0.514799
#
# Coordination Sequence:
#
# PCOD8212914 Si02
#       8
#     8   8   8   8   8   8   8   8
#     4   7  10  17  29  46  67  93 131 176 219 264
#     4   8  13  21  33  49  71 102 141 183 222 261
#     4   8  13  21  32  46  68  99 134 175 221 265
#     4  10  21  33  45  67  96 125 161 197 225 263
#     4   9  19  36  55  73  94 120 149 185 232 281
#     4   9  17  26  35  51  76 109 149 183 213 256
#     4   9  18  32  48  67  95 128 156 186 228 274
#     4   8  15  30  52  75  94 113 145 188 231 278
#
# _framework density 18.02591
#
# number of rings (size 3 to 8) (size 9 to 14) (size 15 to 20)
#    0.000    3.500    0.000    2.250    0.000    3.250 
#    0.000   10.000    0.000    0.000    0.000    0.000 
#    0.000    0.000    0.000    2.250    0.000   11.750 
#
# Total GULP energy -792846.667605 kJ/mol
# GULP energy per Si atom -12388.229181 kJ/mol
# Density = 1.798488 g / cm^3
# Si number density = 18.025910 Si / 1000 Ang^3
#
#
#
# Elastic Constant Matrix: (Units=GPa)
#
#
# Indices 1 2 3 4 5 6 
#
# 1 94.6757 20.2159 67.6392 0.0000 0.0000 0.0000
# 2 20.2159 19.6321 28.6732 0.0000 0.0000 0.0000
# 3 67.6392 28.6732 166.6721 0.0000 0.0000 0.0000
# 4 0.0000 0.0000 0.0000 -1.7872 0.0000 0.0000
# 5 0.0000 0.0000 0.0000 0.0000 33.8272 0.0000
# 6 0.0000 0.0000 0.0000 0.0000 0.0000 12.4316
#
#
#
# Elastic Compliance Matrix: (Units=1/GPa)
#
#
# Indices 1 2 3 4 5 6 
#
# 1 0.016072 -0.009381 -0.004909 0.000000 0.000000 0.000000
# 2 -0.009381 0.073506 -0.008838 0.000000 0.000000 0.000000
# 3 -0.004909 -0.008838 0.009512 0.000000 0.000000 0.000000
# 4 0.000000 0.000000 0.000000 -0.559535 0.000000 0.000000
# 5 0.000000 0.000000 0.000000 0.000000 0.029562 0.000000
# 6 0.000000 0.000000 0.000000 0.000000 0.000000 0.080440
#
#
# Mechanical properties :
#
#
# Convention : Reuss Voigt Hill
#
# Bulk Modulus (GPa) = 18.92713 57.11515 38.02114
# Shear Modulus (GPa) = -17.44743 19.85777 1.20517
#
# Velocity S-wave (km/s) = -3.11450 3.32267 0.81855
# Velocity P-wave (km/s) = 1.55265 6.81719 4.69379
#
# Compressibility (1/GPa) = 0.05283421
#
# Stress axis : x y z
#
# Youngs Moduli (GPa) = 62.21844 13.60436 105.12650
#
# Poissons Ratio (x) = 0.12762 0.51603
# Poissons Ratio (y) = 0.58368 0.92915
# Poissons Ratio (z) = 0.30541 0.12024
#
# Static dielectric constant tensor:
#      x y z
#    x 3.335510 0.000000 0.000000 
#    y 0.000000 2.771990 0.000000 
#    z 0.000000 0.000000 3.702260 
# 
# 
# High freq. dielectric constant tensor:
#      x y z
#    x 1.698230 0.000000 0.000000 
#    y 0.000000 1.620810 0.000000 
#    z 0.000000 0.000000 1.708600 
# 
# From -- ./inp_files/35788.got.cif
#   From: 2010.03.12/outbox.cif.g09.slc.cpg/sg51_18_cif.got.tgz:35788.got - 2010.04.16 13:43:02.
