data_PCOD8212999
_publ_section_title
;
Structure prediction by ZEFSAII (Michael W. Deem and Ramdas Pophale) SiO2 
 PCOD8212999
Probable space group: P M M A
;
_chemical_formula_sum "Si O2"
_cell_formula_units_Z 48
_cell_length_a 9.948995
_cell_length_b 9.037021
_cell_length_c 30.575453
_cell_angle_alpha 90.000000
_cell_angle_beta 90.000000
_cell_angle_gamma 90.000000
_cell_volume 2749.016865
_symmetry_space_group_name_H-M "P M M A"
_symmetry_group_IT_number 51
_symmetry_cell_setting 'orthorhombic'
loop_
_space_group_symop_operation_xyz
x,y,z
1/2-x,-y,z
1/2+x,-y,-z
-x,y,-z
-x,-y,-z
1/2+x,y,-z
1/2-x,y,z
x,-y,z
loop_
_atom_site_type_symbol
_atom_site_label
_atom_site_fract_x
_atom_site_fract_y
_atom_site_fract_z
Si Si1 0.599427 0.323861 0.463762
Si Si2 0.398210 0.324409 0.964529
Si Si3 0.096221 0.173831 0.202358
Si Si4 0.599351 0.324112 0.366615
Si Si5 0.403897 0.326147 0.291865
Si Si6 0.906516 0.671679 0.134244
O O1 0.500000 0.254382 0.500000
O O2 0.750000 0.270367 0.474820
O O3 0.592513 0.500000 0.465025
O O4 0.558141 0.268203 0.415179
O O5 0.250000 0.259962 0.974331
O O6 0.394003 0.500000 0.968894
O O7 0.442397 0.282572 0.915455
O O8 0.500000 0.254562 0.000000
O O9 0.250000 0.218298 0.191272
O O10 0.049858 0.248059 0.247475
O O11 0.999470 0.228708 0.164332
O O12 0.080335 0.000000 0.207556
O O13 0.750000 0.269229 0.355075
O O14 0.595264 0.500000 0.366079
O O15 0.494877 0.261090 0.331111
O O16 0.250000 0.288433 0.303339
O O17 0.426065 0.500000 0.285520
O O18 0.750000 0.703328 0.144066
O O19 0.939442 0.500000 0.142599
#
# Coordination Sequence:
#
# PCOD8212999 Si02
#       6
#     8   8   8   8   8   8
#     4   8  13  20  30  47  74 107 139 169 204 250
#     4   8  14  25  42  67  97 123 148 182 223 265
#     4  10  21  35  49  67  93 123 155 193 235 278
#     4   8  14  24  37  55  80 109 141 177 216 258
#     4   9  17  29  45  64  85 111 146 186 225 267
#     4   9  18  32  50  73  99 125 155 191 229 271
#
# _framework density 17.460787
#
# number of rings (size 3 to 8) (size 9 to 14) (size 15 to 20)
#    0.000    3.333    0.000    2.500    0.000    3.333 
#    0.000    6.667    0.000    0.500    0.000    0.000 
#    0.000    0.667    0.000    1.500    0.000    3.000 
#
# Total GULP energy -594957.665316 kJ/mol
# GULP energy per Si atom -12394.951361 kJ/mol
# Density = 1.742105 g / cm^3
# Si number density = 17.460787 Si / 1000 Ang^3
#
#
#
# Elastic Constant Matrix: (Units=GPa)
#
#
# Indices 1 2 3 4 5 6 
#
# 1 105.9012 22.2878 100.4556 0.0000 0.0000 0.0000
# 2 22.2878 21.9863 27.7913 0.0000 0.0000 0.0000
# 3 100.4556 27.7913 160.5314 0.0000 0.0000 0.0000
# 4 0.0000 0.0000 0.0000 -1.1502 0.0000 0.0000
# 5 0.0000 0.0000 0.0000 0.0000 41.5655 0.0000
# 6 0.0000 0.0000 0.0000 0.0000 0.0000 14.4058
#
#
#
# Elastic Compliance Matrix: (Units=1/GPa)
#
#
# Indices 1 2 3 4 5 6 
#
# 1 0.024014 -0.006847 -0.013842 0.000000 0.000000 0.000000
# 2 -0.006847 0.060176 -0.006133 0.000000 0.000000 0.000000
# 3 -0.013842 -0.006133 0.015953 0.000000 0.000000 0.000000
# 4 0.000000 0.000000 0.000000 -0.869437 0.000000 0.000000
# 5 0.000000 0.000000 0.000000 0.000000 0.024058 0.000000
# 6 0.000000 0.000000 0.000000 0.000000 0.000000 0.069417
#
#
# Mechanical properties :
#
#
# Convention : Reuss Voigt Hill
#
# Bulk Modulus (GPa) = 21.50575 65.49872 43.50224
# Shear Modulus (GPa) = -8.24162 20.15650 5.95744
#
# Velocity S-wave (km/s) = -2.17493 3.40131 1.84914
# Velocity P-wave (km/s) = 2.45688 7.28138 5.43391
#
# Compressibility (1/GPa) = 0.04649919
#
# Stress axis : x y z
#
# Youngs Moduli (GPa) = 41.64301 16.61791 62.68486
#
# Poissons Ratio (x) = 0.11378 0.86766
# Poissons Ratio (y) = 0.28512 0.38446
# Poissons Ratio (z) = 0.57641 0.10192
#
# Static dielectric constant tensor:
#      x y z
#    x 3.531380 0.000000 0.000000 
#    y 0.000000 2.684150 0.000000 
#    z 0.000000 0.000000 3.524050 
# 
# 
# High freq. dielectric constant tensor:
#      x y z
#    x 1.678040 0.000000 0.000000 
#    y 0.000000 1.616280 0.000000 
#    z 0.000000 0.000000 1.684760 
# 
# From -- ./inp_files/36510.got.cif
#   From: 2010.03.12/outbox.cif.g09.slc.cpg/sg51_19_cif.got.tgz:36510.got - 2010.04.16 13:43:02.
