data_PCOD8212611
_publ_section_title
;
Structure prediction by ZEFSAII (Michael W. Deem and Ramdas Pophale) SiO2 
 PCOD8212611
Probable space group: P M M A
;
_chemical_formula_sum "Si O2"
_cell_formula_units_Z 48
_cell_length_a 15.097640
_cell_length_b 8.815645
_cell_length_c 18.874471
_cell_angle_alpha 90.000000
_cell_angle_beta 90.000000
_cell_angle_gamma 90.000000
_cell_volume 2512.105920
_symmetry_space_group_name_H-M "P M M A"
_symmetry_group_IT_number 51
_symmetry_cell_setting 'orthorhombic'
loop_
_space_group_symop_operation_xyz
x,y,z
1/2-x,-y,z
1/2+x,-y,-z
-x,y,-z
-x,-y,-z
1/2+x,y,-z
1/2-x,y,z
x,-y,z
loop_
_atom_site_type_symbol
_atom_site_label
_atom_site_fract_x
_atom_site_fract_y
_atom_site_fract_z
Si Si1 0.610439 0.337930 0.807406
Si Si2 0.147575 0.176744 0.809762
Si Si3 0.040158 0.667083 0.695703
Si Si4 0.019515 0.324200 0.922393
Si Si5 0.438470 0.822098 0.433388
Si Si6 0.250000 0.830337 0.268890
Si Si7 0.250000 0.678504 0.414984
O O1 0.662795 0.500000 0.805658
O O2 0.525239 0.356867 0.759788
O O3 0.576312 0.303687 0.885817
O O4 0.666149 0.195497 0.780811
O O5 0.250000 0.213096 0.822952
O O6 0.122344 0.246209 0.732191
O O7 0.095443 0.238480 0.878326
O O8 0.127502 0.000000 0.803921
O O9 0.069247 0.500000 0.666813
O O10 0.990250 0.759198 0.634350
O O11 0.048205 0.500000 0.927059
O O12 0.000000 0.254843 0.000000
O O13 0.500000 0.785129 0.500000
O O14 0.341080 0.748533 0.446395
O O15 0.423261 0.000000 0.422517
O O16 0.250000 0.708345 0.331305
O O17 0.250000 0.000000 0.299903
O O18 0.250000 0.500000 0.429936
#
# Coordination Sequence:
#
# PCOD8212611 Si02
#       7
#     8   8   8   8   8   4   4
#     4   9  18  33  54  80 110 142 181 233 285 337
#     4  10  21  37  58  84 116 155 196 243 296 353
#     4  10  20  36  61  87 113 148 192 241 288 343
#     4   9  19  37  59  82 110 148 193 241 295 350
#     4  11  24  42  64  91 124 161 198 245 304 363
#     4  12  22  32  54  84 114 147 188 235 286 340
#     4  12  24  40  64  90 120 159 202 247 296 358
#
# _framework density 19.107475000000001
#
# number of rings (size 3 to 8) (size 9 to 14) (size 15 to 20)
#    0.000    1.833    1.667    4.000    0.000    5.667 
#    3.000    0.000    0.000    0.000    0.000    0.000 
#    0.000    0.000    0.000    0.000    0.000    0.000 
#
# Total GULP energy -594788.632632 kJ/mol
# GULP energy per Si atom -12391.429846 kJ/mol
# Density = 1.906399 g / cm^3
# Si number density = 19.107475 Si / 1000 Ang^3
#
#
#
# Elastic Constant Matrix: (Units=GPa)
#
#
# Indices 1 2 3 4 5 6 
#
# 1 112.9634 59.0310 49.2373 0.0000 0.0000 0.0000
# 2 59.0310 116.9761 39.8894 0.0000 0.0000 0.0000
# 3 49.2373 39.8894 103.6309 0.0000 0.0000 0.0000
# 4 0.0000 0.0000 0.0000 1.9242 0.0000 0.0000
# 5 0.0000 0.0000 0.0000 0.0000 -50.6905 0.0000
# 6 0.0000 0.0000 0.0000 0.0000 0.0000 22.5100
#
#
#
# Elastic Compliance Matrix: (Units=1/GPa)
#
#
# Indices 1 2 3 4 5 6 
#
# 1 0.013557 -0.005347 -0.004383 0.000000 0.000000 0.000000
# 2 -0.005347 0.011949 -0.002059 0.000000 0.000000 0.000000
# 3 -0.004383 -0.002059 0.012525 0.000000 0.000000 0.000000
# 4 0.000000 0.000000 0.000000 0.519689 0.000000 0.000000
# 5 0.000000 0.000000 0.000000 0.000000 -0.019728 0.000000
# 6 0.000000 0.000000 0.000000 0.000000 0.000000 0.044425
#
#
# Mechanical properties :
#
#
# Convention : Reuss Voigt Hill
#
# Bulk Modulus (GPa) = 69.19041 69.98733 69.58887
# Shear Modulus (GPa) = 8.18582 7.10960 7.64771
#
# Velocity S-wave (km/s) = 2.07205 1.93104 2.00279
# Velocity P-wave (km/s) = 6.48184 6.45598 6.46892
#
# Compressibility (1/GPa) = 0.01445287
#
# Stress axis : x y z
#
# Youngs Moduli (GPa) = 73.76311 83.68842 79.84202
#
# Poissons Ratio (x) = 0.44746 0.34996
# Poissons Ratio (y) = 0.39439 0.16440
# Poissons Ratio (z) = 0.32331 0.17232
#
# Static dielectric constant tensor:
#      x y z
#    x 3.533770 0.000000 0.000000 
#    y 0.000000 3.677220 0.000000 
#    z 0.000000 0.000000 3.632780 
# 
# 
# High freq. dielectric constant tensor:
#      x y z
#    x 1.738930 0.000000 0.000000 
#    y 0.000000 1.750850 0.000000 
#    z 0.000000 0.000000 1.735790 
# 
# From -- ./inp_files/29615.got.cif
#   From: 2010.03.12/outbox.cif.g09.slc.cpg/sg51_15_cif.got.tgz:29615.got - 2010.04.16 13:43:02.
