data_PCOD8212753
_publ_section_title
;
Structure prediction by ZEFSAII (Michael W. Deem and Ramdas Pophale) SiO2 
 PCOD8212753
Probable space group: P M M A
;
_chemical_formula_sum "Si O2"
_cell_formula_units_Z 48
_cell_length_a 16.542586
_cell_length_b 9.019860
_cell_length_c 16.215836
_cell_angle_alpha 90.000000
_cell_angle_beta 90.000000
_cell_angle_gamma 90.000000
_cell_volume 2419.594236
_symmetry_space_group_name_H-M "P M M A"
_symmetry_group_IT_number 51
_symmetry_cell_setting 'orthorhombic'
loop_
_space_group_symop_operation_xyz
x,y,z
1/2-x,-y,z
1/2+x,-y,-z
-x,y,-z
-x,-y,-z
1/2+x,y,-z
1/2-x,y,z
x,-y,z
loop_
_atom_site_type_symbol
_atom_site_label
_atom_site_fract_x
_atom_site_fract_y
_atom_site_fract_z
Si Si1 0.750000 0.824149 0.982566
Si Si2 0.250000 0.824698 0.204986
Si Si3 0.922741 0.823981 0.053256
Si Si4 0.114879 0.329909 0.307013
Si Si5 0.556856 0.330952 0.224845
Si Si6 0.409517 0.171636 0.475082
Si Si7 0.657325 0.163412 0.352564
O O1 0.750000 0.768342 0.888849
O O2 0.750000 0.000000 0.988833
O O3 0.834222 0.763520 0.023168
O O4 0.328963 0.765329 0.248706
O O5 0.250000 0.000000 0.209211
O O6 0.937334 0.772369 0.145755
O O7 0.921586 0.000000 0.050361
O O8 0.000000 0.764984 0.000000
O O9 0.142902 0.500000 0.306705
O O10 0.120066 0.271340 0.399877
O O11 0.026857 0.308104 0.270659
O O12 0.571140 0.500000 0.197724
O O13 0.623334 0.284820 0.290928
O O14 0.500000 0.213655 0.500000
O O15 0.353657 0.212541 0.552780
O O16 0.401691 0.000000 0.449225
O O17 0.750000 0.150394 0.331109
O O18 0.616152 0.000000 0.340118
#
# Coordination Sequence:
#
# PCOD8212753 Si02
#       7
#     4   4   8   8   8   8   8
#     4   9  20  39  63  92 117 148 197 253 308 361
#     4  11  23  41  67  92 119 154 201 253 300 359
#     4  10  21  39  64  90 119 155 201 254 308 364
#     4  11  24  40  59  88 126 164 200 245 304 363
#     4  11  24  40  60  88 124 163 203 244 298 369
#     4  10  20  37  61  87 115 156 209 256 298 351
#     4  10  22  39  60  87 120 157 203 256 302 348
#
# _framework density 19.838035999999999
#
# number of rings (size 3 to 8) (size 9 to 14) (size 15 to 20)
#    0.000    1.667    1.667    2.250    2.333    5.000 
#    0.000    1.667    0.000    0.000    0.000    0.000 
#    0.000    0.000    0.000    0.000    0.000    0.000 
#
# Total GULP energy -595225.889082 kJ/mol
# GULP energy per Si atom -12400.539356 kJ/mol
# Density = 1.979288 g / cm^3
# Si number density = 19.838036 Si / 1000 Ang^3
#
#
#
# Elastic Constant Matrix: (Units=GPa)
#
#
# Indices 1 2 3 4 5 6 
#
# 1 93.7836 25.3264 35.3210 0.0000 0.0000 0.0000
# 2 25.3264 41.7829 31.1391 0.0000 0.0000 0.0000
# 3 35.3210 31.1391 120.0241 0.0000 0.0000 0.0000
# 4 0.0000 0.0000 0.0000 16.2576 0.0000 0.0000
# 5 0.0000 0.0000 0.0000 0.0000 55.4571 0.0000
# 6 0.0000 0.0000 0.0000 0.0000 0.0000 25.8206
#
#
#
# Elastic Compliance Matrix: (Units=1/GPa)
#
#
# Indices 1 2 3 4 5 6 
#
# 1 0.013221 -0.006340 -0.002246 0.000000 0.000000 0.000000
# 2 -0.006340 0.032710 -0.006621 0.000000 0.000000 0.000000
# 3 -0.002246 -0.006621 0.010710 0.000000 0.000000 0.000000
# 4 0.000000 0.000000 0.000000 0.061510 0.000000 0.000000
# 5 0.000000 0.000000 0.000000 0.000000 0.018032 0.000000
# 6 0.000000 0.000000 0.000000 0.000000 0.000000 0.038729
#
#
# Mechanical properties :
#
#
# Convention : Reuss Voigt Hill
#
# Bulk Modulus (GPa) = 38.12650 48.79595 43.46123
# Shear Modulus (GPa) = 23.35715 30.42733 26.89224
#
# Velocity S-wave (km/s) = 3.43504 3.92061 3.68583
# Velocity P-wave (km/s) = 5.91551 6.71904 6.33004
#
# Compressibility (1/GPa) = 0.02622847
#
# Stress axis : x y z
#
# Youngs Moduli (GPa) = 75.63846 30.57142 93.36875
#
# Poissons Ratio (x) = 0.19382 0.20969
# Poissons Ratio (y) = 0.47955 0.61816
# Poissons Ratio (z) = 0.16987 0.20240
#
# Static dielectric constant tensor:
#      x y z
#    x 3.810460 0.000000 0.000000 
#    y 0.000000 3.562820 0.000000 
#    z 0.000000 0.000000 3.927310 
# 
# 
# High freq. dielectric constant tensor:
#      x y z
#    x 1.785730 0.000000 0.000000 
#    y 0.000000 1.758970 0.000000 
#    z 0.000000 0.000000 1.785110 
# 
# From -- ./inp_files/24914.got.cif
#   From: 2010.03.12/outbox.cif.g09.slc.cpg/sg51_13_cif.got.tgz:24914.got - 2010.04.16 13:43:02.
