data_PCOD8212126
_publ_section_title
;
Structure prediction by ZEFSAII (Michael W. Deem and Ramdas Pophale) SiO2 
 PCOD8212126
Probable space group: P M M A
;
_chemical_formula_sum "Si O2"
_cell_formula_units_Z 64
_cell_length_a 20.899868
_cell_length_b 9.211133
_cell_length_c 16.533774
_cell_angle_alpha 90.000000
_cell_angle_beta 90.000000
_cell_angle_gamma 90.000000
_cell_volume 3182.941035
_symmetry_space_group_name_H-M "P M M A"
_symmetry_group_IT_number 51
_symmetry_cell_setting 'orthorhombic'
loop_
_space_group_symop_operation_xyz
x,y,z
1/2-x,-y,z
1/2+x,-y,-z
-x,y,-z
-x,-y,-z
1/2+x,y,-z
1/2-x,y,z
x,-y,z
loop_
_atom_site_type_symbol
_atom_site_label
_atom_site_fract_x
_atom_site_fract_y
_atom_site_fract_z
Si Si1 0.097142 0.833037 0.317889
Si Si2 0.086231 0.333766 0.062540
Si Si3 0.860116 0.171164 0.223485
Si Si4 0.426819 0.671667 0.480999
Si Si5 0.678559 0.661851 0.789016
Si Si6 0.500251 0.833210 0.172898
Si Si7 0.324220 0.171310 0.595846
Si Si8 0.320284 0.332145 0.926389
O O1 0.082646 0.729408 0.391640
O O2 0.164144 0.780104 0.280324
O O3 0.044576 0.805742 0.249493
O O4 0.101155 0.000000 0.345716
O O5 0.066743 0.500000 0.048797
O O6 0.136593 0.312510 0.133019
O O7 0.022094 0.249634 0.090718
O O8 0.122314 0.269779 0.983228
O O9 0.931673 0.224186 0.203212
O O10 0.839064 0.221131 0.312652
O O11 0.815523 0.247138 0.157851
O O12 0.852161 0.000000 0.215451
O O13 0.500000 0.714082 0.500000
O O14 0.415847 0.500000 0.485392
O O15 0.374570 0.746084 0.539127
O O16 0.750000 0.684825 0.818673
O O17 0.667300 0.500000 0.753615
O O18 0.502337 0.000000 0.148082
O O19 0.250000 0.210186 0.574615
O O20 0.335928 0.000000 0.585299
O O21 0.250000 0.314932 0.967779
O O22 0.334539 0.500000 0.909009
#
# Coordination Sequence:
#
# PCOD8212126 Si02
#       8
#     8   8   8   8   8   8   8   8
#     4  10  20  35  56  80 107 140 178 220 268 324
#     4   9  18  33  53  77 107 144 184 225 270 323
#     4  10  21  38  59  81 108 143 183 228 279 334
#     4  11  24  40  60  87 116 147 186 232 283 340
#     4   9  17  31  52  76 105 142 179 217 265 319
#     4   9  19  35  55  81 111 143 180 224 274 326
#     4  10  22  41  64  88 115 151 195 240 288 343
#     4  10  21  36  54  78 108 142 183 229 275 326
#
# _framework density 20.107189999999999
#
# number of rings (size 3 to 8) (size 9 to 14) (size 15 to 20)
#    0.000    2.250    0.000    2.250    0.000    7.750 
#    0.000    2.500    0.000    2.250    0.000    0.000 
#    0.000    0.000    0.000    0.000    0.000    0.000 
#
# Total GULP energy -793307.477818 kJ/mol
# GULP energy per Si atom -12395.429341 kJ/mol
# Density = 2.006142 g / cm^3
# Si number density = 20.107190 Si / 1000 Ang^3
#
#
#
# Elastic Constant Matrix: (Units=GPa)
#
#
# Indices 1 2 3 4 5 6 
#
# 1 92.0846 35.8915 14.9103 0.0000 0.0000 0.0000
# 2 35.8915 49.6682 29.2986 0.0000 0.0000 0.0000
# 3 14.9103 29.2986 45.3834 0.0000 0.0000 0.0000
# 4 0.0000 0.0000 0.0000 33.9751 0.0000 0.0000
# 5 0.0000 0.0000 0.0000 0.0000 23.4646 0.0000
# 6 0.0000 0.0000 0.0000 0.0000 0.0000 21.7881
#
#
#
# Elastic Compliance Matrix: (Units=1/GPa)
#
#
# Indices 1 2 3 4 5 6 
#
# 1 0.015443 -0.013190 0.003441 0.000000 0.000000 0.000000
# 2 -0.013190 0.043781 -0.023931 0.000000 0.000000 0.000000
# 3 0.003441 -0.023931 0.036353 0.000000 0.000000 0.000000
# 4 0.000000 0.000000 0.000000 0.029433 0.000000 0.000000
# 5 0.000000 0.000000 0.000000 0.000000 0.042617 0.000000
# 6 0.000000 0.000000 0.000000 0.000000 0.000000 0.045897
#
#
# Mechanical properties :
#
#
# Convention : Reuss Voigt Hill
#
# Bulk Modulus (GPa) = 35.43709 38.59301 37.01505
# Shear Modulus (GPa) = 17.22413 22.98128 20.10271
#
# Velocity S-wave (km/s) = 2.92997 3.38441 3.16536
# Velocity P-wave (km/s) = 5.39525 5.87431 5.63987
#
# Compressibility (1/GPa) = 0.02821902
#
# Stress axis : x y z
#
# Youngs Moduli (GPa) = 64.75320 22.84077 27.50783
#
# Poissons Ratio (x) = 0.30126 -0.09466
# Poissons Ratio (y) = 0.85407 0.65829
# Poissons Ratio (z) = -0.22283 0.54660
#
# Static dielectric constant tensor:
#      x y z
#    x 4.104120 0.000000 0.000000 
#    y 0.000000 3.615640 0.000000 
#    z 0.000000 0.000000 3.686000 
# 
# 
# High freq. dielectric constant tensor:
#      x y z
#    x 1.798940 0.000000 0.000000 
#    y 0.000000 1.773760 0.000000 
#    z 0.000000 0.000000 1.786280 
# 
# From -- ./inp_files/30550.got.cif
#   From: 2010.03.12/outbox.cif.g09.slc.cpg/sg51_16_cif.got.tgz:30550.got - 2010.04.16 13:43:02.
