data_PCOD8212504
_publ_section_title
;
Structure prediction by ZEFSAII (Michael W. Deem and Ramdas Pophale) SiO2 
 PCOD8212504
Probable space group: P M M A
;
_chemical_formula_sum "Si O2"
_cell_formula_units_Z 56
_cell_length_a 20.340188
_cell_length_b 9.360561
_cell_length_c 14.679921
_cell_angle_alpha 90.000000
_cell_angle_beta 90.000000
_cell_angle_gamma 90.000000
_cell_volume 2794.991934
_symmetry_space_group_name_H-M "P M M A"
_symmetry_group_IT_number 51
_symmetry_cell_setting 'orthorhombic'
loop_
_space_group_symop_operation_xyz
x,y,z
1/2-x,-y,z
1/2+x,-y,-z
-x,y,-z
-x,-y,-z
1/2+x,y,-z
1/2-x,y,z
x,-y,z
loop_
_atom_site_type_symbol
_atom_site_label
_atom_site_fract_x
_atom_site_fract_y
_atom_site_fract_z
Si Si1 0.250000 0.159057 0.803045
Si Si2 0.589498 0.163137 0.693328
Si Si3 0.615425 0.834361 0.485843
Si Si4 0.962971 0.668349 0.346111
Si Si5 0.132517 0.655449 0.813668
Si Si6 0.750000 0.837536 0.411314
Si Si7 0.826902 0.167792 0.869084
Si Si8 0.427419 0.660290 0.004202
O O1 0.313530 0.231881 0.843947
O O2 0.250000 0.175378 0.695783
O O3 0.250000 0.000000 0.839527
O O4 0.619798 0.184261 0.593636
O O5 0.528041 0.268969 0.700977
O O6 0.644713 0.202510 0.768275
O O7 0.565450 0.000000 0.707092
O O8 0.554808 0.746089 0.441686
O O9 0.683664 0.766017 0.449375
O O10 0.606178 0.000000 0.457099
O O11 0.972264 0.500000 0.362609
O O12 0.904856 0.705630 0.276622
O O13 0.164593 0.500000 0.794814
O O14 0.084620 0.647164 0.897715
O O15 0.750000 0.000000 0.445882
O O16 0.750000 0.218010 0.874465
O O17 0.872575 0.247821 0.942794
O O18 0.831241 0.000000 0.889700
O O19 0.428727 0.500000 0.047467
O O20 0.500000 0.731604 0.000000
#
# Coordination Sequence:
#
# PCOD8212504 Si02
#       8
#     4   8   8   8   8   4   8   8
#     4  11  21  35  57  86 115 148 190 239 283 335
#     4  10  22  38  60  84 114 156 196 238 290 347
#     4  10  20  36  58  84 115 153 197 238 285 346
#     4  11  22  37  58  85 119 154 190 241 292 341
#     4  10  22  38  58  84 116 153 188 229 288 350
#     4   9  18  33  55  82 111 146 190 237 279 331
#     4  10  23  42  62  90 124 155 197 252 304 352
#     4  10  22  42  66  89 116 155 201 242 290 357
#
# _framework density 20.035834999999999
#
# number of rings (size 3 to 8) (size 9 to 14) (size 15 to 20)
#    0.000    1.857    1.429    1.929    2.000    5.714 
#    0.000    0.357    0.000    0.000    0.000    0.000 
#    0.000    0.000    0.000    0.000    0.000    0.000 
#
# Total GULP energy -694182.446099 kJ/mol
# GULP energy per Si atom -12396.115109 kJ/mol
# Density = 1.999023 g / cm^3
# Si number density = 20.035835 Si / 1000 Ang^3
#
#
#
# Elastic Constant Matrix: (Units=GPa)
#
#
# Indices 1 2 3 4 5 6 
#
# 1 138.3279 58.7600 29.7195 0.0000 0.0000 0.0000
# 2 58.7600 81.6322 29.0634 0.0000 0.0000 0.0000
# 3 29.7195 29.0634 78.8825 0.0000 0.0000 0.0000
# 4 0.0000 0.0000 0.0000 25.5098 0.0000 0.0000
# 5 0.0000 0.0000 0.0000 0.0000 30.5921 0.0000
# 6 0.0000 0.0000 0.0000 0.0000 0.0000 32.7155
#
#
#
# Elastic Compliance Matrix: (Units=1/GPa)
#
#
# Indices 1 2 3 4 5 6 
#
# 1 0.010537 -0.007103 -0.001353 0.000000 0.000000 0.000000
# 2 -0.007103 0.018888 -0.004283 0.000000 0.000000 0.000000
# 3 -0.001353 -0.004283 0.014765 0.000000 0.000000 0.000000
# 4 0.000000 0.000000 0.000000 0.039201 0.000000 0.000000
# 5 0.000000 0.000000 0.000000 0.000000 0.032688 0.000000
# 6 0.000000 0.000000 0.000000 0.000000 0.000000 0.030567
#
#
# Mechanical properties :
#
#
# Convention : Reuss Voigt Hill
#
# Bulk Modulus (GPa) = 53.44158 59.32536 56.38347
# Shear Modulus (GPa) = 28.03314 29.85012 28.94163
#
# Velocity S-wave (km/s) = 3.74458 3.86403 3.80477
# Velocity P-wave (km/s) = 6.73994 7.04141 6.89232
#
# Compressibility (1/GPa) = 0.01871202
#
# Stress axis : x y z
#
# Youngs Moduli (GPa) = 94.90193 52.94412 67.72884
#
# Poissons Ratio (x) = 0.37607 0.09163
# Poissons Ratio (y) = 0.67410 0.29007
# Poissons Ratio (z) = 0.12839 0.22675
#
# Static dielectric constant tensor:
#      x y z
#    x 3.774620 0.000000 0.000000 
#    y 0.000000 3.625270 0.000000 
#    z 0.000000 0.000000 3.564160 
# 
# 
# High freq. dielectric constant tensor:
#      x y z
#    x 1.789650 0.000000 0.000000 
#    y 0.000000 1.767950 0.000000 
#    z 0.000000 0.000000 1.787700 
# 
# From -- ./inp_files/25906.got.cif
#   From: 2010.03.12/outbox.cif.g09.slc.cpg/sg51_13_cif.got.tgz:25906.got - 2010.04.16 13:43:02.
