data_PCOD8212040
_publ_section_title
;
Structure prediction by ZEFSAII (Michael W. Deem and Ramdas Pophale) SiO2 
 PCOD8212040
Probable space group: P M M A
;
_chemical_formula_sum "Si O2"
_cell_formula_units_Z 64
_cell_length_a 16.157515
_cell_length_b 8.892406
_cell_length_c 21.986325
_cell_angle_alpha 90.000000
_cell_angle_beta 90.000000
_cell_angle_gamma 90.000000
_cell_volume 3158.977220
_symmetry_space_group_name_H-M "P M M A"
_symmetry_group_IT_number 51
_symmetry_cell_setting 'orthorhombic'
loop_
_space_group_symop_operation_xyz
x,y,z
1/2-x,-y,z
1/2+x,-y,-z
-x,y,-z
-x,-y,-z
1/2+x,y,-z
1/2-x,y,z
x,-y,z
loop_
_atom_site_type_symbol
_atom_site_label
_atom_site_fract_x
_atom_site_fract_y
_atom_site_fract_z
Si Si1 0.004295 0.176753 0.069803
Si Si2 0.345570 0.168421 0.381335
Si Si3 0.407307 0.321847 0.499732
Si Si4 0.422283 0.322149 0.748385
Si Si5 0.340902 0.678584 0.626059
Si Si6 0.407058 0.821715 0.252848
Si Si7 0.842826 0.824901 0.144263
Si Si8 0.842820 0.324470 0.860685
O O1 0.085159 0.253853 0.098195
O O2 0.916149 0.227646 0.098767
O O3 0.017320 0.000000 0.077725
O O4 0.000000 0.225847 0.000000
O O5 0.250000 0.168475 0.364447
O O6 0.360076 0.270167 0.439850
O O7 0.391890 0.234343 0.321981
O O8 0.376784 0.000000 0.395762
O O9 0.500000 0.260328 0.500000
O O10 0.404081 0.500000 0.500470
O O11 0.366875 0.253895 0.560812
O O12 0.436364 0.500000 0.752160
O O13 0.401290 0.269105 0.679828
O O14 0.503350 0.233028 0.769266
O O15 0.349726 0.272061 0.793955
O O16 0.250000 0.739664 0.641462
O O17 0.341265 0.500000 0.622222
O O18 0.342255 0.747956 0.206619
O O19 0.399083 0.000000 0.248645
O O20 0.750000 0.794893 0.117143
O O21 0.853225 0.000000 0.160012
O O22 0.750000 0.296181 0.887899
O O23 0.861291 0.500000 0.854846
#
# Coordination Sequence:
#
# PCOD8212040 Si02
#       8
#     8   8   8   8   8   8   8   8
#     4  10  22  41  66  95 128 169 211 249 295 355
#     4  10  22  38  55  79 111 147 190 241 296 356
#     4  10  20  35  55  78 106 144 189 237 292 352
#     4  11  21  35  58  86 116 152 198 251 304 358
#     4   9  18  32  50  75 108 146 189 237 291 355
#     4  11  22  38  60  85 117 157 198 244 304 366
#     4  10  21  38  60  89 126 164 204 252 302 357
#     4  11  24  41  63  94 129 164 205 256 309 360
#
# _framework density 20.259722
#
# number of rings (size 3 to 8) (size 9 to 14) (size 15 to 20)
#    0.000    1.750    1.250    3.000    0.000    6.000 
#    0.000    2.500    0.000    3.000    0.000    0.000 
#    0.000    0.000    0.000    0.000    0.000    0.000 
#
# Total GULP energy -793524.087173 kJ/mol
# GULP energy per Si atom -12398.813862 kJ/mol
# Density = 2.021361 g / cm^3
# Si number density = 20.259722 Si / 1000 Ang^3
#
#
#
# Elastic Constant Matrix: (Units=GPa)
#
#
# Indices 1 2 3 4 5 6 
#
# 1 132.5235 36.3921 55.5208 0.0000 0.0000 0.0000
# 2 36.3921 50.5644 39.2648 0.0000 0.0000 0.0000
# 3 55.5208 39.2648 137.3350 0.0000 0.0000 0.0000
# 4 0.0000 0.0000 0.0000 25.3373 0.0000 0.0000
# 5 0.0000 0.0000 0.0000 0.0000 28.3433 0.0000
# 6 0.0000 0.0000 0.0000 0.0000 0.0000 23.3748
#
#
#
# Elastic Compliance Matrix: (Units=1/GPa)
#
#
# Indices 1 2 3 4 5 6 
#
# 1 0.010063 -0.005249 -0.002568 0.000000 0.000000 0.000000
# 2 -0.005249 0.028158 -0.005929 0.000000 0.000000 0.000000
# 3 -0.002568 -0.005929 0.010014 0.000000 0.000000 0.000000
# 4 0.000000 0.000000 0.000000 0.039467 0.000000 0.000000
# 5 0.000000 0.000000 0.000000 0.000000 0.035282 0.000000
# 6 0.000000 0.000000 0.000000 0.000000 0.000000 0.042781
#
#
# Mechanical properties :
#
#
# Convention : Reuss Voigt Hill
#
# Bulk Modulus (GPa) = 48.20265 64.75315 56.47790
# Shear Modulus (GPa) = 24.97869 28.02741 26.50305
#
# Velocity S-wave (km/s) = 3.51511 3.72345 3.62078
# Velocity P-wave (km/s) = 6.34970 7.10749 6.73925
#
# Compressibility (1/GPa) = 0.02074575
#
# Stress axis : x y z
#
# Youngs Moduli (GPa) = 99.37580 35.51380 99.85542
#
# Poissons Ratio (x) = 0.18640 0.25638
# Poissons Ratio (y) = 0.52159 0.59201
# Poissons Ratio (z) = 0.25515 0.21055
#
# Static dielectric constant tensor:
#      x y z
#    x 3.874800 0.000000 0.000000 
#    y 0.000000 3.439490 0.000000 
#    z 0.000000 0.000000 3.759500 
# 
# 
# High freq. dielectric constant tensor:
#      x y z
#    x 1.804650 0.000000 0.000000 
#    y 0.000000 1.770580 0.000000 
#    z 0.000000 0.000000 1.794560 
# 
# From -- ./inp_files/35844.got.cif
#   From: 2010.03.12/outbox.cif.g09.slc.cpg/sg51_18_cif.got.tgz:35844.got - 2010.04.16 13:43:02.
