data_PCOD8212624
_publ_section_title
;
Structure prediction by ZEFSAII (Michael W. Deem and Ramdas Pophale) SiO2 
 PCOD8212624
Probable space group: P M M A
;
_chemical_formula_sum "Si O2"
_cell_formula_units_Z 44
_cell_length_a 8.949154
_cell_length_b 7.815884
_cell_length_c 29.953135
_cell_angle_alpha 90.000000
_cell_angle_beta 90.000000
_cell_angle_gamma 90.000000
_cell_volume 2095.088489
_symmetry_space_group_name_H-M "P M M A"
_symmetry_group_IT_number 51
_symmetry_cell_setting 'orthorhombic'
loop_
_space_group_symop_operation_xyz
x,y,z
1/2-x,-y,z
1/2+x,-y,-z
-x,y,-z
-x,-y,-z
1/2+x,y,-z
1/2-x,y,z
x,-y,z
loop_
_atom_site_type_symbol
_atom_site_label
_atom_site_fract_x
_atom_site_fract_y
_atom_site_fract_z
Si Si1 0.920357 0.796281 0.689943
Si Si2 0.428612 0.000000 0.451663
Si Si3 0.080859 0.302826 0.138587
Si Si4 0.086583 0.195904 0.776099
Si Si5 0.424167 0.695319 0.602086
Si Si6 0.081633 0.797374 0.043328
O O1 0.750000 0.734510 0.684447
O O2 0.979224 0.727004 0.737850
O O3 0.023329 0.708193 0.653040
O O4 0.930410 0.000000 0.685091
O O5 0.500000 0.000000 0.500000
O O6 0.480220 0.172731 0.427144
O O7 0.250000 0.000000 0.454281
O O8 0.250000 0.229586 0.139302
O O9 0.078079 0.500000 0.151091
O O10 0.009780 0.271382 0.089484
O O11 0.984709 0.205817 0.175121
O O12 0.250000 0.286427 0.775855
O O13 0.109107 0.000000 0.763938
O O14 0.250000 0.744738 0.598887
O O15 0.450062 0.500000 0.585277
O O16 0.250000 0.730201 0.040492
O O17 0.070678 0.000000 0.043160
O O18 0.000000 0.719831 0.000000
#
# Coordination Sequence:
#
# PCOD8212624 Si02
#       6
#     8   4   8   8   8   8
#     4  10  20  36  61  91 122 161 206 254 308 367
#     4  12  26  46  72 100 134 178 222 274 329 382
#     4  10  21  36  53  75 106 143 182 227 280 340
#     4  10  21  36  56  82 112 150 194 241 291 347
#     4  11  24  42  67  99 135 175 218 269 326 384
#     4   9  18  33  53  75  99 130 171 220 273 333
#
# _framework density 21.0015
#
# number of rings (size 3 to 8) (size 9 to 14) (size 15 to 20)
#    0.000    1.818    0.909    3.000    0.000    6.545 
#    0.000    1.818    0.000    0.000    0.000    0.000 
#    0.000    0.000    0.000    0.000    0.000    0.000 
#
# Total GULP energy -545574.729382 kJ/mol
# GULP energy per Si atom -12399.425668 kJ/mol
# Density = 2.095370 g / cm^3
# Si number density = 21.001500 Si / 1000 Ang^3
#
#
#
# Elastic Constant Matrix: (Units=GPa)
#
#
# Indices 1 2 3 4 5 6 
#
# 1 139.8252 37.5377 66.0425 0.0000 0.0000 0.0000
# 2 37.5377 60.1522 32.9698 0.0000 0.0000 0.0000
# 3 66.0425 32.9698 156.3685 0.0000 0.0000 0.0000
# 4 0.0000 0.0000 0.0000 4.9694 0.0000 0.0000
# 5 0.0000 0.0000 0.0000 0.0000 42.9345 0.0000
# 6 0.0000 0.0000 0.0000 0.0000 0.0000 20.2815
#
#
#
# Elastic Compliance Matrix: (Units=1/GPa)
#
#
# Indices 1 2 3 4 5 6 
#
# 1 0.009857 -0.004375 -0.003241 0.000000 0.000000 0.000000
# 2 -0.004375 0.020739 -0.002525 0.000000 0.000000 0.000000
# 3 -0.003241 -0.002525 0.008296 0.000000 0.000000 0.000000
# 4 0.000000 0.000000 0.000000 0.201233 0.000000 0.000000
# 5 0.000000 0.000000 0.000000 0.000000 0.023291 0.000000
# 6 0.000000 0.000000 0.000000 0.000000 0.000000 0.049306
#
#
# Mechanical properties :
#
#
# Convention : Reuss Voigt Hill
#
# Bulk Modulus (GPa) = 53.73245 69.93843 61.83544
# Shear Modulus (GPa) = 14.74027 28.29014 21.51521
#
# Velocity S-wave (km/s) = 2.65215 3.67420 3.20419
# Velocity P-wave (km/s) = 5.91770 7.16754 6.57240
#
# Compressibility (1/GPa) = 0.01861073
#
# Stress axis : x y z
#
# Youngs Moduli (GPa) = 101.45160 48.21936 120.53703
#
# Poissons Ratio (x) = 0.21096 0.39062
# Poissons Ratio (y) = 0.44384 0.30434
# Poissons Ratio (z) = 0.32877 0.12175
#
# Static dielectric constant tensor:
#      x y z
#    x 4.052140 0.000000 0.000000 
#    y 0.000000 3.610430 0.000000 
#    z 0.000000 0.000000 3.925180 
# 
# 
# High freq. dielectric constant tensor:
#      x y z
#    x 1.823280 0.000000 0.000000 
#    y 0.000000 1.811180 0.000000 
#    z 0.000000 0.000000 1.831240 
# 
# From -- ./inp_files/36795.got.cif
#   From: 2010.03.12/outbox.cif.g09.slc.cpg/sg51_19_cif.got.tgz:36795.got - 2010.04.16 13:43:02.
