data_PCOD8212129
_publ_section_title
;
Structure prediction by ZEFSAII (Michael W. Deem and Ramdas Pophale) SiO2 
 PCOD8212129
Probable space group: P M M A
;
_chemical_formula_sum "Si O2"
_cell_formula_units_Z 40
_cell_length_a 25.045286
_cell_length_b 8.700986
_cell_length_c 9.863152
_cell_angle_alpha 90.000000
_cell_angle_beta 90.000000
_cell_angle_gamma 90.000000
_cell_volume 2149.365093
_symmetry_space_group_name_H-M "P M M A"
_symmetry_group_IT_number 51
_symmetry_cell_setting 'orthorhombic'
loop_
_space_group_symop_operation_xyz
x,y,z
1/2-x,-y,z
1/2+x,-y,-z
-x,y,-z
-x,-y,-z
1/2+x,y,-z
1/2-x,y,z
x,-y,z
loop_
_atom_site_type_symbol
_atom_site_label
_atom_site_fract_x
_atom_site_fract_y
_atom_site_fract_z
Si Si1 0.187627 0.677171 0.857736
Si Si2 0.504955 0.830798 0.660483
Si Si3 0.887905 0.678428 0.647755
Si Si4 0.611120 0.819696 0.355626
Si Si5 0.811297 0.821952 0.861455
O O1 0.250000 0.709469 0.836802
O O2 0.172942 0.500000 0.835076
O O3 0.157212 0.780403 0.749251
O O4 0.169888 0.725399 0.008193
O O5 0.500000 0.840229 0.500000
O O6 0.552072 0.714449 0.701480
O O7 0.446453 0.776451 0.712555
O O8 0.519193 0.000000 0.718732
O O9 0.876299 0.500000 0.667151
O O10 0.879976 0.723468 0.491854
O O11 0.845642 0.774719 0.732729
O O12 0.612299 0.000000 0.392153
O O13 0.750000 0.785583 0.825888
O O14 0.819904 0.000000 0.894896
#
# Coordination Sequence:
#
# PCOD8212129 Si02
#       5
#     8   8   8   8   8
#     4  10  21  37  56  79 108 139 172 216 268 316
#     4   8  16  32  52  75 105 139 174 213 259 310
#     4  11  21  33  54  82 110 139 173 218 266 310
#     4  10  20  35  56  80 107 141 179 217 257 308
#     4  10  21  38  58  77 102 140 180 216 260 316
#
# _framework density 18.610144999999999
#
# number of rings (size 3 to 8) (size 9 to 14) (size 15 to 20)
#    0.000    2.200    0.000    4.800    0.000    7.600 
#    0.000    1.000    0.000    6.000    0.000    0.000 
#    0.000    0.000    0.000    0.000    0.000    0.000 
#
# Total GULP energy -495997.582603 kJ/mol
# GULP energy per Si atom -12399.939565 kJ/mol
# Density = 1.856779 g / cm^3
# Si number density = 18.610145 Si / 1000 Ang^3
#
#
#
# Elastic Constant Matrix: (Units=GPa)
#
#
# Indices 1 2 3 4 5 6 
#
# 1 88.4830 31.2189 44.6859 0.0000 0.0000 0.0000
# 2 31.2189 59.1799 13.2325 0.0000 0.0000 0.0000
# 3 44.6859 13.2325 57.7583 0.0000 0.0000 0.0000
# 4 0.0000 0.0000 0.0000 31.5056 0.0000 0.0000
# 5 0.0000 0.0000 0.0000 0.0000 -4.8289 0.0000
# 6 0.0000 0.0000 0.0000 0.0000 0.0000 28.8230
#
#
#
# Elastic Compliance Matrix: (Units=1/GPa)
#
#
# Indices 1 2 3 4 5 6 
#
# 1 0.021706 -0.008111 -0.014935 0.000000 0.000000 0.000000
# 2 -0.008111 0.020841 0.001501 0.000000 0.000000 0.000000
# 3 -0.014935 0.001501 0.028524 0.000000 0.000000 0.000000
# 4 0.000000 0.000000 0.000000 0.031740 0.000000 0.000000
# 5 0.000000 0.000000 0.000000 0.000000 -0.207086 0.000000
# 6 0.000000 0.000000 0.000000 0.000000 0.000000 0.034694
#
#
# Mechanical properties :
#
#
# Convention : Reuss Voigt Hill
#
# Bulk Modulus (GPa) = 35.73921 42.63287 39.18604
# Shear Modulus (GPa) = -291.33339 18.85220 -136.24060
#
# Velocity S-wave (km/s) = -12.52539 3.18623 -8.56543
# Velocity P-wave (km/s) = 13.78168 6.04104 8.75901
#
# Compressibility (1/GPa) = 0.02798047
#
# Stress axis : x y z
#
# Youngs Moduli (GPa) = 46.07061 47.98263 35.05768
#
# Poissons Ratio (x) = 0.38919 0.52358
# Poissons Ratio (y) = 0.37368 -0.05261
# Poissons Ratio (z) = 0.68806 -0.07200
#
# Static dielectric constant tensor:
#      x y z
#    x 3.773990 0.000000 0.000000 
#    y 0.000000 3.431240 0.000000 
#    z 0.000000 0.000000 3.113700 
# 
# 
# High freq. dielectric constant tensor:
#      x y z
#    x 1.731770 0.000000 0.000000 
#    y 0.000000 1.730790 0.000000 
#    z 0.000000 0.000000 1.695210 
# 
# From -- ./inp_files/11430.got.cif
#   From: 2010.03.12/outbox.cif.g09.slc.cpg/sg51_6_cif.got.tgz:11430.got - 2010.04.16 13:43:02.
