data_PCOD8212211
_publ_section_title
;
Structure prediction by ZEFSAII (Michael W. Deem and Ramdas Pophale) SiO2 
 PCOD8212211
Probable space group: P M M A
;
_chemical_formula_sum "Si O2"
_cell_formula_units_Z 64
_cell_length_a 23.794737
_cell_length_b 9.121751
_cell_length_c 14.930255
_cell_angle_alpha 90.000000
_cell_angle_beta 90.000000
_cell_angle_gamma 90.000000
_cell_volume 3240.606861
_symmetry_space_group_name_H-M "P M M A"
_symmetry_group_IT_number 51
_symmetry_cell_setting 'orthorhombic'
loop_
_space_group_symop_operation_xyz
x,y,z
1/2-x,-y,z
1/2+x,-y,-z
-x,y,-z
-x,-y,-z
1/2+x,y,-z
1/2-x,y,z
x,-y,z
loop_
_atom_site_type_symbol
_atom_site_label
_atom_site_fract_x
_atom_site_fract_y
_atom_site_fract_z
Si Si1 0.878236 0.329416 0.148725
Si Si2 0.611035 0.827962 0.821569
Si Si3 0.601124 0.672465 0.645647
Si Si4 0.186280 0.832711 0.702637
Si Si5 0.880986 0.166579 0.465012
Si Si6 0.995742 0.668729 0.895762
Si Si7 0.685648 0.171815 0.989347
Si Si8 0.520393 0.658876 0.399924
O O1 0.866057 0.500000 0.137537
O O2 0.854097 0.273368 0.242296
O O3 0.848429 0.250658 0.066666
O O4 0.944665 0.297031 0.150398
O O5 0.630792 0.749166 0.729958
O O6 0.550351 0.772567 0.852409
O O7 0.607384 0.000000 0.804175
O O8 0.658062 0.787653 0.894477
O O9 0.613066 0.500000 0.645948
O O10 0.626261 0.735891 0.553341
O O11 0.534389 0.707634 0.656360
O O12 0.250000 0.783963 0.720060
O O13 0.174370 0.819362 0.596196
O O14 0.176525 0.000000 0.734244
O O15 0.931576 0.218787 0.399383
O O16 0.892925 0.000000 0.494519
O O17 0.977720 0.500000 0.881005
O O18 0.000000 0.705890 0.000000
O O19 0.750000 0.226102 0.988761
O O20 0.682016 0.000000 0.008169
O O21 0.500000 0.634913 0.500000
O O22 0.542902 0.500000 0.364135
#
# Coordination Sequence:
#
# PCOD8212211 Si02
#       8
#     8   8   8   8   8   8   8   8
#     4  11  23  38  61  90 118 152 196 240 289 352
#     4  11  23  37  59  89 119 154 201 246 284 345
#     4  10  21  37  57  81 116 156 187 229 294 352
#     4  10  23  42  60  82 117 158 197 243 301 354
#     4  10  20  35  57  83 109 143 193 243 283 335
#     4  10  21  39  59  84 123 162 190 233 300 360
#     4  10  22  41  62  84 115 154 193 240 295 343
#     4   8  16  31  50  74 105 143 178 215 275 342
#
# _framework density 19.749386999999999
#
# number of rings (size 3 to 8) (size 9 to 14) (size 15 to 20)
#    0.000    2.000    1.250    2.625    1.750    7.500 
#    0.000    0.625    0.000    3.750    0.000    0.000 
#    0.000    0.000    0.000    0.000    0.000    0.000 
#
# Total GULP energy -793630.820129 kJ/mol
# GULP energy per Si atom -12400.481565 kJ/mol
# Density = 1.970444 g / cm^3
# Si number density = 19.749387 Si / 1000 Ang^3
#
#
#
# Elastic Constant Matrix: (Units=GPa)
#
#
# Indices 1 2 3 4 5 6 
#
# 1 51.1795 34.1901 12.7110 0.0000 0.0000 0.0000
# 2 34.1901 78.6099 50.3333 0.0000 0.0000 0.0000
# 3 12.7110 50.3333 82.5069 0.0000 0.0000 0.0000
# 4 0.0000 0.0000 0.0000 -21.1778 0.0000 0.0000
# 5 0.0000 0.0000 0.0000 0.0000 24.2915 0.0000
# 6 0.0000 0.0000 0.0000 0.0000 0.0000 14.7036
#
#
#
# Elastic Compliance Matrix: (Units=1/GPa)
#
#
# Indices 1 2 3 4 5 6 
#
# 1 0.028874 -0.015934 0.005272 0.000000 0.000000 0.000000
# 2 -0.015934 0.029668 -0.015644 0.000000 0.000000 0.000000
# 3 0.005272 -0.015644 0.020852 0.000000 0.000000 0.000000
# 4 0.000000 0.000000 0.000000 -0.047219 0.000000 0.000000
# 5 0.000000 0.000000 0.000000 0.000000 0.041167 0.000000
# 6 0.000000 0.000000 0.000000 0.000000 0.000000 0.068011
#
#
# Mechanical properties :
#
#
# Convention : Reuss Voigt Hill
#
# Bulk Modulus (GPa) = 37.33860 45.19612 41.26736
# Shear Modulus (GPa) = 24.64362 11.23425 17.93894
#
# Velocity S-wave (km/s) = 3.53628 2.38763 3.01712
# Velocity P-wave (km/s) = 5.96833 5.52589 5.75137
#
# Compressibility (1/GPa) = 0.02678194
#
# Stress axis : x y z
#
# Youngs Moduli (GPa) = 34.63275 33.70603 47.95760
#
# Poissons Ratio (x) = 0.53708 -0.25285
# Poissons Ratio (y) = 0.55185 0.75026
# Poissons Ratio (z) = -0.18259 0.52731
#
# Static dielectric constant tensor:
#      x y z
#    x 3.633740 0.000000 0.000000 
#    y 0.000000 3.637270 0.000000 
#    z 0.000000 0.000000 3.662040 
# 
# 
# High freq. dielectric constant tensor:
#      x y z
#    x 1.753120 0.000000 0.000000 
#    y 0.000000 1.772670 0.000000 
#    z 0.000000 0.000000 1.779860 
# 
# From -- ./inp_files/26333.got.cif
#   From: 2010.03.12/outbox.cif.g09.slc.cpg/sg51_14_cif.got.tgz:26333.got - 2010.04.16 13:43:02.
