data_PCOD8212458
_publ_section_title
;
Structure prediction by ZEFSAII (Michael W. Deem and Ramdas Pophale) SiO2 
 PCOD8212458
Probable space group: P M M A
;
_chemical_formula_sum "Si O2"
_cell_formula_units_Z 64
_cell_length_a 8.996519
_cell_length_b 23.703439
_cell_length_c 15.427426
_cell_angle_alpha 90.000000
_cell_angle_beta 90.000000
_cell_angle_gamma 90.000000
_cell_volume 3289.874517
_symmetry_space_group_name_H-M "P M M A"
_symmetry_group_IT_number 51
_symmetry_cell_setting 'orthorhombic'
loop_
_space_group_symop_operation_xyz
x,y,z
1/2-x,-y,z
1/2+x,-y,-z
-x,y,-z
-x,-y,-z
1/2+x,y,-z
1/2-x,y,z
x,-y,z
loop_
_atom_site_type_symbol
_atom_site_label
_atom_site_fract_x
_atom_site_fract_y
_atom_site_fract_z
Si Si1 0.578413 0.934164 0.753875
Si Si2 0.921700 0.244909 0.167836
Si Si3 0.422374 0.254970 0.348162
Si Si4 0.426798 0.436565 0.751758
Si Si5 0.421668 0.131842 0.412933
Si Si6 0.576624 0.636567 0.088374
Si Si7 0.576598 0.124869 0.089785
Si Si8 0.573585 0.634578 0.412150
O O1 0.750000 0.917568 0.769735
O O2 0.513929 0.901590 0.669999
O O3 0.485030 0.916336 0.837019
O O4 0.558297 0.000000 0.737253
O O5 0.750000 0.246720 0.198988
O O6 0.959111 0.298341 0.108041
O O7 0.958098 0.189714 0.112415
O O8 0.028346 0.245658 0.249878
O O9 0.250000 0.272729 0.349523
O O10 0.450330 0.198060 0.401137
O O11 0.520894 0.302110 0.394078
O O12 0.250000 0.436658 0.753109
O O13 0.490654 0.500000 0.754122
O O14 0.488108 0.402128 0.834240
O O15 0.482389 0.405998 0.664712
O O16 0.500000 0.110391 0.500000
O O17 0.250000 0.117103 0.422811
O O18 0.750000 0.625920 0.077528
O O19 0.500000 0.617571 0.000000
O O20 0.750000 0.113722 0.080084
O O21 0.500000 0.108867 0.000000
O O22 0.500000 0.611483 0.500000
O O23 0.750000 0.634456 0.421700
#
# Coordination Sequence:
#
# PCOD8212458 Si02
#       8
#     8   8   8   8   8   8   8   8
#     4  10  22  42  63  83 114 154 197 244 290 337
#     4  10  20  36  58  86 117 153 188 230 288 345
#     4  11  21  35  59  88 118 152 189 232 286 344
#     4   9  19  37  59  80 110 154 195 235 286 340
#     4  10  22  38  58  87 117 150 189 231 284 341
#     4  10  20  36  57  84 115 149 188 229 281 340
#     4  11  23  38  61  89 120 153 192 238 290 349
#     4  11  22  38  59  85 117 150 192 237 286 346
#
# _framework density 19.453628999999999
#
# number of rings (size 3 to 8) (size 9 to 14) (size 15 to 20)
#    0.000    1.750    2.500    1.875    0.000    4.750 
#    0.000    0.000    0.000    2.625    0.000    0.000 
#    0.000    0.000    0.000    0.000    0.000    0.000 
#
# Total GULP energy -793890.497040 kJ/mol
# GULP energy per Si atom -12404.539016 kJ/mol
# Density = 1.940935 g / cm^3
# Si number density = 19.453629 Si / 1000 Ang^3
#
#
#
# Elastic Constant Matrix: (Units=GPa)
#
#
# Indices 1 2 3 4 5 6 
#
# 1 60.0758 30.3987 51.5562 0.0000 0.0000 0.0000
# 2 30.3987 84.4252 39.3322 0.0000 0.0000 0.0000
# 3 51.5562 39.3322 165.0534 0.0000 0.0000 0.0000
# 4 0.0000 0.0000 0.0000 13.7642 0.0000 0.0000
# 5 0.0000 0.0000 0.0000 0.0000 40.1483 0.0000
# 6 0.0000 0.0000 0.0000 0.0000 0.0000 18.1283
#
#
#
# Elastic Compliance Matrix: (Units=1/GPa)
#
#
# Indices 1 2 3 4 5 6 
#
# 1 0.025252 -0.006094 -0.006436 0.000000 0.000000 0.000000
# 2 -0.006094 0.014795 -0.001622 0.000000 0.000000 0.000000
# 3 -0.006436 -0.001622 0.008455 0.000000 0.000000 0.000000
# 4 0.000000 0.000000 0.000000 0.072652 0.000000 0.000000
# 5 0.000000 0.000000 0.000000 0.000000 0.024908 0.000000
# 6 0.000000 0.000000 0.000000 0.000000 0.000000 0.055162
#
#
# Mechanical properties :
#
#
# Convention : Reuss Voigt Hill
#
# Bulk Modulus (GPa) = 49.50786 61.34762 55.42774
# Shear Modulus (GPa) = 21.16302 26.95931 24.06117
#
# Velocity S-wave (km/s) = 3.30187 3.72670 3.52070
# Velocity P-wave (km/s) = 6.32778 7.07966 6.71425
#
# Compressibility (1/GPa) = 0.02019881
#
# Stress axis : x y z
#
# Youngs Moduli (GPa) = 39.60037 67.59127 118.26799
#
# Poissons Ratio (x) = 0.41192 0.76112
# Poissons Ratio (y) = 0.24134 0.19183
# Poissons Ratio (z) = 0.25485 0.10963
#
# Static dielectric constant tensor:
#      x y z
#    x 3.400070 0.000000 0.000000 
#    y 0.000000 3.645130 0.000000 
#    z 0.000000 0.000000 3.661110 
# 
# 
# High freq. dielectric constant tensor:
#      x y z
#    x 1.742620 0.000000 0.000000 
#    y 0.000000 1.757210 0.000000 
#    z 0.000000 0.000000 1.770290 
# 
# From -- ./inp_files/22258.got.cif
#   From: 2010.03.12/outbox.cif.g09.slc.cpg/sg51_12_cif.got.tgz:22258.got - 2010.04.16 13:43:02.
