data_PCOD8212642
_publ_section_title
;
Structure prediction by ZEFSAII (Michael W. Deem and Ramdas Pophale) SiO2 
 PCOD8212642
Probable space group: P M M A
;
_chemical_formula_sum "Si O2"
_cell_formula_units_Z 48
_cell_length_a 19.269638
_cell_length_b 7.698625
_cell_length_c 16.628660
_cell_angle_alpha 90.000000
_cell_angle_beta 90.000000
_cell_angle_gamma 90.000000
_cell_volume 2466.857003
_symmetry_space_group_name_H-M "P M M A"
_symmetry_group_IT_number 51
_symmetry_cell_setting 'orthorhombic'
loop_
_space_group_symop_operation_xyz
x,y,z
1/2-x,-y,z
1/2+x,-y,-z
-x,y,-z
-x,-y,-z
1/2+x,y,-z
1/2-x,y,z
x,-y,z
loop_
_atom_site_type_symbol
_atom_site_label
_atom_site_fract_x
_atom_site_fract_y
_atom_site_fract_z
Si Si1 0.571013 0.500000 0.048340
Si Si2 0.172299 0.500000 0.097184
Si Si3 0.547628 0.803859 0.165460
Si Si4 0.068810 0.294592 0.659948
Si Si5 0.413025 0.294263 0.368875
Si Si6 0.328826 0.706719 0.522824
Si Si7 0.611180 0.804375 0.804818
O O1 0.580873 0.671751 0.102261
O O2 0.500000 0.500000 0.000000
O O3 0.631220 0.500000 0.984706
O O4 0.250000 0.500000 0.067847
O O5 0.160353 0.328132 0.149599
O O6 0.582942 0.788933 0.252993
O O7 0.467305 0.752533 0.173631
O O8 0.557440 0.000000 0.133209
O O9 0.071109 0.500000 0.669600
O O10 0.129401 0.226730 0.601039
O O11 0.993822 0.237545 0.624310
O O12 0.407350 0.500000 0.361785
O O13 0.369950 0.223228 0.444909
O O14 0.377936 0.209900 0.290697
O O15 0.250000 0.779725 0.524321
O O16 0.328065 0.500000 0.521410
O O17 0.628763 0.000000 0.832544
#
# Coordination Sequence:
#
# PCOD8212642 Si02
#       7
#     4   4   8   8   8   8   8
#     4  12  22  40  68  89 115 146 189 236 285 349
#     4  12  26  42  60  87 121 155 185 228 288 350
#     4  10  20  36  63  94 116 143 190 244 292 339
#     4   9  16  30  53  78 111 148 191 240 286 337
#     4   9  16  29  52  80 112 147 192 241 288 331
#     4   9  17  28  46  77 111 152 200 240 283 335
#     4  10  20  37  60  88 117 151 191 236 288 345
#
# _framework density 19.457958000000001
#
# number of rings (size 3 to 8) (size 9 to 14) (size 15 to 20)
#    0.000    2.167    3.333    0.500    0.000    4.000 
#    0.000    1.667    0.000    6.500    0.000    0.000 
#    0.000    0.000    0.000    0.000    0.000    0.000 
#
# Total GULP energy -595212.531289 kJ/mol
# GULP energy per Si atom -12400.261069 kJ/mol
# Density = 1.941367 g / cm^3
# Si number density = 19.457958 Si / 1000 Ang^3
#
#
#
# Elastic Constant Matrix: (Units=GPa)
#
#
# Indices 1 2 3 4 5 6 
#
# 1 120.7976 31.9504 73.8652 0.0000 0.0000 0.0000
# 2 31.9504 79.9048 51.8561 0.0000 0.0000 0.0000
# 3 73.8652 51.8561 126.7966 0.0000 0.0000 0.0000
# 4 0.0000 0.0000 0.0000 -2.6362 0.0000 0.0000
# 5 0.0000 0.0000 0.0000 0.0000 23.0552 0.0000
# 6 0.0000 0.0000 0.0000 0.0000 0.0000 5.6551
#
#
#
# Elastic Compliance Matrix: (Units=1/GPa)
#
#
# Indices 1 2 3 4 5 6 
#
# 1 0.012867 -0.000382 -0.007340 0.000000 0.000000 0.000000
# 2 -0.000382 0.017048 -0.006750 0.000000 0.000000 0.000000
# 3 -0.007340 -0.006750 0.014923 0.000000 0.000000 0.000000
# 4 0.000000 0.000000 0.000000 -0.379337 0.000000 0.000000
# 5 0.000000 0.000000 0.000000 0.000000 0.043374 0.000000
# 6 0.000000 0.000000 0.000000 0.000000 0.000000 0.176830
#
#
# Mechanical properties :
#
#
# Convention : Reuss Voigt Hill
#
# Bulk Modulus (GPa) = 62.91014 71.42693 67.16853
# Shear Modulus (GPa) = -62.45827 16.53666 -22.96081
#
# Velocity S-wave (km/s) = -5.67175 2.91841 -3.43887
# Velocity P-wave (km/s) = 3.23886 6.93860 4.33901
#
# Compressibility (1/GPa) = 0.01589569
#
# Stress axis : x y z
#
# Youngs Moduli (GPa) = 77.71580 58.65823 67.01146
#
# Poissons Ratio (x) = 0.02240 0.49185
# Poissons Ratio (y) = 0.02967 0.45231
# Poissons Ratio (z) = 0.57041 0.39592
#
# Static dielectric constant tensor:
#      x y z
#    x 3.176860 0.000000 0.000000 
#    y 0.000000 3.423800 0.000000 
#    z 0.000000 0.000000 3.622490 
# 
# 
# High freq. dielectric constant tensor:
#      x y z
#    x 1.728420 0.000000 0.000000 
#    y 0.000000 1.751720 0.000000 
#    z 0.000000 0.000000 1.760530 
# 
# From -- ./inp_files/24917.got.cif
#   From: 2010.03.12/outbox.cif.g09.slc.cpg/sg51_13_cif.got.tgz:24917.got - 2010.04.16 13:43:02.
