data_PCOD8212439
_publ_section_title
;
Structure prediction by ZEFSAII (Michael W. Deem and Ramdas Pophale) SiO2 
 PCOD8212439
Probable space group: P M M A
;
_chemical_formula_sum "Si O2"
_cell_formula_units_Z 48
_cell_length_a 8.894580
_cell_length_b 30.021352
_cell_length_c 9.478484
_cell_angle_alpha 90.000000
_cell_angle_beta 90.000000
_cell_angle_gamma 90.000000
_cell_volume 2531.014152
_symmetry_space_group_name_H-M "P M M A"
_symmetry_group_IT_number 51
_symmetry_cell_setting 'orthorhombic'
loop_
_space_group_symop_operation_xyz
x,y,z
1/2-x,-y,z
1/2+x,-y,-z
-x,y,-z
-x,-y,-z
1/2+x,y,-z
1/2-x,y,z
x,-y,z
loop_
_atom_site_type_symbol
_atom_site_label
_atom_site_fract_x
_atom_site_fract_y
_atom_site_fract_z
Si Si1 0.425643 0.449896 0.643114
Si Si2 0.922829 0.049479 0.350478
Si Si3 0.927873 0.628199 0.153408
Si Si4 0.427309 0.882315 0.144947
Si Si5 0.572137 0.296783 0.653438
Si Si6 0.424920 0.218436 0.143580
O O1 0.500000 0.431182 0.500000
O O2 0.250000 0.449085 0.614809
O O3 0.483103 0.500000 0.676144
O O4 0.467935 0.419240 0.775919
O O5 0.750000 0.064261 0.364545
O O6 0.000000 0.048406 0.500000
O O7 0.012597 0.085546 0.263483
O O8 0.934479 0.000000 0.281910
O O9 0.750000 0.635963 0.141647
O O10 0.999870 0.665679 0.250176
O O11 0.000000 0.629530 0.000000
O O12 0.250000 0.886805 0.133400
O O13 0.477692 0.831700 0.180030
O O14 0.500000 0.898340 0.000000
O O15 0.500000 0.297931 0.500000
O O16 0.750000 0.304598 0.641601
O O17 0.532280 0.249400 0.724457
O O18 0.250000 0.220008 0.112433
O O19 0.500000 0.236303 0.000000
#
# Coordination Sequence:
#
# PCOD8212439 Si02
#       6
#     8   8   8   8   8   8
#     4   9  19  36  57  81 110 144 182 225 273 324
#     4  10  21  37  56  79 108 143 182 224 272 324
#     4  11  23  38  57  82 112 146 185 228 275 326
#     4  10  20  36  57  82 111 143 181 223 269 320
#     4  11  23  39  58  82 112 145 183 225 272 324
#     4   9  20  37  57  81 109 142 179 221 269 322
#
# _framework density 18.964729999999999
#
# number of rings (size 3 to 8) (size 9 to 14) (size 15 to 20)
#    0.000    2.000    0.000    3.000    0.000    8.333 
#    0.000    1.667    0.000    0.000    0.000    0.000 
#    0.000    0.000    0.000    0.000    0.000    0.000 
#
# Total GULP energy -595255.551818 kJ/mol
# GULP energy per Si atom -12401.157330 kJ/mol
# Density = 1.892157 g / cm^3
# Si number density = 18.964730 Si / 1000 Ang^3
#
#
#
# Elastic Constant Matrix: (Units=GPa)
#
#
# Indices 1 2 3 4 5 6 
#
# 1 89.0144 52.0635 59.9924 0.0000 0.0000 0.0000
# 2 52.0635 105.3906 77.9455 0.0000 0.0000 0.0000
# 3 59.9924 77.9455 152.7243 0.0000 0.0000 0.0000
# 4 0.0000 0.0000 0.0000 38.6123 0.0000 0.0000
# 5 0.0000 0.0000 0.0000 0.0000 41.0897 0.0000
# 6 0.0000 0.0000 0.0000 0.0000 0.0000 28.4490
#
#
#
# Elastic Compliance Matrix: (Units=1/GPa)
#
#
# Indices 1 2 3 4 5 6 
#
# 1 0.017112 -0.005593 -0.003867 0.000000 0.000000 0.000000
# 2 -0.005593 0.017070 -0.006515 0.000000 0.000000 0.000000
# 3 -0.003867 -0.006515 0.011392 0.000000 0.000000 0.000000
# 4 0.000000 0.000000 0.000000 0.025898 0.000000 0.000000
# 5 0.000000 0.000000 0.000000 0.000000 0.024337 0.000000
# 6 0.000000 0.000000 0.000000 0.000000 0.000000 0.035151
#
#
# Mechanical properties :
#
#
# Convention : Reuss Voigt Hill
#
# Bulk Modulus (GPa) = 73.40486 80.79245 77.09866
# Shear Modulus (GPa) = 29.85946 32.10540 30.98243
#
# Velocity S-wave (km/s) = 3.97227 4.11895 4.04627
# Velocity P-wave (km/s) = 7.73489 8.08176 7.91023
#
# Compressibility (1/GPa) = 0.01362308
#
# Stress axis : x y z
#
# Youngs Moduli (GPa) = 58.43881 58.58284 87.78251
#
# Poissons Ratio (x) = 0.32767 0.33947
# Poissons Ratio (y) = 0.32686 0.57188
# Poissons Ratio (z) = 0.22600 0.38165
#
# Static dielectric constant tensor:
#      x y z
#    x 3.589630 0.000000 0.000000 
#    y 0.000000 3.937350 0.000000 
#    z 0.000000 0.000000 3.474640 
# 
# 
# High freq. dielectric constant tensor:
#      x y z
#    x 1.747860 0.000000 0.000000 
#    y 0.000000 1.748970 0.000000 
#    z 0.000000 0.000000 1.736700 
# 
# From -- ./inp_files/5948.got.cif
#   From: 2010.03.12/outbox.cif.g09.slc.cpg/sg51_3_cif.got.tgz:5948.got - 2010.04.16 13:43:02.
