data_PCOD8212107
_publ_section_title
;
Structure prediction by ZEFSAII (Michael W. Deem and Ramdas Pophale) SiO2 
 PCOD8212107
Probable space group: P M M A
;
_chemical_formula_sum "Si O2"
_cell_formula_units_Z 64
_cell_length_a 18.660537
_cell_length_b 9.660665
_cell_length_c 19.024795
_cell_angle_alpha 90.000000
_cell_angle_beta 90.000000
_cell_angle_gamma 90.000000
_cell_volume 3429.660611
_symmetry_space_group_name_H-M "P M M A"
_symmetry_group_IT_number 51
_symmetry_cell_setting 'orthorhombic'
loop_
_space_group_symop_operation_xyz
x,y,z
1/2-x,-y,z
1/2+x,-y,-z
-x,y,-z
-x,-y,-z
1/2+x,y,-z
1/2-x,y,z
x,-y,z
loop_
_atom_site_type_symbol
_atom_site_label
_atom_site_fract_x
_atom_site_fract_y
_atom_site_fract_z
Si Si1 0.405539 0.338926 0.606302
Si Si2 0.330596 0.847789 0.876000
Si Si3 0.871445 0.847291 0.273574
Si Si4 0.834789 0.340708 0.000804
Si Si5 0.053614 0.839117 0.063149
Si Si6 0.968981 0.151854 0.778181
Si Si7 0.064622 0.338319 0.343820
Si Si8 0.168934 0.664238 0.464582
O O1 0.389596 0.500000 0.616389
O O2 0.357255 0.259124 0.663663
O O3 0.489694 0.306325 0.616224
O O4 0.378175 0.284970 0.530894
O O5 0.250000 0.870515 0.900597
O O6 0.331564 0.793271 0.796200
O O7 0.370410 0.000000 0.882094
O O8 0.363070 0.731759 0.927092
O O9 0.954422 0.854644 0.256817
O O10 0.842822 0.000000 0.294753
O O11 0.750000 0.329862 0.988722
O O12 0.859419 0.500000 0.002403
O O13 0.875169 0.256176 0.939788
O O14 0.020993 0.805274 0.140097
O O15 0.075316 0.000000 0.055833
O O16 0.000000 0.796902 0.000000
O O17 0.924735 0.260861 0.730915
O O18 0.932050 0.000000 0.773841
O O19 0.070548 0.500000 0.327149
O O20 0.128483 0.285663 0.394277
O O21 0.250000 0.724994 0.466570
O O22 0.171752 0.500000 0.465444
#
# Coordination Sequence:
#
# PCOD8212107 Si02
#       8
#     8   8   8   8   8   8   8   8
#     4   9  17  29  47  71  96 123 157 196 237 284
#     4   9  17  30  48  67  91 129 170 201 236 291
#     4   9  17  30  47  69  98 128 158 195 239 289
#     4  10  21  35  50  72 102 133 167 209 255 302
#     4  10  20  35  56  79 102 132 170 210 254 305
#     4   9  18  32  50  72  97 124 158 201 245 290
#     4   9  17  31  51  71  93 124 161 197 235 284
#     4   9  17  30  49  72  96 124 160 200 240 282
#
# _framework density 18.660739
#
# number of rings (size 3 to 8) (size 9 to 14) (size 15 to 20)
#    0.000    2.750    0.000    1.500    0.000    6.000 
#    0.000    3.750    0.000    6.375    0.000    0.000 
#    0.000    0.000    0.000    0.000    0.000    0.000 
#
# Total GULP energy -793128.097983 kJ/mol
# GULP energy per Si atom -12392.626531 kJ/mol
# Density = 1.861827 g / cm^3
# Si number density = 18.660739 Si / 1000 Ang^3
#
#
#
# Elastic Constant Matrix: (Units=GPa)
#
#
# Indices 1 2 3 4 5 6 
#
# 1 51.1024 28.3863 32.5583 0.0000 0.0000 0.0000
# 2 28.3863 71.6317 47.3717 0.0000 0.0000 0.0000
# 3 32.5583 47.3717 130.7542 0.0000 0.0000 0.0000
# 4 0.0000 0.0000 0.0000 28.7529 0.0000 0.0000
# 5 0.0000 0.0000 0.0000 0.0000 26.8096 0.0000
# 6 0.0000 0.0000 0.0000 0.0000 0.0000 16.6346
#
#
#
# Elastic Compliance Matrix: (Units=1/GPa)
#
#
# Indices 1 2 3 4 5 6 
#
# 1 0.026356 -0.008028 -0.003654 0.000000 0.000000 0.000000
# 2 -0.008028 0.020804 -0.005538 0.000000 0.000000 0.000000
# 3 -0.003654 -0.005538 0.010564 0.000000 0.000000 0.000000
# 4 0.000000 0.000000 0.000000 0.034779 0.000000 0.000000
# 5 0.000000 0.000000 0.000000 0.000000 0.037300 0.000000
# 6 0.000000 0.000000 0.000000 0.000000 0.000000 0.060116
#
#
# Mechanical properties :
#
#
# Convention : Reuss Voigt Hill
#
# Bulk Modulus (GPa) = 42.94827 52.23565 47.59196
# Shear Modulus (GPa) = 21.54045 24.11755 22.82900
#
# Velocity S-wave (km/s) = 3.40121 3.59893 3.50147
# Velocity P-wave (km/s) = 6.20400 6.73222 6.47350
#
# Compressibility (1/GPa) = 0.02328383
#
# Stress axis : x y z
#
# Youngs Moduli (GPa) = 37.94199 48.06738 94.65749
#
# Poissons Ratio (x) = 0.38587 0.34591
# Poissons Ratio (y) = 0.30459 0.52424
# Poissons Ratio (z) = 0.13865 0.26621
#
# Static dielectric constant tensor:
#      x y z
#    x 3.390560 0.000000 0.000000 
#    y 0.000000 3.510970 0.000000 
#    z 0.000000 0.000000 3.538720 
# 
# 
# High freq. dielectric constant tensor:
#      x y z
#    x 1.706050 0.000000 0.000000 
#    y 0.000000 1.705490 0.000000 
#    z 0.000000 0.000000 1.723380 
# 
# From -- ./inp_files/30609.got.cif
#   From: 2010.03.12/outbox.cif.g09.slc.cpg/sg51_16_cif.got.tgz:30609.got - 2010.04.16 13:43:02.
