data_PCOD8212295
_publ_section_title
;
Structure prediction by ZEFSAII (Michael W. Deem and Ramdas Pophale) SiO2 
 PCOD8212295
Probable space group: P M M A
;
_chemical_formula_sum "Si O2"
_cell_formula_units_Z 48
_cell_length_a 27.865652
_cell_length_b 8.526067
_cell_length_c 10.267944
_cell_angle_alpha 90.000000
_cell_angle_beta 90.000000
_cell_angle_gamma 90.000000
_cell_volume 2439.503478
_symmetry_space_group_name_H-M "P M M A"
_symmetry_group_IT_number 51
_symmetry_cell_setting 'orthorhombic'
loop_
_space_group_symop_operation_xyz
x,y,z
1/2-x,-y,z
1/2+x,-y,-z
-x,y,-z
-x,-y,-z
1/2+x,y,-z
1/2-x,y,z
x,-y,z
loop_
_atom_site_type_symbol
_atom_site_label
_atom_site_fract_x
_atom_site_fract_y
_atom_site_fract_z
Si Si1 0.448622 0.318040 0.251592
Si Si2 0.195556 0.818020 0.403176
Si Si3 0.696226 0.319357 0.874920
Si Si4 0.104794 0.318439 0.515293
Si Si5 0.893490 0.817501 0.988236
Si Si6 0.947917 0.182604 0.246003
O O1 0.439331 0.500000 0.221270
O O2 0.424142 0.268567 0.386606
O O3 0.426078 0.216319 0.136726
O O4 0.504760 0.285491 0.263396
O O5 0.250000 0.771275 0.438748
O O6 0.185228 0.783010 0.252211
O O7 0.161047 0.715929 0.494569
O O8 0.185616 0.000000 0.428363
O O9 0.750000 0.286776 0.928339
O O10 0.689882 0.500000 0.835461
O O11 0.657520 0.272357 0.983848
O O12 0.096908 0.500000 0.549564
O O13 0.086707 0.211443 0.632604
O O14 0.882262 0.000000 0.997331
O O15 0.921398 0.759235 0.115763
O O16 0.961684 0.000000 0.236963
#
# Coordination Sequence:
#
# PCOD8212295 Si02
#       6
#     8   8   8   8   8   8
#     4  11  23  39  61  88 116 152 198 245 292 346
#     4  10  20  35  59  89 118 151 192 238 288 342
#     4  10  20  35  58  88 118 149 190 239 289 343
#     4  11  23  39  60  88 119 154 196 241 291 348
#     4  11  23  39  60  87 118 154 197 241 290 346
#     4  11  25  41  58  84 119 158 198 243 293 347
#
# _framework density 19.676136
#
# number of rings (size 3 to 8) (size 9 to 14) (size 15 to 20)
#    0.000    1.333    1.667    4.000    0.000   10.667 
#    0.000    0.833    0.000    1.000    0.000    0.000 
#    0.000    0.000    0.000    0.000    0.000    0.000 
#
# Total GULP energy -595508.656550 kJ/mol
# GULP energy per Si atom -12406.430345 kJ/mol
# Density = 1.963135 g / cm^3
# Si number density = 19.676136 Si / 1000 Ang^3
#
#
#
# Elastic Constant Matrix: (Units=GPa)
#
#
# Indices 1 2 3 4 5 6 
#
# 1 127.1457 19.8910 40.7168 0.0000 0.0000 0.0000
# 2 19.8910 40.9083 20.5417 0.0000 0.0000 0.0000
# 3 40.7168 20.5417 94.7588 0.0000 0.0000 0.0000
# 4 0.0000 0.0000 0.0000 22.6664 0.0000 0.0000
# 5 0.0000 0.0000 0.0000 0.0000 1.7299 0.0000
# 6 0.0000 0.0000 0.0000 0.0000 0.0000 32.5566
#
#
#
# Elastic Compliance Matrix: (Units=1/GPa)
#
#
# Indices 1 2 3 4 5 6 
#
# 1 0.009408 -0.002855 -0.003424 0.000000 0.000000 0.000000
# 2 -0.002855 0.028297 -0.004907 0.000000 0.000000 0.000000
# 3 -0.003424 -0.004907 0.013088 0.000000 0.000000 0.000000
# 4 0.000000 0.000000 0.000000 0.044118 0.000000 0.000000
# 5 0.000000 0.000000 0.000000 0.000000 0.578069 0.000000
# 6 0.000000 0.000000 0.000000 0.000000 0.000000 0.030716
#
#
# Mechanical properties :
#
#
# Convention : Reuss Voigt Hill
#
# Bulk Modulus (GPa) = 35.18538 47.23464 41.21001
# Shear Modulus (GPa) = 6.79770 23.50146 15.14958
#
# Velocity S-wave (km/s) = 1.86072 3.45978 2.77780
# Velocity P-wave (km/s) = 4.74737 6.32600 5.59266
#
# Compressibility (1/GPa) = 0.02842089
#
# Stress axis : x y z
#
# Youngs Moduli (GPa) = 106.29202 35.33885 76.40599
#
# Poissons Ratio (x) = 0.10091 0.26158
# Poissons Ratio (y) = 0.30351 0.37495
# Poissons Ratio (z) = 0.36389 0.17342
#
# Static dielectric constant tensor:
#      x y z
#    x 3.789210 0.000000 0.000000 
#    y 0.000000 3.537480 0.000000 
#    z 0.000000 0.000000 3.431910 
# 
# 
# High freq. dielectric constant tensor:
#      x y z
#    x 1.783800 0.000000 0.000000 
#    y 0.000000 1.775780 0.000000 
#    z 0.000000 0.000000 1.746550 
# 
# From -- ./inp_files/12798.got.cif
#   From: 2010.03.12/outbox.cif.g09.slc.cpg/sg51_7_cif.got.tgz:12798.got - 2010.04.16 13:43:02.
