data_PCOD8212074
_publ_section_title
;
Structure prediction by ZEFSAII (Michael W. Deem and Ramdas Pophale) SiO2 
 PCOD8212074
Probable space group: P M M A
;
_chemical_formula_sum "Si O2"
_cell_formula_units_Z 48
_cell_length_a 8.666542
_cell_length_b 30.293888
_cell_length_c 9.448714
_cell_angle_alpha 90.000000
_cell_angle_beta 90.000000
_cell_angle_gamma 90.000000
_cell_volume 2480.696107
_symmetry_space_group_name_H-M "P M M A"
_symmetry_group_IT_number 51
_symmetry_cell_setting 'orthorhombic'
loop_
_space_group_symop_operation_xyz
x,y,z
1/2-x,-y,z
1/2+x,-y,-z
-x,y,-z
-x,-y,-z
1/2+x,y,-z
1/2-x,y,z
x,-y,z
loop_
_atom_site_type_symbol
_atom_site_label
_atom_site_fract_x
_atom_site_fract_y
_atom_site_fract_z
Si Si1 0.430569 0.620981 0.653271
Si Si2 0.069263 0.449005 0.147676
Si Si3 0.431996 0.951029 0.849819
Si Si4 0.568054 0.704508 0.155323
Si Si5 0.566896 0.219736 0.654568
Si Si6 0.066420 0.872887 0.651889
O O1 0.500000 0.630491 0.500000
O O2 0.250000 0.614675 0.636283
O O3 0.499739 0.576551 0.719197
O O4 0.473401 0.661286 0.755210
O O5 0.250000 0.441017 0.142068
O O6 0.025355 0.500000 0.169271
O O7 0.000000 0.431166 0.000000
O O8 0.250000 0.949585 0.860821
O O9 0.492922 0.913851 0.744099
O O10 0.487196 0.000000 0.800770
O O11 0.500000 0.938663 0.000000
O O12 0.750000 0.712948 0.147388
O O13 0.486433 0.745464 0.229707
O O14 0.500000 0.698071 0.000000
O O15 0.500000 0.231581 0.500000
O O16 0.750000 0.219062 0.642770
O O17 0.505499 0.172578 0.709496
O O18 0.250000 0.868308 0.648185
O O19 0.000000 0.883439 0.500000
#
# Coordination Sequence:
#
# PCOD8212074 Si02
#       6
#     8   8   8   8   8   8
#     4  11  24  40  61  87 117 153 192 236 284 337
#     4  10  21  38  61  88 119 155 194 237 285 337
#     4   9  19  35  54  77 106 141 181 225 273 326
#     4  11  24  41  61  87 116 148 188 232 281 335
#     4  11  22  38  60  84 113 148 186 229 279 334
#     4  10  20  35  55  80 111 144 182 227 274 328
#
# _framework density 19.349408
#
# number of rings (size 3 to 8) (size 9 to 14) (size 15 to 20)
#    0.000    1.667    0.000    5.500    0.000    9.000 
#    0.000    1.667    0.000    0.000    0.000    0.000 
#    0.000    0.000    0.000    0.000    0.000    0.000 
#
# Total GULP energy -595354.926021 kJ/mol
# GULP energy per Si atom -12403.227625 kJ/mol
# Density = 1.930537 g / cm^3
# Si number density = 19.349408 Si / 1000 Ang^3
#
#
#
# Elastic Constant Matrix: (Units=GPa)
#
#
# Indices 1 2 3 4 5 6 
#
# 1 103.4834 65.3737 63.0883 0.0000 0.0000 0.0000
# 2 65.3737 131.2919 86.6217 0.0000 0.0000 0.0000
# 3 63.0883 86.6217 127.8834 0.0000 0.0000 0.0000
# 4 0.0000 0.0000 0.0000 46.6837 0.0000 0.0000
# 5 0.0000 0.0000 0.0000 0.0000 37.9558 0.0000
# 6 0.0000 0.0000 0.0000 0.0000 0.0000 -59.2099
#
#
#
# Elastic Compliance Matrix: (Units=1/GPa)
#
#
# Indices 1 2 3 4 5 6 
#
# 1 0.015314 -0.004774 -0.004321 0.000000 0.000000 0.000000
# 2 -0.004774 0.015259 -0.007980 0.000000 0.000000 0.000000
# 3 -0.004321 -0.007980 0.015357 0.000000 0.000000 0.000000
# 4 0.000000 0.000000 0.000000 0.021421 0.000000 0.000000
# 5 0.000000 0.000000 0.000000 0.000000 0.026346 0.000000
# 6 0.000000 0.000000 0.000000 0.000000 0.000000 -0.016889
#
#
# Mechanical properties :
#
#
# Convention : Reuss Voigt Hill
#
# Bulk Modulus (GPa) = 84.90125 88.09180 86.49652
# Shear Modulus (GPa) = 43.52196 14.92426 29.22311
#
# Velocity S-wave (km/s) = 4.74779 2.78025 3.89045
# Velocity P-wave (km/s) = 8.60398 7.47878 8.06104
#
# Compressibility (1/GPa) = 0.01177839
#
# Stress axis : x y z
#
# Youngs Moduli (GPa) = 65.30136 65.53463 65.11853
#
# Poissons Ratio (x) = 0.31289 0.28135
# Poissons Ratio (y) = 0.31178 0.51967
# Poissons Ratio (z) = 0.28214 0.52299
#
# Static dielectric constant tensor:
#      x y z
#    x 3.628620 0.000000 0.000000 
#    y 0.000000 3.839980 0.000000 
#    z 0.000000 0.000000 3.486070 
# 
# 
# High freq. dielectric constant tensor:
#      x y z
#    x 1.766570 0.000000 0.000000 
#    y 0.000000 1.767190 0.000000 
#    z 0.000000 0.000000 1.754090 
# 
# From -- ./inp_files/6041.got.cif
#   From: 2010.03.12/outbox.cif.g09.slc.cpg/sg51_4_cif.got.tgz:6041.got - 2010.04.16 13:43:02.
