data_PCOD8212021
_publ_section_title
;
Structure prediction by ZEFSAII (Michael W. Deem and Ramdas Pophale) SiO2 
 PCOD8212021
Probable space group: P M M A
;
_chemical_formula_sum "Si O2"
_cell_formula_units_Z 64
_cell_length_a 14.204832
_cell_length_b 9.006766
_cell_length_c 25.519674
_cell_angle_alpha 90.000000
_cell_angle_beta 90.000000
_cell_angle_gamma 90.000000
_cell_volume 3264.976830
_symmetry_space_group_name_H-M "P M M A"
_symmetry_group_IT_number 51
_symmetry_cell_setting 'orthorhombic'
loop_
_space_group_symop_operation_xyz
x,y,z
1/2-x,-y,z
1/2+x,-y,-z
-x,y,-z
-x,-y,-z
1/2+x,y,-z
1/2-x,y,z
x,-y,z
loop_
_atom_site_type_symbol
_atom_site_label
_atom_site_fract_x
_atom_site_fract_y
_atom_site_fract_z
Si Si1 0.900691 0.159879 0.422818
Si Si2 0.044131 0.824013 0.076848
Si Si3 0.042506 0.676529 0.281122
Si Si4 0.605818 0.837702 0.619160
Si Si5 0.855295 0.176600 0.027118
Si Si6 0.146304 0.337569 0.480483
Si Si7 0.353102 0.174839 0.688002
Si Si8 0.360865 0.825779 0.183578
O O1 0.913707 0.263811 0.473158
O O2 0.842903 0.224630 0.373364
O O3 0.001925 0.134405 0.399494
O O4 0.858779 0.000000 0.441201
O O5 0.087680 0.767335 0.131135
O O6 0.934597 0.771418 0.069607
O O7 0.046964 0.000000 0.075272
O O8 0.109760 0.764461 0.029558
O O9 0.040881 0.500000 0.284528
O O10 0.106200 0.739943 0.328347
O O11 0.093048 0.729108 0.228857
O O12 0.934593 0.734959 0.282262
O O13 0.658731 0.753012 0.572911
O O14 0.652746 0.000000 0.629834
O O15 0.750000 0.240568 0.039717
O O16 0.849899 0.000000 0.026529
O O17 0.250000 0.350822 0.505011
O O18 0.103209 0.500000 0.468299
O O19 0.250000 0.206271 0.713746
O O20 0.378247 0.000000 0.690932
O O21 0.250000 0.793243 0.179359
O O22 0.379713 0.000000 0.193561
#
# Coordination Sequence:
#
# PCOD8212021 Si02
#       8
#     8   8   8   8   8   8   8   8
#     4   9  18  33  53  76  99 125 160 199 242 299
#     4   8  14  24  41  69 104 140 179 222 267 320
#     4  11  23  38  56  78 105 135 171 220 273 323
#     4  10  21  38  57  73  93 126 167 209 255 309
#     4   8  12  20  38  68 107 144 175 215 270 321
#     4  11  23  34  46  71 104 132 160 198 247 306
#     4   9  18  35  59  83 107 136 171 212 257 311
#     4  10  20  35  55  76 101 138 184 229 271 319
#
# _framework density 19.601977999999999
#
# number of rings (size 3 to 8) (size 9 to 14) (size 15 to 20)
#    0.000    2.500    0.000    4.500    0.000    8.000 
#    0.000    0.625    0.000    2.250    0.000    1.750 
#    0.000    1.000    0.000    0.000    0.000    0.000 
#
# Total GULP energy -792920.450441 kJ/mol
# GULP energy per Si atom -12389.382038 kJ/mol
# Density = 1.955736 g / cm^3
# Si number density = 19.601978 Si / 1000 Ang^3
#
#
#
# Elastic Constant Matrix: (Units=GPa)
#
#
# Indices 1 2 3 4 5 6 
#
# 1 114.7420 34.4991 57.2207 0.0000 0.0000 0.0000
# 2 34.4991 99.4317 52.4010 0.0000 0.0000 0.0000
# 3 57.2207 52.4010 131.4915 0.0000 0.0000 0.0000
# 4 0.0000 0.0000 0.0000 2.3140 0.0000 0.0000
# 5 0.0000 0.0000 0.0000 0.0000 30.4151 0.0000
# 6 0.0000 0.0000 0.0000 0.0000 0.0000 13.9365
#
#
#
# Elastic Compliance Matrix: (Units=1/GPa)
#
#
# Indices 1 2 3 4 5 6 
#
# 1 0.011351 -0.001690 -0.004266 0.000000 0.000000 0.000000
# 2 -0.001690 0.012983 -0.004438 0.000000 0.000000 0.000000
# 3 -0.004266 -0.004438 0.011230 0.000000 0.000000 0.000000
# 4 0.000000 0.000000 0.000000 0.432146 0.000000 0.000000
# 5 0.000000 0.000000 0.000000 0.000000 0.032878 0.000000
# 6 0.000000 0.000000 0.000000 0.000000 0.000000 0.071754
#
#
# Mechanical properties :
#
#
# Convention : Reuss Voigt Hill
#
# Bulk Modulus (GPa) = 67.68249 70.43408 69.05828
# Shear Modulus (GPa) = 8.36044 22.76943 15.56494
#
# Velocity S-wave (km/s) = 2.06745 3.41191 2.82094
# Velocity P-wave (km/s) = 6.34842 7.17855 6.77621
#
# Compressibility (1/GPa) = 0.01477487
#
# Stress axis : x y z
#
# Youngs Moduli (GPa) = 88.09995 77.02666 89.04617
#
# Poissons Ratio (x) = 0.13018 0.37986
# Poissons Ratio (y) = 0.14890 0.39521
# Poissons Ratio (z) = 0.37583 0.34186
#
# Static dielectric constant tensor:
#      x y z
#    x 4.056490 0.000000 0.000000 
#    y 0.000000 3.561720 0.000000 
#    z 0.000000 0.000000 3.582990 
# 
# 
# High freq. dielectric constant tensor:
#      x y z
#    x 1.777050 0.000000 0.000000 
#    y 0.000000 1.727970 0.000000 
#    z 0.000000 0.000000 1.744270 
# 
# From -- ./inp_files/35711.got.cif
#   From: 2010.03.12/outbox.cif.g09.slc.cpg/sg51_18_cif.got.tgz:35711.got - 2010.04.16 13:43:02.
