data_PCOD8212081
_publ_section_title
;
Structure prediction by ZEFSAII (Michael W. Deem and Ramdas Pophale) SiO2 
 PCOD8212081
Probable space group: P M M A
;
_chemical_formula_sum "Si O2"
_cell_formula_units_Z 48
_cell_length_a 18.027235
_cell_length_b 9.006218
_cell_length_c 15.925068
_cell_angle_alpha 90.000000
_cell_angle_beta 90.000000
_cell_angle_gamma 90.000000
_cell_volume 2585.549583
_symmetry_space_group_name_H-M "P M M A"
_symmetry_group_IT_number 51
_symmetry_cell_setting 'orthorhombic'
loop_
_space_group_symop_operation_xyz
x,y,z
1/2-x,-y,z
1/2+x,-y,-z
-x,y,-z
-x,-y,-z
1/2+x,y,-z
1/2-x,y,z
x,-y,z
loop_
_atom_site_type_symbol
_atom_site_label
_atom_site_fract_x
_atom_site_fract_y
_atom_site_fract_z
Si Si1 0.613745 0.327333 0.476860
Si Si2 0.112302 0.175979 0.894462
Si Si3 0.750000 0.823435 0.215455
Si Si4 0.835345 0.329192 0.939804
Si Si5 0.974902 0.671408 0.634168
Si Si6 0.250000 0.826170 0.597326
Si Si7 0.530950 0.326131 0.820540
O O1 0.636189 0.500000 0.483906
O O2 0.582040 0.264574 0.565077
O O3 0.557106 0.304674 0.400411
O O4 0.681409 0.224030 0.456903
O O5 0.175606 0.234143 0.830436
O O6 0.033050 0.246919 0.873748
O O7 0.103838 0.000000 0.891154
O O8 0.137805 0.222503 0.986626
O O9 0.750000 0.755651 0.309269
O O10 0.750000 0.000000 0.214989
O O11 0.750000 0.293656 0.914875
O O12 0.843415 0.500000 0.968987
O O13 0.888197 0.297139 0.860265
O O14 0.955649 0.500000 0.643028
O O15 0.967114 0.744091 0.726395
O O16 0.250000 0.000000 0.607319
O O17 0.511396 0.500000 0.818691
#
# Coordination Sequence:
#
# PCOD8212081 Si02
#       7
#     8   8   4   8   8   4   8
#     4   9  17  33  55  78 105 137 174 215 259 309
#     4  11  21  36  56  78 105 140 179 217 266 318
#     4   9  20  35  51  74 107 140 172 217 263 313
#     4  10  21  37  54  75 106 141 177 218 265 314
#     4   8  16  33  56  79 104 135 174 218 260 305
#     4  11  21  33  49  76 109 138 170 211 261 313
#     4  10  20  35  55  81 108 137 176 221 263 311
#
# _framework density 18.564719
#
# number of rings (size 3 to 8) (size 9 to 14) (size 15 to 20)
#    0.000    2.333    0.833    3.250    0.000    2.667 
#    1.500    5.000    0.000    0.000    0.000    0.000 
#    0.000    0.000    0.000    0.000    0.000    0.000 
#
# Total GULP energy -595084.036196 kJ/mol
# GULP energy per Si atom -12397.584087 kJ/mol
# Density = 1.852246 g / cm^3
# Si number density = 18.564719 Si / 1000 Ang^3
#
#
#
# Elastic Constant Matrix: (Units=GPa)
#
#
# Indices 1 2 3 4 5 6 
#
# 1 126.4353 38.1569 67.3279 0.0000 0.0000 0.0000
# 2 38.1569 44.6963 29.2731 0.0000 0.0000 0.0000
# 3 67.3279 29.2731 96.9281 0.0000 0.0000 0.0000
# 4 0.0000 0.0000 0.0000 19.8960 0.0000 0.0000
# 5 0.0000 0.0000 0.0000 0.0000 27.0666 0.0000
# 6 0.0000 0.0000 0.0000 0.0000 0.0000 -28.4882
#
#
#
# Elastic Compliance Matrix: (Units=1/GPa)
#
#
# Indices 1 2 3 4 5 6 
#
# 1 0.014123 -0.007020 -0.007690 0.000000 0.000000 0.000000
# 2 -0.007020 0.031379 -0.004601 0.000000 0.000000 0.000000
# 3 -0.007690 -0.004601 0.017048 0.000000 0.000000 0.000000
# 4 0.000000 0.000000 0.000000 0.050261 0.000000 0.000000
# 5 0.000000 0.000000 0.000000 0.000000 0.036946 0.000000
# 6 0.000000 0.000000 0.000000 0.000000 0.000000 -0.035102
#
#
# Mechanical properties :
#
#
# Convention : Reuss Voigt Hill
#
# Bulk Modulus (GPa) = 41.79033 59.73061 50.76047
# Shear Modulus (GPa) = 31.00743 12.58165 21.79454
#
# Velocity S-wave (km/s) = 4.09128 2.60613 3.43005
# Velocity P-wave (km/s) = 6.69908 6.42650 6.56421
#
# Compressibility (1/GPa) = 0.02392898
#
# Stress axis : x y z
#
# Youngs Moduli (GPa) = 70.80841 31.86813 58.65890
#
# Poissons Ratio (x) = 0.22372 0.45107
# Poissons Ratio (y) = 0.49708 0.26986
# Poissons Ratio (z) = 0.54449 0.14661
#
# Static dielectric constant tensor:
#      x y z
#    x 3.468070 0.000000 0.000000 
#    y 0.000000 3.105810 0.000000 
#    z 0.000000 0.000000 3.979380 
# 
# 
# High freq. dielectric constant tensor:
#      x y z
#    x 1.726970 0.000000 0.000000 
#    y 0.000000 1.690020 0.000000 
#    z 0.000000 0.000000 1.728250 
# 
# From -- ./inp_files/24859.got.cif
#   From: 2010.03.12/outbox.cif.g09.slc.cpg/sg51_13_cif.got.tgz:24859.got - 2010.04.16 13:43:02.
