data_PCOD8212176
_publ_section_title
;
Structure prediction by ZEFSAII (Michael W. Deem and Ramdas Pophale) SiO2 
 PCOD8212176
Probable space group: P M M A
;
_chemical_formula_sum "Si O2"
_cell_formula_units_Z 64
_cell_length_a 13.905583
_cell_length_b 8.778944
_cell_length_c 25.360186
_cell_angle_alpha 90.000000
_cell_angle_beta 90.000000
_cell_angle_gamma 90.000000
_cell_volume 3095.878548
_symmetry_space_group_name_H-M "P M M A"
_symmetry_group_IT_number 51
_symmetry_cell_setting 'orthorhombic'
loop_
_space_group_symop_operation_xyz
x,y,z
1/2-x,-y,z
1/2+x,-y,-z
-x,y,-z
-x,-y,-z
1/2+x,y,-z
1/2-x,y,z
x,-y,z
loop_
_atom_site_type_symbol
_atom_site_label
_atom_site_fract_x
_atom_site_fract_y
_atom_site_fract_z
Si Si1 0.458194 0.676617 0.374741
Si Si2 0.641451 0.822423 0.409566
Si Si3 0.864357 0.328168 0.024598
Si Si4 0.635573 0.827149 0.919160
Si Si5 0.361820 0.822349 0.276699
Si Si6 0.637787 0.171879 0.530974
Si Si7 0.141028 0.179728 0.867710
Si Si8 0.464768 0.679320 0.179276
O O1 0.448729 0.500000 0.360492
O O2 0.570017 0.726418 0.372480
O O3 0.395854 0.776122 0.334632
O O4 0.418509 0.708560 0.433144
O O5 0.750000 0.767938 0.397708
O O6 0.614705 0.791016 0.470375
O O7 0.630779 0.000000 0.396493
O O8 0.750000 0.324222 0.021277
O O9 0.902877 0.500000 0.030466
O O10 0.898482 0.230999 0.075009
O O11 0.907493 0.255766 0.971080
O O12 0.750000 0.822315 0.920213
O O13 0.601514 0.743687 0.866906
O O14 0.597619 0.000000 0.918326
O O15 0.250000 0.783058 0.270599
O O16 0.421268 0.724896 0.235049
O O17 0.381152 0.000000 0.267132
O O18 0.750000 0.187991 0.542163
O O19 0.603498 0.000000 0.544457
O O20 0.250000 0.237535 0.858385
O O21 0.072908 0.254229 0.823777
O O22 0.135117 0.000000 0.863823
O O23 0.469201 0.500000 0.174425
#
# Coordination Sequence:
#
# PCOD8212176 Si02
#       8
#     8   8   8   8   8   8   8   8
#     4  12  24  36  56  88 123 157 194 241 297 351
#     4   9  19  37  60  85 117 160 206 247 287 338
#     4   9  17  31  53  83 118 152 188 235 290 341
#     4  10  20  35  56  83 117 156 196 235 280 343
#     4  11  25  46  69  89 113 149 193 239 285 338
#     4   9  18  34  57  85 118 159 205 247 288 341
#     4  10  21  39  62  86 115 152 193 235 280 338
#     4  12  25  40  61  88 117 148 186 237 294 347
#
# _framework density 20.672644999999999
#
# number of rings (size 3 to 8) (size 9 to 14) (size 15 to 20)
#    0.000    1.750    0.000    5.625    0.000   10.000 
#    0.000    4.375    0.000    3.750    0.000    0.000 
#    0.000    0.000    0.000    0.000    0.000    0.000 
#
# Total GULP energy -793890.455900 kJ/mol
# GULP energy per Si atom -12404.538373 kJ/mol
# Density = 2.062559 g / cm^3
# Si number density = 20.672645 Si / 1000 Ang^3
#
#
#
# Elastic Constant Matrix: (Units=GPa)
#
#
# Indices 1 2 3 4 5 6 
#
# 1 65.2368 40.0596 41.2375 0.0000 0.0000 0.0000
# 2 40.0596 112.6711 32.4659 0.0000 0.0000 0.0000
# 3 41.2375 32.4659 48.7221 0.0000 0.0000 0.0000
# 4 0.0000 0.0000 0.0000 28.8873 0.0000 0.0000
# 5 0.0000 0.0000 0.0000 0.0000 34.7969 0.0000
# 6 0.0000 0.0000 0.0000 0.0000 0.0000 24.5964
#
#
#
# Elastic Compliance Matrix: (Units=1/GPa)
#
#
# Indices 1 2 3 4 5 6 
#
# 1 0.034971 -0.004833 -0.026378 0.000000 0.000000 0.000000
# 2 -0.004833 0.011652 -0.003674 0.000000 0.000000 0.000000
# 3 -0.026378 -0.003674 0.045299 0.000000 0.000000 0.000000
# 4 0.000000 0.000000 0.000000 0.034617 0.000000 0.000000
# 5 0.000000 0.000000 0.000000 0.000000 0.028738 0.000000
# 6 0.000000 0.000000 0.000000 0.000000 0.000000 0.040656
#
#
# Mechanical properties :
#
#
# Convention : Reuss Voigt Hill
#
# Bulk Modulus (GPa) = 45.14350 50.46179 47.80265
# Shear Modulus (GPa) = 18.30917 25.18058 21.74487
#
# Velocity S-wave (km/s) = 2.97925 3.49386 3.24677
# Velocity P-wave (km/s) = 5.80683 6.38271 6.10157
#
# Compressibility (1/GPa) = 0.02215158
#
# Stress axis : x y z
#
# Youngs Moduli (GPa) = 28.59553 85.81946 22.07572
#
# Poissons Ratio (x) = 0.41475 0.58231
# Poissons Ratio (y) = 0.13820 0.08111
# Poissons Ratio (z) = 0.75429 0.31531
#
# Static dielectric constant tensor:
#      x y z
#    x 3.904170 0.000000 0.000000 
#    y 0.000000 3.710750 0.000000 
#    z 0.000000 0.000000 3.581270 
# 
# 
# High freq. dielectric constant tensor:
#      x y z
#    x 1.824730 0.000000 0.000000 
#    y 0.000000 1.808830 0.000000 
#    z 0.000000 0.000000 1.791780 
# 
# From -- ./inp_files/35838.got.cif
#   From: 2010.03.12/outbox.cif.g09.slc.cpg/sg51_18_cif.got.tgz:35838.got - 2010.04.16 13:43:02.
