data_PCOD8212398
_publ_section_title
;
Structure prediction by ZEFSAII (Michael W. Deem and Ramdas Pophale) SiO2 
 PCOD8212398
Probable space group: P M M A
;
_chemical_formula_sum "Si O2"
_cell_formula_units_Z 40
_cell_length_a 10.915557
_cell_length_b 9.729284
_cell_length_c 19.350844
_cell_angle_alpha 90.000000
_cell_angle_beta 90.000000
_cell_angle_gamma 90.000000
_cell_volume 2055.070355
_symmetry_space_group_name_H-M "P M M A"
_symmetry_group_IT_number 51
_symmetry_cell_setting 'orthorhombic'
loop_
_space_group_symop_operation_xyz
x,y,z
1/2-x,-y,z
1/2+x,-y,-z
-x,y,-z
-x,-y,-z
1/2+x,y,-z
1/2-x,y,z
x,-y,z
loop_
_atom_site_type_symbol
_atom_site_label
_atom_site_fract_x
_atom_site_fract_y
_atom_site_fract_z
Si Si1 0.250000 0.157738 0.158728
Si Si2 0.503827 0.159252 0.921114
Si Si3 0.250000 0.657262 0.293699
Si Si4 0.889793 0.840523 0.448938
Si Si5 0.512500 0.658689 0.330775
Si Si6 0.389294 0.652797 0.814980
O O1 0.364597 0.192120 0.110638
O O2 0.250000 0.248344 0.226701
O O3 0.250000 0.000000 0.182995
O O4 0.404111 0.244711 0.878798
O O5 0.468008 0.000000 0.915620
O O6 0.500000 0.208907 0.000000
O O7 0.250000 0.500000 0.266988
O O8 0.367583 0.684828 0.342625
O O9 0.750000 0.815028 0.477603
O O10 0.905521 0.753053 0.379624
O O11 0.000000 0.793639 0.500000
O O12 0.906890 0.000000 0.430368
O O13 0.549232 0.500000 0.343906
O O14 0.534031 0.702020 0.251380
O O15 0.250000 0.652335 0.790934
O O16 0.431619 0.500000 0.837644
#
# Coordination Sequence:
#
# PCOD8212398 Si02
#       6
#     4   8   4   8   8   8
#     4  10  20  36  56  82 112 143 188 237 286 343
#     4  10  22  37  55  79 110 148 188 234 287 343
#     4  10  20  36  60  88 116 149 190 239 290 345
#     4  10  23  42  63  90 123 158 195 236 284 339
#     4  10  21  38  61  88 118 151 191 237 287 340
#     4  10  21  37  57  82 111 145 188 236 286 340
#
# _framework density 19.464054000000001
#
# number of rings (size 3 to 8) (size 9 to 14) (size 15 to 20)
#    0.000    2.000    2.000    0.600    2.800    4.000 
#    0.000    0.000    0.000    0.000    0.000    0.000 
#    0.000    0.000    0.000    0.000    0.000    0.000 
#
# Total GULP energy -495984.951096 kJ/mol
# GULP energy per Si atom -12399.623777 kJ/mol
# Density = 1.941975 g / cm^3
# Si number density = 19.464054 Si / 1000 Ang^3
#
#
#
# Elastic Constant Matrix: (Units=GPa)
#
#
# Indices 1 2 3 4 5 6 
#
# 1 105.6622 32.2747 32.9049 0.0000 0.0000 0.0000
# 2 32.2747 63.5026 48.2841 0.0000 0.0000 0.0000
# 3 32.9049 48.2841 85.1399 0.0000 0.0000 0.0000
# 4 0.0000 0.0000 0.0000 31.1752 0.0000 0.0000
# 5 0.0000 0.0000 0.0000 0.0000 30.6824 0.0000
# 6 0.0000 0.0000 0.0000 0.0000 0.0000 27.6702
#
#
#
# Elastic Compliance Matrix: (Units=1/GPa)
#
#
# Indices 1 2 3 4 5 6 
#
# 1 0.011388 -0.004292 -0.001967 0.000000 0.000000 0.000000
# 2 -0.004292 0.029303 -0.014959 0.000000 0.000000 0.000000
# 3 -0.001967 -0.014959 0.020989 0.000000 0.000000 0.000000
# 4 0.000000 0.000000 0.000000 0.032077 0.000000 0.000000
# 5 0.000000 0.000000 0.000000 0.000000 0.032592 0.000000
# 6 0.000000 0.000000 0.000000 0.000000 0.000000 0.036140
#
#
# Mechanical properties :
#
#
# Convention : Reuss Voigt Hill
#
# Bulk Modulus (GPa) = 51.96673 53.47023 52.71848
# Shear Modulus (GPa) = 23.65850 27.29497 25.47673
#
# Velocity S-wave (km/s) = 3.49018 3.74883 3.62181
# Velocity P-wave (km/s) = 6.55733 6.80215 6.68086
#
# Compressibility (1/GPa) = 0.01924308
#
# Stress axis : x y z
#
# Youngs Moduli (GPa) = 87.81393 34.12590 47.64324
#
# Poissons Ratio (x) = 0.14647 0.09371
# Poissons Ratio (y) = 0.37691 0.71272
# Poissons Ratio (z) = 0.17273 0.51051
#
# Static dielectric constant tensor:
#      x y z
#    x 3.786570 0.000000 0.000000 
#    y 0.000000 3.502320 0.000000 
#    z 0.000000 0.000000 3.326950 
# 
# 
# High freq. dielectric constant tensor:
#      x y z
#    x 1.775540 0.000000 0.000000 
#    y 0.000000 1.753920 0.000000 
#    z 0.000000 0.000000 1.741940 
# 
# From -- ./inp_files/32806.got.cif
#   From: 2010.03.12/outbox.cif.g09.slc.cpg/sg51_17_cif.got.tgz:32806.got - 2010.04.16 13:43:02.
