data_PCOD8212984
_publ_section_title
;
Structure prediction by ZEFSAII (Michael W. Deem and Ramdas Pophale) SiO2 
 PCOD8212984
Probable space group: P M M A
;
_chemical_formula_sum "Si O2"
_cell_formula_units_Z 64
_cell_length_a 18.560661
_cell_length_b 8.980627
_cell_length_c 21.189349
_cell_angle_alpha 90.000000
_cell_angle_beta 90.000000
_cell_angle_gamma 90.000000
_cell_volume 3531.975738
_symmetry_space_group_name_H-M "P M M A"
_symmetry_group_IT_number 51
_symmetry_cell_setting 'orthorhombic'
loop_
_space_group_symop_operation_xyz
x,y,z
1/2-x,-y,z
1/2+x,-y,-z
-x,y,-z
-x,-y,-z
1/2+x,y,-z
1/2-x,y,z
x,-y,z
loop_
_atom_site_type_symbol
_atom_site_label
_atom_site_fract_x
_atom_site_fract_y
_atom_site_fract_z
Si Si1 0.167016 0.175833 0.124282
Si Si2 0.332430 0.330334 0.894592
Si Si3 0.417645 0.323670 0.011248
Si Si4 0.668657 0.327024 0.615701
Si Si5 0.465759 0.175611 0.434526
Si Si6 0.170450 0.322402 0.755906
Si Si7 0.887239 0.328807 0.751611
Si Si8 0.968009 0.326663 0.315973
O O1 0.250000 0.226810 0.114116
O O2 0.114459 0.250035 0.073631
O O3 0.140195 0.223366 0.193251
O O4 0.160129 0.000000 0.118622
O O5 0.250000 0.319002 0.914960
O O6 0.358552 0.500000 0.890005
O O7 0.344661 0.255507 0.825933
O O8 0.377731 0.253520 0.950156
O O9 0.406184 0.500000 0.018108
O O10 0.500000 0.280781 0.000000
O O11 0.750000 0.287667 0.596077
O O12 0.650838 0.500000 0.606108
O O13 0.615680 0.235789 0.570386
O O14 0.656893 0.285441 0.688819
O O15 0.500000 0.230206 0.500000
O O16 0.515258 0.236717 0.378727
O O17 0.463418 0.000000 0.429801
O O18 0.250000 0.270512 0.732369
O O19 0.169065 0.500000 0.760915
O O20 0.108719 0.265437 0.708922
O O21 0.873224 0.500000 0.770808
O O22 0.971951 0.300987 0.738058
O O23 0.964517 0.500000 0.333900
#
# Coordination Sequence:
#
# PCOD8212984 Si02
#       8
#     8   8   8   8   8   8   8   8
#     4  11  24  38  51  71 103 141 175 210 258 314
#     4   8  14  26  46  71  97 125 159 204 256 306
#     4  10  21  34  53  77  99 129 171 219 264 308
#     4   9  18  34  57  84 109 134 171 221 270 310
#     4  10  21  36  53  75 107 147 183 211 247 302
#     4   8  14  26  48  77 104 128 161 210 264 314
#     4   9  18  32  53  79 105 133 167 213 265 315
#     4   9  18  32  54  80 106 135 169 217 268 307
#
# _framework density 18.120169000000001
#
# number of rings (size 3 to 8) (size 9 to 14) (size 15 to 20)
#    0.000    2.750    0.000    3.000    1.750    5.500 
#    0.000    0.625    0.000    2.625    0.000    1.750 
#    0.000    0.000    0.000    0.000    0.000    0.000 
#
# Total GULP energy -793399.022950 kJ/mol
# GULP energy per Si atom -12396.859734 kJ/mol
# Density = 1.807893 g / cm^3
# Si number density = 18.120169 Si / 1000 Ang^3
#
#
#
# Elastic Constant Matrix: (Units=GPa)
#
#
# Indices 1 2 3 4 5 6 
#
# 1 129.4931 41.9931 80.5910 0.0000 0.0000 0.0000
# 2 41.9931 42.9583 39.8857 0.0000 0.0000 0.0000
# 3 80.5910 39.8857 112.5269 0.0000 0.0000 0.0000
# 4 0.0000 0.0000 0.0000 13.4098 0.0000 0.0000
# 5 0.0000 0.0000 0.0000 0.0000 26.3074 0.0000
# 6 0.0000 0.0000 0.0000 0.0000 0.0000 9.2424
#
#
#
# Elastic Compliance Matrix: (Units=1/GPa)
#
#
# Indices 1 2 3 4 5 6 
#
# 1 0.015263 -0.007111 -0.008411 0.000000 0.000000 0.000000
# 2 -0.007111 0.038010 -0.008380 0.000000 0.000000 0.000000
# 3 -0.008411 -0.008380 0.017881 0.000000 0.000000 0.000000
# 4 0.000000 0.000000 0.000000 0.074572 0.000000 0.000000
# 5 0.000000 0.000000 0.000000 0.000000 0.038012 0.000000
# 6 0.000000 0.000000 0.000000 0.000000 0.000000 0.108197
#
#
# Mechanical properties :
#
#
# Convention : Reuss Voigt Hill
#
# Bulk Modulus (GPa) = 42.82553 67.76868 55.29711
# Shear Modulus (GPa) = 14.38755 17.95914 16.17335
#
# Velocity S-wave (km/s) = 2.82087 3.15161 2.99082
# Velocity P-wave (km/s) = 5.85621 7.12210 6.51995
#
# Compressibility (1/GPa) = 0.02335056
#
# Stress axis : x y z
#
# Youngs Moduli (GPa) = 65.51869 26.30865 55.92581
#
# Poissons Ratio (x) = 0.18708 0.47037
# Poissons Ratio (y) = 0.46589 0.46867
# Poissons Ratio (z) = 0.55106 0.22047
#
# Static dielectric constant tensor:
#      x y z
#    x 3.619210 0.000000 0.000000 
#    y 0.000000 3.001010 0.000000 
#    z 0.000000 0.000000 3.361050 
# 
# 
# High freq. dielectric constant tensor:
#      x y z
#    x 1.713780 0.000000 0.000000 
#    y 0.000000 1.666740 0.000000 
#    z 0.000000 0.000000 1.697080 
# 
# From -- ./inp_files/33794.got.cif
#   From: 2010.03.12/outbox.cif.g09.slc.cpg/sg51_17_cif.got.tgz:33794.got - 2010.04.16 13:43:02.
