data_PCOD8212595
_publ_section_title
;
Structure prediction by ZEFSAII (Michael W. Deem and Ramdas Pophale) SiO2 
 PCOD8212595
Probable space group: P M M A
;
_chemical_formula_sum "Si O2"
_cell_formula_units_Z 40
_cell_length_a 8.832999
_cell_length_b 12.408199
_cell_length_c 19.203251
_cell_angle_alpha 90.000000
_cell_angle_beta 90.000000
_cell_angle_gamma 90.000000
_cell_volume 2104.707215
_symmetry_space_group_name_H-M "P M M A"
_symmetry_group_IT_number 51
_symmetry_cell_setting 'orthorhombic'
loop_
_space_group_symop_operation_xyz
x,y,z
1/2-x,-y,z
1/2+x,-y,-z
-x,y,-z
-x,-y,-z
1/2+x,y,-z
1/2-x,y,z
x,-y,z
loop_
_atom_site_type_symbol
_atom_site_label
_atom_site_fract_x
_atom_site_fract_y
_atom_site_fract_z
Si Si1 0.927747 0.695364 0.342369
Si Si2 0.426273 0.000000 0.073880
Si Si3 0.929397 0.500000 0.575678
Si Si4 0.926366 0.874545 0.572979
Si Si5 0.072216 0.767131 0.075560
Si Si6 0.574685 0.623804 0.189522
O O1 0.750000 0.682351 0.357468
O O2 0.963507 0.685028 0.260878
O O3 0.017525 0.605504 0.384267
O O4 0.988101 0.811866 0.365662
O O5 0.472232 0.114525 0.109392
O O6 0.250000 0.000000 0.061205
O O7 0.500000 0.000000 0.000000
O O8 0.750000 0.500000 0.569656
O O9 0.000000 0.500000 0.500000
O O10 0.750000 0.844086 0.571203
O O11 0.000000 0.839894 0.500000
O O12 0.951922 0.000000 0.587965
O O13 0.250000 0.756335 0.065780
O O14 0.018729 0.674965 0.127181
O O15 0.000000 0.750069 0.000000
O O16 0.750000 0.633981 0.170749
O O17 0.525743 0.500000 0.197936
#
# Coordination Sequence:
#
# PCOD8212595 Si02
#       6
#     8   4   4   8   8   8
#     4  11  22  40  61  83 116 154 195 242 293 344
#     4   8  16  32  54  82 114 144 177 226 277 326
#     4  12  24  38  60  88 117 150 195 240 290 346
#     4  10  21  38  60  87 118 153 193 239 290 346
#     4  10  20  36  60  88 117 150 191 234 283 337
#     4  10  22  41  60  80 113 153 192 237 288 339
#
# _framework density 19.005018
#
# number of rings (size 3 to 8) (size 9 to 14) (size 15 to 20)
#    0.000    1.800    1.000    3.300    0.000    4.400 
#    1.800    0.000    0.000    0.000    0.000    0.000 
#    0.000    0.000    0.000    0.000    0.000    0.000 
#
# Total GULP energy -495925.722366 kJ/mol
# GULP energy per Si atom -12398.143059 kJ/mol
# Density = 1.896176 g / cm^3
# Si number density = 19.005018 Si / 1000 Ang^3
#
#
#
# Elastic Constant Matrix: (Units=GPa)
#
#
# Indices 1 2 3 4 5 6 
#
# 1 103.1998 51.1827 62.5774 0.0000 0.0000 0.0000
# 2 51.1827 102.4675 63.1142 0.0000 0.0000 0.0000
# 3 62.5774 63.1142 114.7471 0.0000 0.0000 0.0000
# 4 0.0000 0.0000 0.0000 76.1993 0.0000 0.0000
# 5 0.0000 0.0000 0.0000 0.0000 33.0646 0.0000
# 6 0.0000 0.0000 0.0000 0.0000 0.0000 33.6735
#
#
#
# Elastic Compliance Matrix: (Units=1/GPa)
#
#
# Indices 1 2 3 4 5 6 
#
# 1 0.015402 -0.003811 -0.006304 0.000000 0.000000 0.000000
# 2 -0.003811 0.015702 -0.006559 0.000000 0.000000 0.000000
# 3 -0.006304 -0.006559 0.015760 0.000000 0.000000 0.000000
# 4 0.000000 0.000000 0.000000 0.013123 0.000000 0.000000
# 5 0.000000 0.000000 0.000000 0.000000 0.030244 0.000000
# 6 0.000000 0.000000 0.000000 0.000000 0.000000 0.029697
#
#
# Mechanical properties :
#
#
# Convention : Reuss Voigt Hill
#
# Bulk Modulus (GPa) = 73.97183 74.90700 74.43942
# Shear Modulus (GPa) = 31.68954 38.15682 34.92318
#
# Velocity S-wave (km/s) = 4.08785 4.48562 4.29135
# Velocity P-wave (km/s) = 7.82863 8.14418 7.98796
#
# Compressibility (1/GPa) = 0.01351866
#
# Stress axis : x y z
#
# Youngs Moduli (GPa) = 64.92563 63.68459 63.45238
#
# Poissons Ratio (x) = 0.24269 0.39998
# Poissons Ratio (y) = 0.24742 0.41616
# Poissons Ratio (z) = 0.40926 0.41768
#
# Static dielectric constant tensor:
#      x y z
#    x 3.603760 0.000000 0.000000 
#    y 0.000000 3.917600 0.000000 
#    z 0.000000 0.000000 3.308800 
# 
# 
# High freq. dielectric constant tensor:
#      x y z
#    x 1.750080 0.000000 0.000000 
#    y 0.000000 1.754620 0.000000 
#    z 0.000000 0.000000 1.725070 
# 
# From -- ./inp_files/31404.got.cif
#   From: 2010.03.12/outbox.cif.g09.slc.cpg/sg51_16_cif.got.tgz:31404.got - 2010.04.16 13:43:02.
