data_PCOD8212094
_publ_section_title
;
Structure prediction by ZEFSAII (Michael W. Deem and Ramdas Pophale) SiO2 
 PCOD8212094
Probable space group: P M M A
;
_chemical_formula_sum "Si O2"
_cell_formula_units_Z 64
_cell_length_a 8.689872
_cell_length_b 23.526563
_cell_length_c 14.599707
_cell_angle_alpha 90.000000
_cell_angle_beta 90.000000
_cell_angle_gamma 90.000000
_cell_volume 2984.805286
_symmetry_space_group_name_H-M "P M M A"
_symmetry_group_IT_number 51
_symmetry_cell_setting 'orthorhombic'
loop_
_space_group_symop_operation_xyz
x,y,z
1/2-x,-y,z
1/2+x,-y,-z
-x,y,-z
-x,-y,-z
1/2+x,y,-z
1/2-x,y,z
x,-y,z
loop_
_atom_site_type_symbol
_atom_site_label
_atom_site_fract_x
_atom_site_fract_y
_atom_site_fract_z
Si Si1 0.931025 0.836146 0.599438
Si Si2 0.919363 0.932435 0.089772
Si Si3 0.075405 0.436965 0.635297
Si Si4 0.427919 0.257928 0.727997
Si Si5 0.073723 0.331481 0.411902
Si Si6 0.067940 0.676038 0.906429
Si Si7 0.428408 0.563357 0.169757
Si Si8 0.432701 0.934894 0.709060
O O1 0.750000 0.835641 0.588198
O O2 0.000000 0.820458 0.500000
O O3 0.976348 0.792578 0.680608
O O4 0.986872 0.898197 0.630660
O O5 0.750000 0.906188 0.088268
O O6 0.994350 0.916860 0.188712
O O7 0.913278 0.000000 0.081554
O O8 0.000000 0.905891 0.000000
O O9 0.250000 0.413974 0.622556
O O10 0.059706 0.500000 0.595471
O O11 0.952074 0.399048 0.579254
O O12 0.034523 0.435652 0.741624
O O13 0.250000 0.241908 0.718457
O O14 0.471820 0.315310 0.675220
O O15 0.471729 0.274476 0.832041
O O16 0.250000 0.313366 0.401628
O O17 0.000000 0.300028 0.500000
O O18 0.250000 0.665910 0.910209
O O19 0.986084 0.614769 0.893787
O O20 0.000000 0.701581 0.000000
O O21 0.250000 0.574276 0.196012
O O22 0.445167 0.500000 0.123662
O O23 0.250000 0.926210 0.705671
O O24 0.476512 0.000000 0.689036
#
# Coordination Sequence:
#
# PCOD8212094 Si02
#       8
#     8   8   8   8   8   8   8   8
#     4  12  26  44  68  96 126 163 207 257 311 373
#     4   8  14  26  48  80 119 163 207 249 293 343
#     4  10  20  35  55  81 116 156 199 248 304 365
#     4  11  24  45  68  91 121 157 200 253 309 365
#     4  12  24  38  60  87 117 154 199 251 304 366
#     4  11  24  41  66  94 125 163 206 258 315 377
#     4  10  20  35  58  88 123 163 207 256 312 376
#     4   9  19  38  63  93 132 174 214 260 313 368
#
# _framework density 21.441932999999999
#
# number of rings (size 3 to 8) (size 9 to 14) (size 15 to 20)
#    0.000    1.625    1.250    4.875    0.000    4.500 
#    0.000    1.875    0.000    0.000    0.000    0.000 
#    0.000    0.000    0.000    0.000    0.000    0.000 
#
# Total GULP energy -793126.630266 kJ/mol
# GULP energy per Si atom -12392.603598 kJ/mol
# Density = 2.139313 g / cm^3
# Si number density = 21.441933 Si / 1000 Ang^3
#
#
#
# Elastic Constant Matrix: (Units=GPa)
#
#
# Indices 1 2 3 4 5 6 
#
# 1 91.7651 39.9945 45.0255 0.0000 0.0000 0.0000
# 2 39.9945 93.8118 46.6539 0.0000 0.0000 0.0000
# 3 45.0255 46.6539 124.3171 0.0000 0.0000 0.0000
# 4 0.0000 0.0000 0.0000 16.9108 0.0000 0.0000
# 5 0.0000 0.0000 0.0000 0.0000 37.1586 0.0000
# 6 0.0000 0.0000 0.0000 0.0000 0.0000 30.5874
#
#
#
# Elastic Compliance Matrix: (Units=1/GPa)
#
#
# Indices 1 2 3 4 5 6 
#
# 1 0.014606 -0.004421 -0.003631 0.000000 0.000000 0.000000
# 2 -0.004421 0.014444 -0.003819 0.000000 0.000000 0.000000
# 3 -0.003631 -0.003819 0.010792 0.000000 0.000000 0.000000
# 4 0.000000 0.000000 0.000000 0.059134 0.000000 0.000000
# 5 0.000000 0.000000 0.000000 0.000000 0.026912 0.000000
# 6 0.000000 0.000000 0.000000 0.000000 0.000000 0.032693
#
#
# Mechanical properties :
#
#
# Convention : Reuss Voigt Hill
#
# Bulk Modulus (GPa) = 62.11382 63.69355 62.90369
# Shear Modulus (GPa) = 26.63972 28.81268 27.72620
#
# Velocity S-wave (km/s) = 3.52861 3.66970 3.59985
# Velocity P-wave (km/s) = 6.75520 6.90835 6.83220
#
# Compressibility (1/GPa) = 0.01609948
#
# Stress axis : x y z
#
# Youngs Moduli (GPa) = 68.46603 69.23350 92.65920
#
# Poissons Ratio (x) = 0.30610 0.33642
# Poissons Ratio (y) = 0.30270 0.35389
# Poissons Ratio (z) = 0.24858 0.26442
#
# Static dielectric constant tensor:
#      x y z
#    x 3.824320 0.000000 0.000000 
#    y 0.000000 3.813010 0.000000 
#    z 0.000000 0.000000 4.016210 
# 
# 
# High freq. dielectric constant tensor:
#      x y z
#    x 1.838830 0.000000 0.000000 
#    y 0.000000 1.827250 0.000000 
#    z 0.000000 0.000000 1.844320 
# 
# From -- ./inp_files/22322.got.cif
#   From: 2010.03.12/outbox.cif.g09.slc.cpg/sg51_12_cif.got.tgz:22322.got - 2010.04.16 13:43:02.
