data_PCOD8212477
_publ_section_title
;
Structure prediction by ZEFSAII (Michael W. Deem and Ramdas Pophale) SiO2 
 PCOD8212477
Probable space group: P M M A
;
_chemical_formula_sum "Si O2"
_cell_formula_units_Z 48
_cell_length_a 8.842227
_cell_length_b 16.889697
_cell_length_c 16.201000
_cell_angle_alpha 90.000000
_cell_angle_beta 90.000000
_cell_angle_gamma 90.000000
_cell_volume 2419.498407
_symmetry_space_group_name_H-M "P M M A"
_symmetry_group_IT_number 51
_symmetry_cell_setting 'orthorhombic'
loop_
_space_group_symop_operation_xyz
x,y,z
1/2-x,-y,z
1/2+x,-y,-z
-x,y,-z
-x,-y,-z
1/2+x,y,-z
1/2-x,y,z
x,-y,z
loop_
_atom_site_type_symbol
_atom_site_label
_atom_site_fract_x
_atom_site_fract_y
_atom_site_fract_z
Si Si1 0.570578 0.682043 0.589801
Si Si2 0.571323 0.676263 0.088164
Si Si3 0.927303 0.856888 0.084543
Si Si4 0.585792 0.000000 0.315321
Si Si5 0.580204 0.000000 0.833872
Si Si6 0.579727 0.157220 0.418490
Si Si7 0.425559 0.592560 0.245279
O O1 0.500000 0.657736 0.500000
O O2 0.750000 0.679389 0.579938
O O3 0.514588 0.768884 0.617796
O O4 0.518232 0.625669 0.665732
O O5 0.750000 0.665076 0.079950
O O6 0.526225 0.767305 0.106960
O O7 0.513310 0.626835 0.166099
O O8 0.500000 0.649049 0.000000
O O9 0.750000 0.866144 0.078524
O O10 0.992992 0.919080 0.148059
O O11 0.000000 0.884331 0.000000
O O12 0.579520 0.919047 0.363469
O O13 0.750000 0.000000 0.268197
O O14 0.430957 0.000000 0.264093
O O15 0.750000 0.000000 0.868295
O O16 0.500000 0.127199 0.500000
O O17 0.750000 0.187634 0.435534
O O18 0.250000 0.612883 0.232527
O O19 0.457647 0.500000 0.247043
#
# Coordination Sequence:
#
# PCOD8212477 Si02
#       7
#     8   8   8   4   4   8   8
#     4  10  21  38  61  89 120 157 200 246 298 355
#     4  10  22  40  65  93 121 158 200 246 298 357
#     4  10  21  39  60  83 114 151 193 240 291 343
#     4  10  23  38  52  78 115 154 192 240 289 340
#     4  12  25  36  53  82 115 154 197 240 287 340
#     4  10  20  36  58  81 111 150 193 239 290 342
#     4  10  23  42  63  89 123 159 196 245 302 359
#
# _framework density 19.838823000000001
#
# number of rings (size 3 to 8) (size 9 to 14) (size 15 to 20)
#    0.000    1.833    0.000    4.250    2.333    5.667 
#    0.000    0.000    0.000    0.000    0.000    0.000 
#    0.000    0.000    0.000    0.000    0.000    0.000 
#
# Total GULP energy -594756.091045 kJ/mol
# GULP energy per Si atom -12390.751897 kJ/mol
# Density = 1.979367 g / cm^3
# Si number density = 19.838823 Si / 1000 Ang^3
#
#
#
# Elastic Constant Matrix: (Units=GPa)
#
#
# Indices 1 2 3 4 5 6 
#
# 1 92.9362 43.7810 56.7914 0.0000 0.0000 0.0000
# 2 43.7810 101.3669 70.2237 0.0000 0.0000 0.0000
# 3 56.7914 70.2237 138.1967 0.0000 0.0000 0.0000
# 4 0.0000 0.0000 0.0000 2.8979 0.0000 0.0000
# 5 0.0000 0.0000 0.0000 0.0000 37.2395 0.0000
# 6 0.0000 0.0000 0.0000 0.0000 0.0000 31.9109
#
#
#
# Elastic Compliance Matrix: (Units=1/GPa)
#
#
# Indices 1 2 3 4 5 6 
#
# 1 0.015104 -0.003432 -0.004463 0.000000 0.000000 0.000000
# 2 -0.003432 0.016004 -0.006722 0.000000 0.000000 0.000000
# 3 -0.004463 -0.006722 0.012486 0.000000 0.000000 0.000000
# 4 0.000000 0.000000 0.000000 0.345074 0.000000 0.000000
# 5 0.000000 0.000000 0.000000 0.000000 0.026853 0.000000
# 6 0.000000 0.000000 0.000000 0.000000 0.000000 0.031337
#
#
# Mechanical properties :
#
#
# Convention : Reuss Voigt Hill
#
# Bulk Modulus (GPa) = 69.63661 74.89913 72.26787
# Shear Modulus (GPa) = 10.39761 25.18992 17.79376
#
# Velocity S-wave (km/s) = 2.29182 3.56719 2.99811
# Velocity P-wave (km/s) = 6.49466 7.40285 6.96358
#
# Compressibility (1/GPa) = 0.01436026
#
# Stress axis : x y z
#
# Youngs Moduli (GPa) = 66.20761 62.48353 80.08919
#
# Poissons Ratio (x) = 0.21441 0.35746
# Poissons Ratio (y) = 0.22719 0.53838
# Poissons Ratio (z) = 0.29550 0.42003
#
# Static dielectric constant tensor:
#      x y z
#    x 5.228240 0.000000 0.000000 
#    y 0.000000 3.662370 0.000000 
#    z 0.000000 0.000000 3.611030 
# 
# 
# High freq. dielectric constant tensor:
#      x y z
#    x 1.783410 0.000000 0.000000 
#    y 0.000000 1.778370 0.000000 
#    z 0.000000 0.000000 1.777450 
# 
# From -- ./inp_files/21244.got.cif
#   From: 2010.03.12/outbox.cif.g09.slc.cpg/sg51_11_cif.got.tgz:21244.got - 2010.04.16 13:43:02.
