data_PCOD8212880
_publ_section_title
;
Structure prediction by ZEFSAII (Michael W. Deem and Ramdas Pophale) SiO2 
 PCOD8212880
Probable space group: P M M A
;
_chemical_formula_sum "Si O2"
_cell_formula_units_Z 48
_cell_length_a 34.234760
_cell_length_b 7.752860
_cell_length_c 9.011412
_cell_angle_alpha 90.000000
_cell_angle_beta 90.000000
_cell_angle_gamma 90.000000
_cell_volume 2391.784655
_symmetry_space_group_name_H-M "P M M A"
_symmetry_group_IT_number 51
_symmetry_cell_setting 'orthorhombic'
loop_
_space_group_symop_operation_xyz
x,y,z
1/2-x,-y,z
1/2+x,-y,-z
-x,y,-z
-x,-y,-z
1/2+x,y,-z
1/2-x,y,z
x,-y,z
loop_
_atom_site_type_symbol
_atom_site_label
_atom_site_fract_x
_atom_site_fract_y
_atom_site_fract_z
Si Si1 0.541498 0.500000 0.575744
Si Si2 0.750000 0.203432 0.912370
Si Si3 0.823963 0.798741 0.100741
Si Si4 0.750000 0.303114 0.577562
Si Si5 0.827325 0.696027 0.430831
Si Si6 0.096475 0.808438 0.419477
Si Si7 0.541467 0.500000 0.924210
Si Si8 0.598299 0.197689 0.922708
O O1 0.500000 0.500000 0.500000
O O2 0.564929 0.329923 0.523765
O O3 0.534724 0.500000 0.749873
O O4 0.750000 0.292929 0.753759
O O5 0.750000 0.000000 0.886664
O O6 0.712001 0.265947 0.001274
O O7 0.823108 0.697360 0.254232
O O8 0.820090 0.000000 0.135142
O O9 0.863415 0.754384 0.014355
O O10 0.750000 0.500000 0.524449
O O11 0.710961 0.217949 0.507515
O O12 0.832986 0.500000 0.485703
O O13 0.864918 0.803329 0.480730
O O14 0.108349 0.770964 0.249611
O O15 0.078167 0.000000 0.435512
O O16 0.564250 0.327190 0.974634
O O17 0.500000 0.500000 0.000000
O O18 0.585016 0.000000 0.952039
#
# Coordination Sequence:
#
# PCOD8212880 Si02
#       8
#     4   4   8   4   8   8   4   8
#     4  10  22  40  60  89 122 149 192 238 281 356
#     4  10  21  38  58  80 112 152 201 245 285 344
#     4  10  21  36  55  84 115 149 192 241 292 342
#     4  10  23  38  54  80 116 154 199 243 289 344
#     4  11  22  36  55  84 119 154 195 245 292 345
#     4  10  20  39  63  86 116 156 195 240 291 343
#     4  10  22  38  60  87 114 151 188 228 289 342
#     4   9  20  38  60  85 115 150 193 236 282 344
#
# _framework density 20.068695999999999
#
# number of rings (size 3 to 8) (size 9 to 14) (size 15 to 20)
#    0.000    2.000    0.833    2.000    1.167    5.333 
#    0.000    0.000    0.000    0.000    0.000    0.000 
#    0.000    0.000    0.000    0.000    0.000    0.000 
#
# Total GULP energy -595367.195117 kJ/mol
# GULP energy per Si atom -12403.483232 kJ/mol
# Density = 2.002302 g / cm^3
# Si number density = 20.068696 Si / 1000 Ang^3
#
#
#
# Elastic Constant Matrix: (Units=GPa)
#
#
# Indices 1 2 3 4 5 6 
#
# 1 177.0169 65.1042 66.6114 0.0000 0.0000 0.0000
# 2 65.1042 98.9401 31.9828 0.0000 0.0000 0.0000
# 3 66.6114 31.9828 94.8974 0.0000 0.0000 0.0000
# 4 0.0000 0.0000 0.0000 26.1520 0.0000 0.0000
# 5 0.0000 0.0000 0.0000 0.0000 42.6307 0.0000
# 6 0.0000 0.0000 0.0000 0.0000 0.0000 21.3876
#
#
#
# Elastic Compliance Matrix: (Units=1/GPa)
#
#
# Indices 1 2 3 4 5 6 
#
# 1 0.009122 -0.004414 -0.004916 0.000000 0.000000 0.000000
# 2 -0.004414 0.013478 -0.001445 0.000000 0.000000 0.000000
# 3 -0.004916 -0.001445 0.014475 0.000000 0.000000 0.000000
# 4 0.000000 0.000000 0.000000 0.038238 0.000000 0.000000
# 5 0.000000 0.000000 0.000000 0.000000 0.023457 0.000000
# 6 0.000000 0.000000 0.000000 0.000000 0.000000 0.046756
#
#
# Mechanical properties :
#
#
# Convention : Reuss Voigt Hill
#
# Bulk Modulus (GPa) = 64.39984 77.58347 70.99166
# Shear Modulus (GPa) = 29.02755 31.84446 30.43601
#
# Velocity S-wave (km/s) = 3.80730 3.98775 3.89857
# Velocity P-wave (km/s) = 7.17542 7.74247 7.46433
#
# Compressibility (1/GPa) = 0.01552799
#
# Stress axis : x y z
#
# Youngs Moduli (GPa) = 109.62303 74.19363 69.08471
#
# Poissons Ratio (x) = 0.32746 0.33960
# Poissons Ratio (y) = 0.48382 0.09979
# Poissons Ratio (z) = 0.53887 0.10717
#
# Static dielectric constant tensor:
#      x y z
#    x 3.650480 0.000000 0.000000 
#    y 0.000000 3.682350 0.000000 
#    z 0.000000 0.000000 3.490130 
# 
# 
# High freq. dielectric constant tensor:
#      x y z
#    x 1.779180 0.000000 0.000000 
#    y 0.000000 1.788140 0.000000 
#    z 0.000000 0.000000 1.780400 
# 
# From -- ./inp_files/13008.got.cif
#   From: 2010.03.12/outbox.cif.g09.slc.cpg/sg51_7_cif.got.tgz:13008.got - 2010.04.16 13:43:02.
