data_PCOD8212331
_publ_section_title
;
Structure prediction by ZEFSAII (Michael W. Deem and Ramdas Pophale) SiO2 
 PCOD8212331
Probable space group: P M M A
;
_chemical_formula_sum "Si O2"
_cell_formula_units_Z 36
_cell_length_a 20.687311
_cell_length_b 11.030758
_cell_length_c 8.781699
_cell_angle_alpha 90.000000
_cell_angle_beta 90.000000
_cell_angle_gamma 90.000000
_cell_volume 2003.954919
_symmetry_space_group_name_H-M "P M M A"
_symmetry_group_IT_number 51
_symmetry_cell_setting 'orthorhombic'
loop_
_space_group_symop_operation_xyz
x,y,z
1/2-x,-y,z
1/2+x,-y,-z
-x,y,-z
-x,-y,-z
1/2+x,y,-z
1/2-x,y,z
x,-y,z
loop_
_atom_site_type_symbol
_atom_site_label
_atom_site_fract_x
_atom_site_fract_y
_atom_site_fract_z
Si Si1 0.065761 0.222080 0.085662
Si Si2 0.750000 0.793560 0.292089
Si Si3 0.856905 0.000000 0.804770
Si Si4 0.250000 0.000000 0.454000
Si Si5 0.250000 0.000000 0.948689
Si Si6 0.500879 0.365674 0.337951
Si Si7 0.864933 0.638563 0.176595
O O1 0.047734 0.317405 0.213245
O O2 0.097021 0.115196 0.183088
O O3 0.118243 0.284822 0.975103
O O4 0.000000 0.178386 0.000000
O O5 0.750000 0.879721 0.148369
O O6 0.811817 0.706400 0.279262
O O7 0.750000 0.876590 0.444989
O O8 0.814587 0.000000 0.649947
O O9 0.813606 0.000000 0.952915
O O10 0.500000 0.294066 0.500000
O O11 0.474758 0.500000 0.367593
O O12 0.573309 0.365112 0.281332
O O13 0.843470 0.500000 0.134635
#
# Coordination Sequence:
#
# PCOD8212331 Si02
#       7
#     8   4   4   2   2   8   8
#     4  10  20  35  60  87 115 142 187 235 280 338
#     4  11  21  40  57  81 110 148 194 232 275 332
#     4  11  21  40  56  82 109 153 192 230 277 332
#     4  10  28  38  56  76 110 158 192 230 284 328
#     4  10  20  38  60  72 104 156 186 228 272 320
#     4   9  19  35  56  84 118 151 178 222 292 346
#     4  10  20  35  61  87 111 144 186 233 280 333
#
# _framework density 17.964476000000001
#
# number of rings (size 3 to 8) (size 9 to 14) (size 15 to 20)
#    0.000    2.000    2.222    1.333    3.111    2.667 
#    0.000    0.556    0.000    0.000    0.000    0.000 
#    0.000    0.000    0.000    0.000    0.000    0.000 
#
# Total GULP energy -446134.287883 kJ/mol
# GULP energy per Si atom -12392.619108 kJ/mol
# Density = 1.792359 g / cm^3
# Si number density = 17.964476 Si / 1000 Ang^3
#
#
#
# Elastic Constant Matrix: (Units=GPa)
#
#
# Indices 1 2 3 4 5 6 
#
# 1 71.9455 59.4129 44.9664 0.0000 0.0000 0.0000
# 2 59.4129 111.2215 44.2220 0.0000 0.0000 0.0000
# 3 44.9664 44.2220 119.9691 0.0000 0.0000 0.0000
# 4 0.0000 0.0000 0.0000 -4.8087 0.0000 0.0000
# 5 0.0000 0.0000 0.0000 0.0000 7.5772 0.0000
# 6 0.0000 0.0000 0.0000 0.0000 0.0000 20.0888
#
#
#
# Elastic Compliance Matrix: (Units=1/GPa)
#
#
# Indices 1 2 3 4 5 6 
#
# 1 0.027965 -0.012621 -0.005830 0.000000 0.000000 0.000000
# 2 -0.012621 0.016231 -0.001252 0.000000 0.000000 0.000000
# 3 -0.005830 -0.001252 0.010982 0.000000 0.000000 0.000000
# 4 0.000000 0.000000 0.000000 -0.207955 0.000000 0.000000
# 5 0.000000 0.000000 0.000000 0.000000 0.131976 0.000000
# 6 0.000000 0.000000 0.000000 0.000000 0.000000 0.049779
#
#
# Mechanical properties :
#
#
# Convention : Reuss Voigt Hill
#
# Bulk Modulus (GPa) = 63.40102 66.70431 65.05266
# Shear Modulus (GPa) = 67.89682 14.87377 41.38529
#
# Velocity S-wave (km/s) = 6.15444 2.88054 4.80493
# Velocity P-wave (km/s) = 9.26671 6.94804 8.18984
#
# Compressibility (1/GPa) = 0.01577262
#
# Stress axis : x y z
#
# Youngs Moduli (GPa) = 35.75867 61.61114 91.05643
#
# Poissons Ratio (x) = 0.77758 0.53083
# Poissons Ratio (y) = 0.45130 0.11404
# Poissons Ratio (z) = 0.20846 0.07716
#
# Static dielectric constant tensor:
#      x y z
#    x 3.400980 0.000000 0.000000 
#    y 0.000000 3.574680 0.000000 
#    z 0.000000 0.000000 3.374740 
# 
# 
# High freq. dielectric constant tensor:
#      x y z
#    x 1.696030 0.000000 0.000000 
#    y 0.000000 1.698340 0.000000 
#    z 0.000000 0.000000 1.699770 
# 
# From -- ./inp_files/10604.got.cif
#   From: 2010.03.12/outbox.cif.g09.slc.cpg/sg51_6_cif.got.tgz:10604.got - 2010.04.16 13:43:02.
