data_PCOD8212752
_publ_section_title
;
Structure prediction by ZEFSAII (Michael W. Deem and Ramdas Pophale) SiO2 
 PCOD8212752
Probable space group: P M M A
;
_chemical_formula_sum "Si O2"
_cell_formula_units_Z 48
_cell_length_a 30.996096
_cell_length_b 8.826194
_cell_length_c 8.888350
_cell_angle_alpha 90.000000
_cell_angle_beta 90.000000
_cell_angle_gamma 90.000000
_cell_volume 2431.653075
_symmetry_space_group_name_H-M "P M M A"
_symmetry_group_IT_number 51
_symmetry_cell_setting 'orthorhombic'
loop_
_space_group_symop_operation_xyz
x,y,z
1/2-x,-y,z
1/2+x,-y,-z
-x,y,-z
-x,-y,-z
1/2+x,y,-z
1/2-x,y,z
x,-y,z
loop_
_atom_site_type_symbol
_atom_site_label
_atom_site_fract_x
_atom_site_fract_y
_atom_site_fract_z
Si Si1 0.498669 0.320864 0.169028
Si Si2 0.082475 0.674820 0.649266
Si Si3 0.917826 0.822674 0.669035
Si Si4 0.168594 0.822287 0.161876
Si Si5 0.750000 0.320670 0.341776
Si Si6 0.250000 0.320369 0.320248
Si Si7 0.332568 0.675498 0.843033
O O1 0.495178 0.500000 0.163449
O O2 0.541746 0.268903 0.254413
O O3 0.457735 0.260286 0.256447
O O4 0.500000 0.254181 0.000000
O O5 0.077283 0.500000 0.600300
O O6 0.086177 0.778417 0.503999
O O7 0.124696 0.699497 0.747479
O O8 0.874554 0.770822 0.753024
O O9 0.925444 0.000000 0.683559
O O10 0.208027 0.734238 0.234084
O O11 0.176969 0.000000 0.176919
O O12 0.163869 0.778444 0.988876
O O13 0.750000 0.500000 0.353049
O O14 0.750000 0.253134 0.510397
O O15 0.792320 0.264183 0.254330
O O16 0.250000 0.500000 0.321792
O O17 0.326459 0.500000 0.889301
#
# Coordination Sequence:
#
# PCOD8212752 Si02
#       7
#     8   8   8   8   4   4   8
#     4  10  21  38  60  85 113 148 192 242 294 343
#     4  10  21  37  59  86 115 149 192 242 290 339
#     4  11  24  39  57  83 117 156 193 233 286 347
#     4  11  24  40  57  84 120 153 188 232 284 340
#     4   9  19  35  58  88 114 139 182 235 280 330
#     4  11  22  39  64  88 112 149 192 233 280 334
#     4  10  20  37  61  87 114 148 192 238 286 341
#
# _framework density 19.739657000000001
#
# number of rings (size 3 to 8) (size 9 to 14) (size 15 to 20)
#    0.000    1.667    0.000    4.250    0.000    9.667 
#    0.000    1.667    0.000    0.000    0.000    0.000 
#    0.000    0.000    0.000    0.000    0.000    0.000 
#
# Total GULP energy -595460.727080 kJ/mol
# GULP energy per Si atom -12405.431814 kJ/mol
# Density = 1.969473 g / cm^3
# Si number density = 19.739657 Si / 1000 Ang^3
#
#
#
# Elastic Constant Matrix: (Units=GPa)
#
#
# Indices 1 2 3 4 5 6 
#
# 1 153.6238 21.7970 53.7230 0.0000 0.0000 0.0000
# 2 21.7970 22.5302 18.3010 0.0000 0.0000 0.0000
# 3 53.7230 18.3010 128.4008 0.0000 0.0000 0.0000
# 4 0.0000 0.0000 0.0000 23.1437 0.0000 0.0000
# 5 0.0000 0.0000 0.0000 0.0000 32.1226 0.0000
# 6 0.0000 0.0000 0.0000 0.0000 0.0000 25.5931
#
#
#
# Elastic Compliance Matrix: (Units=1/GPa)
#
#
# Indices 1 2 3 4 5 6 
#
# 1 0.008257 -0.005861 -0.002619 0.000000 0.000000 0.000000
# 2 -0.005861 0.054356 -0.005295 0.000000 0.000000 0.000000
# 3 -0.002619 -0.005295 0.009639 0.000000 0.000000 0.000000
# 4 0.000000 0.000000 0.000000 0.043208 0.000000 0.000000
# 5 0.000000 0.000000 0.000000 0.000000 0.031131 0.000000
# 6 0.000000 0.000000 0.000000 0.000000 0.000000 0.039073
#
#
# Mechanical properties :
#
#
# Convention : Reuss Voigt Hill
#
# Bulk Modulus (GPa) = 22.37079 54.68855 38.52967
# Shear Modulus (GPa) = 21.91880 30.22080 26.06980
#
# Velocity S-wave (km/s) = 3.33587 3.91700 3.63806
# Velocity P-wave (km/s) = 5.11810 6.94423 6.09989
#
# Compressibility (1/GPa) = 0.04470115
#
# Stress axis : x y z
#
# Youngs Moduli (GPa) = 121.10999 18.39727 103.74707
#
# Poissons Ratio (x) = 0.10782 0.27176
# Poissons Ratio (y) = 0.70977 0.54937
# Poissons Ratio (z) = 0.31724 0.09742
#
# Static dielectric constant tensor:
#      x y z
#    x 3.838540 0.000000 0.000000 
#    y 0.000000 3.437350 0.000000 
#    z 0.000000 0.000000 5.251890 
# 
# 
# High freq. dielectric constant tensor:
#      x y z
#    x 1.791760 0.000000 0.000000 
#    y 0.000000 1.754080 0.000000 
#    z 0.000000 0.000000 1.787620 
# 
# From -- ./inp_files/12870.got.cif
#   From: 2010.03.12/outbox.cif.g09.slc.cpg/sg51_7_cif.got.tgz:12870.got - 2010.04.16 13:43:02.
