data_PCOD8212815
_publ_section_title
;
Structure prediction by ZEFSAII (Michael W. Deem and Ramdas Pophale) SiO2 
 PCOD8212815
Probable space group: P M M A
;
_chemical_formula_sum "Si O2"
_cell_formula_units_Z 44
_cell_length_a 10.163889
_cell_length_b 7.830857
_cell_length_c 28.310028
_cell_angle_alpha 90.000000
_cell_angle_beta 90.000000
_cell_angle_gamma 90.000000
_cell_volume 2253.250654
_symmetry_space_group_name_H-M "P M M A"
_symmetry_group_IT_number 51
_symmetry_cell_setting 'orthorhombic'
loop_
_space_group_symop_operation_xyz
x,y,z
1/2-x,-y,z
1/2+x,-y,-z
-x,y,-z
-x,-y,-z
1/2+x,y,-z
1/2-x,y,z
x,-y,z
loop_
_atom_site_type_symbol
_atom_site_label
_atom_site_fract_x
_atom_site_fract_y
_atom_site_fract_z
Si Si1 0.903665 0.195284 0.793897
Si Si2 0.483469 0.195973 0.107290
Si Si3 0.250000 0.203793 0.043133
Si Si4 0.900267 0.000000 0.457122
Si Si5 0.750000 0.305083 0.063295
Si Si6 0.400420 0.699072 0.615105
Si Si7 0.104558 0.304991 0.307476
O O1 0.750000 0.218350 0.803381
O O2 0.975959 0.277260 0.839967
O O3 0.947838 0.290089 0.746167
O O4 0.944084 0.000000 0.786395
O O5 0.377361 0.274075 0.071083
O O6 0.625675 0.211763 0.085166
O O7 0.443261 0.000000 0.113971
O O8 0.250000 0.000000 0.035699
O O9 0.250000 0.292958 0.992719
O O10 0.926714 0.174758 0.428465
O O11 0.000000 0.000000 0.500000
O O12 0.750000 0.000000 0.475634
O O13 0.750000 0.500000 0.079388
O O14 0.250000 0.718204 0.632797
O O15 0.428051 0.500000 0.601018
O O16 0.496138 0.768756 0.656616
O O17 0.250000 0.215379 0.312657
O O18 0.122197 0.500000 0.320555
#
# Coordination Sequence:
#
# PCOD8212815 Si02
#       7
#     8   8   4   4   4   8   8
#     4   9  17  32  55  82 106 132 173 225 275 326
#     4  10  20  38  60  79 104 137 177 222 273 331
#     4  10  20  38  64  82  96 134 180 222 270 333
#     4  10  22  38  58  86 118 152 196 242 283 336
#     4  12  26  38  50  78 112 138 174 222 272 329
#     4   9  19  37  57  79 115 157 192 233 284 339
#     4   9  18  32  52  80 110 143 184 225 270 329
#
# _framework density 19.527342999999998
#
# number of rings (size 3 to 8) (size 9 to 14) (size 15 to 20)
#    0.000    2.364    0.909    1.364    1.273    4.727 
#    1.636    0.000    0.000    0.000    0.000    0.000 
#    0.000    0.000    0.000    0.000    0.000    0.000 
#
# Total GULP energy -545363.523016 kJ/mol
# GULP energy per Si atom -12394.625523 kJ/mol
# Density = 1.948290 g / cm^3
# Si number density = 19.527343 Si / 1000 Ang^3
#
#
#
# Elastic Constant Matrix: (Units=GPa)
#
#
# Indices 1 2 3 4 5 6 
#
# 1 132.7162 18.6917 93.4837 0.0000 0.0000 0.0000
# 2 18.6917 49.3329 29.3672 0.0000 0.0000 0.0000
# 3 93.4837 29.3672 159.9675 0.0000 0.0000 0.0000
# 4 0.0000 0.0000 0.0000 12.7107 0.0000 0.0000
# 5 0.0000 0.0000 0.0000 0.0000 48.2218 0.0000
# 6 0.0000 0.0000 0.0000 0.0000 0.0000 12.3704
#
#
#
# Elastic Compliance Matrix: (Units=1/GPa)
#
#
# Indices 1 2 3 4 5 6 
#
# 1 0.012815 -0.000446 -0.007407 0.000000 0.000000 0.000000
# 2 -0.000446 0.022773 -0.003920 0.000000 0.000000 0.000000
# 3 -0.007407 -0.003920 0.011300 0.000000 0.000000 0.000000
# 4 0.000000 0.000000 0.000000 0.078674 0.000000 0.000000
# 5 0.000000 0.000000 0.000000 0.000000 0.020738 0.000000
# 6 0.000000 0.000000 0.000000 0.000000 0.000000 0.080838
#
#
# Mechanical properties :
#
#
# Convention : Reuss Voigt Hill
#
# Bulk Modulus (GPa) = 42.84278 69.45577 56.14927
# Shear Modulus (GPa) = 19.34504 28.02553 23.68528
#
# Velocity S-wave (km/s) = 3.15090 3.79251 3.48649
# Velocity P-wave (km/s) = 5.93507 7.40427 6.71000
#
# Compressibility (1/GPa) = 0.02334116
#
# Stress axis : x y z
#
# Youngs Moduli (GPa) = 78.03185 43.91167 88.49841
#
# Poissons Ratio (x) = 0.01959 0.65553
# Poissons Ratio (y) = 0.03481 0.34691
# Poissons Ratio (z) = 0.57800 0.17213
#
# Static dielectric constant tensor:
#      x y z
#    x 3.639440 0.000000 0.000000 
#    y 0.000000 3.437160 0.000000 
#    z 0.000000 0.000000 3.545470 
# 
# 
# High freq. dielectric constant tensor:
#      x y z
#    x 1.753810 0.000000 0.000000 
#    y 0.000000 1.748820 0.000000 
#    z 0.000000 0.000000 1.758660 
# 
# From -- ./inp_files/36850.got.cif
#   From: 2010.03.12/outbox.cif.g09.slc.cpg/sg51_19_cif.got.tgz:36850.got - 2010.04.16 13:43:02.
