data_PCOD8212729
_publ_section_title
;
Structure prediction by ZEFSAII (Michael W. Deem and Ramdas Pophale) SiO2 
 PCOD8212729
Probable space group: P M M A
;
_chemical_formula_sum "Si O2"
_cell_formula_units_Z 44
_cell_length_a 8.794698
_cell_length_b 27.431569
_cell_length_c 9.409288
_cell_angle_alpha 90.000000
_cell_angle_beta 90.000000
_cell_angle_gamma 90.000000
_cell_volume 2270.012983
_symmetry_space_group_name_H-M "P M M A"
_symmetry_group_IT_number 51
_symmetry_cell_setting 'orthorhombic'
loop_
_space_group_symop_operation_xyz
x,y,z
1/2-x,-y,z
1/2+x,-y,-z
-x,y,-z
-x,-y,-z
1/2+x,y,-z
1/2-x,y,z
x,-y,z
loop_
_atom_site_type_symbol
_atom_site_label
_atom_site_fract_x
_atom_site_fract_y
_atom_site_fract_z
Si Si1 0.926752 0.556978 0.647467
Si Si2 0.070189 0.080320 0.849486
Si Si3 0.070232 0.632930 0.846472
Si Si4 0.427821 0.808351 0.852059
Si Si5 0.071009 0.723341 0.653338
Si Si6 0.068926 0.000000 0.345260
O O1 0.750000 0.570193 0.643108
O O2 0.955743 0.500000 0.670171
O O3 0.000000 0.575086 0.500000
O O4 0.005984 0.583451 0.779058
O O5 0.250000 0.070613 0.852206
O O6 0.029576 0.136209 0.813126
O O7 0.990421 0.048432 0.730429
O O8 0.000000 0.065016 0.000000
O O9 0.250000 0.628783 0.860429
O O10 0.019020 0.677959 0.748722
O O11 0.000000 0.641263 0.000000
O O12 0.250000 0.801863 0.872354
O O13 0.488211 0.773139 0.727379
O O14 0.500000 0.791910 0.000000
O O15 0.250000 0.724508 0.635009
O O16 0.000000 0.718066 0.500000
O O17 0.000000 0.000000 0.500000
O O18 0.250000 0.000000 0.350356
#
# Coordination Sequence:
#
# PCOD8212729 Si02
#       6
#     8   8   8   8   8   4
#     4  10  21  38  60  85 114 148 186 229 278 332
#     4  10  20  37  60  85 113 147 187 229 274 329
#     4  11  23  38  58  83 113 148 188 233 280 331
#     4   9  19  36  58  84 113 144 182 226 272 324
#     4  10  22  38  56  82 113 147 185 226 275 330
#     4  12  25  40  57  80 112 148 186 232 283 332
#
# _framework density 19.383147000000001
#
# number of rings (size 3 to 8) (size 9 to 14) (size 15 to 20)
#    0.000    1.818    0.000    3.818    0.000    6.545 
#    0.000    1.818    0.000    0.000    0.000    0.000 
#    0.000    0.000    0.000    0.000    0.000    0.000 
#
# Total GULP energy -545803.147675 kJ/mol
# GULP energy per Si atom -12404.616993 kJ/mol
# Density = 1.933903 g / cm^3
# Si number density = 19.383147 Si / 1000 Ang^3
#
#
#
# Elastic Constant Matrix: (Units=GPa)
#
#
# Indices 1 2 3 4 5 6 
#
# 1 92.1852 54.5218 71.2449 0.0000 0.0000 0.0000
# 2 54.5218 108.6187 88.6846 0.0000 0.0000 0.0000
# 3 71.2449 88.6846 186.2026 0.0000 0.0000 0.0000
# 4 0.0000 0.0000 0.0000 26.2125 0.0000 0.0000
# 5 0.0000 0.0000 0.0000 0.0000 40.7706 0.0000
# 6 0.0000 0.0000 0.0000 0.0000 0.0000 17.4671
#
#
#
# Elastic Compliance Matrix: (Units=1/GPa)
#
#
# Indices 1 2 3 4 5 6 
#
# 1 0.017083 -0.005299 -0.004013 0.000000 0.000000 0.000000
# 2 -0.005299 0.016708 -0.005930 0.000000 0.000000 0.000000
# 3 -0.004013 -0.005930 0.009730 0.000000 0.000000 0.000000
# 4 0.000000 0.000000 0.000000 0.038150 0.000000 0.000000
# 5 0.000000 0.000000 0.000000 0.000000 0.024527 0.000000
# 6 0.000000 0.000000 0.000000 0.000000 0.000000 0.057251
#
#
# Mechanical properties :
#
#
# Convention : Reuss Voigt Hill
#
# Bulk Modulus (GPa) = 76.69873 90.65656 83.67765
# Shear Modulus (GPa) = 25.21712 28.39373 26.80542
#
# Velocity S-wave (km/s) = 3.61083 3.83151 3.72280
# Velocity P-wave (km/s) = 7.55247 8.15146 7.85767
#
# Compressibility (1/GPa) = 0.01303802
#
# Stress axis : x y z
#
# Youngs Moduli (GPa) = 58.53928 59.85075 102.77134
#
# Poissons Ratio (x) = 0.31712 0.41237
# Poissons Ratio (y) = 0.31017 0.60948
# Poissons Ratio (z) = 0.23489 0.35494
#
# Static dielectric constant tensor:
#      x y z
#    x 3.580640 0.000000 0.000000 
#    y 0.000000 3.768430 0.000000 
#    z 0.000000 0.000000 3.660470 
# 
# 
# High freq. dielectric constant tensor:
#      x y z
#    x 1.761260 0.000000 0.000000 
#    y 0.000000 1.768220 0.000000 
#    z 0.000000 0.000000 1.758030 
# 
# From -- ./inp_files/5833.got.cif
#   From: 2010.03.12/outbox.cif.g09.slc.cpg/sg51_3_cif.got.tgz:5833.got - 2010.04.16 13:43:02.
