data_PCOD8212375
_publ_section_title
;
Structure prediction by ZEFSAII (Michael W. Deem and Ramdas Pophale) SiO2 
 PCOD8212375
Probable space group: P M M A
;
_chemical_formula_sum "Si O2"
_cell_formula_units_Z 48
_cell_length_a 8.974291
_cell_length_b 30.925735
_cell_length_c 9.256322
_cell_angle_alpha 90.000000
_cell_angle_beta 90.000000
_cell_angle_gamma 90.000000
_cell_volume 2568.967630
_symmetry_space_group_name_H-M "P M M A"
_symmetry_group_IT_number 51
_symmetry_cell_setting 'orthorhombic'
loop_
_space_group_symop_operation_xyz
x,y,z
1/2-x,-y,z
1/2+x,-y,-z
-x,y,-z
-x,-y,-z
1/2+x,y,-z
1/2-x,y,z
x,-y,z
loop_
_atom_site_type_symbol
_atom_site_label
_atom_site_fract_x
_atom_site_fract_y
_atom_site_fract_z
Si Si1 0.575027 0.092731 0.346575
Si Si2 0.575692 0.418908 0.844788
Si Si3 0.422293 0.000000 0.651748
Si Si4 0.922999 0.831991 0.148242
Si Si5 0.426485 0.663566 0.346109
Si Si6 0.926430 0.500000 0.656392
Si Si7 0.925243 0.266407 0.153692
O O1 0.500000 0.094185 0.500000
O O2 0.750000 0.099034 0.366975
O O3 0.508676 0.133023 0.258111
O O4 0.538477 0.045810 0.268764
O O5 0.750000 0.422912 0.872078
O O6 0.533582 0.375132 0.762269
O O7 0.518854 0.458356 0.745982
O O8 0.500000 0.419853 0.000000
O O9 0.500000 0.000000 0.500000
O O10 0.250000 0.000000 0.615042
O O11 0.750000 0.839859 0.125248
O O12 0.954850 0.783121 0.199560
O O13 0.000000 0.842039 0.000000
O O14 0.500000 0.653484 0.500000
O O15 0.250000 0.669419 0.365548
O O16 0.498042 0.706599 0.280239
O O17 0.750000 0.500000 0.633909
O O18 0.000000 0.500000 0.500000
O O19 0.750000 0.277063 0.142424
O O20 0.000000 0.277385 0.000000
#
# Coordination Sequence:
#
# PCOD8212375 Si02
#       7
#     8   8   4   8   8   4   8
#     4   9  17  30  48  71  96 125 162 204 248 297
#     4  10  22  38  58  83 111 143 181 219 260 311
#     4   8  14  26  45  66  92 124 158 198 245 294
#     4   9  19  34  51  72 100 132 167 205 250 301
#     4  11  23  38  56  81 110 141 176 218 265 312
#     4  10  21  38  58  84 114 144 179 220 264 310
#     4  10  20  36  56  77 102 136 175 215 258 310
#
# _framework density 18.684549000000001
#
# number of rings (size 3 to 8) (size 9 to 14) (size 15 to 20)
#    0.000    2.333    0.000    2.250    0.000    5.333 
#    0.000    2.083    0.000    0.000    0.000    0.000 
#    0.000    0.000    0.000    0.000    0.000    0.000 
#
# Total GULP energy -594961.760424 kJ/mol
# GULP energy per Si atom -12395.036676 kJ/mol
# Density = 1.864202 g / cm^3
# Si number density = 18.684549 Si / 1000 Ang^3
#
#
#
# Elastic Constant Matrix: (Units=GPa)
#
#
# Indices 1 2 3 4 5 6 
#
# 1 56.0654 49.7347 52.9453 0.0000 0.0000 0.0000
# 2 49.7347 151.5328 84.9087 0.0000 0.0000 0.0000
# 3 52.9453 84.9087 131.4735 0.0000 0.0000 0.0000
# 4 0.0000 0.0000 0.0000 39.0734 0.0000 0.0000
# 5 0.0000 0.0000 0.0000 0.0000 34.9213 0.0000
# 6 0.0000 0.0000 0.0000 0.0000 0.0000 23.9658
#
#
#
# Elastic Compliance Matrix: (Units=1/GPa)
#
#
# Indices 1 2 3 4 5 6 
#
# 1 0.031011 -0.004984 -0.009270 0.000000 0.000000 0.000000
# 2 -0.004984 0.011143 -0.005189 0.000000 0.000000 0.000000
# 3 -0.009270 -0.005189 0.014690 0.000000 0.000000 0.000000
# 4 0.000000 0.000000 0.000000 0.025593 0.000000 0.000000
# 5 0.000000 0.000000 0.000000 0.000000 0.028636 0.000000
# 6 0.000000 0.000000 0.000000 0.000000 0.000000 0.041726
#
#
# Mechanical properties :
#
#
# Convention : Reuss Voigt Hill
#
# Bulk Modulus (GPa) = 55.68346 79.36103 67.52224
# Shear Modulus (GPa) = 25.29454 29.69097 27.49276
#
# Velocity S-wave (km/s) = 3.68335 3.99063 3.84007
# Velocity P-wave (km/s) = 6.92503 7.98748 7.47515
#
# Compressibility (1/GPa) = 0.01795866
#
# Stress axis : x y z
#
# Youngs Moduli (GPa) = 32.24614 89.74493 68.07255
#
# Poissons Ratio (x) = 0.44731 0.63100
# Poissons Ratio (y) = 0.16072 0.35323
# Poissons Ratio (z) = 0.29891 0.46569
#
# Static dielectric constant tensor:
#      x y z
#    x 3.415900 0.000000 0.000000 
#    y 0.000000 4.027080 0.000000 
#    z 0.000000 0.000000 3.070710 
# 
# 
# High freq. dielectric constant tensor:
#      x y z
#    x 1.724870 0.000000 0.000000 
#    y 0.000000 1.750250 0.000000 
#    z 0.000000 0.000000 1.710570 
# 
# From -- ./inp_files/6133.got.cif
#   From: 2010.03.12/outbox.cif.g09.slc.cpg/sg51_4_cif.got.tgz:6133.got - 2010.04.16 13:43:02.
