data_PCOD8212716
_publ_section_title
;
Structure prediction by ZEFSAII (Michael W. Deem and Ramdas Pophale) SiO2 
 PCOD8212716
Probable space group: P M M A
;
_chemical_formula_sum "Si O2"
_cell_formula_units_Z 64
_cell_length_a 15.103129
_cell_length_b 9.005306
_cell_length_c 23.870209
_cell_angle_alpha 90.000000
_cell_angle_beta 90.000000
_cell_angle_gamma 90.000000
_cell_volume 3246.546504
_symmetry_space_group_name_H-M "P M M A"
_symmetry_group_IT_number 51
_symmetry_cell_setting 'orthorhombic'
loop_
_space_group_symop_operation_xyz
x,y,z
1/2-x,-y,z
1/2+x,-y,-z
-x,y,-z
-x,-y,-z
1/2+x,y,-z
1/2-x,y,z
x,-y,z
loop_
_atom_site_type_symbol
_atom_site_label
_atom_site_fract_x
_atom_site_fract_y
_atom_site_fract_z
Si Si1 0.348055 0.832315 0.236745
Si Si2 0.648557 0.323627 0.504708
Si Si3 0.009205 0.324690 0.710495
Si Si4 0.408784 0.169087 0.117011
Si Si5 0.915611 0.326259 0.109098
Si Si6 0.993683 0.323726 0.415929
Si Si7 0.849322 0.168885 0.211941
Si Si8 0.850926 0.832068 0.004585
O O1 0.250000 0.798056 0.259859
O O2 0.414417 0.716458 0.264233
O O3 0.343175 0.815953 0.169339
O O4 0.377344 0.000000 0.252456
O O5 0.750000 0.257759 0.506638
O O6 0.656010 0.500000 0.505016
O O7 0.587226 0.268442 0.556891
O O8 0.594181 0.269443 0.449513
O O9 0.021369 0.500000 0.713144
O O10 0.088130 0.252637 0.745020
O O11 0.013535 0.263406 0.647120
O O12 0.487330 0.283029 0.130162
O O13 0.444505 0.000000 0.111749
O O14 0.360157 0.217458 0.059895
O O15 0.899300 0.500000 0.112808
O O16 0.847806 0.244885 0.150729
O O17 0.907166 0.273720 0.044829
O O18 0.995464 0.500000 0.417298
O O19 0.750000 0.175002 0.235944
O O20 0.882756 0.000000 0.205440
O O21 0.750000 0.816952 0.022830
O O22 0.885017 0.000000 0.012742
#
# Coordination Sequence:
#
# PCOD8212716 Si02
#       8
#     8   8   8   8   8   8   8   8
#     4  10  21  38  60  83 110 151 199 240 280 335
#     4   8  13  25  46  71 106 153 193 224 265 322
#     4  11  22  36  56  86 122 153 185 236 295 342
#     4  10  20  37  60  81 106 143 189 234 278 336
#     4  12  24  37  56  83 113 143 179 229 293 352
#     4   8  16  28  44  74 113 149 187 227 273 331
#     4  11  24  42  62  81 106 148 198 242 285 342
#     4  10  21  37  57  81 107 140 185 231 277 338
#
# _framework density 19.713256999999999
#
# number of rings (size 3 to 8) (size 9 to 14) (size 15 to 20)
#    0.000    2.000    1.250    3.750    0.000    7.500 
#    0.000    2.500    0.000    2.250    0.000    7.000 
#    0.000   12.000    0.000    0.000    0.000    0.000 
#
# Total GULP energy -793411.159234 kJ/mol
# GULP energy per Si atom -12397.049363 kJ/mol
# Density = 1.966839 g / cm^3
# Si number density = 19.713257 Si / 1000 Ang^3
#
#
#
# Elastic Constant Matrix: (Units=GPa)
#
#
# Indices 1 2 3 4 5 6 
#
# 1 116.0480 31.1780 40.0036 0.0000 0.0000 0.0000
# 2 31.1780 82.7162 39.7221 0.0000 0.0000 0.0000
# 3 40.0036 39.7221 129.2177 0.0000 0.0000 0.0000
# 4 0.0000 0.0000 0.0000 4.9962 0.0000 0.0000
# 5 0.0000 0.0000 0.0000 0.0000 14.4329 0.0000
# 6 0.0000 0.0000 0.0000 0.0000 0.0000 2.0369
#
#
#
# Elastic Compliance Matrix: (Units=1/GPa)
#
#
# Indices 1 2 3 4 5 6 
#
# 1 0.010141 -0.002716 -0.002305 0.000000 0.000000 0.000000
# 2 -0.002716 0.014911 -0.003743 0.000000 0.000000 0.000000
# 3 -0.002305 -0.003743 0.009603 0.000000 0.000000 0.000000
# 4 0.000000 0.000000 0.000000 0.200153 0.000000 0.000000
# 5 0.000000 0.000000 0.000000 0.000000 0.069286 0.000000
# 6 0.000000 0.000000 0.000000 0.000000 0.000000 0.490943
#
#
# Mechanical properties :
#
#
# Convention : Reuss Voigt Hill
#
# Bulk Modulus (GPa) = 58.38341 61.08771 59.73556
# Shear Modulus (GPa) = 6.11043 18.76506 12.43774
#
# Velocity S-wave (km/s) = 1.76249 3.08864 2.51456
# Velocity P-wave (km/s) = 5.81571 6.61627 6.22886
#
# Compressibility (1/GPa) = 0.01712815
#
# Stress axis : x y z
#
# Youngs Moduli (GPa) = 98.60745 67.06660 104.13468
#
# Poissons Ratio (x) = 0.18213 0.24000
# Poissons Ratio (y) = 0.26779 0.38976
# Poissons Ratio (z) = 0.22726 0.25102
#
# Static dielectric constant tensor:
#      x y z
#    x 3.677190 0.000000 0.000000 
#    y 0.000000 3.247650 0.000000 
#    z 0.000000 0.000000 3.775380 
# 
# 
# High freq. dielectric constant tensor:
#      x y z
#    x 1.775570 0.000000 0.000000 
#    y 0.000000 1.732550 0.000000 
#    z 0.000000 0.000000 1.768550 
# 
# From -- ./inp_files/35707.got.cif
#   From: 2010.03.12/outbox.cif.g09.slc.cpg/sg51_18_cif.got.tgz:35707.got - 2010.04.16 13:43:02.
