data_PCOD8212739
_publ_section_title
;
Structure prediction by ZEFSAII (Michael W. Deem and Ramdas Pophale) SiO2 
 PCOD8212739
Probable space group: P M M A
;
_chemical_formula_sum "Si O2"
_cell_formula_units_Z 48
_cell_length_a 16.046054
_cell_length_b 8.573750
_cell_length_c 16.926817
_cell_angle_alpha 90.000000
_cell_angle_beta 90.000000
_cell_angle_gamma 90.000000
_cell_volume 2328.704403
_symmetry_space_group_name_H-M "P M M A"
_symmetry_group_IT_number 51
_symmetry_cell_setting 'orthorhombic'
loop_
_space_group_symop_operation_xyz
x,y,z
1/2-x,-y,z
1/2+x,-y,-z
-x,y,-z
-x,-y,-z
1/2+x,y,-z
1/2-x,y,z
x,-y,z
loop_
_atom_site_type_symbol
_atom_site_label
_atom_site_fract_x
_atom_site_fract_y
_atom_site_fract_z
Si Si1 0.653969 0.678525 0.805314
Si Si2 0.935500 0.180659 0.664240
Si Si3 0.389839 0.679476 0.659668
Si Si4 0.250000 0.179818 0.764968
Si Si5 0.750000 0.683535 0.064215
Si Si6 0.089143 0.315233 0.027192
Si Si7 0.846355 0.179694 0.503954
O O1 0.750000 0.700774 0.827690
O O2 0.634913 0.500000 0.782085
O O3 0.631854 0.789075 0.732250
O O4 0.600817 0.730312 0.881374
O O5 0.897587 0.232067 0.580521
O O6 0.015704 0.284446 0.683153
O O7 0.960249 0.000000 0.662497
O O8 0.369390 0.500000 0.676939
O O9 0.330901 0.785349 0.712968
O O10 0.375878 0.713884 0.567720
O O11 0.250000 0.282555 0.843247
O O12 0.250000 0.000000 0.789284
O O13 0.750000 0.500000 0.049700
O O14 0.665888 0.754570 0.024524
O O15 0.088541 0.500000 0.016300
O O16 0.000000 0.244370 0.000000
O O17 0.750000 0.207827 0.522709
O O18 0.864020 0.000000 0.482088
#
# Coordination Sequence:
#
# PCOD8212739 Si02
#       7
#     8   8   8   4   4   8   8
#     4  10  20  37  60  89 125 165 211 261 306 358
#     4  11  24  40  61  91 126 166 206 250 310 374
#     4  12  25  42  64  92 121 158 207 259 309 362
#     4  12  26  44  64  89 126 163 200 251 314 377
#     4  10  20  38  64  93 122 159 212 259 304 373
#     4   9  18  34  59  90 123 161 206 257 313 369
#     4  10  21  40  64  88 122 168 208 247 305 370
#
# _framework density 20.612321000000001
#
# number of rings (size 3 to 8) (size 9 to 14) (size 15 to 20)
#    0.000    1.500    1.667    3.750    2.333    4.333 
#    0.000    0.833    0.000    1.000    0.000    0.000 
#    0.000    0.000    0.000    0.000    0.000    0.000 
#
# Total GULP energy -595442.919278 kJ/mol
# GULP energy per Si atom -12405.060818 kJ/mol
# Density = 2.056541 g / cm^3
# Si number density = 20.612321 Si / 1000 Ang^3
#
#
#
# Elastic Constant Matrix: (Units=GPa)
#
#
# Indices 1 2 3 4 5 6 
#
# 1 122.1593 19.9012 40.4830 0.0000 0.0000 0.0000
# 2 19.9012 42.5158 10.3480 0.0000 0.0000 0.0000
# 3 40.4830 10.3480 108.5987 0.0000 0.0000 0.0000
# 4 0.0000 0.0000 0.0000 16.1293 0.0000 0.0000
# 5 0.0000 0.0000 0.0000 0.0000 2.4104 0.0000
# 6 0.0000 0.0000 0.0000 0.0000 0.0000 24.3613
#
#
#
# Elastic Compliance Matrix: (Units=1/GPa)
#
#
# Indices 1 2 3 4 5 6 
#
# 1 0.009914 -0.003830 -0.003331 0.000000 0.000000 0.000000
# 2 -0.003830 0.025559 -0.001008 0.000000 0.000000 0.000000
# 3 -0.003331 -0.001008 0.010546 0.000000 0.000000 0.000000
# 4 0.000000 0.000000 0.000000 0.061999 0.000000 0.000000
# 5 0.000000 0.000000 0.000000 0.000000 0.414864 0.000000
# 6 0.000000 0.000000 0.000000 0.000000 0.000000 0.041049
#
#
# Mechanical properties :
#
#
# Convention : Reuss Voigt Hill
#
# Bulk Modulus (GPa) = 33.69073 46.08200 39.88637
# Shear Modulus (GPa) = 8.47228 22.08298 15.27763
#
# Velocity S-wave (km/s) = 2.02959 3.27670 2.72543
# Velocity P-wave (km/s) = 4.67683 6.05976 5.41264
#
# Compressibility (1/GPa) = 0.02968175
#
# Stress axis : x y z
#
# Youngs Moduli (GPa) = 100.87020 39.12566 94.82423
#
# Poissons Ratio (x) = 0.14985 0.31583
# Poissons Ratio (y) = 0.38632 0.09556
# Poissons Ratio (z) = 0.33596 0.03943
#
# Static dielectric constant tensor:
#      x y z
#    x 3.965450 0.000000 0.000000 
#    y 0.000000 3.407410 0.000000 
#    z 0.000000 0.000000 3.685330 
# 
# 
# High freq. dielectric constant tensor:
#      x y z
#    x 1.822370 0.000000 0.000000 
#    y 0.000000 1.777680 0.000000 
#    z 0.000000 0.000000 1.814460 
# 
# From -- ./inp_files/29528.got.cif
#   From: 2010.03.12/outbox.cif.g09.slc.cpg/sg51_15_cif.got.tgz:29528.got - 2010.04.16 13:43:02.
