data_PCOD8212769
_publ_section_title
;
Structure prediction by ZEFSAII (Michael W. Deem and Ramdas Pophale) SiO2 
 PCOD8212769
Probable space group: P M M A
;
_chemical_formula_sum "Si O2"
_cell_formula_units_Z 48
_cell_length_a 14.405118
_cell_length_b 8.668386
_cell_length_c 20.232641
_cell_angle_alpha 90.000000
_cell_angle_beta 90.000000
_cell_angle_gamma 90.000000
_cell_volume 2526.432142
_symmetry_space_group_name_H-M "P M M A"
_symmetry_group_IT_number 51
_symmetry_cell_setting 'orthorhombic'
loop_
_space_group_symop_operation_xyz
x,y,z
1/2-x,-y,z
1/2+x,-y,-z
-x,y,-z
-x,-y,-z
1/2+x,y,-z
1/2-x,y,z
x,-y,z
loop_
_atom_site_type_symbol
_atom_site_label
_atom_site_fract_x
_atom_site_fract_y
_atom_site_fract_z
Si Si1 0.250000 0.680268 0.515681
Si Si2 0.567321 0.676744 0.821132
Si Si3 0.562110 0.318570 0.061365
Si Si4 0.065287 0.180352 0.561331
Si Si5 0.750000 0.181645 0.020115
Si Si6 0.250000 0.182634 0.372556
Si Si7 0.058591 0.678378 0.329111
Si Si8 0.750000 0.180337 0.872216
O O1 0.250000 0.500000 0.497751
O O2 0.340545 0.721686 0.558184
O O3 0.250000 0.782852 0.450111
O O4 0.592585 0.500000 0.836099
O O5 0.487737 0.733721 0.871078
O O6 0.529589 0.698548 0.747067
O O7 0.660383 0.772424 0.830971
O O8 0.578778 0.500000 0.058038
O O9 0.660664 0.236231 0.060253
O O10 0.500000 0.261462 0.000000
O O11 0.000000 0.225591 0.500000
O O12 0.013915 0.223460 0.628730
O O13 0.089250 0.000000 0.560676
O O14 0.750000 0.000000 0.016437
O O15 0.750000 0.254395 0.945944
O O16 0.338701 0.256645 0.338250
O O17 0.250000 0.000000 0.361948
O O18 0.056202 0.500000 0.351292
O O19 0.750000 0.000000 0.880002
#
# Coordination Sequence:
#
# PCOD8212769 Si02
#       8
#     4   8   8   8   4   4   8   4
#     4  12  24  39  64  93 120 152 198 247 292 340
#     4  10  22  39  59  86 118 154 197 244 289 344
#     4  10  20  37  62  85 111 152 199 241 286 342
#     4  11  23  40  63  89 121 156 195 242 292 349
#     4  11  23  36  55  88 122 150 190 244 295 344
#     4  12  23  37  58  88 124 158 195 238 293 354
#     4  11  23  39  60  88 121 156 197 243 295 349
#     4  11  22  34  55  87 122 156 189 237 298 354
#
# _framework density 18.999123999999998
#
# number of rings (size 3 to 8) (size 9 to 14) (size 15 to 20)
#    0.000    1.167    3.333    3.500    0.000    5.667 
#    0.000    0.833    0.000    2.000    0.000    0.000 
#    0.000    0.000    0.000    0.000    0.000    0.000 
#
# Total GULP energy -595509.542930 kJ/mol
# GULP energy per Si atom -12406.448811 kJ/mol
# Density = 1.895588 g / cm^3
# Si number density = 18.999124 Si / 1000 Ang^3
#
#
#
# Elastic Constant Matrix: (Units=GPa)
#
#
# Indices 1 2 3 4 5 6 
#
# 1 129.1914 33.4610 48.6360 0.0000 0.0000 0.0000
# 2 33.4610 63.1475 25.9380 0.0000 0.0000 0.0000
# 3 48.6360 25.9380 114.0053 0.0000 0.0000 0.0000
# 4 0.0000 0.0000 0.0000 24.2901 0.0000 0.0000
# 5 0.0000 0.0000 0.0000 0.0000 10.2486 0.0000
# 6 0.0000 0.0000 0.0000 0.0000 0.0000 53.2655
#
#
#
# Elastic Compliance Matrix: (Units=1/GPa)
#
#
# Indices 1 2 3 4 5 6 
#
# 1 0.010032 -0.003925 -0.003387 0.000000 0.000000 0.000000
# 2 -0.003925 0.019004 -0.002649 0.000000 0.000000 0.000000
# 3 -0.003387 -0.002649 0.010819 0.000000 0.000000 0.000000
# 4 0.000000 0.000000 0.000000 0.041169 0.000000 0.000000
# 5 0.000000 0.000000 0.000000 0.000000 0.097574 0.000000
# 6 0.000000 0.000000 0.000000 0.000000 0.000000 0.018774
#
#
# Mechanical properties :
#
#
# Convention : Reuss Voigt Hill
#
# Bulk Modulus (GPa) = 50.16752 58.04604 54.10678
# Shear Modulus (GPa) = 22.32760 30.78147 26.55453
#
# Velocity S-wave (km/s) = 3.43183 4.02948 3.74260
# Velocity P-wave (km/s) = 6.49351 7.22961 6.87142
#
# Compressibility (1/GPa) = 0.01993321
#
# Stress axis : x y z
#
# Youngs Moduli (GPa) = 99.68128 52.62109 92.42862
#
# Poissons Ratio (x) = 0.20652 0.31304
# Poissons Ratio (y) = 0.39121 0.24488
# Poissons Ratio (z) = 0.33760 0.13941
#
# Static dielectric constant tensor:
#      x y z
#    x 3.237000 0.000000 0.000000 
#    y 0.000000 3.468650 0.000000 
#    z 0.000000 0.000000 3.548990 
# 
# 
# High freq. dielectric constant tensor:
#      x y z
#    x 1.738890 0.000000 0.000000 
#    y 0.000000 1.743600 0.000000 
#    z 0.000000 0.000000 1.738010 
# 
# From -- ./inp_files/29701.got.cif
#   From: 2010.03.12/outbox.cif.g09.slc.cpg/sg51_15_cif.got.tgz:29701.got - 2010.04.16 13:43:02.
