data_PCOD8212272
_publ_section_title
;
Structure prediction by ZEFSAII (Michael W. Deem and Ramdas Pophale) SiO2 
 PCOD8212272
Probable space group: P M M A
;
_chemical_formula_sum "Si O2"
_cell_formula_units_Z 56
_cell_length_a 20.635477
_cell_length_b 9.369910
_cell_length_c 15.026419
_cell_angle_alpha 90.000000
_cell_angle_beta 90.000000
_cell_angle_gamma 90.000000
_cell_volume 2905.396616
_symmetry_space_group_name_H-M "P M M A"
_symmetry_group_IT_number 51
_symmetry_cell_setting 'orthorhombic'
loop_
_space_group_symop_operation_xyz
x,y,z
1/2-x,-y,z
1/2+x,-y,-z
-x,y,-z
-x,-y,-z
1/2+x,y,-z
1/2-x,y,z
x,-y,z
loop_
_atom_site_type_symbol
_atom_site_label
_atom_site_fract_x
_atom_site_fract_y
_atom_site_fract_z
Si Si1 0.463574 0.330743 0.593350
Si Si2 0.677908 0.338355 0.958564
Si Si3 0.444837 0.333149 0.929421
Si Si4 0.488820 0.161881 0.767788
Si Si5 0.179800 0.669053 0.553956
Si Si6 0.677252 0.658286 0.645936
Si Si7 0.132724 0.841628 0.201338
O O1 0.500000 0.291837 0.500000
O O2 0.469631 0.500000 0.609799
O O3 0.496120 0.244165 0.673811
O O4 0.387525 0.280249 0.598401
O O5 0.750000 0.321035 0.999485
O O6 0.664962 0.500000 0.926816
O O7 0.625623 0.295055 0.031938
O O8 0.672734 0.241346 0.872321
O O9 0.453216 0.500000 0.907457
O O10 0.444058 0.247532 0.836800
O O11 0.500000 0.285098 0.000000
O O12 0.556870 0.155646 0.819731
O O13 0.463185 0.000000 0.751644
O O14 0.250000 0.724789 0.594934
O O15 0.182181 0.500000 0.555396
O O16 0.176125 0.721352 0.452778
O O17 0.750000 0.649406 0.683077
O O18 0.645211 0.500000 0.649085
O O19 0.636773 0.766789 0.703797
O O20 0.162040 0.000000 0.207050
#
# Coordination Sequence:
#
# PCOD8212272 Si02
#       7
#     8   8   8   8   8   8   8
#     4  10  20  35  58  86 112 144 191 242 284 330
#     4  10  21  37  58  84 112 141 178 229 284 329
#     4  10  20  38  63  86 107 141 188 232 272 324
#     4  11  24  38  55  81 113 151 189 229 282 339
#     4   8  15  30  52  77 104 137 180 232 286 331
#     4   9  17  30  50  75 104 140 181 225 276 334
#     4  11  22  33  48  75 111 147 182 221 272 336
#
# _framework density 19.274477000000001
#
# number of rings (size 3 to 8) (size 9 to 14) (size 15 to 20)
#    0.000    2.143    1.429    3.000    0.000    6.286 
#    0.000    1.429    0.000    5.571    0.000    0.000 
#    0.000    0.000    0.000    0.000    0.000    0.000 
#
# Total GULP energy -693967.657983 kJ/mol
# GULP energy per Si atom -12392.279607 kJ/mol
# Density = 1.923061 g / cm^3
# Si number density = 19.274477 Si / 1000 Ang^3
#
#
#
# Elastic Constant Matrix: (Units=GPa)
#
#
# Indices 1 2 3 4 5 6 
#
# 1 106.5802 22.4570 25.8393 0.0000 0.0000 0.0000
# 2 22.4570 79.9703 44.7841 0.0000 0.0000 0.0000
# 3 25.8393 44.7841 88.0075 0.0000 0.0000 0.0000
# 4 0.0000 0.0000 0.0000 -7.7396 0.0000 0.0000
# 5 0.0000 0.0000 0.0000 0.0000 24.7513 0.0000
# 6 0.0000 0.0000 0.0000 0.0000 0.0000 16.1664
#
#
#
# Elastic Compliance Matrix: (Units=1/GPa)
#
#
# Indices 1 2 3 4 5 6 
#
# 1 0.010259 -0.001670 -0.002162 0.000000 0.000000 0.000000
# 2 -0.001670 0.017760 -0.008547 0.000000 0.000000 0.000000
# 3 -0.002162 -0.008547 0.016347 0.000000 0.000000 0.000000
# 4 0.000000 0.000000 0.000000 -0.129205 0.000000 0.000000
# 5 0.000000 0.000000 0.000000 0.000000 0.040402 0.000000
# 6 0.000000 0.000000 0.000000 0.000000 0.000000 0.061857
#
#
# Mechanical properties :
#
#
# Convention : Reuss Voigt Hill
#
# Bulk Modulus (GPa) = 51.00240 51.19099 51.09670
# Shear Modulus (GPa) = 102.64072 18.73412 60.68742
#
# Velocity S-wave (km/s) = 7.30532 3.12102 5.61732
# Velocity P-wave (km/s) = 9.88309 6.29319 8.28492
#
# Compressibility (1/GPa) = 0.01960692
#
# Stress axis : x y z
#
# Youngs Moduli (GPa) = 97.47845 56.30590 61.17368
#
# Poissons Ratio (x) = 0.09403 0.13227
# Poissons Ratio (y) = 0.16279 0.52287
# Poissons Ratio (z) = 0.21077 0.48126
#
# Static dielectric constant tensor:
#      x y z
#    x 3.969200 0.000000 0.000000 
#    y 0.000000 3.364290 0.000000 
#    z 0.000000 0.000000 3.269820 
# 
# 
# High freq. dielectric constant tensor:
#      x y z
#    x 1.759380 0.000000 0.000000 
#    y 0.000000 1.727750 0.000000 
#    z 0.000000 0.000000 1.728130 
# 
# From -- ./inp_files/25689.got.cif
#   From: 2010.03.12/outbox.cif.g09.slc.cpg/sg51_13_cif.got.tgz:25689.got - 2010.04.16 13:43:02.
