data_PCOD8212170
_publ_section_title
;
Structure prediction by ZEFSAII (Michael W. Deem and Ramdas Pophale) SiO2 
 PCOD8212170
Probable space group: P M M A
;
_chemical_formula_sum "Si O2"
_cell_formula_units_Z 48
_cell_length_a 9.014340
_cell_length_b 9.613845
_cell_length_c 29.546164
_cell_angle_alpha 90.000000
_cell_angle_beta 90.000000
_cell_angle_gamma 90.000000
_cell_volume 2560.543479
_symmetry_space_group_name_H-M "P M M A"
_symmetry_group_IT_number 51
_symmetry_cell_setting 'orthorhombic'
loop_
_space_group_symop_operation_xyz
x,y,z
1/2-x,-y,z
1/2+x,-y,-z
-x,y,-z
-x,-y,-z
1/2+x,y,-z
1/2-x,y,z
x,-y,z
loop_
_atom_site_type_symbol
_atom_site_label
_atom_site_fract_x
_atom_site_fract_y
_atom_site_fract_z
Si Si1 0.076206 0.336609 0.194926
Si Si2 0.076765 0.270373 0.896266
Si Si3 0.425236 0.659793 0.365075
Si Si4 0.581605 0.000000 0.047714
Si Si5 0.583400 0.665386 0.456120
Si Si6 0.574308 0.158039 0.718624
Si Si7 0.423496 0.500000 0.047707
O O1 0.250000 0.315005 0.184146
O O2 0.042115 0.500000 0.202491
O O3 0.024706 0.248747 0.238343
O O4 0.976208 0.272840 0.155297
O O5 0.250000 0.312628 0.898999
O O6 0.971053 0.369109 0.923983
O O7 0.042866 0.125576 0.919567
O O8 0.250000 0.671455 0.371118
O O9 0.470004 0.500000 0.353980
O O10 0.499630 0.714317 0.411022
O O11 0.485015 0.760415 0.325461
O O12 0.750000 0.000000 0.032459
O O13 0.500000 0.000000 0.000000
O O14 0.500000 0.727121 0.500000
O O15 0.750000 0.724667 0.455417
O O16 0.584118 0.500000 0.458688
O O17 0.750000 0.151188 0.716747
O O18 0.509612 0.000000 0.720730
O O19 0.250000 0.500000 0.039572
O O20 0.500000 0.500000 0.000000
#
# Coordination Sequence:
#
# PCOD8212170 Si02
#       7
#     8   8   8   4   8   8   4
#     4  10  20  35  56  83 112 142 183 228 273 325
#     4  11  23  40  60  85 117 151 186 228 276 327
#     4   9  16  28  48  73 102 137 175 219 268 317
#     4  10  24  42  60  84 114 150 188 226 269 324
#     4   9  16  26  43  70 103 136 172 216 264 316
#     4   9  18  32  52  78 106 139 181 226 271 322
#     4  12  24  40  62  90 118 148 186 228 273 326
#
# _framework density 18.746020000000001
#
# number of rings (size 3 to 8) (size 9 to 14) (size 15 to 20)
#    0.000    2.167    0.833    2.750    1.167    6.667 
#    0.000    0.833    0.000    4.000    0.000    0.000 
#    0.000    0.000    0.000    0.000    0.000    0.000 
#
# Total GULP energy -595084.317883 kJ/mol
# GULP energy per Si atom -12397.589956 kJ/mol
# Density = 1.870335 g / cm^3
# Si number density = 18.746020 Si / 1000 Ang^3
#
#
#
# Elastic Constant Matrix: (Units=GPa)
#
#
# Indices 1 2 3 4 5 6 
#
# 1 83.5544 42.7396 60.9742 0.0000 0.0000 0.0000
# 2 42.7396 120.3825 77.5678 0.0000 0.0000 0.0000
# 3 60.9742 77.5678 186.8534 0.0000 0.0000 0.0000
# 4 0.0000 0.0000 0.0000 30.2948 0.0000 0.0000
# 5 0.0000 0.0000 0.0000 0.0000 34.6632 0.0000
# 6 0.0000 0.0000 0.0000 0.0000 0.0000 18.4637
#
#
#
# Elastic Compliance Matrix: (Units=1/GPa)
#
#
# Indices 1 2 3 4 5 6 
#
# 1 0.016608 -0.003282 -0.004057 0.000000 0.000000 0.000000
# 2 -0.003282 0.011989 -0.003906 0.000000 0.000000 0.000000
# 3 -0.004057 -0.003906 0.008297 0.000000 0.000000 0.000000
# 4 0.000000 0.000000 0.000000 0.033009 0.000000 0.000000
# 5 0.000000 0.000000 0.000000 0.000000 0.028849 0.000000
# 6 0.000000 0.000000 0.000000 0.000000 0.000000 0.054160
#
#
# Mechanical properties :
#
#
# Convention : Reuss Voigt Hill
#
# Bulk Modulus (GPa) = 69.42659 83.70595 76.56627
# Shear Modulus (GPa) = 27.74646 30.65158 29.19902
#
# Velocity S-wave (km/s) = 3.85141 4.04802 3.95094
# Velocity P-wave (km/s) = 7.54279 8.16077 7.85786
#
# Compressibility (1/GPa) = 0.01440370
#
# Stress axis : x y z
#
# Youngs Moduli (GPa) = 60.21294 83.41092 120.52467
#
# Poissons Ratio (x) = 0.27377 0.48896
# Poissons Ratio (y) = 0.19763 0.47075
# Poissons Ratio (z) = 0.24428 0.32579
#
# Static dielectric constant tensor:
#      x y z
#    x 0.000000 0.000000 0.000000 
#    y 0.000000 0.000000 0.000000 
#    z 0.000000 0.000000 0.000000 
# 
# 
# High freq. dielectric constant tensor:
#      x y z
#    x 1.712130 0.000000 0.000000 
#    y 0.000000 1.713770 0.000000 
#    z 0.000000 0.000000 1.745210 
# 
# From -- ./inp_files/37210.got.cif
#   From: 2010.03.12/outbox.cif.g09.slc.cpg/sg51_19_cif.got.tgz:37210.got - 2010.04.16 13:43:02.
