data_PCOD8212509
_publ_section_title
;
Structure prediction by ZEFSAII (Michael W. Deem and Ramdas Pophale) SiO2 
 PCOD8212509
Probable space group: P M M A
;
_chemical_formula_sum "Si O2"
_cell_formula_units_Z 56
_cell_length_a 20.075841
_cell_length_b 9.271575
_cell_length_c 14.990303
_cell_angle_alpha 90.000000
_cell_angle_beta 90.000000
_cell_angle_gamma 90.000000
_cell_volume 2790.215035
_symmetry_space_group_name_H-M "P M M A"
_symmetry_group_IT_number 51
_symmetry_cell_setting 'orthorhombic'
loop_
_space_group_symop_operation_xyz
x,y,z
1/2-x,-y,z
1/2+x,-y,-z
-x,y,-z
-x,-y,-z
1/2+x,y,-z
1/2-x,y,z
x,-y,z
loop_
_atom_site_type_symbol
_atom_site_label
_atom_site_fract_x
_atom_site_fract_y
_atom_site_fract_z
Si Si1 0.608970 0.339206 0.822799
Si Si2 0.171375 0.830381 0.848040
Si Si3 0.108961 0.331193 0.680042
Si Si4 0.118474 0.827785 0.497025
Si Si5 0.957168 0.666020 0.645968
Si Si6 0.250000 0.343314 0.228215
Si Si7 0.421784 0.157651 0.011464
Si Si8 0.750000 0.831278 0.601162
O O1 0.579507 0.500000 0.828954
O O2 0.592134 0.279220 0.724127
O O3 0.687742 0.332143 0.837287
O O4 0.578034 0.251673 0.901280
O O5 0.250000 0.799094 0.868148
O O6 0.147741 0.738481 0.763082
O O7 0.123027 0.779560 0.929819
O O8 0.160503 0.000000 0.828228
O O9 0.128732 0.500000 0.672308
O O10 0.128824 0.242746 0.592795
O O11 0.029799 0.312528 0.688443
O O12 0.055256 0.763338 0.442144
O O13 0.183976 0.773740 0.446018
O O14 0.110513 0.000000 0.505082
O O15 0.944639 0.500000 0.618130
O O16 0.250000 0.500000 0.278034
O O17 0.250000 0.215058 0.297290
O O18 0.391618 0.000000 0.031381
O O19 0.500000 0.146006 0.000000
O O20 0.750000 0.000000 0.597171
#
# Coordination Sequence:
#
# PCOD8212509 Si02
#       8
#     8   8   8   8   8   4   8   4
#     4  10  21  36  59  89 119 153 190 233 291 348
#     4  10  23  43  63  85 118 159 202 250 301 354
#     4  11  24  40  61  88 117 154 202 250 299 352
#     4  11  23  38  59  87 120 159 201 245 297 353
#     4  10  21  39  60  87 123 158 195 244 296 352
#     4  10  20  36  58  85 118 155 192 233 288 350
#     4  10  22  40  63  91 120 154 196 241 295 357
#     4  10  22  38  56  83 116 153 198 243 288 346
#
# _framework density 20.070136999999999
#
# number of rings (size 3 to 8) (size 9 to 14) (size 15 to 20)
#    0.000    1.714    1.429    2.143    2.000    5.714 
#    0.000    0.000    0.000    0.000    0.000    0.000 
#    0.000    0.000    0.000    0.000    0.000    0.000 
#
# Total GULP energy -694103.563166 kJ/mol
# GULP energy per Si atom -12394.706485 kJ/mol
# Density = 2.002446 g / cm^3
# Si number density = 20.070137 Si / 1000 Ang^3
#
#
#
# Elastic Constant Matrix: (Units=GPa)
#
#
# Indices 1 2 3 4 5 6 
#
# 1 85.7028 27.7929 18.0919 0.0000 0.0000 0.0000
# 2 27.7929 74.3837 50.2588 0.0000 0.0000 0.0000
# 3 18.0919 50.2588 101.7879 0.0000 0.0000 0.0000
# 4 0.0000 0.0000 0.0000 41.8960 0.0000 0.0000
# 5 0.0000 0.0000 0.0000 0.0000 23.7246 0.0000
# 6 0.0000 0.0000 0.0000 0.0000 0.0000 23.5661
#
#
#
# Elastic Compliance Matrix: (Units=1/GPa)
#
#
# Indices 1 2 3 4 5 6 
#
# 1 0.013278 -0.005052 0.000134 0.000000 0.000000 0.000000
# 2 -0.005052 0.022097 -0.010012 0.000000 0.000000 0.000000
# 3 0.000134 -0.010012 0.014744 0.000000 0.000000 0.000000
# 4 0.000000 0.000000 0.000000 0.023869 0.000000 0.000000
# 5 0.000000 0.000000 0.000000 0.000000 0.042150 0.000000
# 6 0.000000 0.000000 0.000000 0.000000 0.000000 0.042434
#
#
# Mechanical properties :
#
#
# Convention : Reuss Voigt Hill
#
# Bulk Modulus (GPa) = 49.36139 50.46241 49.91190
# Shear Modulus (GPa) = 25.61671 28.88606 27.25139
#
# Velocity S-wave (km/s) = 3.57649 3.79787 3.68884
# Velocity P-wave (km/s) = 6.45778 6.66553 6.56248
#
# Compressibility (1/GPa) = 0.02025875
#
# Stress axis : x y z
#
# Youngs Moduli (GPa) = 75.31124 45.25579 67.82333
#
# Poissons Ratio (x) = 0.22864 -0.00912
# Poissons Ratio (y) = 0.38049 0.67908
# Poissons Ratio (z) = -0.01013 0.45312
#
# Static dielectric constant tensor:
#      x y z
#    x 4.096530 0.000000 0.000000 
#    y 0.000000 3.721330 0.000000 
#    z 0.000000 0.000000 3.500500 
# 
# 
# High freq. dielectric constant tensor:
#      x y z
#    x 1.798340 0.000000 0.000000 
#    y 0.000000 1.779900 0.000000 
#    z 0.000000 0.000000 1.780350 
# 
# From -- ./inp_files/25858.got.cif
#   From: 2010.03.12/outbox.cif.g09.slc.cpg/sg51_13_cif.got.tgz:25858.got - 2010.04.16 13:43:02.
