data_PCOD8212847
_publ_section_title
;
Structure prediction by ZEFSAII (Michael W. Deem and Ramdas Pophale) SiO2 
 PCOD8212847
Probable space group: P M M A
;
_chemical_formula_sum "Si O2"
_cell_formula_units_Z 56
_cell_length_a 18.377180
_cell_length_b 8.891991
_cell_length_c 16.941606
_cell_angle_alpha 90.000000
_cell_angle_beta 90.000000
_cell_angle_gamma 90.000000
_cell_volume 2768.423079
_symmetry_space_group_name_H-M "P M M A"
_symmetry_group_IT_number 51
_symmetry_cell_setting 'orthorhombic'
loop_
_space_group_symop_operation_xyz
x,y,z
1/2-x,-y,z
1/2+x,-y,-z
-x,y,-z
-x,-y,-z
1/2+x,y,-z
1/2-x,y,z
x,-y,z
loop_
_atom_site_type_symbol
_atom_site_label
_atom_site_fract_x
_atom_site_fract_y
_atom_site_fract_z
Si Si1 0.330864 0.678631 0.748966
Si Si2 0.333008 0.177440 0.451757
Si Si3 0.086383 0.325339 0.595104
Si Si4 0.448497 0.827212 0.166801
Si Si5 0.916895 0.677730 0.098682
Si Si6 0.666536 0.172145 0.959383
Si Si7 0.433046 0.674572 0.333677
O O1 0.250000 0.746878 0.746998
O O2 0.328953 0.500000 0.749058
O O3 0.373625 0.737298 0.672755
O O4 0.370030 0.736644 0.827325
O O5 0.250000 0.232318 0.464724
O O6 0.384440 0.232158 0.521839
O O7 0.362553 0.243780 0.369390
O O8 0.336969 0.000000 0.446166
O O9 0.104183 0.500000 0.580037
O O10 0.000412 0.300259 0.606456
O O11 0.505568 0.759833 0.103710
O O12 0.369216 0.810508 0.127095
O O13 0.452250 0.737056 0.247975
O O14 0.467465 0.000000 0.184186
O O15 0.929776 0.500000 0.100502
O O16 0.874519 0.720123 0.019889
O O17 0.750000 0.223663 0.952411
O O18 0.660013 0.000000 0.988653
O O19 0.415734 0.500000 0.324092
#
# Coordination Sequence:
#
# PCOD8212847 Si02
#       7
#     8   8   8   8   8   8   8
#     4   9  17  31  54  84 119 156 191 235 294 354
#     4  11  25  42  60  88 125 162 202 248 300 360
#     4  10  20  38  62  88 120 157 199 246 300 360
#     4  11  23  40  63  89 121 164 206 248 306 368
#     4  11  21  37  60  90 124 158 202 251 299 359
#     4  10  23  42  61  85 120 161 204 251 306 366
#     4  11  23  41  65  93 121 155 204 256 306 362
#
# _framework density 20.228123
#
# number of rings (size 3 to 8) (size 9 to 14) (size 15 to 20)
#    0.000    1.571    1.429    3.429    0.000    8.857 
#    0.000    1.429    0.000    2.571    0.000    0.000 
#    0.000    0.000    0.000    0.000    0.000    0.000 
#
# Total GULP energy -694641.492933 kJ/mol
# GULP energy per Si atom -12404.312374 kJ/mol
# Density = 2.018208 g / cm^3
# Si number density = 20.228123 Si / 1000 Ang^3
#
#
#
# Elastic Constant Matrix: (Units=GPa)
#
#
# Indices 1 2 3 4 5 6 
#
# 1 114.1513 49.8589 44.8567 0.0000 0.0000 0.0000
# 2 49.8589 80.8955 39.0495 0.0000 0.0000 0.0000
# 3 44.8567 39.0495 69.8560 0.0000 0.0000 0.0000
# 4 0.0000 0.0000 0.0000 35.8655 0.0000 0.0000
# 5 0.0000 0.0000 0.0000 0.0000 29.5656 0.0000
# 6 0.0000 0.0000 0.0000 0.0000 0.0000 27.6757
#
#
#
# Elastic Compliance Matrix: (Units=1/GPa)
#
#
# Indices 1 2 3 4 5 6 
#
# 1 0.013343 -0.005598 -0.005438 0.000000 0.000000 0.000000
# 2 -0.005598 0.019279 -0.007182 0.000000 0.000000 0.000000
# 3 -0.005438 -0.007182 0.021822 0.000000 0.000000 0.000000
# 4 0.000000 0.000000 0.000000 0.027882 0.000000 0.000000
# 5 0.000000 0.000000 0.000000 0.000000 0.033823 0.000000
# 6 0.000000 0.000000 0.000000 0.000000 0.000000 0.036133
#
#
# Mechanical properties :
#
#
# Convention : Reuss Voigt Hill
#
# Bulk Modulus (GPa) = 55.53623 59.15921 57.34772
# Shear Modulus (GPa) = 25.67782 27.36388 26.52085
#
# Velocity S-wave (km/s) = 3.56675 3.68198 3.62482
# Velocity P-wave (km/s) = 6.66909 6.88371 6.77725
#
# Compressibility (1/GPa) = 0.01800626
#
# Stress axis : x y z
#
# Youngs Moduli (GPa) = 74.94828 51.86986 45.82551
#
# Poissons Ratio (x) = 0.29039 0.24920
# Poissons Ratio (y) = 0.41959 0.32912
# Poissons Ratio (z) = 0.40758 0.37253
#
# Static dielectric constant tensor:
#      x y z
#    x 3.919200 0.000000 0.000000 
#    y 0.000000 3.516700 0.000000 
#    z 0.000000 0.000000 3.637140 
# 
# 
# High freq. dielectric constant tensor:
#      x y z
#    x 1.800670 0.000000 0.000000 
#    y 0.000000 1.778160 0.000000 
#    z 0.000000 0.000000 1.796080 
# 
# From -- ./inp_files/25717.got.cif
#   From: 2010.03.12/outbox.cif.g09.slc.cpg/sg51_13_cif.got.tgz:25717.got - 2010.04.16 13:43:02.
