data_PCOD8212497
_publ_section_title
;
Structure prediction by ZEFSAII (Michael W. Deem and Ramdas Pophale) SiO2 
 PCOD8212497
Probable space group: P M M A
;
_chemical_formula_sum "Si O2"
_cell_formula_units_Z 48
_cell_length_a 16.191280
_cell_length_b 9.467501
_cell_length_c 16.184065
_cell_angle_alpha 90.000000
_cell_angle_beta 90.000000
_cell_angle_gamma 90.000000
_cell_volume 2480.870854
_symmetry_space_group_name_H-M "P M M A"
_symmetry_group_IT_number 51
_symmetry_cell_setting 'orthorhombic'
loop_
_space_group_symop_operation_xyz
x,y,z
1/2-x,-y,z
1/2+x,-y,-z
-x,y,-z
-x,-y,-z
1/2+x,y,-z
1/2-x,y,z
x,-y,z
loop_
_atom_site_type_symbol
_atom_site_label
_atom_site_fract_x
_atom_site_fract_y
_atom_site_fract_z
Si Si1 0.578676 0.163551 0.942733
Si Si2 0.250000 0.163127 0.965647
Si Si3 0.846584 0.845369 0.644658
Si Si4 0.100558 0.661724 0.685759
Si Si5 0.844483 0.834305 0.462446
Si Si6 0.929318 0.336983 0.776215
Si Si7 0.750000 0.333771 0.201314
O O1 0.571345 0.260264 0.863205
O O2 0.576041 0.000000 0.916260
O O3 0.500000 0.200056 0.000000
O O4 0.666643 0.199625 0.984290
O O5 0.250000 0.256972 0.885198
O O6 0.250000 0.000000 0.939449
O O7 0.750000 0.863151 0.633936
O O8 0.879461 0.798008 0.554121
O O9 0.863054 0.730789 0.714721
O O10 0.883853 0.000000 0.668830
O O11 0.115629 0.500000 0.660440
O O12 0.098268 0.752988 0.602631
O O13 0.171042 0.716099 0.747201
O O14 0.016875 0.684122 0.734367
O O15 0.750000 0.782476 0.451609
O O16 0.851383 0.000000 0.445363
O O17 0.906594 0.500000 0.790052
O O18 0.750000 0.500000 0.183804
#
# Coordination Sequence:
#
# PCOD8212497 Si02
#       7
#     8   4   8   8   8   8   4
#     4  10  22  41  62  85 116 152 191 238 295 348
#     4  10  22  38  60  87 110 143 190 237 286 345
#     4   9  20  39  60  81 112 153 195 240 288 338
#     4  10  21  36  55  82 118 155 187 229 284 341
#     4   9  18  34  57  85 112 146 195 242 283 333
#     4  11  24  38  56  86 118 150 193 238 284 341
#     4  10  20  36  58  83 112 149 188 225 280 345
#
# _framework density 19.348044999999999
#
# number of rings (size 3 to 8) (size 9 to 14) (size 15 to 20)
#    0.000    2.167    0.833    2.500    1.167    4.667 
#    0.000    5.000    0.000    0.000    0.000    0.000 
#    0.000    0.000    0.000    0.000    0.000    0.000 
#
# Total GULP energy -595209.636660 kJ/mol
# GULP energy per Si atom -12400.200764 kJ/mol
# Density = 1.930401 g / cm^3
# Si number density = 19.348045 Si / 1000 Ang^3
#
#
#
# Elastic Constant Matrix: (Units=GPa)
#
#
# Indices 1 2 3 4 5 6 
#
# 1 70.0339 34.7346 42.2743 0.0000 0.0000 0.0000
# 2 34.7346 99.9188 97.0739 0.0000 0.0000 0.0000
# 3 42.2743 97.0739 164.7699 0.0000 0.0000 0.0000
# 4 0.0000 0.0000 0.0000 97.3576 0.0000 0.0000
# 5 0.0000 0.0000 0.0000 0.0000 20.4044 0.0000
# 6 0.0000 0.0000 0.0000 0.0000 0.0000 12.6689
#
#
#
# Elastic Compliance Matrix: (Units=1/GPa)
#
#
# Indices 1 2 3 4 5 6 
#
# 1 0.017566 -0.004041 -0.002126 0.000000 0.000000 0.000000
# 2 -0.004041 0.024333 -0.013299 0.000000 0.000000 0.000000
# 3 -0.002126 -0.013299 0.014450 0.000000 0.000000 0.000000
# 4 0.000000 0.000000 0.000000 0.010271 0.000000 0.000000
# 5 0.000000 0.000000 0.000000 0.000000 0.049009 0.000000
# 6 0.000000 0.000000 0.000000 0.000000 0.000000 0.078933
#
#
# Mechanical properties :
#
#
# Convention : Reuss Voigt Hill
#
# Bulk Modulus (GPa) = 57.41541 75.87645 66.64593
# Shear Modulus (GPa) = 20.89410 36.79548 28.84479
#
# Velocity S-wave (km/s) = 3.28976 4.36566 3.86533
# Velocity P-wave (km/s) = 6.64601 8.04448 7.37845
#
# Compressibility (1/GPa) = 0.01741693
#
# Stress axis : x y z
#
# Youngs Moduli (GPa) = 56.92681 41.09579 69.20498
#
# Poissons Ratio (x) = 0.16606 0.14715
# Poissons Ratio (y) = 0.23003 0.92037
# Poissons Ratio (z) = 0.12104 0.54654
#
# Static dielectric constant tensor:
#      x y z
#    x 3.622810 0.000000 0.000000 
#    y 0.000000 3.522300 0.000000 
#    z 0.000000 0.000000 3.524560 
# 
# 
# High freq. dielectric constant tensor:
#      x y z
#    x 1.755360 0.000000 0.000000 
#    y 0.000000 1.749510 0.000000 
#    z 0.000000 0.000000 1.761540 
# 
# From -- ./inp_files/24877.got.cif
#   From: 2010.03.12/outbox.cif.g09.slc.cpg/sg51_13_cif.got.tgz:24877.got - 2010.04.16 13:43:02.
