data_PCOD8212950
_publ_section_title
;
Structure prediction by ZEFSAII (Michael W. Deem and Ramdas Pophale) SiO2 
 PCOD8212950
Probable space group: P M M A
;
_chemical_formula_sum "Si O2"
_cell_formula_units_Z 44
_cell_length_a 9.651636
_cell_length_b 27.673864
_cell_length_c 9.195600
_cell_angle_alpha 90.000000
_cell_angle_beta 90.000000
_cell_angle_gamma 90.000000
_cell_volume 2456.126939
_symmetry_space_group_name_H-M "P M M A"
_symmetry_group_IT_number 51
_symmetry_cell_setting 'orthorhombic'
loop_
_space_group_symop_operation_xyz
x,y,z
1/2-x,-y,z
1/2+x,-y,-z
-x,y,-z
-x,-y,-z
1/2+x,y,-z
1/2-x,y,z
x,-y,z
loop_
_atom_site_type_symbol
_atom_site_label
_atom_site_fract_x
_atom_site_fract_y
_atom_site_fract_z
Si Si1 0.090247 0.444721 0.136734
Si Si2 0.909760 0.807488 0.637672
Si Si3 0.409450 0.917745 0.363634
Si Si4 0.910114 0.000000 0.858148
Si Si5 0.589369 0.637530 0.643870
Si Si6 0.910777 0.275143 0.855997
O O1 0.250000 0.437614 0.092291
O O2 0.056554 0.500000 0.178082
O O3 0.052757 0.412676 0.276370
O O4 0.000000 0.427426 0.000000
O O5 0.750000 0.800135 0.593313
O O6 0.942056 0.862678 0.681890
O O7 0.948248 0.774904 0.775827
O O8 0.000000 0.791118 0.500000
O O9 0.500000 0.934009 0.500000
O O10 0.250000 0.924540 0.408612
O O11 0.448957 0.951914 0.230305
O O12 0.750000 0.000000 0.902465
O O13 0.000000 0.000000 0.000000
O O14 0.500000 0.641816 0.500000
O O15 0.750000 0.639886 0.599416
O O16 0.549774 0.681106 0.750223
O O17 0.750000 0.277225 0.900085
O O18 0.000000 0.279387 0.000000
#
# Coordination Sequence:
#
# PCOD8212950 Si02
#       6
#     8   8   8   4   8   8
#     4   9  18  33  52  74 100 129 162 200 241 287
#     4   9  18  33  52  74  99 126 159 199 241 286
#     4   9  18  33  52  73  97 126 161 200 240 285
#     4  10  21  34  48  70 100 130 161 200 242 284
#     4  10  21  35  51  73 100 129 163 203 243 285
#     4  10  21  35  51  73 100 129 162 200 241 287
#
# _framework density 17.914384999999999
#
# number of rings (size 3 to 8) (size 9 to 14) (size 15 to 20)
#    0.000    2.545    0.000    1.364    0.000    4.000 
#    0.000    0.000    0.000    0.000    0.000    0.000 
#    0.000    0.000    0.000    0.000    0.000    0.000 
#
# Total GULP energy -545732.256106 kJ/mol
# GULP energy per Si atom -12403.005821 kJ/mol
# Density = 1.787361 g / cm^3
# Si number density = 17.914385 Si / 1000 Ang^3
#
#
#
# Elastic Constant Matrix: (Units=GPa)
#
#
# Indices 1 2 3 4 5 6 
#
# 1 81.5887 56.7768 92.8289 0.0000 0.0000 0.0000
# 2 56.7768 109.8692 84.3343 0.0000 0.0000 0.0000
# 3 92.8289 84.3343 166.8128 0.0000 0.0000 0.0000
# 4 0.0000 0.0000 0.0000 24.5927 0.0000 0.0000
# 5 0.0000 0.0000 0.0000 0.0000 43.1467 0.0000
# 6 0.0000 0.0000 0.0000 0.0000 0.0000 17.1050
#
#
#
# Elastic Compliance Matrix: (Units=1/GPa)
#
#
# Indices 1 2 3 4 5 6 
#
# 1 0.035101 -0.005140 -0.016935 0.000000 0.000000 0.000000
# 2 -0.005140 0.015626 -0.005040 0.000000 0.000000 0.000000
# 3 -0.016935 -0.005040 0.017966 0.000000 0.000000 0.000000
# 4 0.000000 0.000000 0.000000 0.040662 0.000000 0.000000
# 5 0.000000 0.000000 0.000000 0.000000 0.023177 0.000000
# 6 0.000000 0.000000 0.000000 0.000000 0.000000 0.058463
#
#
# Mechanical properties :
#
#
# Convention : Reuss Voigt Hill
#
# Bulk Modulus (GPa) = 69.13219 91.79451 80.46335
# Shear Modulus (GPa) = 19.99626 25.25760 22.62693
#
# Velocity S-wave (km/s) = 3.34460 3.75895 3.55781
# Velocity P-wave (km/s) = 7.32047 8.37804 7.86704
#
# Compressibility (1/GPa) = 0.01446504
#
# Stress axis : x y z
#
# Youngs Moduli (GPa) = 28.48893 63.99401 55.65944
#
# Poissons Ratio (x) = 0.32896 0.94257
# Poissons Ratio (y) = 0.14645 0.28050
# Poissons Ratio (z) = 0.48245 0.32250
#
# Static dielectric constant tensor:
#      x y z
#    x 3.307590 0.000000 0.000000 
#    y 0.000000 3.617680 0.000000 
#    z 0.000000 0.000000 3.106050 
# 
# 
# High freq. dielectric constant tensor:
#      x y z
#    x 1.692310 0.000000 0.000000 
#    y 0.000000 1.712180 0.000000 
#    z 0.000000 0.000000 1.681520 
# 
# From -- ./inp_files/5749.got.cif
#   From: 2010.03.12/outbox.cif.g09.slc.cpg/sg51_3_cif.got.tgz:5749.got - 2010.04.16 13:43:02.
