data_PCOD8212203
_publ_section_title
;
Structure prediction by ZEFSAII (Michael W. Deem and Ramdas Pophale) SiO2 
 PCOD8212203
Probable space group: P M M A
;
_chemical_formula_sum "Si O2"
_cell_formula_units_Z 40
_cell_length_a 9.348135
_cell_length_b 13.465859
_cell_length_c 16.367380
_cell_angle_alpha 90.000000
_cell_angle_beta 90.000000
_cell_angle_gamma 90.000000
_cell_volume 2060.336725
_symmetry_space_group_name_H-M "P M M A"
_symmetry_group_IT_number 51
_symmetry_cell_setting 'orthorhombic'
loop_
_space_group_symop_operation_xyz
x,y,z
1/2-x,-y,z
1/2+x,-y,-z
-x,y,-z
-x,-y,-z
1/2+x,y,-z
1/2-x,y,z
x,-y,z
loop_
_atom_site_type_symbol
_atom_site_label
_atom_site_fract_x
_atom_site_fract_y
_atom_site_fract_z
Si Si1 0.909254 0.112800 0.856942
Si Si2 0.960820 0.803317 0.684844
Si Si3 0.750000 0.117642 0.558266
Si Si4 0.921837 0.706869 0.081299
Si Si5 0.913453 0.387865 0.773741
Si Si6 0.750000 0.117898 0.370198
O O1 0.750000 0.127756 0.895176
O O2 0.893823 0.139794 0.761683
O O3 0.025803 0.180524 0.902304
O O4 0.961101 0.000000 0.867158
O O5 0.889314 0.837360 0.600657
O O6 0.942161 0.684890 0.697051
O O7 0.123592 0.832871 0.679397
O O8 0.750000 0.150188 0.464424
O O9 0.750000 0.000000 0.567262
O O10 0.750000 0.702378 0.073681
O O11 0.975755 0.636643 0.154141
O O12 0.000000 0.667209 0.000000
O O13 0.750000 0.373823 0.805201
O O14 0.940086 0.500000 0.743561
O O15 0.750000 0.000000 0.361108
#
# Coordination Sequence:
#
# PCOD8212203 Si02
#       6
#     8   8   4   8   8   4
#     4  10  20  35  57  82 114 162 207 241 286 345
#     4  11  20  37  57  85 118 157 199 243 290 344
#     4  11  20  36  59  85 120 161 199 235 285 349
#     4  11  23  39  59  87 121 152 189 240 296 351
#     4  10  22  42  66  87 110 151 202 248 298 347
#     4  11  24  34  53  89 128 161 191 235 291 347
#
# _framework density 19.414303
#
# number of rings (size 3 to 8) (size 9 to 14) (size 15 to 20)
#    0.000    1.400    2.000    5.400    5.600    3.200 
#    0.000    0.000    0.000    3.600    0.000    0.000 
#    0.000    0.000    0.000    0.000    0.000    0.000 
#
# Total GULP energy -495982.198837 kJ/mol
# GULP energy per Si atom -12399.554971 kJ/mol
# Density = 1.937012 g / cm^3
# Si number density = 19.414303 Si / 1000 Ang^3
#
#
#
# Elastic Constant Matrix: (Units=GPa)
#
#
# Indices 1 2 3 4 5 6 
#
# 1 150.5950 41.7572 24.1690 0.0000 0.0000 0.0000
# 2 41.7572 126.5728 27.6607 0.0000 0.0000 0.0000
# 3 24.1690 27.6607 60.7336 0.0000 0.0000 0.0000
# 4 0.0000 0.0000 0.0000 16.6083 0.0000 0.0000
# 5 0.0000 0.0000 0.0000 0.0000 47.2886 0.0000
# 6 0.0000 0.0000 0.0000 0.0000 0.0000 -26.0508
#
#
#
# Elastic Compliance Matrix: (Units=1/GPa)
#
#
# Indices 1 2 3 4 5 6 
#
# 1 0.007537 -0.002033 -0.002073 0.000000 0.000000 0.000000
# 2 -0.002033 0.009322 -0.003437 0.000000 0.000000 0.000000
# 3 -0.002073 -0.003437 0.018856 0.000000 0.000000 0.000000
# 4 0.000000 0.000000 0.000000 0.060211 0.000000 0.000000
# 5 0.000000 0.000000 0.000000 0.000000 0.021147 0.000000
# 6 0.000000 0.000000 0.000000 0.000000 0.000000 -0.038387
#
#
# Mechanical properties :
#
#
# Convention : Reuss Voigt Hill
#
# Bulk Modulus (GPa) = 48.47688 58.34169 53.40929
# Shear Modulus (GPa) = 49.67779 23.85686 36.76732
#
# Velocity S-wave (km/s) = 5.06397 3.50927 4.35653
# Velocity P-wave (km/s) = 7.69517 6.82174 7.27158
#
# Compressibility (1/GPa) = 0.02062839
#
# Stress axis : x y z
#
# Youngs Moduli (GPa) = 132.68095 107.26789 53.03465
#
# Poissons Ratio (x) = 0.21812 0.10995
# Poissons Ratio (y) = 0.26979 0.18226
# Poissons Ratio (z) = 0.27508 0.36864
#
# Static dielectric constant tensor:
#      x y z
#    x 3.582820 0.000000 0.000000 
#    y 0.000000 3.567690 0.000000 
#    z 0.000000 0.000000 3.444430 
# 
# 
# High freq. dielectric constant tensor:
#      x y z
#    x 1.769550 0.000000 0.000000 
#    y 0.000000 1.749430 0.000000 
#    z 0.000000 0.000000 1.741520 
# 
# From -- ./inp_files/20586.got.cif
#   From: 2010.03.12/outbox.cif.g09.slc.cpg/sg51_11_cif.got.tgz:20586.got - 2010.04.16 13:43:02.
