data_PCOD8212410
_publ_section_title
;
Structure prediction by ZEFSAII (Michael W. Deem and Ramdas Pophale) SiO2 
 PCOD8212410
Probable space group: P M M A
;
_chemical_formula_sum "Si O2"
_cell_formula_units_Z 48
_cell_length_a 18.838434
_cell_length_b 13.935212
_cell_length_c 9.824018
_cell_angle_alpha 90.000000
_cell_angle_beta 90.000000
_cell_angle_gamma 90.000000
_cell_volume 2578.977348
_symmetry_space_group_name_H-M "P M M A"
_symmetry_group_IT_number 51
_symmetry_cell_setting 'orthorhombic'
loop_
_space_group_symop_operation_xyz
x,y,z
1/2-x,-y,z
1/2+x,-y,-z
-x,y,-z
-x,-y,-z
1/2+x,y,-z
1/2-x,y,z
x,-y,z
loop_
_atom_site_type_symbol
_atom_site_label
_atom_site_fract_x
_atom_site_fract_y
_atom_site_fract_z
Si Si1 0.932913 0.390633 0.910105
Si Si2 0.085161 0.802019 0.510054
Si Si3 0.830059 0.108521 0.717202
Si Si4 0.667344 0.112919 0.245009
Si Si5 0.931082 0.395113 0.592880
Si Si6 0.167691 0.773868 0.026055
O O1 0.910263 0.500000 0.933758
O O2 0.949599 0.371946 0.750442
O O3 0.870153 0.328259 0.974142
O O4 0.000000 0.362525 0.000000
O O5 0.117979 0.880324 0.409678
O O6 0.114525 0.828718 0.657426
O O7 0.113480 0.694975 0.467010
O O8 0.000000 0.806556 0.500000
O O9 0.750000 0.137751 0.674354
O O10 0.831750 0.000000 0.768191
O O11 0.858892 0.172073 0.839852
O O12 0.750000 0.128902 0.285131
O O13 0.649488 0.156990 0.098922
O O14 0.649235 0.000000 0.245251
O O15 0.891600 0.500000 0.584059
O O16 0.000000 0.402644 0.500000
O O17 0.250000 0.750935 0.030813
#
# Coordination Sequence:
#
# PCOD8212410 Si02
#       6
#     8   8   8   8   8   8
#     4  10  21  37  60  87 114 148 187 226 278 339
#     4  11  22  35  56  86 112 144 183 234 281 326
#     4  10  20  36  57  79 108 147 189 228 273 334
#     4  10  22  40  59  79 110 152 191 228 277 337
#     4   9  19  36  56  82 113 147 184 223 273 331
#     4  10  21  37  58  83 111 145 188 234 279 325
#
# _framework density 18.612029
#
# number of rings (size 3 to 8) (size 9 to 14) (size 15 to 20)
#    0.000    2.000    1.667    1.500    4.667    5.000 
#    0.000    0.000    0.000    6.000    0.000    0.000 
#    0.000    0.000    0.000    0.000    0.000    0.000 
#
# Total GULP energy -594944.737242 kJ/mol
# GULP energy per Si atom -12394.682026 kJ/mol
# Density = 1.856967 g / cm^3
# Si number density = 18.612029 Si / 1000 Ang^3
#
#
#
# Elastic Constant Matrix: (Units=GPa)
#
#
# Indices 1 2 3 4 5 6 
#
# 1 60.1192 41.5002 41.3959 0.0000 0.0000 0.0000
# 2 41.5002 108.8792 44.5335 0.0000 0.0000 0.0000
# 3 41.3959 44.5335 94.9724 0.0000 0.0000 0.0000
# 4 0.0000 0.0000 0.0000 29.3638 0.0000 0.0000
# 5 0.0000 0.0000 0.0000 0.0000 29.1840 0.0000
# 6 0.0000 0.0000 0.0000 0.0000 0.0000 29.6213
#
#
#
# Elastic Compliance Matrix: (Units=1/GPa)
#
#
# Indices 1 2 3 4 5 6 
#
# 1 0.027374 -0.006872 -0.008710 0.000000 0.000000 0.000000
# 2 -0.006872 0.013089 -0.003142 0.000000 0.000000 0.000000
# 3 -0.008710 -0.003142 0.015799 0.000000 0.000000 0.000000
# 4 0.000000 0.000000 0.000000 0.034055 0.000000 0.000000
# 5 0.000000 0.000000 0.000000 0.000000 0.034265 0.000000
# 6 0.000000 0.000000 0.000000 0.000000 0.000000 0.033759
#
#
# Mechanical properties :
#
#
# Convention : Reuss Voigt Hill
#
# Bulk Modulus (GPa) = 53.14835 57.64776 55.39805
# Shear Modulus (GPa) = 24.74498 26.73657 25.74078
#
# Velocity S-wave (km/s) = 3.65021 3.79426 3.72293
# Velocity P-wave (km/s) = 6.81053 7.08772 6.95051
#
# Compressibility (1/GPa) = 0.01881526
#
# Stress axis : x y z
#
# Youngs Moduli (GPa) = 36.53089 76.40045 63.29463
#
# Poissons Ratio (x) = 0.52499 0.55127
# Poissons Ratio (y) = 0.25102 0.19890
# Poissons Ratio (z) = 0.31817 0.24008
#
# Static dielectric constant tensor:
#      x y z
#    x 3.209810 0.000000 0.000000 
#    y 0.000000 3.843180 0.000000 
#    z 0.000000 0.000000 3.543490 
# 
# 
# High freq. dielectric constant tensor:
#      x y z
#    x 1.692900 0.000000 0.000000 
#    y 0.000000 1.739930 0.000000 
#    z 0.000000 0.000000 1.735690 
# 
# From -- ./inp_files/9573.got.cif
#   From: 2010.03.12/outbox.cif.g09.slc.cpg/sg51_5_cif.got.tgz:9573.got - 2010.04.16 13:43:02.
