data_PCOD8212218
_publ_section_title
;
Structure prediction by ZEFSAII (Michael W. Deem and Ramdas Pophale) SiO2 
 PCOD8212218
Probable space group: P M M A
;
_chemical_formula_sum "Si O2"
_cell_formula_units_Z 40
_cell_length_a 9.719161
_cell_length_b 9.013347
_cell_length_c 24.030459
_cell_angle_alpha 90.000000
_cell_angle_beta 90.000000
_cell_angle_gamma 90.000000
_cell_volume 2105.120370
_symmetry_space_group_name_H-M "P M M A"
_symmetry_group_IT_number 51
_symmetry_cell_setting 'orthorhombic'
loop_
_space_group_symop_operation_xyz
x,y,z
1/2-x,-y,z
1/2+x,-y,-z
-x,y,-z
-x,-y,-z
1/2+x,y,-z
1/2-x,y,z
x,-y,z
loop_
_atom_site_type_symbol
_atom_site_label
_atom_site_fract_x
_atom_site_fract_y
_atom_site_fract_z
Si Si1 0.090495 0.827506 0.731672
Si Si2 0.407724 0.672600 0.846154
Si Si3 0.485146 0.330120 0.373309
Si Si4 0.750000 0.174340 0.560372
Si Si5 0.907350 0.323954 0.949488
Si Si6 0.750000 0.664325 0.446998
O O1 0.250000 0.797891 0.718383
O O2 0.053484 0.768333 0.792551
O O3 0.998045 0.739048 0.687826
O O4 0.053430 0.000000 0.728376
O O5 0.250000 0.702803 0.865518
O O6 0.426572 0.500000 0.831555
O O7 0.514323 0.724308 0.893399
O O8 0.437133 0.500000 0.367122
O O9 0.381179 0.237406 0.409422
O O10 0.624030 0.313761 0.406614
O O11 0.750000 0.216056 0.495576
O O12 0.750000 0.000000 0.565043
O O13 0.750000 0.260803 0.950742
O O14 0.900887 0.500000 0.954166
O O15 0.000000 0.259780 0.000000
O O16 0.750000 0.500000 0.474415
#
# Coordination Sequence:
#
# PCOD8212218 Si02
#       6
#     8   8   8   4   8   4
#     4  10  20  35  57  83 111 144 186 235 286 342
#     4   9  17  30  50  75 104 140 182 225 272 329
#     4  11  22  40  63  86 113 150 194 239 286 341
#     4  12  26  40  56  86 122 154 187 232 291 346
#     4   9  16  27  46  75 109 142 179 225 276 325
#     4  10  22  40  64  88 112 146 193 240 285 342
#
# _framework density 19.001287999999999
#
# number of rings (size 3 to 8) (size 9 to 14) (size 15 to 20)
#    0.000    2.000    1.000    3.300    0.000    7.200 
#    1.800    0.000    0.000    0.600    0.000    0.000 
#    0.000    0.000    0.000    0.000    0.000    0.000 
#
# Total GULP energy -496011.620847 kJ/mol
# GULP energy per Si atom -12400.290521 kJ/mol
# Density = 1.895804 g / cm^3
# Si number density = 19.001288 Si / 1000 Ang^3
#
#
#
# Elastic Constant Matrix: (Units=GPa)
#
#
# Indices 1 2 3 4 5 6 
#
# 1 103.9536 36.6821 48.6719 0.0000 0.0000 0.0000
# 2 36.6821 101.4555 54.5371 0.0000 0.0000 0.0000
# 3 48.6719 54.5371 121.9202 0.0000 0.0000 0.0000
# 4 0.0000 0.0000 0.0000 3.7385 0.0000 0.0000
# 5 0.0000 0.0000 0.0000 0.0000 25.5047 0.0000
# 6 0.0000 0.0000 0.0000 0.0000 0.0000 22.4918
#
#
#
# Elastic Compliance Matrix: (Units=1/GPa)
#
#
# Indices 1 2 3 4 5 6 
#
# 1 0.012249 -0.002370 -0.003830 0.000000 0.000000 0.000000
# 2 -0.002370 0.013435 -0.005064 0.000000 0.000000 0.000000
# 3 -0.003830 -0.005064 0.011996 0.000000 0.000000 0.000000
# 4 0.000000 0.000000 0.000000 0.267486 0.000000 0.000000
# 5 0.000000 0.000000 0.000000 0.000000 0.039208 0.000000
# 6 0.000000 0.000000 0.000000 0.000000 0.000000 0.044461
#
#
# Mechanical properties :
#
#
# Convention : Reuss Voigt Hill
#
# Bulk Modulus (GPa) = 65.99178 67.45685 66.72432
# Shear Modulus (GPa) = 12.00727 22.84289 17.42508
#
# Velocity S-wave (km/s) = 2.51653 3.47100 3.03156
# Velocity P-wave (km/s) = 6.57643 7.18624 6.88809
#
# Compressibility (1/GPa) = 0.01515340
#
# Stress axis : x y z
#
# Youngs Moduli (GPa) = 81.63828 74.42979 83.36035
#
# Poissons Ratio (x) = 0.17640 0.31926
# Poissons Ratio (y) = 0.19349 0.42212
# Poissons Ratio (z) = 0.31266 0.37690
#
# Static dielectric constant tensor:
#      x y z
#    x 3.623510 0.000000 0.000000 
#    y 0.000000 3.346260 0.000000 
#    z 0.000000 0.000000 3.519490 
# 
# 
# High freq. dielectric constant tensor:
#      x y z
#    x 1.738780 0.000000 0.000000 
#    y 0.000000 1.718970 0.000000 
#    z 0.000000 0.000000 1.749800 
# 
# From -- ./inp_files/36031.got.cif
#   From: 2010.03.12/outbox.cif.g09.slc.cpg/sg51_19_cif.got.tgz:36031.got - 2010.04.16 13:43:02.
