data_PCOD8212385
_publ_section_title
;
Structure prediction by ZEFSAII (Michael W. Deem and Ramdas Pophale) SiO2 
 PCOD8212385
Probable space group: P M M A
;
_chemical_formula_sum "Si O2"
_cell_formula_units_Z 40
_cell_length_a 8.681785
_cell_length_b 25.178161
_cell_length_c 9.653289
_cell_angle_alpha 90.000000
_cell_angle_beta 90.000000
_cell_angle_gamma 90.000000
_cell_volume 2110.125769
_symmetry_space_group_name_H-M "P M M A"
_symmetry_group_IT_number 51
_symmetry_cell_setting 'orthorhombic'
loop_
_space_group_symop_operation_xyz
x,y,z
1/2-x,-y,z
1/2+x,-y,-z
-x,y,-z
-x,-y,-z
1/2+x,y,-z
1/2-x,y,z
x,-y,z
loop_
_atom_site_type_symbol
_atom_site_label
_atom_site_fract_x
_atom_site_fract_y
_atom_site_fract_z
Si Si1 0.432000 0.940076 0.145566
Si Si2 0.432646 0.754733 0.150022
Si Si3 0.572703 0.438963 0.648721
Si Si4 0.931838 0.150606 0.652074
Si Si5 0.068428 0.356402 0.851804
O O1 0.250000 0.936686 0.132221
O O2 0.491678 0.902103 0.268554
O O3 0.487570 0.000000 0.178977
O O4 0.500000 0.920159 0.000000
O O5 0.250000 0.752091 0.137086
O O6 0.487044 0.798407 0.260795
O O7 0.496426 0.698478 0.204130
O O8 0.500000 0.769404 0.000000
O O9 0.500000 0.429912 0.500000
O O10 0.750000 0.420432 0.647762
O O11 0.558539 0.500000 0.695125
O O12 0.473066 0.404441 0.752568
O O13 0.750000 0.149714 0.638833
O O14 0.000000 0.152682 0.500000
O O15 0.250000 0.349600 0.863425
O O16 0.000000 0.370873 0.000000
#
# Coordination Sequence:
#
# PCOD8212385 Si02
#       5
#     8   8   8   8   8
#     4   9  18  34  55  79 106 137 176 219 263 314
#     4  10  20  36  56  78 105 137 178 223 268 320
#     4  10  21  38  59  83 112 146 183 222 267 321
#     4  10  22  36  52  77 108 141 176 218 265 316
#     4  11  22  37  58  83 111 143 181 225 273 321
#
# _framework density 18.956216999999999
#
# number of rings (size 3 to 8) (size 9 to 14) (size 15 to 20)
#    0.000    2.000    0.000    4.800    0.000    5.200 
#    0.000    2.000    0.000    0.000    0.000    0.000 
#    0.000    0.000    0.000    0.000    0.000    0.000 
#
# Total GULP energy -496088.112674 kJ/mol
# GULP energy per Si atom -12402.202817 kJ/mol
# Density = 1.891307 g / cm^3
# Si number density = 18.956217 Si / 1000 Ang^3
#
#
#
# Elastic Constant Matrix: (Units=GPa)
#
#
# Indices 1 2 3 4 5 6 
#
# 1 75.2335 38.2057 38.2312 0.0000 0.0000 0.0000
# 2 38.2057 124.1612 89.9871 0.0000 0.0000 0.0000
# 3 38.2312 89.9871 132.6513 0.0000 0.0000 0.0000
# 4 0.0000 0.0000 0.0000 21.3819 0.0000 0.0000
# 5 0.0000 0.0000 0.0000 0.0000 35.1140 0.0000
# 6 0.0000 0.0000 0.0000 0.0000 0.0000 66.3551
#
#
#
# Elastic Compliance Matrix: (Units=1/GPa)
#
#
# Indices 1 2 3 4 5 6 
#
# 1 0.016174 -0.003144 -0.002528 0.000000 0.000000 0.000000
# 2 -0.003144 0.016455 -0.010256 0.000000 0.000000 0.000000
# 3 -0.002528 -0.010256 0.015225 0.000000 0.000000 0.000000
# 4 0.000000 0.000000 0.000000 0.046769 0.000000 0.000000
# 5 0.000000 0.000000 0.000000 0.000000 0.028479 0.000000
# 6 0.000000 0.000000 0.000000 0.000000 0.000000 0.015070
#
#
# Mechanical properties :
#
#
# Convention : Reuss Voigt Hill
#
# Bulk Modulus (GPa) = 62.51822 73.87710 68.19766
# Shear Modulus (GPa) = 28.51258 35.61166 32.06212
#
# Velocity S-wave (km/s) = 3.88252 4.33902 4.11710
# Velocity P-wave (km/s) = 7.29044 8.00998 7.65867
#
# Compressibility (1/GPa) = 0.01599534
#
# Stress axis : x y z
#
# Youngs Moduli (GPa) = 61.82936 60.77158 65.68172
#
# Poissons Ratio (x) = 0.19109 0.16606
# Poissons Ratio (y) = 0.19441 0.67366
# Poissons Ratio (z) = 0.15632 0.62330
#
# Static dielectric constant tensor:
#      x y z
#    x 3.489150 0.000000 0.000000 
#    y 0.000000 3.747220 0.000000 
#    z 0.000000 0.000000 3.509970 
# 
# 
# High freq. dielectric constant tensor:
#      x y z
#    x 1.742890 0.000000 0.000000 
#    y 0.000000 1.748740 0.000000 
#    z 0.000000 0.000000 1.734000 
# 
# From -- ./inp_files/5467.got.cif
#   From: 2010.03.12/outbox.cif.g09.slc.cpg/sg51_3_cif.got.tgz:5467.got - 2010.04.16 13:43:02.
