data_PCOD8212171
_publ_section_title
;
Structure prediction by ZEFSAII (Michael W. Deem and Ramdas Pophale) SiO2 
 PCOD8212171
Probable space group: P M M A
;
_chemical_formula_sum "Si O2"
_cell_formula_units_Z 48
_cell_length_a 20.059788
_cell_length_b 9.324201
_cell_length_c 13.597864
_cell_angle_alpha 90.000000
_cell_angle_beta 90.000000
_cell_angle_gamma 90.000000
_cell_volume 2543.364816
_symmetry_space_group_name_H-M "P M M A"
_symmetry_group_IT_number 51
_symmetry_cell_setting 'orthorhombic'
loop_
_space_group_symop_operation_xyz
x,y,z
1/2-x,-y,z
1/2+x,-y,-z
-x,y,-z
-x,-y,-z
1/2+x,y,-z
1/2-x,y,z
x,-y,z
loop_
_atom_site_type_symbol
_atom_site_label
_atom_site_fract_x
_atom_site_fract_y
_atom_site_fract_z
Si Si1 0.495267 0.670039 0.611867
Si Si2 0.631724 0.164785 0.323143
Si Si3 0.426766 0.329666 0.031328
Si Si4 0.750000 0.670503 0.670345
Si Si5 0.388942 0.669942 0.246061
Si Si6 0.750000 0.166416 0.468161
Si Si7 0.173872 0.835942 0.896200
O O1 0.500000 0.725284 0.500000
O O2 0.487839 0.500000 0.616128
O O3 0.432113 0.735811 0.665895
O O4 0.560877 0.724148 0.669338
O O5 0.684752 0.205730 0.406201
O O6 0.665154 0.195687 0.218691
O O7 0.609540 0.000000 0.332696
O O8 0.421534 0.500000 0.027052
O O9 0.411751 0.269556 0.140465
O O10 0.500000 0.276745 0.000000
O O11 0.372927 0.268123 0.957120
O O12 0.750000 0.500000 0.658857
O O13 0.685213 0.725595 0.729438
O O14 0.750000 0.735255 0.562770
O O15 0.389880 0.500000 0.242666
O O16 0.750000 0.000000 0.498213
O O17 0.250000 0.803278 0.925288
O O18 0.155279 0.000000 0.920457
#
# Coordination Sequence:
#
# PCOD8212171 Si02
#       7
#     8   8   8   4   8   4   8
#     4  10  20  35  56  83 113 144 183 230 275 321
#     4  10  20  36  57  79 109 147 183 223 278 335
#     4  10  21  37  58  84 114 147 185 229 279 336
#     4  10  20  36  57  78 104 144 189 222 263 326
#     4   9  19  35  55  80 112 147 179 222 277 326
#     4  10  20  36  55  78 110 144 179 224 277 324
#     4  10  21  38  58  82 112 147 188 235 284 332
#
# _framework density 18.872637000000001
#
# number of rings (size 3 to 8) (size 9 to 14) (size 15 to 20)
#    0.000    2.167    0.833    2.000    1.167    5.000 
#    0.000    2.500    0.000    0.000    0.000    0.000 
#    0.000    0.000    0.000    0.000    0.000    0.000 
#
# Total GULP energy -595332.419315 kJ/mol
# GULP energy per Si atom -12402.758736 kJ/mol
# Density = 1.882968 g / cm^3
# Si number density = 18.872637 Si / 1000 Ang^3
#
#
#
# Elastic Constant Matrix: (Units=GPa)
#
#
# Indices 1 2 3 4 5 6 
#
# 1 160.0437 34.7589 69.7101 0.0000 0.0000 0.0000
# 2 34.7589 26.6500 29.4453 0.0000 0.0000 0.0000
# 3 69.7101 29.4453 136.8950 0.0000 0.0000 0.0000
# 4 0.0000 0.0000 0.0000 27.9469 0.0000 0.0000
# 5 0.0000 0.0000 0.0000 0.0000 40.1816 0.0000
# 6 0.0000 0.0000 0.0000 0.0000 0.0000 23.5549
#
#
#
# Elastic Compliance Matrix: (Units=1/GPa)
#
#
# Indices 1 2 3 4 5 6 
#
# 1 0.009495 -0.009237 -0.002848 0.000000 0.000000 0.000000
# 2 -0.009237 0.058207 -0.007816 0.000000 0.000000 0.000000
# 3 -0.002848 -0.007816 0.010436 0.000000 0.000000 0.000000
# 4 0.000000 0.000000 0.000000 0.035782 0.000000 0.000000
# 5 0.000000 0.000000 0.000000 0.000000 0.024887 0.000000
# 6 0.000000 0.000000 0.000000 0.000000 0.000000 0.042454
#
#
# Mechanical properties :
#
#
# Convention : Reuss Voigt Hill
#
# Bulk Modulus (GPa) = 26.08541 65.71302 45.89921
# Shear Modulus (GPa) = 21.38177 30.98166 26.18172
#
# Velocity S-wave (km/s) = 3.36959 4.05608 3.72867
# Velocity P-wave (km/s) = 5.38429 7.53860 6.55062
#
# Compressibility (1/GPa) = 0.03833561
#
# Stress axis : x y z
#
# Youngs Moduli (GPa) = 105.31791 17.17992 95.81760
#
# Poissons Ratio (x) = 0.15869 0.27291
# Poissons Ratio (y) = 0.97284 0.74894
# Poissons Ratio (z) = 0.29997 0.13428
#
# Static dielectric constant tensor:
#      x y z
#    x 3.648580 0.000000 0.000000 
#    y 0.000000 3.163600 0.000000 
#    z 0.000000 0.000000 3.625060 
# 
# 
# High freq. dielectric constant tensor:
#      x y z
#    x 1.749190 0.000000 0.000000 
#    y 0.000000 1.704930 0.000000 
#    z 0.000000 0.000000 1.745680 
# 
# From -- ./inp_files/24924.got.cif
#   From: 2010.03.12/outbox.cif.g09.slc.cpg/sg51_13_cif.got.tgz:24924.got - 2010.04.16 13:43:02.
