data_PCOD8212077
_publ_section_title
;
Structure prediction by ZEFSAII (Michael W. Deem and Ramdas Pophale) SiO2 
 PCOD8212077
Probable space group: P M M A
;
_chemical_formula_sum "Si O2"
_cell_formula_units_Z 48
_cell_length_a 14.761911
_cell_length_b 9.433939
_cell_length_c 17.093814
_cell_angle_alpha 90.000000
_cell_angle_beta 90.000000
_cell_angle_gamma 90.000000
_cell_volume 2380.535270
_symmetry_space_group_name_H-M "P M M A"
_symmetry_group_IT_number 51
_symmetry_cell_setting 'orthorhombic'
loop_
_space_group_symop_operation_xyz
x,y,z
1/2-x,-y,z
1/2+x,-y,-z
-x,y,-z
-x,-y,-z
1/2+x,y,-z
1/2-x,y,z
x,-y,z
loop_
_atom_site_type_symbol
_atom_site_label
_atom_site_fract_x
_atom_site_fract_y
_atom_site_fract_z
Si Si1 0.606762 0.164375 0.997791
Si Si2 0.750000 0.834532 0.870034
Si Si3 0.647419 0.345197 0.143821
Si Si4 0.750000 0.170260 0.692215
Si Si5 0.102340 0.339201 0.585747
Si Si6 0.147990 0.845796 0.723972
Si Si7 0.390241 0.338604 0.407621
O O1 0.657697 0.208846 0.917001
O O2 0.627111 0.000000 0.016607
O O3 0.500000 0.194435 0.000000
O O4 0.649672 0.262276 0.063082
O O5 0.750000 0.771355 0.782029
O O6 0.750000 0.000000 0.858511
O O7 0.750000 0.370831 0.170679
O O8 0.599591 0.500000 0.135728
O O9 0.597083 0.252552 0.211377
O O10 0.661026 0.230400 0.649201
O O11 0.750000 0.000000 0.687023
O O12 0.129123 0.500000 0.607756
O O13 0.153206 0.228688 0.640197
O O14 0.134229 0.306593 0.497755
O O15 0.996537 0.316132 0.600936
O O16 0.250000 0.870940 0.752843
O O17 0.099079 0.000000 0.718888
O O18 0.362603 0.500000 0.386681
#
# Coordination Sequence:
#
# PCOD8212077 Si02
#       7
#     8   4   8   4   8   8   8
#     4  10  20  36  61  86 110 149 193 236 296 357
#     4   9  20  39  57  80 119 152 187 241 292 351
#     4  10  20  35  55  80 112 147 184 229 282 335
#     4  11  23  37  57  84 117 158 197 237 290 351
#     4   9  19  37  59  81 111 149 192 240 290 341
#     4  10  21  34  52  82 116 148 184 226 280 342
#     4   9  20  39  59  81 110 150 194 238 291 345
#
# _framework density 20.163533999999999
#
# number of rings (size 3 to 8) (size 9 to 14) (size 15 to 20)
#    0.000    2.333    0.833    2.250    1.167    4.667 
#    0.000    5.000    0.000    0.000    0.000    0.000 
#    0.000    0.000    0.000    0.000    0.000    0.000 
#
# Total GULP energy -594857.809745 kJ/mol
# GULP energy per Si atom -12392.871036 kJ/mol
# Density = 2.011764 g / cm^3
# Si number density = 20.163534 Si / 1000 Ang^3
#
#
#
# Elastic Constant Matrix: (Units=GPa)
#
#
# Indices 1 2 3 4 5 6 
#
# 1 72.8078 25.1317 34.2946 0.0000 0.0000 0.0000
# 2 25.1317 134.2001 81.4823 0.0000 0.0000 0.0000
# 3 34.2946 81.4823 152.2978 0.0000 0.0000 0.0000
# 4 0.0000 0.0000 0.0000 20.8359 0.0000 0.0000
# 5 0.0000 0.0000 0.0000 0.0000 1.5846 0.0000
# 6 0.0000 0.0000 0.0000 0.0000 0.0000 24.4178
#
#
#
# Elastic Compliance Matrix: (Units=1/GPa)
#
#
# Indices 1 2 3 4 5 6 
#
# 1 0.015485 -0.001159 -0.002867 0.000000 0.000000 0.000000
# 2 -0.001159 0.011124 -0.005690 0.000000 0.000000 0.000000
# 3 -0.002867 -0.005690 0.010256 0.000000 0.000000 0.000000
# 4 0.000000 0.000000 0.000000 0.047994 0.000000 0.000000
# 5 0.000000 0.000000 0.000000 0.000000 0.631073 0.000000
# 6 0.000000 0.000000 0.000000 0.000000 0.000000 0.040954
#
#
# Mechanical properties :
#
#
# Convention : Reuss Voigt Hill
#
# Bulk Modulus (GPa) = 57.36502 71.23587 64.30045
# Shear Modulus (GPa) = 6.39280 23.92746 15.16013
#
# Velocity S-wave (km/s) = 1.78252 3.44854 2.74498
# Velocity P-wave (km/s) = 5.72260 7.15977 6.48115
#
# Compressibility (1/GPa) = 0.01743223
#
# Stress axis : x y z
#
# Youngs Moduli (GPa) = 64.57748 89.89845 97.50342
#
# Poissons Ratio (x) = 0.10422 0.27951
# Poissons Ratio (y) = 0.07487 0.55483
# Poissons Ratio (z) = 0.18513 0.51155
#
# Static dielectric constant tensor:
#      x y z
#    x 3.504070 0.000000 0.000000 
#    y 0.000000 3.863270 0.000000 
#    z 0.000000 0.000000 3.730490 
# 
# 
# High freq. dielectric constant tensor:
#      x y z
#    x 1.765500 0.000000 0.000000 
#    y 0.000000 1.786100 0.000000 
#    z 0.000000 0.000000 1.789660 
# 
# From -- ./inp_files/29515.got.cif
#   From: 2010.03.12/outbox.cif.g09.slc.cpg/sg51_15_cif.got.tgz:29515.got - 2010.04.16 13:43:02.
