data_PCOD8212682
_publ_section_title
;
Structure prediction by ZEFSAII (Michael W. Deem and Ramdas Pophale) SiO2 
 PCOD8212682
Probable space group: P M M A
;
_chemical_formula_sum "Si O2"
_cell_formula_units_Z 64
_cell_length_a 18.423094
_cell_length_b 19.697617
_cell_length_c 9.184553
_cell_angle_alpha 90.000000
_cell_angle_beta 90.000000
_cell_angle_gamma 90.000000
_cell_volume 3332.992078
_symmetry_space_group_name_H-M "P M M A"
_symmetry_group_IT_number 51
_symmetry_cell_setting 'orthorhombic'
loop_
_space_group_symop_operation_xyz
x,y,z
1/2-x,-y,z
1/2+x,-y,-z
-x,y,-z
-x,-y,-z
1/2+x,y,-z
1/2-x,y,z
x,-y,z
loop_
_atom_site_type_symbol
_atom_site_label
_atom_site_fract_x
_atom_site_fract_y
_atom_site_fract_z
Si Si1 0.929600 0.920564 0.093963
Si Si2 0.456784 0.425078 0.856067
Si Si3 0.833288 0.317844 0.480624
Si Si4 0.439691 0.574129 0.384504
Si Si5 0.922592 0.076383 0.428936
Si Si6 0.664449 0.187745 0.954553
Si Si7 0.334181 0.318062 0.858952
Si Si8 0.164089 0.819777 0.376384
O O1 0.935372 0.899897 0.263001
O O2 0.861057 0.879644 0.035533
O O3 0.914437 0.000000 0.072712
O O4 0.000000 0.898588 0.000000
O O5 0.433320 0.500000 0.795442
O O6 0.515618 0.389957 0.747324
O O7 0.384565 0.382483 0.890152
O O8 0.500000 0.436159 0.000000
O O9 0.750000 0.333231 0.517261
O O10 0.876718 0.380838 0.545829
O O11 0.844375 0.302119 0.310908
O O12 0.862129 0.251318 0.559894
O O13 0.500000 0.559615 0.500000
O O14 0.407014 0.500000 0.336915
O O15 0.867933 0.121193 0.523155
O O16 0.000000 0.080545 0.500000
O O17 0.891231 0.000000 0.432633
O O18 0.750000 0.187827 0.956436
O O19 0.638003 0.255449 0.040469
O O20 0.635108 0.181751 0.789392
O O21 0.250000 0.335670 0.894370
O O22 0.250000 0.828666 0.382643
#
# Coordination Sequence:
#
# PCOD8212682 Si02
#       8
#     8   8   8   8   8   8   8   8
#     4  10  21  38  60  86 117 151 190 237 286 341
#     4  10  22  39  58  84 116 151 191 236 289 350
#     4  10  21  37  58  84 114 150 192 240 292 347
#     4  10  20  37  58  83 116 148 186 238 292 347
#     4  10  21  38  60  86 116 150 189 236 288 341
#     4  10  22  39  58  82 114 152 192 236 285 340
#     4  10  21  38  59  83 114 151 193 241 291 348
#     4  10  22  39  58  83 116 152 192 238 286 341
#
# _framework density 19.201967
#
# number of rings (size 3 to 8) (size 9 to 14) (size 15 to 20)
#    0.000    2.000    1.250    1.500    1.750    5.000 
#    2.250    3.750    0.000    2.250    0.000    0.000 
#    0.000    0.000    0.000    0.000    0.000    0.000 
#
# Total GULP energy -793161.576247 kJ/mol
# GULP energy per Si atom -12393.149629 kJ/mol
# Density = 1.915826 g / cm^3
# Si number density = 19.201967 Si / 1000 Ang^3
#
#
#
# Elastic Constant Matrix: (Units=GPa)
#
#
# Indices 1 2 3 4 5 6 
#
# 1 56.1719 51.1102 42.9756 0.0000 0.0000 0.0000
# 2 51.1102 105.5914 61.2282 0.0000 0.0000 0.0000
# 3 42.9756 61.2282 136.7972 0.0000 0.0000 0.0000
# 4 0.0000 0.0000 0.0000 33.6452 0.0000 0.0000
# 5 0.0000 0.0000 0.0000 0.0000 33.6534 0.0000
# 6 0.0000 0.0000 0.0000 0.0000 0.0000 39.8256
#
#
#
# Elastic Compliance Matrix: (Units=1/GPa)
#
#
# Indices 1 2 3 4 5 6 
#
# 1 0.033697 -0.013738 -0.004437 0.000000 0.000000 0.000000
# 2 -0.013738 0.018390 -0.003916 0.000000 0.000000 0.000000
# 3 -0.004437 -0.003916 0.010457 0.000000 0.000000 0.000000
# 4 0.000000 0.000000 0.000000 0.029722 0.000000 0.000000
# 5 0.000000 0.000000 0.000000 0.000000 0.029715 0.000000
# 6 0.000000 0.000000 0.000000 0.000000 0.000000 0.025109
#
#
# Mechanical properties :
#
#
# Convention : Reuss Voigt Hill
#
# Bulk Modulus (GPa) = 54.45685 67.68759 61.07222
# Shear Modulus (GPa) = 25.33026 30.97460 28.15243
#
# Velocity S-wave (km/s) = 3.63595 4.02069 3.83315
# Velocity P-wave (km/s) = 6.78590 7.54198 7.17391
#
# Compressibility (1/GPa) = 0.01836316
#
# Stress axis : x y z
#
# Youngs Moduli (GPa) = 29.67611 54.37620 95.63291
#
# Poissons Ratio (x) = 0.74700 0.42436
# Poissons Ratio (y) = 0.40768 0.37445
# Poissons Ratio (z) = 0.13169 0.21291
#
# Static dielectric constant tensor:
#      x y z
#    x 2.685150 0.000000 0.000000 
#    y 0.000000 3.586950 0.000000 
#    z 0.000000 0.000000 3.965720 
# 
# 
# High freq. dielectric constant tensor:
#      x y z
#    x 1.735240 0.000000 0.000000 
#    y 0.000000 1.746140 0.000000 
#    z 0.000000 0.000000 1.768560 
# 
# From -- ./inp_files/10038.got.cif
#   From: 2010.03.12/outbox.cif.g09.slc.cpg/sg51_6_cif.got.tgz:10038.got - 2010.04.16 13:43:02.
