data_PCOD8212621
_publ_section_title
;
Structure prediction by ZEFSAII (Michael W. Deem and Ramdas Pophale) SiO2 
 PCOD8212621
Probable space group: P M M A
;
_chemical_formula_sum "Si O2"
_cell_formula_units_Z 64
_cell_length_a 8.761109
_cell_length_b 15.401322
_cell_length_c 23.926905
_cell_angle_alpha 90.000000
_cell_angle_beta 90.000000
_cell_angle_gamma 90.000000
_cell_volume 3228.520956
_symmetry_space_group_name_H-M "P M M A"
_symmetry_group_IT_number 51
_symmetry_cell_setting 'orthorhombic'
loop_
_space_group_symop_operation_xyz
x,y,z
1/2-x,-y,z
1/2+x,-y,-z
-x,y,-z
-x,-y,-z
1/2+x,y,-z
1/2-x,y,z
x,-y,z
loop_
_atom_site_type_symbol
_atom_site_label
_atom_site_fract_x
_atom_site_fract_y
_atom_site_fract_z
Si Si1 0.924996 0.901966 0.132479
Si Si2 0.430191 0.753871 0.060774
Si Si3 0.930289 0.342163 0.747598
Si Si4 0.571305 0.401001 0.628348
Si Si5 0.424951 0.096282 0.641519
Si Si6 0.429036 0.143515 0.246252
Si Si7 0.430071 0.248567 0.560218
Si Si8 0.068546 0.595859 0.134761
O O1 0.750000 0.871309 0.129201
O O2 0.027334 0.839699 0.094719
O O3 0.980278 0.900795 0.196165
O O4 0.942601 0.000000 0.109679
O O5 0.250000 0.749282 0.055504
O O6 0.495607 0.668553 0.092478
O O7 0.500000 0.757760 0.000000
O O8 0.750000 0.352003 0.747912
O O9 0.993841 0.386044 0.691063
O O10 0.981333 0.242814 0.749008
O O11 0.997745 0.388602 0.802812
O O12 0.750000 0.378295 0.626016
O O13 0.539864 0.500000 0.610619
O O14 0.484573 0.339812 0.585178
O O15 0.250000 0.116589 0.657940
O O16 0.528253 0.096323 0.696585
O O17 0.486384 0.168342 0.598426
O O18 0.439178 0.000000 0.614490
O O19 0.250000 0.134252 0.234490
O O20 0.500000 0.233677 0.500000
O O21 0.250000 0.250101 0.554664
O O22 0.250000 0.603497 0.136879
O O23 0.017062 0.500000 0.114367
#
# Coordination Sequence:
#
# PCOD8212621 Si02
#       8
#     8   8   8   8   8   8   8   8
#     4  11  24  41  61  86 118 156 195 240 294 348
#     4  11  23  40  61  87 116 154 199 245 293 345
#     4   9  16  30  55  88 120 148 183 230 283 337
#     4  10  20  36  61  90 119 152 190 236 290 348
#     4  10  22  40  60  85 118 155 192 234 291 351
#     4  11  20  34  60  92 122 154 192 235 285 344
#     4  11  24  41  61  83 112 152 196 247 295 344
#     4   9  17  32  57  88 119 152 190 232 282 340
#
# _framework density 19.823319000000001
#
# number of rings (size 3 to 8) (size 9 to 14) (size 15 to 20)
#    0.000    1.750    2.500    2.250    0.000    6.000 
#    0.000    0.000    0.000    1.125    0.000    0.000 
#    0.000    0.000    0.000    0.000    0.000    0.000 
#
# Total GULP energy -793701.281003 kJ/mol
# GULP energy per Si atom -12401.582516 kJ/mol
# Density = 1.977820 g / cm^3
# Si number density = 19.823319 Si / 1000 Ang^3
#
#
#
# Elastic Constant Matrix: (Units=GPa)
#
#
# Indices 1 2 3 4 5 6 
#
# 1 48.6239 29.2523 26.8224 0.0000 0.0000 0.0000
# 2 29.2523 130.4716 54.8427 0.0000 0.0000 0.0000
# 3 26.8224 54.8427 135.3919 0.0000 0.0000 0.0000
# 4 0.0000 0.0000 0.0000 7.6547 0.0000 0.0000
# 5 0.0000 0.0000 0.0000 0.0000 15.9627 0.0000
# 6 0.0000 0.0000 0.0000 0.0000 0.0000 23.5075
#
#
#
# Elastic Compliance Matrix: (Units=1/GPa)
#
#
# Indices 1 2 3 4 5 6 
#
# 1 0.024884 -0.004226 -0.003218 0.000000 0.000000 0.000000
# 2 -0.004226 0.009955 -0.003195 0.000000 0.000000 0.000000
# 3 -0.003218 -0.003195 0.009318 0.000000 0.000000 0.000000
# 4 0.000000 0.000000 0.000000 0.130639 0.000000 0.000000
# 5 0.000000 0.000000 0.000000 0.000000 0.062646 0.000000
# 6 0.000000 0.000000 0.000000 0.000000 0.000000 0.042540
#
#
# Mechanical properties :
#
#
# Convention : Reuss Voigt Hill
#
# Bulk Modulus (GPa) = 43.71053 59.59135 51.65094
# Shear Modulus (GPa) = 16.18721 22.99632 19.59176
#
# Velocity S-wave (km/s) = 2.86068 3.40967 3.14716
# Velocity P-wave (km/s) = 5.74536 6.75482 6.27044
#
# Compressibility (1/GPa) = 0.02287778
#
# Stress axis : x y z
#
# Youngs Moduli (GPa) = 40.18702 100.45025 107.32283
#
# Poissons Ratio (x) = 0.42455 0.34533
# Poissons Ratio (y) = 0.16985 0.34292
# Poissons Ratio (z) = 0.12931 0.32096
#
# Static dielectric constant tensor:
#      x y z
#    x 3.350640 0.000000 0.000000 
#    y 0.000000 3.803180 0.000000 
#    z 0.000000 0.000000 3.648970 
# 
# 
# High freq. dielectric constant tensor:
#      x y z
#    x 1.747820 0.000000 0.000000 
#    y 0.000000 1.789170 0.000000 
#    z 0.000000 0.000000 1.771230 
# 
# From -- ./inp_files/34887.got.cif
#   From: 2010.03.12/outbox.cif.g09.slc.cpg/sg51_18_cif.got.tgz:34887.got - 2010.04.16 13:43:02.
