data_PCOD8212233
_publ_section_title
;
Structure prediction by ZEFSAII (Michael W. Deem and Ramdas Pophale) SiO2 
 PCOD8212233
Probable space group: P M M A
;
_chemical_formula_sum "Si O2"
_cell_formula_units_Z 48
_cell_length_a 17.903422
_cell_length_b 8.936755
_cell_length_c 15.396362
_cell_angle_alpha 90.000000
_cell_angle_beta 90.000000
_cell_angle_gamma 90.000000
_cell_volume 2463.394765
_symmetry_space_group_name_H-M "P M M A"
_symmetry_group_IT_number 51
_symmetry_cell_setting 'orthorhombic'
loop_
_space_group_symop_operation_xyz
x,y,z
1/2-x,-y,z
1/2+x,-y,-z
-x,y,-z
-x,-y,-z
1/2+x,y,-z
1/2-x,y,z
x,-y,z
loop_
_atom_site_type_symbol
_atom_site_label
_atom_site_fract_x
_atom_site_fract_y
_atom_site_fract_z
Si Si1 0.661228 0.168574 0.488167
Si Si2 0.576217 0.824411 0.158955
Si Si3 0.835833 0.323628 0.314185
Si Si4 0.664832 0.674724 0.660256
Si Si5 0.581540 0.324463 0.835356
Si Si6 0.836378 0.171413 0.985888
O O1 0.750000 0.175827 0.490574
O O2 0.632240 0.258228 0.404340
O O3 0.630329 0.242158 0.576520
O O4 0.631178 0.000000 0.482123
O O5 0.614591 0.738378 0.237181
O O6 0.491766 0.771935 0.148332
O O7 0.579809 0.000000 0.177842
O O8 0.618050 0.781537 0.070795
O O9 0.750000 0.274610 0.299325
O O10 0.844240 0.500000 0.318161
O O11 0.750000 0.725357 0.678807
O O12 0.661634 0.500000 0.640575
O O13 0.615016 0.719315 0.742234
O O14 0.563664 0.500000 0.841348
O O15 0.641768 0.280863 0.907880
O O16 0.750000 0.194831 0.007785
O O17 0.853649 0.000000 0.959634
#
# Coordination Sequence:
#
# PCOD8212233 Si02
#       6
#     8   8   8   8   8   8
#     4   9  17  30  52  82 112 143 182 228 275 324
#     4  11  23  39  58  81 113 151 188 228 276 330
#     4  10  20  35  57  84 113 146 185 230 279 330
#     4   9  18  34  55  79 109 145 184 227 276 328
#     4  11  23  38  57  83 115 149 185 228 279 333
#     4  10  22  40  61  84 110 143 184 229 277 330
#
# _framework density 19.485306999999999
#
# number of rings (size 3 to 8) (size 9 to 14) (size 15 to 20)
#    0.000    2.000    0.000    3.500    0.000    9.333 
#    0.000    2.500    0.000    5.000    0.000    0.000 
#    0.000    0.000    0.000    0.000    0.000    0.000 
#
# Total GULP energy -595408.391294 kJ/mol
# GULP energy per Si atom -12404.341485 kJ/mol
# Density = 1.944096 g / cm^3
# Si number density = 19.485307 Si / 1000 Ang^3
#
#
#
# Elastic Constant Matrix: (Units=GPa)
#
#
# Indices 1 2 3 4 5 6 
#
# 1 61.2752 19.5764 27.1697 0.0000 0.0000 0.0000
# 2 19.5764 62.6670 45.0158 0.0000 0.0000 0.0000
# 3 27.1697 45.0158 126.9487 0.0000 0.0000 0.0000
# 4 0.0000 0.0000 0.0000 39.0920 0.0000 0.0000
# 5 0.0000 0.0000 0.0000 0.0000 24.3926 0.0000
# 6 0.0000 0.0000 0.0000 0.0000 0.0000 29.8544
#
#
#
# Elastic Compliance Matrix: (Units=1/GPa)
#
#
# Indices 1 2 3 4 5 6 
#
# 1 0.018746 -0.003991 -0.002597 0.000000 0.000000 0.000000
# 2 -0.003991 0.022261 -0.007040 0.000000 0.000000 0.000000
# 3 -0.002597 -0.007040 0.010929 0.000000 0.000000 0.000000
# 4 0.000000 0.000000 0.000000 0.025581 0.000000 0.000000
# 5 0.000000 0.000000 0.000000 0.000000 0.040996 0.000000
# 6 0.000000 0.000000 0.000000 0.000000 0.000000 0.033496
#
#
# Mechanical properties :
#
#
# Convention : Reuss Voigt Hill
#
# Bulk Modulus (GPa) = 40.51549 48.26830 44.39189
# Shear Modulus (GPa) = 26.66804 29.27641 27.97223
#
# Velocity S-wave (km/s) = 3.70350 3.88040 3.79298
# Velocity P-wave (km/s) = 6.25507 6.70090 6.48182
#
# Compressibility (1/GPa) = 0.02468192
#
# Stress axis : x y z
#
# Youngs Moduli (GPa) = 53.34391 44.92222 91.49771
#
# Poissons Ratio (x) = 0.17926 0.23763
# Poissons Ratio (y) = 0.21287 0.64410
# Poissons Ratio (z) = 0.13854 0.31623
#
# Static dielectric constant tensor:
#      x y z
#    x 3.456040 0.000000 0.000000 
#    y 0.000000 3.594080 0.000000 
#    z 0.000000 0.000000 3.706120 
# 
# 
# High freq. dielectric constant tensor:
#      x y z
#    x 1.741880 0.000000 0.000000 
#    y 0.000000 1.765140 0.000000 
#    z 0.000000 0.000000 1.774720 
# 
# From -- ./inp_files/24743.got.cif
#   From: 2010.03.12/outbox.cif.g09.slc.cpg/sg51_13_cif.got.tgz:24743.got - 2010.04.16 13:43:02.
