data_PCOD8212142
_publ_section_title
;
Structure prediction by ZEFSAII (Michael W. Deem and Ramdas Pophale) SiO2 
 PCOD8212142
Probable space group: P M M A
;
_chemical_formula_sum "Si O2"
_cell_formula_units_Z 64
_cell_length_a 17.822891
_cell_length_b 8.840903
_cell_length_c 21.527919
_cell_angle_alpha 90.000000
_cell_angle_beta 90.000000
_cell_angle_gamma 90.000000
_cell_volume 3392.163895
_symmetry_space_group_name_H-M "P M M A"
_symmetry_group_IT_number 51
_symmetry_cell_setting 'orthorhombic'
loop_
_space_group_symop_operation_xyz
x,y,z
1/2-x,-y,z
1/2+x,-y,-z
-x,y,-z
-x,-y,-z
1/2+x,y,-z
1/2-x,y,z
x,-y,z
loop_
_atom_site_type_symbol
_atom_site_label
_atom_site_fract_x
_atom_site_fract_y
_atom_site_fract_z
Si Si1 0.833671 0.825959 0.363411
Si Si2 0.080347 0.822929 0.877651
Si Si3 0.554782 0.675137 0.683198
Si Si4 0.900783 0.325338 0.248698
Si Si5 0.836634 0.326728 0.014188
Si Si6 0.836051 0.821793 0.773875
Si Si7 0.981488 0.822456 0.431632
Si Si8 0.920435 0.677242 0.888363
O O1 0.750000 0.797670 0.390346
O O2 0.843812 0.724662 0.302372
O O3 0.894909 0.781224 0.415548
O O4 0.845038 0.000000 0.343826
O O5 0.115294 0.774691 0.811774
O O6 0.140871 0.783773 0.930125
O O7 0.005809 0.729035 0.891452
O O8 0.062525 0.000000 0.877727
O O9 0.571515 0.500000 0.674319
O O10 0.485873 0.703988 0.729855
O O11 0.627647 0.753937 0.711704
O O12 0.537995 0.744155 0.616016
O O13 0.886457 0.500000 0.232991
O O14 0.750000 0.301615 0.998201
O O15 0.852997 0.500000 0.033427
O O16 0.883370 0.281373 0.953674
O O17 0.750000 0.770252 0.775723
O O18 0.876356 0.762479 0.834937
O O19 0.845032 0.000000 0.771424
O O20 0.000000 0.759619 0.500000
O O21 0.996181 0.000000 0.427878
O O22 0.917227 0.500000 0.873659
#
# Coordination Sequence:
#
# PCOD8212142 Si02
#       8
#     8   8   8   8   8   8   8   8
#     4   9  18  33  54  81 113 148 188 234 283 337
#     4  12  24  37  58  85 113 147 186 233 285 341
#     4  10  20  35  57  82 111 147 187 232 279 332
#     4  10  20  35  56  81 108 143 184 228 280 336
#     4  10  23  42  60  79 108 147 189 235 286 341
#     4  11  23  37  57  86 117 149 186 233 288 342
#     4   9  18  34  57  83 114 154 195 236 283 336
#     4  11  22  39  62  85 110 146 191 235 283 342
#
# _framework density 18.867013
#
# number of rings (size 3 to 8) (size 9 to 14) (size 15 to 20)
#    0.000    1.750    1.250    3.375    0.000    6.250 
#    0.000    0.625    0.000    2.250    0.000    0.000 
#    0.000    0.000    0.000    0.000    0.000    0.000 
#
# Total GULP energy -793911.198559 kJ/mol
# GULP energy per Si atom -12404.862477 kJ/mol
# Density = 1.882407 g / cm^3
# Si number density = 18.867013 Si / 1000 Ang^3
#
#
#
# Elastic Constant Matrix: (Units=GPa)
#
#
# Indices 1 2 3 4 5 6 
#
# 1 78.5658 12.5396 37.3866 0.0000 0.0000 0.0000
# 2 12.5396 32.2070 25.7167 0.0000 0.0000 0.0000
# 3 37.3866 25.7167 119.2850 0.0000 0.0000 0.0000
# 4 0.0000 0.0000 0.0000 30.2222 0.0000 0.0000
# 5 0.0000 0.0000 0.0000 0.0000 19.4151 0.0000
# 6 0.0000 0.0000 0.0000 0.0000 0.0000 24.7292
#
#
#
# Elastic Compliance Matrix: (Units=1/GPa)
#
#
# Indices 1 2 3 4 5 6 
#
# 1 0.015130 -0.002542 -0.004194 0.000000 0.000000 0.000000
# 2 -0.002542 0.037932 -0.007381 0.000000 0.000000 0.000000
# 3 -0.004194 -0.007381 0.011289 0.000000 0.000000 0.000000
# 4 0.000000 0.000000 0.000000 0.033088 0.000000 0.000000
# 5 0.000000 0.000000 0.000000 0.000000 0.051506 0.000000
# 6 0.000000 0.000000 0.000000 0.000000 0.000000 0.040438
#
#
# Mechanical properties :
#
#
# Convention : Reuss Voigt Hill
#
# Bulk Modulus (GPa) = 27.68762 42.37150 35.02956
# Shear Modulus (GPa) = 21.77160 25.16763 23.46962
#
# Velocity S-wave (km/s) = 3.40067 3.65629 3.53079
# Velocity P-wave (km/s) = 5.48875 6.35070 5.93539
#
# Compressibility (1/GPa) = 0.03611723
#
# Stress axis : x y z
#
# Youngs Moduli (GPa) = 66.09546 26.36262 88.58119
#
# Poissons Ratio (x) = 0.06701 0.37151
# Poissons Ratio (y) = 0.16800 0.65384
# Poissons Ratio (z) = 0.27720 0.19459
#
# Static dielectric constant tensor:
#      x y z
#    x 3.551080 0.000000 0.000000 
#    y 0.000000 3.486100 0.000000 
#    z 0.000000 0.000000 3.482460 
# 
# 
# High freq. dielectric constant tensor:
#      x y z
#    x 1.731750 0.000000 0.000000 
#    y 0.000000 1.737950 0.000000 
#    z 0.000000 0.000000 1.730260 
# 
# From -- ./inp_files/33950.got.cif
#   From: 2010.03.12/outbox.cif.g09.slc.cpg/sg51_17_cif.got.tgz:33950.got - 2010.04.16 13:43:02.
