data_PCOD8212883
_publ_section_title
;
Structure prediction by ZEFSAII (Michael W. Deem and Ramdas Pophale) SiO2 
 PCOD8212883
Probable space group: P M M A
;
_chemical_formula_sum "Si O2"
_cell_formula_units_Z 64
_cell_length_a 23.807114
_cell_length_b 8.928802
_cell_length_c 14.954255
_cell_angle_alpha 90.000000
_cell_angle_beta 90.000000
_cell_angle_gamma 90.000000
_cell_volume 3178.811137
_symmetry_space_group_name_H-M "P M M A"
_symmetry_group_IT_number 51
_symmetry_cell_setting 'orthorhombic'
loop_
_space_group_symop_operation_xyz
x,y,z
1/2-x,-y,z
1/2+x,-y,-z
-x,y,-z
-x,-y,-z
1/2+x,y,-z
1/2-x,y,z
x,-y,z
loop_
_atom_site_type_symbol
_atom_site_label
_atom_site_fract_x
_atom_site_fract_y
_atom_site_fract_z
Si Si1 0.813267 0.327807 0.692436
Si Si2 0.620235 0.173344 0.846814
Si Si3 0.994639 0.826482 0.102450
Si Si4 0.184874 0.825788 0.974463
Si Si5 0.985001 0.667369 0.603075
Si Si6 0.904913 0.823117 0.352783
Si Si7 0.384830 0.323080 0.823532
Si Si8 0.876653 0.176108 0.551638
O O1 0.750000 0.302615 0.726153
O O2 0.825957 0.500000 0.671477
O O3 0.854883 0.272690 0.768688
O O4 0.820503 0.235417 0.599552
O O5 0.553757 0.203669 0.849217
O O6 0.633669 0.000000 0.827464
O O7 0.648860 0.222566 0.939607
O O8 0.946810 0.728428 0.148028
O O9 0.976721 0.000000 0.108853
O O10 0.000000 0.777133 0.000000
O O11 0.250000 0.788563 0.991854
O O12 0.163040 0.730957 0.891039
O O13 0.175523 0.000000 0.952931
O O14 0.982092 0.500000 0.644236
O O15 0.925718 0.749894 0.611367
O O16 0.000000 0.658939 0.500000
O O17 0.031235 0.764693 0.654850
O O18 0.869641 0.746308 0.273585
O O19 0.877545 0.775550 0.447675
O O20 0.905085 0.000000 0.340014
O O21 0.383236 0.500000 0.816775
O O22 0.883107 0.000000 0.559813
#
# Coordination Sequence:
#
# PCOD8212883 Si02
#       8
#     8   8   8   8   8   8   8   8
#     4  11  25  42  60  86 123 163 201 251 312 370
#     4  10  21  39  66  93 118 156 203 252 304 361
#     4  10  20  39  64  89 123 162 203 251 304 361
#     4  10  21  41  67  90 116 155 204 254 300 352
#     4   9  17  31  53  82 115 148 183 230 289 352
#     4  10  21  38  60  85 117 156 202 248 296 353
#     4  12  25  38  58  90 130 167 202 247 304 367
#     4  10  21  38  61  86 112 150 199 251 298 349
#
# _framework density 20.133313999999999
#
# number of rings (size 3 to 8) (size 9 to 14) (size 15 to 20)
#    0.000    1.750    1.250    3.000    1.750    6.000 
#    0.000    0.625    0.000    0.750    0.000    0.000 
#    0.000    0.000    0.000    0.000    0.000    0.000 
#
# Total GULP energy -793786.697698 kJ/mol
# GULP energy per Si atom -12402.917152 kJ/mol
# Density = 2.008749 g / cm^3
# Si number density = 20.133314 Si / 1000 Ang^3
#
#
#
# Elastic Constant Matrix: (Units=GPa)
#
#
# Indices 1 2 3 4 5 6 
#
# 1 66.2441 26.6404 23.0759 0.0000 0.0000 0.0000
# 2 26.6404 100.6114 45.4443 0.0000 0.0000 0.0000
# 3 23.0759 45.4443 99.4147 0.0000 0.0000 0.0000
# 4 0.0000 0.0000 0.0000 27.3432 0.0000 0.0000
# 5 0.0000 0.0000 0.0000 0.0000 26.1107 0.0000
# 6 0.0000 0.0000 0.0000 0.0000 0.0000 29.5941
#
#
#
# Elastic Compliance Matrix: (Units=1/GPa)
#
#
# Indices 1 2 3 4 5 6 
#
# 1 0.017348 -0.003497 -0.002428 0.000000 0.000000 0.000000
# 2 -0.003497 0.013230 -0.005236 0.000000 0.000000 0.000000
# 3 -0.002428 -0.005236 0.013016 0.000000 0.000000 0.000000
# 4 0.000000 0.000000 0.000000 0.036572 0.000000 0.000000
# 5 0.000000 0.000000 0.000000 0.000000 0.038298 0.000000
# 6 0.000000 0.000000 0.000000 0.000000 0.000000 0.033791
#
#
# Mechanical properties :
#
#
# Convention : Reuss Voigt Hill
#
# Bulk Modulus (GPa) = 47.01052 50.73236 48.87144
# Shear Modulus (GPa) = 27.52276 28.01692 27.76984
#
# Velocity S-wave (km/s) = 3.70134 3.73442 3.71792
# Velocity P-wave (km/s) = 6.45499 6.62174 6.53890
#
# Compressibility (1/GPa) = 0.02127183
#
# Stress axis : x y z
#
# Youngs Moduli (GPa) = 57.64434 75.58501 76.82815
#
# Poissons Ratio (x) = 0.26429 0.18657
# Poissons Ratio (y) = 0.20156 0.40228
# Poissons Ratio (z) = 0.13998 0.39577
#
# Static dielectric constant tensor:
#      x y z
#    x 3.631570 0.000000 0.000000 
#    y 0.000000 3.631070 0.000000 
#    z 0.000000 0.000000 3.789680 
# 
# 
# High freq. dielectric constant tensor:
#      x y z
#    x 1.774060 0.000000 0.000000 
#    y 0.000000 1.785860 0.000000 
#    z 0.000000 0.000000 1.794250 
# 
# From -- ./inp_files/26214.got.cif
#   From: 2010.03.12/outbox.cif.g09.slc.cpg/sg51_14_cif.got.tgz:26214.got - 2010.04.16 13:43:02.
