data_PCOD8212363
_publ_section_title
;
Structure prediction by ZEFSAII (Michael W. Deem and Ramdas Pophale) SiO2 
 PCOD8212363
Probable space group: P M M A
;
_chemical_formula_sum "Si O2"
_cell_formula_units_Z 48
_cell_length_a 15.370216
_cell_length_b 17.482965
_cell_length_c 8.874823
_cell_angle_alpha 90.000000
_cell_angle_beta 90.000000
_cell_angle_gamma 90.000000
_cell_volume 2384.815354
_symmetry_space_group_name_H-M "P M M A"
_symmetry_group_IT_number 51
_symmetry_cell_setting 'orthorhombic'
loop_
_space_group_symop_operation_xyz
x,y,z
1/2-x,-y,z
1/2+x,-y,-z
-x,y,-z
-x,-y,-z
1/2+x,y,-z
1/2-x,y,z
x,-y,z
loop_
_atom_site_type_symbol
_atom_site_label
_atom_site_fract_x
_atom_site_fract_y
_atom_site_fract_z
Si Si1 0.404856 0.500000 0.065255
Si Si2 0.909283 0.188938 0.073169
Si Si3 0.250000 0.912861 0.929042
Si Si4 0.250000 0.085528 0.569825
Si Si5 0.904757 0.500000 0.578639
Si Si6 0.593360 0.813502 0.428237
Si Si7 0.404238 0.645581 0.566223
Si Si8 0.849743 0.353846 0.105228
O O1 0.408884 0.500000 0.243630
O O2 0.500000 0.500000 0.000000
O O3 0.355745 0.576296 0.011212
O O4 0.835333 0.131456 0.010767
O O5 0.918900 0.179922 0.250726
O O6 0.885588 0.276359 0.028342
O O7 0.000000 0.164775 0.000000
O O8 0.250000 0.911675 0.749261
O O9 0.250000 0.000000 0.989963
O O10 0.162917 0.126136 0.508043
O O11 0.250000 0.000000 0.506249
O O12 0.854288 0.423463 0.520704
O O13 0.000000 0.500000 0.500000
O O14 0.500000 0.829863 0.500000
O O15 0.634578 0.729745 0.465246
O O16 0.500000 0.648654 0.500000
O O17 0.404849 0.627110 0.744599
O O18 0.750000 0.340751 0.153389
#
# Coordination Sequence:
#
# PCOD8212363 Si02
#       8
#     4   8   4   4   4   8   8   8
#     4  12  23  36  59  85 116 156 199 247 293 353
#     4  10  20  36  61  86 115 156 198 240 291 350
#     4   9  18  36  59  88 119 150 192 239 289 355
#     4   9  18  34  59  84 113 152 188 229 287 347
#     4  10  20  36  55  79 115 146 194 244 288 343
#     4   9  19  34  57  85 115 147 194 236 281 344
#     4   9  18  34  58  83 111 150 198 238 286 345
#     4  11  22  38  59  84 119 160 203 249 297 351
#
# _framework density 20.127344000000001
#
# number of rings (size 3 to 8) (size 9 to 14) (size 15 to 20)
#    0.000    2.167    0.833    3.250    3.500    4.667 
#    0.000    2.500    3.667    1.000    0.000    0.000 
#    0.000    0.000    0.000    0.000    0.000    0.000 
#
# Total GULP energy -594963.031464 kJ/mol
# GULP energy per Si atom -12395.063156 kJ/mol
# Density = 2.008153 g / cm^3
# Si number density = 20.127344 Si / 1000 Ang^3
#
#
#
# Elastic Constant Matrix: (Units=GPa)
#
#
# Indices 1 2 3 4 5 6 
#
# 1 126.8273 71.5038 34.4420 0.0000 0.0000 0.0000
# 2 71.5038 194.6966 53.0828 0.0000 0.0000 0.0000
# 3 34.4420 53.0828 74.7951 0.0000 0.0000 0.0000
# 4 0.0000 0.0000 0.0000 13.2258 0.0000 0.0000
# 5 0.0000 0.0000 0.0000 0.0000 23.0543 0.0000
# 6 0.0000 0.0000 0.0000 0.0000 0.0000 9.9905
#
#
#
# Elastic Compliance Matrix: (Units=1/GPa)
#
#
# Indices 1 2 3 4 5 6 
#
# 1 0.010324 -0.003094 -0.002558 0.000000 0.000000 0.000000
# 2 -0.003094 0.007296 -0.003753 0.000000 0.000000 0.000000
# 3 -0.002558 -0.003753 0.017211 0.000000 0.000000 0.000000
# 4 0.000000 0.000000 0.000000 0.075610 0.000000 0.000000
# 5 0.000000 0.000000 0.000000 0.000000 0.043376 0.000000
# 6 0.000000 0.000000 0.000000 0.000000 0.000000 0.100096
#
#
# Mechanical properties :
#
#
# Convention : Reuss Voigt Hill
#
# Bulk Modulus (GPa) = 62.41988 79.37512 70.89750
# Shear Modulus (GPa) = 17.98153 25.07346 21.52749
#
# Velocity S-wave (km/s) = 2.99220 3.53333 3.27397
# Velocity P-wave (km/s) = 6.55877 7.49453 7.04221
#
# Compressibility (1/GPa) = 0.01602054
#
# Stress axis : x y z
#
# Youngs Moduli (GPa) = 96.86335 137.06563 58.10088
#
# Poissons Ratio (x) = 0.42409 0.14863
# Poissons Ratio (y) = 0.29970 0.21806
# Poissons Ratio (z) = 0.24778 0.51442
#
# Static dielectric constant tensor:
#      x y z
#    x 3.593690 0.000000 0.000000 
#    y 0.000000 4.744730 0.000000 
#    z 0.000000 0.000000 3.435090 
# 
# 
# High freq. dielectric constant tensor:
#      x y z
#    x 1.777920 0.000000 0.000000 
#    y 0.000000 1.802300 0.000000 
#    z 0.000000 0.000000 1.755410 
# 
# From -- ./inp_files/8396.got.cif
#   From: 2010.03.12/outbox.cif.g09.slc.cpg/sg51_5_cif.got.tgz:8396.got - 2010.04.16 13:43:02.
