data_PCOD8212998
_publ_section_title
;
Structure prediction by ZEFSAII (Michael W. Deem and Ramdas Pophale) SiO2 
 PCOD8212998
Probable space group: P M M A
;
_chemical_formula_sum "Si O2"
_cell_formula_units_Z 64
_cell_length_a 18.001944
_cell_length_b 10.024442
_cell_length_c 20.393277
_cell_angle_alpha 90.000000
_cell_angle_beta 90.000000
_cell_angle_gamma 90.000000
_cell_volume 3680.159419
_symmetry_space_group_name_H-M "P M M A"
_symmetry_group_IT_number 51
_symmetry_cell_setting 'orthorhombic'
loop_
_space_group_symop_operation_xyz
x,y,z
1/2-x,-y,z
1/2+x,-y,-z
-x,y,-z
-x,-y,-z
1/2+x,y,-z
1/2-x,y,z
x,-y,z
loop_
_atom_site_type_symbol
_atom_site_label
_atom_site_fract_x
_atom_site_fract_y
_atom_site_fract_z
Si Si1 0.161596 0.649254 0.993846
Si Si2 0.587389 0.652345 0.504786
Si Si3 0.663566 0.154622 0.605990
Si Si4 0.338254 0.147351 0.245873
Si Si5 0.661576 0.850638 0.113219
Si Si6 0.838282 0.149367 0.259157
Si Si7 0.337235 0.652674 0.630274
Si Si8 0.838421 0.350860 0.860149
O O1 0.250000 0.652337 0.990573
O O2 0.133109 0.500000 0.978154
O O3 0.126795 0.749439 0.940114
O O4 0.135647 0.692509 0.066854
O O5 0.500000 0.667470 0.500000
O O6 0.610314 0.500000 0.521635
O O7 0.615771 0.749958 0.560674
O O8 0.622959 0.696870 0.436208
O O9 0.750000 0.186270 0.595171
O O10 0.639165 0.187599 0.680426
O O11 0.647185 0.000000 0.589496
O O12 0.250000 0.145348 0.240775
O O13 0.373136 0.250911 0.193731
O O14 0.369264 0.000000 0.229162
O O15 0.750000 0.843572 0.111278
O O16 0.633516 0.811514 0.186211
O O17 0.635098 0.000000 0.095582
O O18 0.750000 0.153399 0.259779
O O19 0.869793 0.254947 0.311573
O O20 0.865686 0.000000 0.277386
O O21 0.250000 0.674897 0.620311
O O22 0.355549 0.500000 0.648545
O O23 0.750000 0.347729 0.856523
O O24 0.866936 0.500000 0.844526
#
# Coordination Sequence:
#
# PCOD8212998 Si02
#       8
#     8   8   8   8   8   8   8   8
#     4   8  13  19  26  39  63  96 132 167 201 239
#     4  10  21  35  49  67  92 119 146 179 220 266
#     4   9  18  32  49  69  91 115 147 186 224 264
#     4   8  14  24  37  54  76 101 132 172 213 250
#     4   8  13  20  29  43  65  94 129 166 202 242
#     4   8  14  24  37  54  76 101 132 172 213 250
#     4   9  17  29  45  64  84 108 141 178 214 255
#     4   8  13  20  29  44  68  98 133 170 205 243
#
# _framework density 17.390550999999999
#
# number of rings (size 3 to 8) (size 9 to 14) (size 15 to 20)
#    0.000    3.500    0.000    2.625    0.000    3.000 
#    0.000    7.500    0.000    0.000    0.000    0.000 
#    0.000    0.000    0.000    1.125    0.000   23.250 
#
# Total GULP energy -793169.677235 kJ/mol
# GULP energy per Si atom -12393.276207 kJ/mol
# Density = 1.735097 g / cm^3
# Si number density = 17.390551 Si / 1000 Ang^3
#
#
#
# Elastic Constant Matrix: (Units=GPa)
#
#
# Indices 1 2 3 4 5 6 
#
# 1 14.7747 18.0553 21.6266 0.0000 0.0000 0.0000
# 2 18.0553 122.2022 111.8890 0.0000 0.0000 0.0000
# 3 21.6266 111.8890 165.3291 0.0000 0.0000 0.0000
# 4 0.0000 0.0000 0.0000 42.6512 0.0000 0.0000
# 5 0.0000 0.0000 0.0000 0.0000 -1.1128 0.0000
# 6 0.0000 0.0000 0.0000 0.0000 0.0000 10.4097
#
#
#
# Elastic Compliance Matrix: (Units=1/GPa)
#
#
# Indices 1 2 3 4 5 6 
#
# 1 0.085513 -0.006291 -0.006929 0.000000 0.000000 0.000000
# 2 -0.006291 0.021978 -0.014051 0.000000 0.000000 0.000000
# 3 -0.006929 -0.014051 0.016464 0.000000 0.000000 0.000000
# 4 0.000000 0.000000 0.000000 0.023446 0.000000 0.000000
# 5 0.000000 0.000000 0.000000 0.000000 -0.898654 0.000000
# 6 0.000000 0.000000 0.000000 0.000000 0.000000 0.096065
#
#
# Mechanical properties :
#
#
# Convention : Reuss Voigt Hill
#
# Bulk Modulus (GPa) = 14.40626 67.27197 40.83911
# Shear Modulus (GPa) = -8.65783 20.43863 5.89040
#
# Velocity S-wave (km/s) = -2.23367 3.43194 1.84241
# Velocity P-wave (km/s) = 1.28436 7.38047 5.29721
#
# Compressibility (1/GPa) = 0.06941428
#
# Stress axis : x y z
#
# Youngs Moduli (GPa) = 11.69417 45.50103 60.73882
#
# Poissons Ratio (x) = 0.28623 0.42084
# Poissons Ratio (y) = 0.07356 0.85343
# Poissons Ratio (z) = 0.08102 0.63932
#
# Static dielectric constant tensor:
#      x y z
#    x 2.543420 0.000000 0.000000 
#    y 0.000000 3.542070 0.000000 
#    z 0.000000 0.000000 3.547710 
# 
# 
# High freq. dielectric constant tensor:
#      x y z
#    x 1.598170 0.000000 0.000000 
#    y 0.000000 1.677620 0.000000 
#    z 0.000000 0.000000 1.682440 
# 
# From -- ./inp_files/34155.got.cif
#   From: 2010.03.12/outbox.cif.g09.slc.cpg/sg51_18_cif.got.tgz:34155.got - 2010.04.16 13:43:02.
