data_PCOD8212931
_publ_section_title
;
Structure prediction by ZEFSAII (Michael W. Deem and Ramdas Pophale) SiO2 
 PCOD8212931
Probable space group: P M M A
;
_chemical_formula_sum "Si O2"
_cell_formula_units_Z 44
_cell_length_a 9.559348
_cell_length_b 28.612896
_cell_length_c 9.283797
_cell_angle_alpha 90.000000
_cell_angle_beta 90.000000
_cell_angle_gamma 90.000000
_cell_volume 2539.310006
_symmetry_space_group_name_H-M "P M M A"
_symmetry_group_IT_number 51
_symmetry_cell_setting 'orthorhombic'
loop_
_space_group_symop_operation_xyz
x,y,z
1/2-x,-y,z
1/2+x,-y,-z
-x,y,-z
-x,-y,-z
1/2+x,y,-z
1/2-x,y,z
x,-y,z
loop_
_atom_site_type_symbol
_atom_site_label
_atom_site_fract_x
_atom_site_fract_y
_atom_site_fract_z
Si Si1 0.907755 0.815928 0.861853
Si Si2 0.587435 0.285288 0.853987
Si Si3 0.913239 0.632950 0.644366
Si Si4 0.085294 0.000000 0.353962
Si Si5 0.087609 0.082695 0.145995
Si Si6 0.411278 0.446763 0.136419
O O1 0.750000 0.816167 0.918104
O O2 0.935505 0.766526 0.779981
O O3 0.936999 0.865428 0.781311
O O4 0.000000 0.815420 0.000000
O O5 0.750000 0.293779 0.892502
O O6 0.535884 0.323226 0.739470
O O7 0.500000 0.290833 0.000000
O O8 0.750000 0.636803 0.606781
O O9 0.948289 0.585145 0.727588
O O10 0.000000 0.632928 0.500000
O O11 0.039056 0.045469 0.263948
O O12 0.000000 0.000000 0.500000
O O13 0.250000 0.000000 0.388353
O O14 0.250000 0.074758 0.106134
O O15 0.000000 0.076115 0.000000
O O16 0.250000 0.441243 0.092616
O O17 0.448634 0.500000 0.178380
O O18 0.500000 0.429683 0.000000
#
# Coordination Sequence:
#
# PCOD8212931 Si02
#       6
#     8   8   8   4   8   8
#     4   8  14  26  45  68  92 115 143 184 229 269
#     4   9  17  30  49  71  93 119 152 189 228 270
#     4  10  21  34  47  67  96 127 157 189 226 269
#     4  10  21  34  46  64  92 124 155 186 224 270
#     4   9  17  30  49  71  92 116 149 188 229 272
#     4   9  18  33  52  73  95 119 151 191 232 274
#
# _framework density 17.327542000000001
#
# number of rings (size 3 to 8) (size 9 to 14) (size 15 to 20)
#    0.000    2.909    0.000    0.818    0.000    2.545 
#    0.000    0.909    0.000    0.000    0.000    0.000 
#    0.000    0.000    0.000    0.000    0.000    0.000 
#
# Total GULP energy -545150.212183 kJ/mol
# GULP energy per Si atom -12389.777550 kJ/mol
# Density = 1.728810 g / cm^3
# Si number density = 17.327542 Si / 1000 Ang^3
#
#
#
# Elastic Constant Matrix: (Units=GPa)
#
#
# Indices 1 2 3 4 5 6 
#
# 1 51.2388 46.4044 52.8227 0.0000 0.0000 0.0000
# 2 46.4044 155.4272 80.3124 0.0000 0.0000 0.0000
# 3 52.8227 80.3124 115.2781 0.0000 0.0000 0.0000
# 4 0.0000 0.0000 0.0000 7.4634 0.0000 0.0000
# 5 0.0000 0.0000 0.0000 0.0000 32.7066 0.0000
# 6 0.0000 0.0000 0.0000 0.0000 0.0000 18.4443
#
#
#
# Elastic Compliance Matrix: (Units=1/GPa)
#
#
# Indices 1 2 3 4 5 6 
#
# 1 0.038303 -0.003698 -0.014975 0.000000 0.000000 0.000000
# 2 -0.003698 0.010410 -0.005558 0.000000 0.000000 0.000000
# 3 -0.014975 -0.005558 0.019409 0.000000 0.000000 0.000000
# 4 0.000000 0.000000 0.000000 0.133987 0.000000 0.000000
# 5 0.000000 0.000000 0.000000 0.000000 0.030575 0.000000
# 6 0.000000 0.000000 0.000000 0.000000 0.000000 0.054217
#
#
# Mechanical properties :
#
#
# Convention : Reuss Voigt Hill
#
# Bulk Modulus (GPa) = 50.86450 75.66924 63.26687
# Shear Modulus (GPa) = 14.62346 21.21650 17.91998
#
# Velocity S-wave (km/s) = 2.90822 3.50299 3.21937
# Velocity P-wave (km/s) = 6.37930 7.75410 7.10005
#
# Compressibility (1/GPa) = 0.01966008
#
# Stress axis : x y z
#
# Youngs Moduli (GPa) = 26.10729 96.06321 51.52349
#
# Poissons Ratio (x) = 0.35524 0.77157
# Poissons Ratio (y) = 0.09654 0.28636
# Poissons Ratio (z) = 0.39096 0.53391
#
# Static dielectric constant tensor:
#      x y z
#    x 3.245290 0.000000 0.000000 
#    y 0.000000 4.136500 0.000000 
#    z 0.000000 0.000000 1.921120 
# 
# 
# High freq. dielectric constant tensor:
#      x y z
#    x 1.670210 0.000000 0.000000 
#    y 0.000000 1.701660 0.000000 
#    z 0.000000 0.000000 1.624350 
# 
# From -- ./inp_files/5760.got.cif
#   From: 2010.03.12/outbox.cif.g09.slc.cpg/sg51_3_cif.got.tgz:5760.got - 2010.04.16 13:43:02.
