data_PCOD8212063
_publ_section_title
;
Structure prediction by ZEFSAII (Michael W. Deem and Ramdas Pophale) SiO2 
 PCOD8212063
Probable space group: P M M A
;
_chemical_formula_sum "Si O2"
_cell_formula_units_Z 56
_cell_length_a 9.171964
_cell_length_b 19.055743
_cell_length_c 15.861926
_cell_angle_alpha 90.000000
_cell_angle_beta 90.000000
_cell_angle_gamma 90.000000
_cell_volume 2772.325042
_symmetry_space_group_name_H-M "P M M A"
_symmetry_group_IT_number 51
_symmetry_cell_setting 'orthorhombic'
loop_
_space_group_symop_operation_xyz
x,y,z
1/2-x,-y,z
1/2+x,-y,-z
-x,y,-z
-x,-y,-z
1/2+x,y,-z
1/2-x,y,z
x,-y,z
loop_
_atom_site_type_symbol
_atom_site_label
_atom_site_fract_x
_atom_site_fract_y
_atom_site_fract_z
Si Si1 0.081941 0.576941 0.586674
Si Si2 0.917985 0.917304 0.239694
Si Si3 0.583232 0.296454 0.833417
Si Si4 0.418946 0.420812 0.912492
Si Si5 0.582658 0.284758 0.326205
Si Si6 0.583281 0.853875 0.415802
Si Si7 0.581430 0.846177 0.914980
O O1 0.250000 0.590041 0.565962
O O2 0.056781 0.500000 0.628584
O O3 0.026181 0.638001 0.647840
O O4 0.000000 0.582179 0.500000
O O5 0.750000 0.892721 0.229200
O O6 0.976010 0.892822 0.331729
O O7 0.012308 0.883851 0.165474
O O8 0.933777 0.000000 0.233170
O O9 0.750000 0.319139 0.820667
O O10 0.488016 0.366012 0.848079
O O11 0.520140 0.259720 0.749668
O O12 0.568505 0.238392 0.906656
O O13 0.250000 0.402744 0.926271
O O14 0.438354 0.500000 0.877258
O O15 0.500000 0.411828 0.000000
O O16 0.750000 0.286581 0.295168
O O17 0.564604 0.229918 0.402720
O O18 0.500000 0.877964 0.500000
O O19 0.750000 0.875127 0.430424
O O20 0.750000 0.868901 0.921380
O O21 0.500000 0.870025 0.000000
#
# Coordination Sequence:
#
# PCOD8212063 Si02
#       7
#     8   8   8   8   8   8   8
#     4   9  18  32  50  74 105 143 189 238 291 351
#     4  10  22  42  66  92 124 161 202 248 299 360
#     4  11  23  37  57  86 117 153 199 250 301 356
#     4  10  21  37  57  81 112 152 197 246 300 357
#     4  10  20  35  55  79 112 154 196 245 301 354
#     4  10  21  37  60  89 121 160 202 248 302 359
#     4  11  24  41  64  93 124 161 203 248 302 362
#
# _framework density 20.199650999999999
#
# number of rings (size 3 to 8) (size 9 to 14) (size 15 to 20)
#    0.000    1.857    1.429    2.143    0.000    6.857 
#    0.000    1.429    0.000    0.000    0.000    0.000 
#    0.000    0.000    0.000    0.000    0.000    0.000 
#
# Total GULP energy -694385.938681 kJ/mol
# GULP energy per Si atom -12399.748905 kJ/mol
# Density = 2.015368 g / cm^3
# Si number density = 20.199651 Si / 1000 Ang^3
#
#
#
# Elastic Constant Matrix: (Units=GPa)
#
#
# Indices 1 2 3 4 5 6 
#
# 1 109.0931 39.5247 64.3665 0.0000 0.0000 0.0000
# 2 39.5247 83.9586 35.0685 0.0000 0.0000 0.0000
# 3 64.3665 35.0685 130.2777 0.0000 0.0000 0.0000
# 4 0.0000 0.0000 0.0000 18.7801 0.0000 0.0000
# 5 0.0000 0.0000 0.0000 0.0000 38.8320 0.0000
# 6 0.0000 0.0000 0.0000 0.0000 0.0000 23.6232
#
#
#
# Elastic Compliance Matrix: (Units=1/GPa)
#
#
# Indices 1 2 3 4 5 6 
#
# 1 0.014149 -0.004215 -0.005856 0.000000 0.000000 0.000000
# 2 -0.004215 0.014675 -0.001868 0.000000 0.000000 0.000000
# 3 -0.005856 -0.001868 0.011072 0.000000 0.000000 0.000000
# 4 0.000000 0.000000 0.000000 0.053248 0.000000 0.000000
# 5 0.000000 0.000000 0.000000 0.000000 0.025752 0.000000
# 6 0.000000 0.000000 0.000000 0.000000 0.000000 0.042331
#
#
# Mechanical properties :
#
#
# Convention : Reuss Voigt Hill
#
# Bulk Modulus (GPa) = 62.42773 66.80544 64.61658
# Shear Modulus (GPa) = 26.25460 28.53838 27.39649
#
# Velocity S-wave (km/s) = 3.60912 3.76282 3.68677
# Velocity P-wave (km/s) = 6.95271 7.21268 7.08389
#
# Compressibility (1/GPa) = 0.01601852
#
# Stress axis : x y z
#
# Youngs Moduli (GPa) = 70.67884 68.14338 90.31853
#
# Poissons Ratio (x) = 0.28720 0.52889
# Poissons Ratio (y) = 0.29789 0.16870
# Poissons Ratio (z) = 0.41389 0.12728
#
# Static dielectric constant tensor:
#      x y z
#    x 3.647320 0.000000 0.000000 
#    y 0.000000 3.814560 0.000000 
#    z 0.000000 0.000000 0.055400 
# 
# 
# High freq. dielectric constant tensor:
#      x y z
#    x 1.785970 0.000000 0.000000 
#    y 0.000000 1.795760 0.000000 
#    z 0.000000 0.000000 1.781450 
# 
# From -- ./inp_files/21719.got.cif
#   From: 2010.03.12/outbox.cif.g09.slc.cpg/sg51_11_cif.got.tgz:21719.got - 2010.04.16 13:43:02.
