data_PCOD8212957
_publ_section_title
;
Structure prediction by ZEFSAII (Michael W. Deem and Ramdas Pophale) SiO2 
 PCOD8212957
Probable space group: P M M A
;
_chemical_formula_sum "Si O2"
_cell_formula_units_Z 64
_cell_length_a 9.050026
_cell_length_b 19.063593
_cell_length_c 20.789283
_cell_angle_alpha 90.000000
_cell_angle_beta 90.000000
_cell_angle_gamma 90.000000
_cell_volume 3586.692095
_symmetry_space_group_name_H-M "P M M A"
_symmetry_group_IT_number 51
_symmetry_cell_setting 'orthorhombic'
loop_
_space_group_symop_operation_xyz
x,y,z
1/2-x,-y,z
1/2+x,-y,-z
-x,y,-z
-x,-y,-z
1/2+x,y,-z
1/2-x,y,z
x,-y,z
loop_
_atom_site_type_symbol
_atom_site_label
_atom_site_fract_x
_atom_site_fract_y
_atom_site_fract_z
Si Si1 0.920660 0.423042 0.699480
Si Si2 0.081966 0.842279 0.434751
Si Si3 0.576623 0.152457 0.310058
Si Si4 0.079930 0.419897 0.832493
Si Si5 0.077097 0.325338 0.065068
Si Si6 0.416645 0.721582 0.349699
Si Si7 0.577177 0.163539 0.934708
Si Si8 0.420390 0.082248 0.822446
O O1 0.750000 0.418853 0.721360
O O2 0.952886 0.500000 0.668495
O O3 0.959508 0.360984 0.648590
O O4 0.024082 0.410965 0.760234
O O5 0.250000 0.868385 0.440452
O O6 0.073168 0.757515 0.420811
O O7 0.000000 0.861820 0.500000
O O8 0.004215 0.880453 0.373419
O O9 0.750000 0.149981 0.322222
O O10 0.522987 0.233757 0.301669
O O11 0.529688 0.108704 0.247712
O O12 0.250000 0.396332 0.835843
O O13 0.060790 0.500000 0.855543
O O14 0.982207 0.370448 0.876441
O O15 0.250000 0.337845 0.057363
O O16 0.038356 0.244459 0.078798
O O17 0.000000 0.351452 0.000000
O O18 0.250000 0.729788 0.322983
O O19 0.750000 0.151183 0.943025
O O20 0.520324 0.118366 0.875556
O O21 0.500000 0.137336 0.000000
O O22 0.250000 0.101960 0.835039
O O23 0.447579 0.000000 0.825731
#
# Coordination Sequence:
#
# PCOD8212957 Si02
#       8
#     8   8   8   8   8   8   8   8
#     4   9  17  31  49  69  97 134 172 212 260 309
#     4   9  17  30  50  77 108 139 175 220 262 307
#     4   9  18  32  52  79 106 138 174 212 259 307
#     4  10  21  34  48  70  99 131 168 211 260 314
#     4  10  21  36  53  73  96 126 165 210 257 308
#     4   8  17  30  47  73 102 133 171 215 257 302
#     4  10  22  39  59  82 107 138 178 221 265 316
#     4  10  22  39  58  82 112 143 174 211 259 316
#
# _framework density 17.843738999999999
#
# number of rings (size 3 to 8) (size 9 to 14) (size 15 to 20)
#    0.750    1.875    0.000    1.500    1.750    4.500 
#    0.000    0.000    0.000    0.750    0.000    0.000 
#    0.000    0.000    0.000    0.000    0.000    0.000 
#
# Total GULP energy -793123.458003 kJ/mol
# GULP energy per Si atom -12392.554031 kJ/mol
# Density = 1.780313 g / cm^3
# Si number density = 17.843739 Si / 1000 Ang^3
#
#
#
# Elastic Constant Matrix: (Units=GPa)
#
#
# Indices 1 2 3 4 5 6 
#
# 1 88.7157 27.9361 48.1372 0.0000 0.0000 0.0000
# 2 27.9361 42.5745 25.6820 0.0000 0.0000 0.0000
# 3 48.1372 25.6820 95.5935 0.0000 0.0000 0.0000
# 4 0.0000 0.0000 0.0000 0.9763 0.0000 0.0000
# 5 0.0000 0.0000 0.0000 0.0000 30.7256 0.0000
# 6 0.0000 0.0000 0.0000 0.0000 0.0000 20.4687
#
#
#
# Elastic Compliance Matrix: (Units=1/GPa)
#
#
# Indices 1 2 3 4 5 6 
#
# 1 0.017192 -0.007230 -0.006715 0.000000 0.000000 0.000000
# 2 -0.007230 0.031072 -0.004707 0.000000 0.000000 0.000000
# 3 -0.006715 -0.004707 0.015107 0.000000 0.000000 0.000000
# 4 0.000000 0.000000 0.000000 1.024308 0.000000 0.000000
# 5 0.000000 0.000000 0.000000 0.000000 0.032546 0.000000
# 6 0.000000 0.000000 0.000000 0.000000 0.000000 0.048855
#
#
# Mechanical properties :
#
#
# Convention : Reuss Voigt Hill
#
# Bulk Modulus (GPa) = 38.36291 47.82158 43.09224
# Shear Modulus (GPa) = 4.11498 18.77600 11.44549
#
# Velocity S-wave (km/s) = 1.52024 3.24735 2.53539
# Velocity P-wave (km/s) = 4.96261 6.39678 5.72478
#
# Compressibility (1/GPa) = 0.02606685
#
# Stress axis : x y z
#
# Youngs Moduli (GPa) = 58.16566 32.18346 66.19537
#
# Poissons Ratio (x) = 0.23270 0.44449
# Poissons Ratio (y) = 0.42057 0.31156
# Poissons Ratio (z) = 0.39057 0.15148
#
# Static dielectric constant tensor:
#      x y z
#    x 3.384510 0.000000 0.000000 
#    y 0.000000 3.297160 0.000000 
#    z 0.000000 0.000000 3.103840 
# 
# 
# High freq. dielectric constant tensor:
#      x y z
#    x 1.701710 0.000000 0.000000 
#    y 0.000000 1.679720 0.000000 
#    z 0.000000 0.000000 1.669970 
# 
# From -- ./inp_files/32596.got.cif
#   From: 2010.03.12/outbox.cif.g09.slc.cpg/sg51_17_cif.got.tgz:32596.got - 2010.04.16 13:43:02.
