data_PCOD8212163
_publ_section_title
;
Structure prediction by ZEFSAII (Michael W. Deem and Ramdas Pophale) SiO2 
 PCOD8212163
Probable space group: P M M A
;
_chemical_formula_sum "Si O2"
_cell_formula_units_Z 48
_cell_length_a 24.830986
_cell_length_b 8.935281
_cell_length_c 11.697961
_cell_angle_alpha 90.000000
_cell_angle_beta 90.000000
_cell_angle_gamma 90.000000
_cell_volume 2595.448101
_symmetry_space_group_name_H-M "P M M A"
_symmetry_group_IT_number 51
_symmetry_cell_setting 'orthorhombic'
loop_
_space_group_symop_operation_xyz
x,y,z
1/2-x,-y,z
1/2+x,-y,-z
-x,y,-z
-x,-y,-z
1/2+x,y,-z
1/2-x,y,z
x,-y,z
loop_
_atom_site_type_symbol
_atom_site_label
_atom_site_fract_x
_atom_site_fract_y
_atom_site_fract_z
Si Si1 0.899702 0.823450 0.736916
Si Si2 0.602462 0.672810 0.262769
Si Si3 0.311905 0.174436 0.882880
Si Si4 0.561514 0.673256 0.512839
Si Si5 0.504603 0.327064 0.866360
Si Si6 0.687238 0.673806 0.882221
O O1 0.909308 0.770760 0.608078
O O2 0.947251 0.772398 0.819924
O O3 0.843720 0.754013 0.779613
O O4 0.895035 0.000000 0.739608
O O5 0.614595 0.500000 0.236366
O O6 0.653321 0.770378 0.224353
O O7 0.593638 0.700816 0.396378
O O8 0.550030 0.726466 0.193775
O O9 0.250000 0.211960 0.855012
O O10 0.320980 0.000000 0.903525
O O11 0.331388 0.259434 0.996506
O O12 0.500000 0.727257 0.500000
O O13 0.562385 0.500000 0.550011
O O14 0.516473 0.500000 0.836588
O O15 0.500000 0.299265 0.000000
O O16 0.750000 0.702912 0.861193
O O17 0.672316 0.500000 0.882997
#
# Coordination Sequence:
#
# PCOD8212163 Si02
#       6
#     8   8   8   8   8   8
#     4  12  24  36  56  86 118 149 185 234 293 348
#     4  10  20  35  58  85 111 149 196 238 278 329
#     4  10  21  37  58  86 121 154 183 228 290 345
#     4  10  20  39  61  80 110 154 200 239 279 332
#     4  10  20  35  56  82 113 148 187 233 283 337
#     4  10  21  39  63  86 111 149 195 237 279 336
#
# _framework density 18.493915999999999
#
# number of rings (size 3 to 8) (size 9 to 14) (size 15 to 20)
#    0.000    1.667    1.667    3.500    0.000    5.333 
#    0.000    0.833    0.000    1.000    0.000    0.000 
#    0.000    0.000    0.000    0.000    0.000    0.000 
#
# Total GULP energy -595507.017080 kJ/mol
# GULP energy per Si atom -12406.396189 kJ/mol
# Density = 1.845182 g / cm^3
# Si number density = 18.493916 Si / 1000 Ang^3
#
#
#
# Elastic Constant Matrix: (Units=GPa)
#
#
# Indices 1 2 3 4 5 6 
#
# 1 94.9329 58.0644 57.6694 0.0000 0.0000 0.0000
# 2 58.0644 109.9676 56.1263 0.0000 0.0000 0.0000
# 3 57.6694 56.1263 110.9011 0.0000 0.0000 0.0000
# 4 0.0000 0.0000 0.0000 19.2400 0.0000 0.0000
# 5 0.0000 0.0000 0.0000 0.0000 27.8696 0.0000
# 6 0.0000 0.0000 0.0000 0.0000 0.0000 29.0276
#
#
#
# Elastic Compliance Matrix: (Units=1/GPa)
#
#
# Indices 1 2 3 4 5 6 
#
# 1 0.018275 -0.006471 -0.006228 0.000000 0.000000 0.000000
# 2 -0.006471 0.014552 -0.004000 0.000000 0.000000 0.000000
# 3 -0.006228 -0.004000 0.014280 0.000000 0.000000 0.000000
# 4 0.000000 0.000000 0.000000 0.051975 0.000000 0.000000
# 5 0.000000 0.000000 0.000000 0.000000 0.035881 0.000000
# 6 0.000000 0.000000 0.000000 0.000000 0.000000 0.034450
#
#
# Mechanical properties :
#
#
# Convention : Reuss Voigt Hill
#
# Bulk Modulus (GPa) = 72.94334 73.28022 73.11178
# Shear Modulus (GPa) = 24.11031 24.82353 24.46692
#
# Velocity S-wave (km/s) = 3.61458 3.66765 3.64121
# Velocity P-wave (km/s) = 7.54637 7.59247 7.56945
#
# Compressibility (1/GPa) = 0.01370927
#
# Stress axis : x y z
#
# Youngs Moduli (GPa) = 54.71962 68.72132 70.02739
#
# Poissons Ratio (x) = 0.44466 0.43616
# Poissons Ratio (y) = 0.35406 0.28009
# Poissons Ratio (z) = 0.34082 0.27487
#
# Static dielectric constant tensor:
#      x y z
#    x 3.429710 0.000000 0.000000 
#    y 0.000000 3.362770 0.000000 
#    z 0.000000 0.000000 3.399760 
# 
# 
# High freq. dielectric constant tensor:
#      x y z
#    x 1.718140 0.000000 0.000000 
#    y 0.000000 1.716690 0.000000 
#    z 0.000000 0.000000 1.721230 
# 
# From -- ./inp_files/18568.got.cif
#   From: 2010.03.12/outbox.cif.g09.slc.cpg/sg51_10_cif.got.tgz:18568.got - 2010.04.16 13:43:02.
