data_PCOD8212939
_publ_section_title
;
Structure prediction by ZEFSAII (Michael W. Deem and Ramdas Pophale) SiO2 
 PCOD8212939
Probable space group: P M M A
;
_chemical_formula_sum "Si O2"
_cell_formula_units_Z 48
_cell_length_a 9.536630
_cell_length_b 30.946927
_cell_length_c 9.534525
_cell_angle_alpha 90.000000
_cell_angle_beta 90.000000
_cell_angle_gamma 90.000000
_cell_volume 2813.918570
_symmetry_space_group_name_H-M "P M M A"
_symmetry_group_IT_number 51
_symmetry_cell_setting 'orthorhombic'
loop_
_space_group_symop_operation_xyz
x,y,z
1/2-x,-y,z
1/2+x,-y,-z
-x,y,-z
-x,-y,-z
1/2+x,y,-z
1/2-x,y,z
x,-y,z
loop_
_atom_site_type_symbol
_atom_site_label
_atom_site_fract_x
_atom_site_fract_y
_atom_site_fract_z
Si Si1 0.086056 0.860372 0.856351
Si Si2 0.912426 0.383951 0.133911
Si Si3 0.910253 0.045606 0.137794
Si Si4 0.914505 0.213624 0.356561
Si Si5 0.411968 0.285401 0.863956
Si Si6 0.088748 0.548486 0.636621
O O1 0.250000 0.853419 0.892103
O O2 0.056807 0.908360 0.787969
O O3 0.037267 0.826891 0.738081
O O4 0.000000 0.853255 0.000000
O O5 0.750000 0.390672 0.098541
O O6 0.944326 0.334736 0.179109
O O7 0.964056 0.416312 0.253311
O O8 0.000000 0.397347 0.000000
O O9 0.750000 0.046629 0.089242
O O10 0.938340 0.000000 0.224223
O O11 0.000000 0.043577 0.000000
O O12 0.750000 0.211436 0.392384
O O13 0.952939 0.256730 0.270004
O O14 0.000000 0.213512 0.500000
O O15 0.250000 0.278532 0.904280
O O16 0.500000 0.271118 0.000000
O O17 0.250000 0.556084 0.597446
O O18 0.064862 0.500000 0.695990
O O19 0.000000 0.556770 0.500000
#
# Coordination Sequence:
#
# PCOD8212939 Si02
#       6
#     8   8   8   8   8   8
#     4   9  17  29  46  68  91 116 148 184 222 265
#     4   9  18  32  49  70  95 120 148 185 227 269
#     4   8  13  22  38  61  87 112 139 175 218 260
#     4  10  21  34  47  66  92 120 151 186 223 265
#     4   9  18  33  51  70  92 118 149 185 225 270
#     4   9  18  32  48  67  93 124 156 189 224 263
#
# _framework density 17.058063000000001
#
# number of rings (size 3 to 8) (size 9 to 14) (size 15 to 20)
#    0.000    3.000    0.000    0.500    0.000    3.000 
#    0.000    0.000    0.000    0.500    0.000    0.000 
#    0.000    0.000    0.000    0.000    0.000    0.000 
#
# Total GULP energy -594724.342873 kJ/mol
# GULP energy per Si atom -12390.090477 kJ/mol
# Density = 1.701924 g / cm^3
# Si number density = 17.058063 Si / 1000 Ang^3
#
#
#
# Elastic Constant Matrix: (Units=GPa)
#
#
# Indices 1 2 3 4 5 6 
#
# 1 47.4027 46.6306 50.7409 0.0000 0.0000 0.0000
# 2 46.6306 145.8191 89.4770 0.0000 0.0000 0.0000
# 3 50.7409 89.4770 115.2207 0.0000 0.0000 0.0000
# 4 0.0000 0.0000 0.0000 8.7489 0.0000 0.0000
# 5 0.0000 0.0000 0.0000 0.0000 30.9919 0.0000
# 6 0.0000 0.0000 0.0000 0.0000 0.0000 21.6747
#
#
#
# Elastic Compliance Matrix: (Units=1/GPa)
#
#
# Indices 1 2 3 4 5 6 
#
# 1 0.041029 -0.003884 -0.015052 0.000000 0.000000 0.000000
# 2 -0.003884 0.013468 -0.008748 0.000000 0.000000 0.000000
# 3 -0.015052 -0.008748 0.022101 0.000000 0.000000 0.000000
# 4 0.000000 0.000000 0.000000 0.114301 0.000000 0.000000
# 5 0.000000 0.000000 0.000000 0.000000 0.032267 0.000000
# 6 0.000000 0.000000 0.000000 0.000000 0.000000 0.046137
#
#
# Mechanical properties :
#
#
# Convention : Reuss Voigt Hill
#
# Bulk Modulus (GPa) = 47.10514 75.79328 61.44921
# Shear Modulus (GPa) = 15.07172 20.38935 17.73053
#
# Velocity S-wave (km/s) = 2.97569 3.46105 3.22751
# Velocity P-wave (km/s) = 6.28338 7.77823 7.07042
#
# Compressibility (1/GPa) = 0.02122910
#
# Stress axis : x y z
#
# Youngs Moduli (GPa) = 24.37320 74.24976 45.24640
#
# Poissons Ratio (x) = 0.28841 0.68104
# Poissons Ratio (y) = 0.09467 0.39583
# Poissons Ratio (z) = 0.36686 0.64956
#
# Static dielectric constant tensor:
#      x y z
#    x 3.166770 0.000000 0.000000 
#    y 0.000000 3.841220 0.000000 
#    z 0.000000 0.000000 2.940860 
# 
# 
# High freq. dielectric constant tensor:
#      x y z
#    x 1.658410 0.000000 0.000000 
#    y 0.000000 1.686260 0.000000 
#    z 0.000000 0.000000 1.617880 
# 
# From -- ./inp_files/6039.got.cif
#   From: 2010.03.12/outbox.cif.g09.slc.cpg/sg51_4_cif.got.tgz:6039.got - 2010.04.16 13:43:02.
