data_PCOD8212329
_publ_section_title
;
Structure prediction by ZEFSAII (Michael W. Deem and Ramdas Pophale) SiO2 
 PCOD8212329
Probable space group: P M M A
;
_chemical_formula_sum "Si O2"
_cell_formula_units_Z 56
_cell_length_a 14.659151
_cell_length_b 14.115847
_cell_length_c 12.125756
_cell_angle_alpha 90.000000
_cell_angle_beta 90.000000
_cell_angle_gamma 90.000000
_cell_volume 2509.138220
_symmetry_space_group_name_H-M "P M M A"
_symmetry_group_IT_number 51
_symmetry_cell_setting 'orthorhombic'
loop_
_space_group_symop_operation_xyz
x,y,z
1/2-x,-y,z
1/2+x,-y,-z
-x,y,-z
-x,-y,-z
1/2+x,y,-z
1/2-x,y,z
x,-y,z
loop_
_atom_site_type_symbol
_atom_site_label
_atom_site_fract_x
_atom_site_fract_y
_atom_site_fract_z
Si Si1 0.644890 0.608185 0.375632
Si Si2 0.854400 0.387232 0.947108
Si Si3 0.850958 0.105790 0.711709
Si Si4 0.649483 0.106980 0.283796
Si Si5 0.894993 0.784296 0.498625
Si Si6 0.498983 0.111684 0.878790
Si Si7 0.961699 0.612238 0.161126
O O1 0.750000 0.617829 0.337248
O O2 0.622645 0.500000 0.407945
O O3 0.624662 0.672100 0.483740
O O4 0.578424 0.646801 0.278542
O O5 0.750000 0.347850 0.925042
O O6 0.849389 0.500000 0.943968
O O7 0.932622 0.352708 0.858019
O O8 0.892520 0.352212 0.065626
O O9 0.750000 0.101648 0.759442
O O10 0.852767 0.179656 0.611988
O O11 0.909816 0.140644 0.814993
O O12 0.882335 0.000000 0.672280
O O13 0.750000 0.107328 0.232070
O O14 0.652182 0.163576 0.397034
O O15 0.583853 0.154900 0.192868
O O16 0.616410 0.000000 0.309809
O O17 0.000000 0.810005 0.500000
O O18 0.486059 0.000000 0.891443
O O19 0.500000 0.159067 0.000000
O O20 0.960647 0.500000 0.158785
#
# Coordination Sequence:
#
# PCOD8212329 Si02
#       7
#     8   8   8   8   8   8   8
#     4  10  21  37  57  81 112 151 199 254 310 372
#     4   8  12  20  41  74 108 140 178 231 297 366
#     4  10  20  35  59  93 131 167 202 244 298 361
#     4  10  20  35  59  92 127 162 203 249 296 354
#     4  12  23  37  60  86 119 159 203 257 311 360
#     4   9  18  33  55  88 128 167 205 242 290 358
#     4   8  14  25  44  73 105 140 186 236 291 357
#
# _framework density 22.31842
#
# number of rings (size 3 to 8) (size 9 to 14) (size 15 to 20)
#    0.000    2.429    1.429    3.000    0.000    4.286 
#    0.000    2.857    3.143    2.571    0.000    2.000 
#    0.000    1.714    0.000    6.000    0.000    0.286 
#
# Total GULP energy -694047.915908 kJ/mol
# GULP energy per Si atom -12393.712784 kJ/mol
# Density = 2.226762 g / cm^3
# Si number density = 22.318420 Si / 1000 Ang^3
#
#
#
# Elastic Constant Matrix: (Units=GPa)
#
#
# Indices 1 2 3 4 5 6 
#
# 1 170.2421 17.9450 57.5867 0.0000 0.0000 0.0000
# 2 17.9450 66.5094 44.0979 0.0000 0.0000 0.0000
# 3 57.5867 44.0979 148.6105 0.0000 0.0000 0.0000
# 4 0.0000 0.0000 0.0000 0.7909 0.0000 0.0000
# 5 0.0000 0.0000 0.0000 0.0000 -29.9663 0.0000
# 6 0.0000 0.0000 0.0000 0.0000 0.0000 11.6740
#
#
#
# Elastic Compliance Matrix: (Units=1/GPa)
#
#
# Indices 1 2 3 4 5 6 
#
# 1 0.006761 -0.000108 -0.002588 0.000000 0.000000 0.000000
# 2 -0.000108 0.018720 -0.005513 0.000000 0.000000 0.000000
# 3 -0.002588 -0.005513 0.009368 0.000000 0.000000 0.000000
# 4 0.000000 0.000000 0.000000 1.264370 0.000000 0.000000
# 5 0.000000 0.000000 0.000000 0.000000 -0.033371 0.000000
# 6 0.000000 0.000000 0.000000 0.000000 0.000000 0.085660
#
#
# Mechanical properties :
#
#
# Convention : Reuss Voigt Hill
#
# Bulk Modulus (GPa) = 54.25815 69.40235 61.83025
# Shear Modulus (GPa) = 3.63883 14.21522 8.92702
#
# Velocity S-wave (km/s) = 1.27826 2.52648 2.00213
# Velocity P-wave (km/s) = 5.15192 6.29879 5.75400
#
# Compressibility (1/GPa) = 0.01843041
#
# Stress axis : x y z
#
# Youngs Moduli (GPa) = 147.91349 53.41909 106.75167
#
# Poissons Ratio (x) = 0.00579 0.27623
# Poissons Ratio (y) = 0.01604 0.58850
# Poissons Ratio (z) = 0.38274 0.29449
#
# Static dielectric constant tensor:
#      x y z
#    x 4.383230 0.000000 0.000000 
#    y 0.000000 3.841520 0.000000 
#    z 0.000000 0.000000 3.920670 
# 
# 
# High freq. dielectric constant tensor:
#      x y z
#    x 1.892230 0.000000 0.000000 
#    y 0.000000 1.865910 0.000000 
#    z 0.000000 0.000000 1.853240 
# 
# From -- ./inp_files/16570.got.cif
#   From: 2010.03.12/outbox.cif.g09.slc.cpg/sg51_9_cif.got.tgz:16570.got - 2010.04.16 13:43:02.
