data_PCOD8212028
_publ_section_title
;
Structure prediction by ZEFSAII (Michael W. Deem and Ramdas Pophale) SiO2 
 PCOD8212028
Probable space group: P M M A
;
_chemical_formula_sum "Si O2"
_cell_formula_units_Z 48
_cell_length_a 14.188442
_cell_length_b 8.524048
_cell_length_c 21.187945
_cell_angle_alpha 90.000000
_cell_angle_beta 90.000000
_cell_angle_gamma 90.000000
_cell_volume 2562.532798
_symmetry_space_group_name_H-M "P M M A"
_symmetry_group_IT_number 51
_symmetry_cell_setting 'orthorhombic'
loop_
_space_group_symop_operation_xyz
x,y,z
1/2-x,-y,z
1/2+x,-y,-z
-x,y,-z
-x,-y,-z
1/2+x,y,-z
1/2-x,y,z
x,-y,z
loop_
_atom_site_type_symbol
_atom_site_label
_atom_site_fract_x
_atom_site_fract_y
_atom_site_fract_z
Si Si1 0.493029 0.685764 0.071902
Si Si2 0.995358 0.683076 0.729977
Si Si3 0.859097 0.182619 0.829470
Si Si4 0.142535 0.683600 0.500443
Si Si5 0.999717 0.818321 0.406272
Si Si6 0.645767 0.685334 0.169831
O O1 0.478041 0.500000 0.077421
O O2 0.403817 0.770163 0.103430
O O3 0.588396 0.739545 0.107809
O O4 0.500000 0.742020 0.000000
O O5 0.997451 0.500000 0.713104
O O6 0.904913 0.717645 0.773102
O O7 0.988977 0.783352 0.667015
O O8 0.089434 0.736576 0.767406
O O9 0.750000 0.226371 0.832241
O O10 0.875910 0.000000 0.816156
O O11 0.250000 0.739596 0.507386
O O12 0.135732 0.500000 0.486814
O O13 0.096200 0.773398 0.441643
O O14 0.087951 0.721927 0.565171
O O15 0.979030 0.000000 0.416873
O O16 0.750000 0.762914 0.169759
O O17 0.655160 0.500000 0.168980
#
# Coordination Sequence:
#
# PCOD8212028 Si02
#       6
#     8   8   8   8   8   8
#     4   9  18  32  52  78 105 136 174 215 260 312
#     4  10  20  35  55  77 103 137 178 220 263 314
#     4  10  21  36  53  75 105 140 177 219 268 317
#     4  10  21  38  59  81 107 141 181 221 259 307
#     4  11  22  36  56  81 111 142 173 217 270 321
#     4   8  15  29  49  73 100 130 167 212 257 301
#
# _framework density 18.731466999999999
#
# number of rings (size 3 to 8) (size 9 to 14) (size 15 to 20)
#    0.000    2.333    0.000    5.000    0.000    5.000 
#    0.000    3.333    0.000   12.000    0.000    0.000 
#    0.000    0.000    0.000    0.000    0.000    0.000 
#
# Total GULP energy -595265.119851 kJ/mol
# GULP energy per Si atom -12401.356664 kJ/mol
# Density = 1.868883 g / cm^3
# Si number density = 18.731467 Si / 1000 Ang^3
#
#
#
# Elastic Constant Matrix: (Units=GPa)
#
#
# Indices 1 2 3 4 5 6 
#
# 1 153.5391 22.8213 53.6818 0.0000 0.0000 0.0000
# 2 22.8213 46.6575 14.6308 0.0000 0.0000 0.0000
# 3 53.6818 14.6308 131.4475 0.0000 0.0000 0.0000
# 4 0.0000 0.0000 0.0000 22.4420 0.0000 0.0000
# 5 0.0000 0.0000 0.0000 0.0000 12.5122 0.0000
# 6 0.0000 0.0000 0.0000 0.0000 0.0000 16.8530
#
#
#
# Elastic Compliance Matrix: (Units=1/GPa)
#
#
# Indices 1 2 3 4 5 6 
#
# 1 0.007980 -0.002985 -0.002927 0.000000 0.000000 0.000000
# 2 -0.002985 0.023325 -0.001377 0.000000 0.000000 0.000000
# 3 -0.002927 -0.001377 0.008956 0.000000 0.000000 0.000000
# 4 0.000000 0.000000 0.000000 0.044559 0.000000 0.000000
# 5 0.000000 0.000000 0.000000 0.000000 0.079922 0.000000
# 6 0.000000 0.000000 0.000000 0.000000 0.000000 0.059337
#
#
# Mechanical properties :
#
#
# Convention : Reuss Voigt Hill
#
# Bulk Modulus (GPa) = 38.93661 57.10132 48.01897
# Shear Modulus (GPa) = 20.22506 26.39544 23.31025
#
# Velocity S-wave (km/s) = 3.28950 3.75794 3.53149
# Velocity P-wave (km/s) = 5.93798 7.02708 6.50536
#
# Compressibility (1/GPa) = 0.02568277
#
# Stress axis : x y z
#
# Youngs Moduli (GPa) = 125.31351 42.87279 111.65605
#
# Poissons Ratio (x) = 0.12800 0.32678
# Poissons Ratio (y) = 0.37412 0.15374
# Poissons Ratio (z) = 0.36675 0.05903
#
# Static dielectric constant tensor:
#      x y z
#    x 3.677120 0.000000 0.000000 
#    y 0.000000 3.329400 0.000000 
#    z 0.000000 0.000000 3.423690 
# 
# 
# High freq. dielectric constant tensor:
#      x y z
#    x 1.729790 0.000000 0.000000 
#    y 0.000000 1.718880 0.000000 
#    z 0.000000 0.000000 1.728850 
# 
# From -- ./inp_files/33202.got.cif
#   From: 2010.03.12/outbox.cif.g09.slc.cpg/sg51_17_cif.got.tgz:33202.got - 2010.04.16 13:43:02.
