data_PCOD8212293
_publ_section_title
;
Structure prediction by ZEFSAII (Michael W. Deem and Ramdas Pophale) SiO2 
 PCOD8212293
Probable space group: P M M A
;
_chemical_formula_sum "Si O2"
_cell_formula_units_Z 48
_cell_length_a 17.760577
_cell_length_b 8.796784
_cell_length_c 16.117566
_cell_angle_alpha 90.000000
_cell_angle_beta 90.000000
_cell_angle_gamma 90.000000
_cell_volume 2518.143390
_symmetry_space_group_name_H-M "P M M A"
_symmetry_group_IT_number 51
_symmetry_cell_setting 'orthorhombic'
loop_
_space_group_symop_operation_xyz
x,y,z
1/2-x,-y,z
1/2+x,-y,-z
-x,y,-z
-x,-y,-z
1/2+x,y,-z
1/2-x,y,z
x,-y,z
loop_
_atom_site_type_symbol
_atom_site_label
_atom_site_fract_x
_atom_site_fract_y
_atom_site_fract_z
Si Si1 0.892504 0.180448 0.104052
Si Si2 0.750000 0.674218 0.383790
Si Si3 0.385263 0.177263 0.532674
Si Si4 0.534318 0.824414 0.629436
Si Si5 0.162989 0.680139 0.062818
Si Si6 0.750000 0.820809 0.207293
Si Si7 0.549613 0.181292 0.813823
O O1 0.825129 0.241773 0.162684
O O2 0.972393 0.232625 0.141336
O O3 0.888940 0.000000 0.093839
O O4 0.882826 0.255091 0.014755
O O5 0.750000 0.500000 0.357010
O O6 0.819908 0.711842 0.441185
O O7 0.750000 0.775098 0.302208
O O8 0.411409 0.239579 0.442638
O O9 0.448740 0.199291 0.602162
O O10 0.360895 0.000000 0.529030
O O11 0.547906 0.751778 0.719904
O O12 0.552776 0.000000 0.636986
O O13 0.250000 0.734995 0.061329
O O14 0.158109 0.500000 0.062703
O O15 0.122681 0.745122 0.144367
O O16 0.750000 0.000000 0.203047
O O17 0.556491 0.000000 0.816041
#
# Coordination Sequence:
#
# PCOD8212293 Si02
#       7
#     8   4   8   8   8   4   8
#     4  10  20  36  61  88 111 139 180 231 286 333
#     4  12  24  34  48  81 120 151 182 219 268 327
#     4   9  17  35  61  82 108 144 183 228 278 329
#     4   8  16  34  61  87 106 135 183 236 281 322
#     4  11  24  40  55  75 111 156 193 225 270 328
#     4  10  20  36  60  85 112 145 182 229 282 333
#     4  10  20  35  58  88 113 137 182 236 280 330
#
# _framework density 19.061661999999998
#
# number of rings (size 3 to 8) (size 9 to 14) (size 15 to 20)
#    0.000    2.167    0.833    3.750    0.000    7.000 
#    1.500    5.000    0.000    0.000    0.000    0.000 
#    0.000    0.000    0.000    0.000    0.000    0.000 
#
# Total GULP energy -595142.083802 kJ/mol
# GULP energy per Si atom -12398.793413 kJ/mol
# Density = 1.901828 g / cm^3
# Si number density = 19.061662 Si / 1000 Ang^3
#
#
#
# Elastic Constant Matrix: (Units=GPa)
#
#
# Indices 1 2 3 4 5 6 
#
# 1 69.1258 10.2787 47.3379 0.0000 0.0000 0.0000
# 2 10.2787 15.4656 13.7900 0.0000 0.0000 0.0000
# 3 47.3379 13.7900 146.1796 0.0000 0.0000 0.0000
# 4 0.0000 0.0000 0.0000 0.9215 0.0000 0.0000
# 5 0.0000 0.0000 0.0000 0.0000 30.8647 0.0000
# 6 0.0000 0.0000 0.0000 0.0000 0.0000 15.1143
#
#
#
# Elastic Compliance Matrix: (Units=1/GPa)
#
#
# Indices 1 2 3 4 5 6 
#
# 1 0.019451 -0.007982 -0.005546 0.000000 0.000000 0.000000
# 2 -0.007982 0.073874 -0.004384 0.000000 0.000000 0.000000
# 3 -0.005546 -0.004384 0.009050 0.000000 0.000000 0.000000
# 4 0.000000 0.000000 0.000000 1.085217 0.000000 0.000000
# 5 0.000000 0.000000 0.000000 0.000000 0.032399 0.000000
# 6 0.000000 0.000000 0.000000 0.000000 0.000000 0.066163
#
#
# Mechanical properties :
#
#
# Convention : Reuss Voigt Hill
#
# Bulk Modulus (GPa) = 15.02615 41.50936 28.26775
# Shear Modulus (GPa) = 3.71979 20.00439 11.86209
#
# Velocity S-wave (km/s) = 1.39846 3.24305 2.49730
# Velocity P-wave (km/s) = 3.24154 5.98722 4.81427
#
# Compressibility (1/GPa) = 0.06655065
#
# Stress axis : x y z
#
# Youngs Moduli (GPa) = 51.41063 13.53661 110.49206
#
# Poissons Ratio (x) = 0.10806 0.61278
# Poissons Ratio (y) = 0.41038 0.48440
# Poissons Ratio (z) = 0.28512 0.05934
#
# Static dielectric constant tensor:
#      x y z
#    x 3.622320 0.000000 0.000000 
#    y 0.000000 3.127310 0.000000 
#    z 0.000000 0.000000 3.882590 
# 
# 
# High freq. dielectric constant tensor:
#      x y z
#    x 1.745930 0.000000 0.000000 
#    y 0.000000 1.707880 0.000000 
#    z 0.000000 0.000000 1.755010 
# 
# From -- ./inp_files/24836.got.cif
#   From: 2010.03.12/outbox.cif.g09.slc.cpg/sg51_13_cif.got.tgz:24836.got - 2010.04.16 13:43:02.
