data_PCOD8212055
_publ_section_title
;
Structure prediction by ZEFSAII (Michael W. Deem and Ramdas Pophale) SiO2 
 PCOD8212055
Probable space group: P M M A
;
_chemical_formula_sum "Si O2"
_cell_formula_units_Z 64
_cell_length_a 9.217252
_cell_length_b 18.914054
_cell_length_c 19.569113
_cell_angle_alpha 90.000000
_cell_angle_beta 90.000000
_cell_angle_gamma 90.000000
_cell_volume 3411.593097
_symmetry_space_group_name_H-M "P M M A"
_symmetry_group_IT_number 51
_symmetry_cell_setting 'orthorhombic'
loop_
_space_group_symop_operation_xyz
x,y,z
1/2-x,-y,z
1/2+x,-y,-z
-x,y,-z
-x,-y,-z
1/2+x,y,-z
1/2-x,y,z
x,-y,z
loop_
_atom_site_type_symbol
_atom_site_label
_atom_site_fract_x
_atom_site_fract_y
_atom_site_fract_z
Si Si1 0.919680 0.081221 0.069794
Si Si2 0.412239 0.078106 0.439627
Si Si3 0.583572 0.808687 0.670594
Si Si4 0.078399 0.701395 0.572314
Si Si5 0.920285 0.184847 0.192660
Si Si6 0.920517 0.346876 0.196254
Si Si7 0.420322 0.579170 0.668983
Si Si8 0.912185 0.583485 0.062982
O O1 0.750000 0.090198 0.055988
O O2 0.969801 0.134360 0.130178
O O3 0.957152 0.000000 0.090411
O O4 0.000000 0.102822 0.000000
O O5 0.500000 0.117603 0.500000
O O6 0.250000 0.073906 0.466929
O O7 0.422142 0.118820 0.369733
O O8 0.477544 0.000000 0.426828
O O9 0.750000 0.781617 0.679062
O O10 0.487309 0.751075 0.631144
O O11 0.514044 0.833550 0.741334
O O12 0.250000 0.717051 0.564415
O O13 0.049547 0.621319 0.598503
O O14 0.000000 0.712974 0.500000
O O15 0.750000 0.174380 0.208112
O O16 0.959136 0.266393 0.178336
O O17 0.750000 0.357572 0.201930
O O18 0.989030 0.376460 0.267150
O O19 0.985005 0.392869 0.134058
O O20 0.250000 0.572378 0.680829
O O21 0.488587 0.500000 0.664493
O O22 0.750000 0.614213 0.057890
O O23 0.912452 0.500000 0.059465
O O24 0.000000 0.616509 0.000000
#
# Coordination Sequence:
#
# PCOD8212055 Si02
#       8
#     8   8   8   8   8   8   8   8
#     4   9  19  36  57  81 112 149 189 231 275 326
#     4   9  19  35  53  75 103 135 173 215 259 311
#     4  11  22  36  55  80 110 144 180 222 272 327
#     4  11  22  37  57  81 109 142 180 225 276 329
#     4  10  20  35  55  79 107 140 180 223 269 318
#     4   9  16  30  51  75 100 133 174 218 261 312
#     4   9  17  31  54  80 102 133 180 226 270 323
#     4   9  17  29  47  71  99 130 165 205 251 306
#
# _framework density 18.759564000000001
#
# number of rings (size 3 to 8) (size 9 to 14) (size 15 to 20)
#    0.000    2.375    1.250    1.500    0.000    5.250 
#    0.000    0.625    0.000    1.125    0.000    0.000 
#    0.000    0.000    0.000    0.000    0.000    0.000 
#
# Total GULP energy -793219.740132 kJ/mol
# GULP energy per Si atom -12394.058440 kJ/mol
# Density = 1.871687 g / cm^3
# Si number density = 18.759564 Si / 1000 Ang^3
#
#
#
# Elastic Constant Matrix: (Units=GPa)
#
#
# Indices 1 2 3 4 5 6 
#
# 1 69.1679 34.1471 55.6692 0.0000 0.0000 0.0000
# 2 34.1471 84.6390 48.9515 0.0000 0.0000 0.0000
# 3 55.6692 48.9515 139.2114 0.0000 0.0000 0.0000
# 4 0.0000 0.0000 0.0000 29.7142 0.0000 0.0000
# 5 0.0000 0.0000 0.0000 0.0000 33.8327 0.0000
# 6 0.0000 0.0000 0.0000 0.0000 0.0000 14.0737
#
#
#
# Elastic Compliance Matrix: (Units=1/GPa)
#
#
# Indices 1 2 3 4 5 6 
#
# 1 0.022853 -0.004939 -0.007402 0.000000 0.000000 0.000000
# 2 -0.004939 0.015898 -0.003615 0.000000 0.000000 0.000000
# 3 -0.007402 -0.003615 0.011415 0.000000 0.000000 0.000000
# 4 0.000000 0.000000 0.000000 0.033654 0.000000 0.000000
# 5 0.000000 0.000000 0.000000 0.000000 0.029557 0.000000
# 6 0.000000 0.000000 0.000000 0.000000 0.000000 0.071055
#
#
# Mechanical properties :
#
#
# Convention : Reuss Voigt Hill
#
# Bulk Modulus (GPa) = 54.78402 63.39488 59.08945
# Shear Modulus (GPa) = 22.47901 25.80749 24.14325
#
# Velocity S-wave (km/s) = 3.46536 3.71306 3.59135
# Velocity P-wave (km/s) = 6.72891 7.22836 6.98310
#
# Compressibility (1/GPa) = 0.01825350
#
# Stress axis : x y z
#
# Youngs Moduli (GPa) = 43.75717 62.89903 87.60669
#
# Poissons Ratio (x) = 0.31066 0.64847
# Poissons Ratio (y) = 0.21612 0.31673
# Poissons Ratio (z) = 0.32390 0.22741
#
# Static dielectric constant tensor:
#      x y z
#    x 3.334540 0.000000 0.000000 
#    y 0.000000 3.595210 0.000000 
#    z 0.000000 0.000000 3.619540 
# 
# 
# High freq. dielectric constant tensor:
#      x y z
#    x 1.700780 0.000000 0.000000 
#    y 0.000000 1.730980 0.000000 
#    z 0.000000 0.000000 1.734850 
# 
# From -- ./inp_files/28448.got.cif
#   From: 2010.03.12/outbox.cif.g09.slc.cpg/sg51_15_cif.got.tgz:28448.got - 2010.04.16 13:43:02.
