data_PCOD8212838
_publ_section_title
;
Structure prediction by ZEFSAII (Michael W. Deem and Ramdas Pophale) SiO2 
 PCOD8212838
Probable space group: P M M A
;
_chemical_formula_sum "Si O2"
_cell_formula_units_Z 48
_cell_length_a 9.996121
_cell_length_b 9.102155
_cell_length_c 28.918101
_cell_angle_alpha 90.000000
_cell_angle_beta 90.000000
_cell_angle_gamma 90.000000
_cell_volume 2631.149357
_symmetry_space_group_name_H-M "P M M A"
_symmetry_group_IT_number 51
_symmetry_cell_setting 'orthorhombic'
loop_
_space_group_symop_operation_xyz
x,y,z
1/2-x,-y,z
1/2+x,-y,-z
-x,y,-z
-x,-y,-z
1/2+x,y,-z
1/2-x,y,z
x,-y,z
loop_
_atom_site_type_symbol
_atom_site_label
_atom_site_fract_x
_atom_site_fract_y
_atom_site_fract_z
Si Si1 0.750000 0.827224 0.945857
Si Si2 0.596986 0.830528 0.540969
Si Si3 0.596013 0.667078 0.199924
Si Si4 0.750000 0.331518 0.042405
Si Si5 0.989734 0.669416 0.898892
Si Si6 0.903587 0.327510 0.635544
Si Si7 0.904938 0.827806 0.292162
O O1 0.621795 0.775682 0.917975
O O2 0.750000 0.000000 0.948819
O O3 0.750000 0.767627 0.997491
O O4 0.500000 0.778615 0.500000
O O5 0.750000 0.806388 0.524997
O O6 0.561590 0.732418 0.584971
O O7 0.570566 0.000000 0.553997
O O8 0.750000 0.689302 0.186045
O O9 0.570424 0.500000 0.216170
O O10 0.508395 0.705207 0.155160
O O11 0.553198 0.774622 0.241150
O O12 0.750000 0.500000 0.026064
O O13 0.623011 0.294369 0.073292
O O14 0.947831 0.500000 0.905823
O O15 0.750000 0.289658 0.648517
O O16 0.929482 0.500000 0.635999
O O17 0.002144 0.252470 0.671384
O O18 0.750000 0.787673 0.302065
O O19 0.930407 0.000000 0.295612
#
# Coordination Sequence:
#
# PCOD8212838 Si02
#       7
#     4   8   8   4   8   8   8
#     4  12  26  38  50  80 120 150 180 220 269 322
#     4   9  18  33  53  77 108 146 185 226 274 328
#     4   9  17  34  60  86 108 134 177 228 275 324
#     4  10  20  38  64  86 104 138 188 228 269 326
#     4  10  20  38  62  84 107 141 182 226 273 324
#     4  10  21  37  56  80 111 148 190 232 276 323
#     4  10  21  36  56  83 112 143 180 223 274 332
#
# _framework density 18.242978000000001
#
# number of rings (size 3 to 8) (size 9 to 14) (size 15 to 20)
#    0.000    2.167    0.833    2.250    0.000    6.333 
#    1.500    1.667    0.000    0.000    0.000    0.000 
#    0.000    0.000    0.000    0.000    0.000    0.000 
#
# Total GULP energy -595332.179188 kJ/mol
# GULP energy per Si atom -12402.753733 kJ/mol
# Density = 1.820146 g / cm^3
# Si number density = 18.242978 Si / 1000 Ang^3
#
#
#
# Elastic Constant Matrix: (Units=GPa)
#
#
# Indices 1 2 3 4 5 6 
#
# 1 108.4045 71.1362 82.5322 0.0000 0.0000 0.0000
# 2 71.1362 111.1077 82.6179 0.0000 0.0000 0.0000
# 3 82.5322 82.6179 145.9355 0.0000 0.0000 0.0000
# 4 0.0000 0.0000 0.0000 65.6079 0.0000 0.0000
# 5 0.0000 0.0000 0.0000 0.0000 52.2651 0.0000
# 6 0.0000 0.0000 0.0000 0.0000 0.0000 23.3778
#
#
#
# Elastic Compliance Matrix: (Units=1/GPa)
#
#
# Indices 1 2 3 4 5 6 
#
# 1 0.019060 -0.007232 -0.006685 0.000000 0.000000 0.000000
# 2 -0.007232 0.018288 -0.006263 0.000000 0.000000 0.000000
# 3 -0.006685 -0.006263 0.014178 0.000000 0.000000 0.000000
# 4 0.000000 0.000000 0.000000 0.015242 0.000000 0.000000
# 5 0.000000 0.000000 0.000000 0.000000 0.019133 0.000000
# 6 0.000000 0.000000 0.000000 0.000000 0.000000 0.042776
#
#
# Mechanical properties :
#
#
# Convention : Reuss Voigt Hill
#
# Bulk Modulus (GPa) = 89.55736 93.11335 91.33535
# Shear Modulus (GPa) = 28.94194 36.86094 32.90144
#
# Velocity S-wave (km/s) = 3.98737 4.49994 4.25139
# Velocity P-wave (km/s) = 8.39028 8.84029 8.61822
#
# Compressibility (1/GPa) = 0.01116603
#
# Stress axis : x y z
#
# Youngs Moduli (GPa) = 52.46580 54.68097 70.52951
#
# Poissons Ratio (x) = 0.39548 0.47147
# Poissons Ratio (y) = 0.37946 0.44173
# Poissons Ratio (z) = 0.35072 0.34247
#
# Static dielectric constant tensor:
#      x y z
#    x 3.377180 0.000000 0.000000 
#    y 0.000000 3.359510 0.000000 
#    z 0.000000 0.000000 3.456600 
# 
# 
# High freq. dielectric constant tensor:
#      x y z
#    x 1.705830 0.000000 0.000000 
#    y 0.000000 1.705970 0.000000 
#    z 0.000000 0.000000 1.714770 
# 
# From -- ./inp_files/37165.got.cif
#   From: 2010.03.12/outbox.cif.g09.slc.cpg/sg51_19_cif.got.tgz:37165.got - 2010.04.16 13:43:02.
