data_PCOD8212209
_publ_section_title
;
Structure prediction by ZEFSAII (Michael W. Deem and Ramdas Pophale) SiO2 
 PCOD8212209
Probable space group: P M M A
;
_chemical_formula_sum "Si O2"
_cell_formula_units_Z 64
_cell_length_a 14.758646
_cell_length_b 9.079067
_cell_length_c 24.319709
_cell_angle_alpha 90.000000
_cell_angle_beta 90.000000
_cell_angle_gamma 90.000000
_cell_volume 3258.712984
_symmetry_space_group_name_H-M "P M M A"
_symmetry_group_IT_number 51
_symmetry_cell_setting 'orthorhombic'
loop_
_space_group_symop_operation_xyz
x,y,z
1/2-x,-y,z
1/2+x,-y,-z
-x,y,-z
-x,-y,-z
1/2+x,y,-z
1/2-x,y,z
x,-y,z
loop_
_atom_site_type_symbol
_atom_site_label
_atom_site_fract_x
_atom_site_fract_y
_atom_site_fract_z
Si Si1 0.541710 0.827634 0.250777
Si Si2 0.009008 0.327810 0.939174
Si Si3 0.853677 0.170989 0.469618
Si Si4 0.646526 0.326245 0.582352
Si Si5 0.145505 0.674291 0.846896
Si Si6 0.017989 0.170726 0.628130
Si Si7 0.151186 0.839044 0.104694
Si Si8 0.845666 0.835629 0.766197
O O1 0.608365 0.745337 0.209230
O O2 0.571230 0.804292 0.314098
O O3 0.439941 0.756290 0.249019
O O4 0.540575 0.000000 0.233933
O O5 0.023195 0.500000 0.945220
O O6 0.914756 0.293249 0.910231
O O7 0.090960 0.266139 0.900796
O O8 0.000000 0.255441 0.000000
O O9 0.750000 0.199615 0.452804
O O10 0.881152 0.262987 0.522993
O O11 0.915141 0.227389 0.419398
O O12 0.871294 0.000000 0.482659
O O13 0.750000 0.281185 0.597274
O O14 0.635094 0.500000 0.581052
O O15 0.577476 0.258271 0.626914
O O16 0.250000 0.719911 0.854432
O O17 0.133700 0.500000 0.841097
O O18 0.994203 0.000000 0.620614
O O19 0.250000 0.806042 0.078581
O O20 0.159894 0.844751 0.169105
O O21 0.116088 0.000000 0.083841
O O22 0.750000 0.759623 0.745445
O O23 0.849052 0.000000 0.740858
#
# Coordination Sequence:
#
# PCOD8212209 Si02
#       8
#     8   8   8   8   8   8   8   8
#     4  10  20  35  57  83 109 141 183 227 268 319
#     4  10  21  36  56  82 110 142 181 226 272 320
#     4   9  18  34  54  75 105 143 181 226 279 330
#     4  10  21  36  54  78 109 145 184 226 272 324
#     4  10  22  40  58  77 108 149 187 224 271 324
#     4  10  21  34  53  83 112 140 179 226 275 326
#     4   9  17  31  53  79 107 137 169 211 264 319
#     4   8  14  27  49  75 102 132 165 206 260 316
#
# _framework density 19.639655000000001
#
# number of rings (size 3 to 8) (size 9 to 14) (size 15 to 20)
#    0.000    2.500    1.250    1.500    0.000    5.500 
#    0.000    3.750    0.000    1.875    0.000    0.000 
#    0.000    0.000    0.000    0.000    0.000    0.000 
#
# Total GULP energy -793014.186477 kJ/mol
# GULP energy per Si atom -12390.846664 kJ/mol
# Density = 1.959495 g / cm^3
# Si number density = 19.639655 Si / 1000 Ang^3
#
#
#
# Elastic Constant Matrix: (Units=GPa)
#
#
# Indices 1 2 3 4 5 6 
#
# 1 117.8263 26.4161 51.8912 0.0000 0.0000 0.0000
# 2 26.4161 32.5263 28.3810 0.0000 0.0000 0.0000
# 3 51.8912 28.3810 100.4934 0.0000 0.0000 0.0000
# 4 0.0000 0.0000 0.0000 20.8429 0.0000 0.0000
# 5 0.0000 0.0000 0.0000 0.0000 8.9807 0.0000
# 6 0.0000 0.0000 0.0000 0.0000 0.0000 56.1125
#
#
#
# Elastic Compliance Matrix: (Units=1/GPa)
#
#
# Indices 1 2 3 4 5 6 
#
# 1 0.011711 -0.005619 -0.004460 0.000000 0.000000 0.000000
# 2 -0.005619 0.043494 -0.009382 0.000000 0.000000 0.000000
# 3 -0.004460 -0.009382 0.014904 0.000000 0.000000 0.000000
# 4 0.000000 0.000000 0.000000 0.047978 0.000000 0.000000
# 5 0.000000 0.000000 0.000000 0.000000 0.111350 0.000000
# 6 0.000000 0.000000 0.000000 0.000000 0.000000 0.017821
#
#
# Mechanical properties :
#
#
# Convention : Reuss Voigt Hill
#
# Bulk Modulus (GPa) = 32.06552 51.58031 41.82291
# Shear Modulus (GPa) = 16.85902 26.79773 21.82838
#
# Velocity S-wave (km/s) = 2.93305 3.69788 3.33745
# Velocity P-wave (km/s) = 5.27568 6.67479 6.01604
#
# Compressibility (1/GPa) = 0.03118615
#
# Stress axis : x y z
#
# Youngs Moduli (GPa) = 85.38820 22.99145 67.09783
#
# Poissons Ratio (x) = 0.12920 0.29927
# Poissons Ratio (y) = 0.47983 0.62950
# Poissons Ratio (z) = 0.38085 0.21570
#
# Static dielectric constant tensor:
#      x y z
#    x 3.600920 0.000000 0.000000 
#    y 0.000000 3.300270 0.000000 
#    z 0.000000 0.000000 3.631340 
# 
# 
# High freq. dielectric constant tensor:
#      x y z
#    x 1.774280 0.000000 0.000000 
#    y 0.000000 1.731210 0.000000 
#    z 0.000000 0.000000 1.761540 
# 
# From -- ./inp_files/35655.got.cif
#   From: 2010.03.12/outbox.cif.g09.slc.cpg/sg51_18_cif.got.tgz:35655.got - 2010.04.16 13:43:02.
