data_PCOD8212942
_publ_section_title
;
Structure prediction by ZEFSAII (Michael W. Deem and Ramdas Pophale) SiO2 
 PCOD8212942
Probable space group: P M M A
;
_chemical_formula_sum "Si O2"
_cell_formula_units_Z 40
_cell_length_a 9.603950
_cell_length_b 25.559801
_cell_length_c 9.326585
_cell_angle_alpha 90.000000
_cell_angle_beta 90.000000
_cell_angle_gamma 90.000000
_cell_volume 2289.443927
_symmetry_space_group_name_H-M "P M M A"
_symmetry_group_IT_number 51
_symmetry_cell_setting 'orthorhombic'
loop_
_space_group_symop_operation_xyz
x,y,z
1/2-x,-y,z
1/2+x,-y,-z
-x,y,-z
-x,-y,-z
1/2+x,y,-z
1/2-x,y,z
x,-y,z
loop_
_atom_site_type_symbol
_atom_site_label
_atom_site_fract_x
_atom_site_fract_y
_atom_site_fract_z
Si Si1 0.411493 0.500000 0.141922
Si Si2 0.089201 0.412250 0.364309
Si Si3 0.587458 0.204349 0.856484
Si Si4 0.093332 0.000000 0.363628
Si Si5 0.589702 0.707185 0.635511
Si Si6 0.588254 0.886542 0.644817
O O1 0.250000 0.500000 0.099981
O O2 0.451293 0.551771 0.230588
O O3 0.500000 0.500000 0.000000
O O4 0.250000 0.419766 0.406199
O O5 0.054949 0.352496 0.322085
O O6 0.000000 0.430479 0.500000
O O7 0.750000 0.200368 0.894996
O O8 0.552742 0.257537 0.771857
O O9 0.537969 0.155277 0.761137
O O10 0.500000 0.204464 0.000000
O O11 0.065855 0.944672 0.282404
O O12 0.000000 0.000000 0.500000
O O13 0.250000 0.000000 0.421148
O O14 0.500000 0.725836 0.500000
O O15 0.750000 0.714153 0.591036
O O16 0.500000 0.879899 0.500000
O O17 0.750000 0.876913 0.605601
#
# Coordination Sequence:
#
# PCOD8212942 Si02
#       6
#     4   8   8   4   8   8
#     4  10  21  34  48  70 100 130 159 192 230 274
#     4   9  18  33  52  73  96 122 155 195 235 276
#     4  10  21  34  47  67  96 127 157 190 230 276
#     4   8  14  26  45  68  92 116 146 188 233 272
#     4   9  18  33  52  73  95 120 154 195 236 277
#     4   9  17  30  49  71  93 119 153 192 232 275
#
# _framework density 17.471489999999999
#
# number of rings (size 3 to 8) (size 9 to 14) (size 15 to 20)
#    0.000    2.800    0.000    0.900    0.000    3.200 
#    0.000    0.500    0.000    0.000    0.000    0.000 
#    0.000    0.000    0.000    0.000    0.000    0.000 
#
# Total GULP energy -495824.214161 kJ/mol
# GULP energy per Si atom -12395.605354 kJ/mol
# Density = 1.743172 g / cm^3
# Si number density = 17.471490 Si / 1000 Ang^3
#
#
#
# Elastic Constant Matrix: (Units=GPa)
#
#
# Indices 1 2 3 4 5 6 
#
# 1 63.2635 50.7213 69.4328 0.0000 0.0000 0.0000
# 2 50.7213 129.0908 82.7905 0.0000 0.0000 0.0000
# 3 69.4328 82.7905 138.8205 0.0000 0.0000 0.0000
# 4 0.0000 0.0000 0.0000 12.2351 0.0000 0.0000
# 5 0.0000 0.0000 0.0000 0.0000 37.4089 0.0000
# 6 0.0000 0.0000 0.0000 0.0000 0.0000 18.9630
#
#
#
# Elastic Compliance Matrix: (Units=1/GPa)
#
#
# Indices 1 2 3 4 5 6 
#
# 1 0.036433 -0.004256 -0.015684 0.000000 0.000000 0.000000
# 2 -0.004256 0.013042 -0.005649 0.000000 0.000000 0.000000
# 3 -0.015684 -0.005649 0.018417 0.000000 0.000000 0.000000
# 4 0.000000 0.000000 0.000000 0.081732 0.000000 0.000000
# 5 0.000000 0.000000 0.000000 0.000000 0.026732 0.000000
# 6 0.000000 0.000000 0.000000 0.000000 0.000000 0.052734
#
#
# Mechanical properties :
#
#
# Convention : Reuss Voigt Hill
#
# Bulk Modulus (GPa) = 59.83338 81.89600 70.86469
# Shear Modulus (GPa) = 17.49234 22.27007 19.88121
#
# Velocity S-wave (km/s) = 3.16760 3.57410 3.37697
# Velocity P-wave (km/s) = 6.90644 8.00051 7.47352
#
# Compressibility (1/GPa) = 0.01671308
#
# Stress axis : x y z
#
# Youngs Moduli (GPa) = 27.44786 76.67660 54.29717
#
# Poissons Ratio (x) = 0.32635 0.85160
# Poissons Ratio (y) = 0.11682 0.30673
# Poissons Ratio (z) = 0.43049 0.43316
#
# Static dielectric constant tensor:
#      x y z
#    x 3.282840 0.000000 0.000000 
#    y 0.000000 3.871180 0.000000 
#    z 0.000000 0.000000 5.009090 
# 
# 
# High freq. dielectric constant tensor:
#      x y z
#    x 1.675450 0.000000 0.000000 
#    y 0.000000 1.701100 0.000000 
#    z 0.000000 0.000000 1.643550 
# 
# From -- ./inp_files/5613.got.cif
#   From: 2010.03.12/outbox.cif.g09.slc.cpg/sg51_3_cif.got.tgz:5613.got - 2010.04.16 13:43:02.
