data_PCOD8212745
_publ_section_title
;
Structure prediction by ZEFSAII (Michael W. Deem and Ramdas Pophale) SiO2 
 PCOD8212745
Probable space group: P M M A
;
_chemical_formula_sum "Si O2"
_cell_formula_units_Z 64
_cell_length_a 15.036119
_cell_length_b 8.963485
_cell_length_c 23.664753
_cell_angle_alpha 90.000000
_cell_angle_beta 90.000000
_cell_angle_gamma 90.000000
_cell_volume 3189.441392
_symmetry_space_group_name_H-M "P M M A"
_symmetry_group_IT_number 51
_symmetry_cell_setting 'orthorhombic'
loop_
_space_group_symop_operation_xyz
x,y,z
1/2-x,-y,z
1/2+x,-y,-z
-x,y,-z
-x,-y,-z
1/2+x,y,-z
1/2-x,y,z
x,-y,z
loop_
_atom_site_type_symbol
_atom_site_label
_atom_site_fract_x
_atom_site_fract_y
_atom_site_fract_z
Si Si1 0.848713 0.668777 0.758993
Si Si2 0.648837 0.668325 0.002941
Si Si3 0.511518 0.323198 0.413220
Si Si4 0.090823 0.329706 0.119636
Si Si5 0.488208 0.824384 0.706587
Si Si6 0.851661 0.676215 0.508820
Si Si7 0.650460 0.669683 0.212156
Si Si8 0.914181 0.825993 0.108562
O O1 0.750000 0.701686 0.735907
O O2 0.877963 0.500000 0.743459
O O3 0.844897 0.687951 0.826853
O O4 0.914574 0.782476 0.729030
O O5 0.750000 0.683012 0.021934
O O6 0.613889 0.500000 0.011145
O O7 0.592023 0.775025 0.043326
O O8 0.641156 0.716960 0.937679
O O9 0.512112 0.500000 0.404221
O O10 0.527441 0.241473 0.354880
O O11 0.595013 0.274631 0.452495
O O12 0.415272 0.273503 0.438988
O O13 0.055416 0.500000 0.115058
O O14 0.011583 0.214643 0.130835
O O15 0.413146 0.763460 0.747993
O O16 0.479253 0.000000 0.703984
O O17 0.750000 0.744199 0.511743
O O18 0.843045 0.500000 0.509652
O O19 0.750000 0.674961 0.236987
O O20 0.615242 0.500000 0.208948
O O21 0.653913 0.738875 0.149125
O O22 0.895427 0.000000 0.113055
#
# Coordination Sequence:
#
# PCOD8212745 Si02
#       8
#     8   8   8   8   8   8   8   8
#     4  10  21  39  64  89 114 153 205 255 301 353
#     4  10  21  37  57  82 110 144 191 243 293 352
#     4   9  18  34  58  87 119 157 203 250 290 339
#     4  10  20  37  61  84 110 146 194 246 295 353
#     4  12  25  40  59  88 128 166 200 245 300 359
#     4   8  15  31  58  90 120 153 199 252 296 332
#     4  11  24  43  66  87 110 150 204 257 305 357
#     4  12  24  37  56  84 117 151 187 234 301 371
#
# _framework density 20.066210000000002
#
# number of rings (size 3 to 8) (size 9 to 14) (size 15 to 20)
#    0.000    1.750    1.250    4.500    0.000    7.500 
#    0.000    3.750    0.000    3.000    0.000    0.000 
#    0.000    0.000    0.000    0.000    0.000    0.000 
#
# Total GULP energy -793493.468603 kJ/mol
# GULP energy per Si atom -12398.335447 kJ/mol
# Density = 2.002054 g / cm^3
# Si number density = 20.066210 Si / 1000 Ang^3
#
#
#
# Elastic Constant Matrix: (Units=GPa)
#
#
# Indices 1 2 3 4 5 6 
#
# 1 96.7591 21.5587 14.6674 0.0000 0.0000 0.0000
# 2 21.5587 88.3816 33.5163 0.0000 0.0000 0.0000
# 3 14.6674 33.5163 91.6840 0.0000 0.0000 0.0000
# 4 0.0000 0.0000 0.0000 -1.0456 0.0000 0.0000
# 5 0.0000 0.0000 0.0000 0.0000 12.7731 0.0000
# 6 0.0000 0.0000 0.0000 0.0000 0.0000 -8.0938
#
#
#
# Elastic Compliance Matrix: (Units=1/GPa)
#
#
# Indices 1 2 3 4 5 6 
#
# 1 0.010993 -0.002339 -0.000904 0.000000 0.000000 0.000000
# 2 -0.002339 0.013633 -0.004610 0.000000 0.000000 0.000000
# 3 -0.000904 -0.004610 0.012737 0.000000 0.000000 0.000000
# 4 0.000000 0.000000 0.000000 -0.956433 0.000000 0.000000
# 5 0.000000 0.000000 0.000000 0.000000 0.078290 0.000000
# 6 0.000000 0.000000 0.000000 0.000000 0.000000 -0.123551
#
#
# Mechanical properties :
#
#
# Convention : Reuss Voigt Hill
#
# Bulk Modulus (GPa) = 46.17083 46.25661 46.21372
# Shear Modulus (GPa) = -5.31119 14.53224 4.61052
#
# Velocity S-wave (km/s) = -1.62867 2.69404 1.51745
# Velocity P-wave (km/s) = 4.41842 5.72531 5.11379
#
# Compressibility (1/GPa) = 0.02165870
#
# Stress axis : x y z
#
# Youngs Moduli (GPa) = 90.96673 73.35067 78.51327
#
# Poissons Ratio (x) = 0.17155 0.07095
# Poissons Ratio (y) = 0.21275 0.36192
# Poissons Ratio (z) = 0.08220 0.33812
#
# Static dielectric constant tensor:
#      x y z
#    x 3.812030 0.000000 0.000000 
#    y 0.000000 3.368780 0.000000 
#    z 0.000000 0.000000 3.668600 
# 
# 
# High freq. dielectric constant tensor:
#      x y z
#    x 1.790120 0.000000 0.000000 
#    y 0.000000 1.754380 0.000000 
#    z 0.000000 0.000000 1.784620 
# 
# From -- ./inp_files/35876.got.cif
#   From: 2010.03.12/outbox.cif.g09.slc.cpg/sg51_18_cif.got.tgz:35876.got - 2010.04.16 13:43:02.
