data_PCOD8212873
_publ_section_title
;
Structure prediction by ZEFSAII (Michael W. Deem and Ramdas Pophale) SiO2 
 PCOD8212873
Probable space group: P M M A
;
_chemical_formula_sum "Si O2"
_cell_formula_units_Z 48
_cell_length_a 28.048722
_cell_length_b 9.267294
_cell_length_c 9.829920
_cell_angle_alpha 90.000000
_cell_angle_beta 90.000000
_cell_angle_gamma 90.000000
_cell_volume 2555.147658
_symmetry_space_group_name_H-M "P M M A"
_symmetry_group_IT_number 51
_symmetry_cell_setting 'orthorhombic'
loop_
_space_group_symop_operation_xyz
x,y,z
1/2-x,-y,z
1/2+x,-y,-z
-x,y,-z
-x,-y,-z
1/2+x,y,-z
1/2-x,y,z
x,-y,z
loop_
_atom_site_type_symbol
_atom_site_label
_atom_site_fract_x
_atom_site_fract_y
_atom_site_fract_z
Si Si1 0.695386 0.832661 0.509795
Si Si2 0.866160 0.834540 0.982089
Si Si3 0.806287 0.336082 0.775698
Si Si4 0.382522 0.830855 0.710262
Si Si5 0.529940 0.835093 0.870095
Si Si6 0.022552 0.334727 0.646744
O O1 0.750000 0.792433 0.474147
O O2 0.676260 0.744320 0.639375
O O3 0.663690 0.792525 0.379459
O O4 0.690428 0.000000 0.548036
O O5 0.872522 0.779359 0.136205
O O6 0.848934 0.000000 0.982005
O O7 0.826537 0.737999 0.910497
O O8 0.914629 0.815933 0.898967
O O9 0.750000 0.326720 0.787547
O O10 0.824490 0.500000 0.767967
O O11 0.427594 0.748187 0.650476
O O12 0.394495 0.000000 0.707364
O O13 0.516253 0.732729 0.746988
O O14 0.517095 0.000000 0.832875
O O15 0.500000 0.785119 0.000000
O O16 0.031651 0.500000 0.687197
O O17 0.000000 0.319456 0.500000
#
# Coordination Sequence:
#
# PCOD8212873 Si02
#       6
#     8   8   8   8   8   8
#     4   9  19  37  61  87 113 145 188 235 283 335
#     4  10  21  37  60  88 114 146 188 236 286 334
#     4  10  22  39  58  83 117 154 189 228 279 339
#     4  10  21  39  61  86 114 147 189 236 286 337
#     4  10  20  39  62  84 113 149 190 234 281 334
#     4  11  25  40  55  83 119 154 191 233 280 335
#
# _framework density 18.785606999999999
#
# number of rings (size 3 to 8) (size 9 to 14) (size 15 to 20)
#    0.000    2.000    1.667    1.000    2.333    5.333 
#    0.000    1.667    0.000    2.000    0.000    0.000 
#    0.000    0.000    0.000    0.000    0.000    0.000 
#
# Total GULP energy -595418.753639 kJ/mol
# GULP energy per Si atom -12404.557367 kJ/mol
# Density = 1.874285 g / cm^3
# Si number density = 18.785607 Si / 1000 Ang^3
#
#
#
# Elastic Constant Matrix: (Units=GPa)
#
#
# Indices 1 2 3 4 5 6 
#
# 1 65.8440 43.0052 50.4590 0.0000 0.0000 0.0000
# 2 43.0052 91.1069 65.2126 0.0000 0.0000 0.0000
# 3 50.4590 65.2126 114.7071 0.0000 0.0000 0.0000
# 4 0.0000 0.0000 0.0000 41.4306 0.0000 0.0000
# 5 0.0000 0.0000 0.0000 0.0000 36.1487 0.0000
# 6 0.0000 0.0000 0.0000 0.0000 0.0000 78.1797
#
#
#
# Elastic Compliance Matrix: (Units=1/GPa)
#
#
# Indices 1 2 3 4 5 6 
#
# 1 0.025092 -0.006649 -0.007258 0.000000 0.000000 0.000000
# 2 -0.006649 0.020269 -0.008598 0.000000 0.000000 0.000000
# 3 -0.007258 -0.008598 0.016799 0.000000 0.000000 0.000000
# 4 0.000000 0.000000 0.000000 0.024137 0.000000 0.000000
# 5 0.000000 0.000000 0.000000 0.000000 0.027663 0.000000
# 6 0.000000 0.000000 0.000000 0.000000 0.000000 0.012791
#
#
# Mechanical properties :
#
#
# Convention : Reuss Voigt Hill
#
# Bulk Modulus (GPa) = 58.31079 65.44574 61.87827
# Shear Modulus (GPa) = 28.17235 38.68390 33.42812
#
# Velocity S-wave (km/s) = 3.87677 4.54280 4.22293
# Velocity P-wave (km/s) = 7.15169 7.90126 7.53580
#
# Compressibility (1/GPa) = 0.01714948
#
# Stress axis : x y z
#
# Youngs Moduli (GPa) = 39.85300 49.33549 59.52823
#
# Poissons Ratio (x) = 0.32805 0.43204
# Poissons Ratio (y) = 0.26500 0.51185
# Poissons Ratio (z) = 0.28924 0.42421
#
# Static dielectric constant tensor:
#      x y z
#    x 3.390700 0.000000 0.000000 
#    y 0.000000 3.519840 0.000000 
#    z 0.000000 0.000000 3.470060 
# 
# 
# High freq. dielectric constant tensor:
#      x y z
#    x 1.733190 0.000000 0.000000 
#    y 0.000000 1.726350 0.000000 
#    z 0.000000 0.000000 1.736950 
# 
# From -- ./inp_files/12748.got.cif
#   From: 2010.03.12/outbox.cif.g09.slc.cpg/sg51_7_cif.got.tgz:12748.got - 2010.04.16 13:43:02.
