data_PCOD8212190
_publ_section_title
;
Structure prediction by ZEFSAII (Michael W. Deem and Ramdas Pophale) SiO2 
 PCOD8212190
Probable space group: P M M A
;
_chemical_formula_sum "Si O2"
_cell_formula_units_Z 48
_cell_length_a 13.887287
_cell_length_b 15.185355
_cell_length_c 11.876926
_cell_angle_alpha 90.000000
_cell_angle_beta 90.000000
_cell_angle_gamma 90.000000
_cell_volume 2504.646335
_symmetry_space_group_name_H-M "P M M A"
_symmetry_group_IT_number 51
_symmetry_cell_setting 'orthorhombic'
loop_
_space_group_symop_operation_xyz
x,y,z
1/2-x,-y,z
1/2+x,-y,-z
-x,y,-z
-x,-y,-z
1/2+x,y,-z
1/2-x,y,z
x,-y,z
loop_
_atom_site_type_symbol
_atom_site_label
_atom_site_fract_x
_atom_site_fract_y
_atom_site_fract_z
Si Si1 0.978092 0.900502 0.130860
Si Si2 0.395543 0.685371 0.015450
Si Si3 0.861128 0.500000 0.644624
Si Si4 0.354781 0.800707 0.222323
Si Si5 0.526949 0.680217 0.623387
Si Si6 0.356853 0.740795 0.781262
Si Si7 0.142973 0.500000 0.091791
O O1 0.896558 0.836805 0.182638
O O2 0.077200 0.883449 0.197736
O O3 0.943511 0.000000 0.153126
O O4 0.000000 0.884819 0.000000
O O5 0.340621 0.687287 0.897067
O O6 0.500000 0.730464 0.000000
O O7 0.341937 0.737903 0.113412
O O8 0.413531 0.585454 0.052076
O O9 0.750000 0.500000 0.593406
O O10 0.925402 0.415989 0.609191
O O11 0.849591 0.500000 0.776012
O O12 0.250000 0.837732 0.254150
O O13 0.392745 0.744402 0.326904
O O14 0.500000 0.715017 0.500000
O O15 0.430666 0.686285 0.701738
O O16 0.250000 0.749478 0.724989
O O17 0.250000 0.500000 0.039308
#
# Coordination Sequence:
#
# PCOD8212190 Si02
#       7
#     8   8   4   8   8   8   4
#     4  10  20  35  56  89 126 154 183 229 292 362
#     4  12  19  35  54  82 116 151 191 236 288 348
#     4  11  21  38  62  86 114 152 199 248 294 339
#     4  11  20  36  61  84 113 151 191 236 291 353
#     4  11  24  41  58  84 116 154 205 251 286 334
#     4  11  22  38  59  84 120 159 192 238 295 350
#     4  11  21  30  51  84 113 147 190 233 281 340
#
# _framework density 19.164382
#
# number of rings (size 3 to 8) (size 9 to 14) (size 15 to 20)
#    0.000    1.000    6.667    2.500    0.000    2.667 
#    0.000    2.917    0.000    8.000    0.000    9.333 
#    0.000    0.000    0.000    0.000    0.000    0.000 
#
# Total GULP energy -594883.459406 kJ/mol
# GULP energy per Si atom -12393.405404 kJ/mol
# Density = 1.912076 g / cm^3
# Si number density = 19.164382 Si / 1000 Ang^3
#
#
#
# Elastic Constant Matrix: (Units=GPa)
#
#
# Indices 1 2 3 4 5 6 
#
# 1 141.9414 13.7052 21.0229 0.0000 0.0000 0.0000
# 2 13.7052 73.2622 10.4714 0.0000 0.0000 0.0000
# 3 21.0229 10.4714 94.9972 0.0000 0.0000 0.0000
# 4 0.0000 0.0000 0.0000 9.8786 0.0000 0.0000
# 5 0.0000 0.0000 0.0000 0.0000 5.3582 0.0000
# 6 0.0000 0.0000 0.0000 0.0000 0.0000 18.5295
#
#
#
# Elastic Compliance Matrix: (Units=1/GPa)
#
#
# Indices 1 2 3 4 5 6 
#
# 1 0.007381 -0.001166 -0.001505 0.000000 0.000000 0.000000
# 2 -0.001166 0.014052 -0.001291 0.000000 0.000000 0.000000
# 3 -0.001505 -0.001291 0.011002 0.000000 0.000000 0.000000
# 4 0.000000 0.000000 0.000000 0.101229 0.000000 0.000000
# 5 0.000000 0.000000 0.000000 0.000000 0.186630 0.000000
# 6 0.000000 0.000000 0.000000 0.000000 0.000000 0.053968
#
#
# Mechanical properties :
#
#
# Convention : Reuss Voigt Hill
#
# Bulk Modulus (GPa) = 40.79663 44.51108 42.65385
# Shear Modulus (GPa) = 12.80883 24.42000 18.61441
#
# Velocity S-wave (km/s) = 2.58808 3.57352 3.11995
# Velocity P-wave (km/s) = 5.50135 6.34847 5.94003
#
# Compressibility (1/GPa) = 0.02451183
#
# Stress axis : x y z
#
# Youngs Moduli (GPa) = 135.49056 71.16337 90.89299
#
# Poissons Ratio (x) = 0.08295 0.13678
# Poissons Ratio (y) = 0.15793 0.11734
# Poissons Ratio (z) = 0.20389 0.09187
#
# Static dielectric constant tensor:
#      x y z
#    x 3.653000 0.000000 0.000000 
#    y 0.000000 3.414880 0.000000 
#    z 0.000000 0.000000 3.331350 
# 
# 
# High freq. dielectric constant tensor:
#      x y z
#    x 1.758650 0.000000 0.000000 
#    y 0.000000 1.733210 0.000000 
#    z 0.000000 0.000000 1.720400 
# 
# From -- ./inp_files/16504.got.cif
#   From: 2010.03.12/outbox.cif.g09.slc.cpg/sg51_9_cif.got.tgz:16504.got - 2010.04.16 13:43:02.
