data_PCOD8212013
_publ_section_title
;
Structure prediction by ZEFSAII (Michael W. Deem and Ramdas Pophale) SiO2 
 PCOD8212013
Probable space group: P M M A
;
_chemical_formula_sum "Si O2"
_cell_formula_units_Z 40
_cell_length_a 25.595822
_cell_length_b 8.999242
_cell_length_c 9.135995
_cell_angle_alpha 90.000000
_cell_angle_beta 90.000000
_cell_angle_gamma 90.000000
_cell_volume 2104.412463
_symmetry_space_group_name_H-M "P M M A"
_symmetry_group_IT_number 51
_symmetry_cell_setting 'orthorhombic'
loop_
_space_group_symop_operation_xyz
x,y,z
1/2-x,-y,z
1/2+x,-y,-z
-x,y,-z
-x,-y,-z
1/2+x,y,-z
1/2-x,y,z
x,-y,z
loop_
_atom_site_type_symbol
_atom_site_label
_atom_site_fract_x
_atom_site_fract_y
_atom_site_fract_z
Si Si1 0.940079 0.175834 0.832687
Si Si2 0.250000 0.324418 0.153690
Si Si3 0.848733 0.676208 0.662673
Si Si4 0.557696 0.175302 0.160937
Si Si5 0.348046 0.174170 0.644655
Si Si6 0.250000 0.829708 0.846476
O O1 0.903004 0.259674 0.720722
O O2 0.999422 0.219887 0.789563
O O3 0.931075 0.000000 0.818283
O O4 0.929230 0.234196 0.997659
O O5 0.250000 0.500000 0.154213
O O6 0.301523 0.264758 0.236120
O O7 0.250000 0.270427 0.988768
O O8 0.851700 0.500000 0.660599
O O9 0.838150 0.733800 0.500639
O O10 0.599270 0.235768 0.278145
O O11 0.562110 0.000000 0.150602
O O12 0.300732 0.208129 0.752769
O O13 0.352140 0.000000 0.606558
O O14 0.250000 0.000000 0.897329
#
# Coordination Sequence:
#
# PCOD8212013 Si02
#       6
#     8   4   8   8   8   4
#     4   9  17  34  58  80 103 137 177 220 264 310
#     4  10  23  40  56  74 104 142 175 208 260 322
#     4  11  23  37  52  76 108 143 179 214 255 312
#     4   8  16  32  56  81 105 136 176 215 263 321
#     4  10  20  35  54  80 110 138 170 215 264 311
#     4  10  21  36  60  88 106 126 173 228 264 302
#
# _framework density 19.007679
#
# number of rings (size 3 to 8) (size 9 to 14) (size 15 to 20)
#    0.000    2.400    0.000    3.600    0.000    4.800 
#    0.000    8.000    0.000    0.000    0.000    0.000 
#    0.000    0.000    0.000    0.000    0.000    0.000 
#
# Total GULP energy -496027.273442 kJ/mol
# GULP energy per Si atom -12400.681836 kJ/mol
# Density = 1.896442 g / cm^3
# Si number density = 19.007679 Si / 1000 Ang^3
#
#
#
# Elastic Constant Matrix: (Units=GPa)
#
#
# Indices 1 2 3 4 5 6 
#
# 1 132.6147 31.5954 58.6846 0.0000 0.0000 0.0000
# 2 31.5954 38.3194 28.1716 0.0000 0.0000 0.0000
# 3 58.6846 28.1716 104.7886 0.0000 0.0000 0.0000
# 4 0.0000 0.0000 0.0000 25.0255 0.0000 0.0000
# 5 0.0000 0.0000 0.0000 0.0000 10.4351 0.0000
# 6 0.0000 0.0000 0.0000 0.0000 0.0000 19.9366
#
#
#
# Elastic Compliance Matrix: (Units=1/GPa)
#
#
# Indices 1 2 3 4 5 6 
#
# 1 0.010916 -0.005616 -0.004603 0.000000 0.000000 0.000000
# 2 -0.005616 0.035414 -0.006376 0.000000 0.000000 0.000000
# 3 -0.004603 -0.006376 0.013835 0.000000 0.000000 0.000000
# 4 0.000000 0.000000 0.000000 0.039959 0.000000 0.000000
# 5 0.000000 0.000000 0.000000 0.000000 0.095830 0.000000
# 6 0.000000 0.000000 0.000000 0.000000 0.000000 0.050159
#
#
# Mechanical properties :
#
#
# Convention : Reuss Voigt Hill
#
# Bulk Modulus (GPa) = 37.07136 56.95842 47.01489
# Shear Modulus (GPa) = 17.34333 21.56419 19.45376
#
# Velocity S-wave (km/s) = 3.02394 3.37189 3.20264
# Velocity P-wave (km/s) = 5.63364 6.72239 6.20196
#
# Compressibility (1/GPa) = 0.02697500
#
# Stress axis : x y z
#
# Youngs Moduli (GPa) = 91.61111 28.23712 72.28021
#
# Poissons Ratio (x) = 0.15858 0.33272
# Poissons Ratio (y) = 0.51450 0.46084
# Poissons Ratio (z) = 0.42171 0.18003
#
# Static dielectric constant tensor:
#      x y z
#    x 3.900920 0.000000 0.000000 
#    y 0.000000 3.146930 0.000000 
#    z 0.000000 0.000000 3.528590 
# 
# 
# High freq. dielectric constant tensor:
#      x y z
#    x 1.757890 0.000000 0.000000 
#    y 0.000000 1.707090 0.000000 
#    z 0.000000 0.000000 1.744430 
# 
# From -- ./inp_files/12184.got.cif
#   From: 2010.03.12/outbox.cif.g09.slc.cpg/sg51_7_cif.got.tgz:12184.got - 2010.04.16 13:43:02.
