data_PCOD8212912
_publ_section_title
;
Structure prediction by ZEFSAII (Michael W. Deem and Ramdas Pophale) SiO2 
 PCOD8212912
Probable space group: P M M A
;
_chemical_formula_sum "Si O2"
_cell_formula_units_Z 48
_cell_length_a 16.936571
_cell_length_b 9.158560
_cell_length_c 16.900464
_cell_angle_alpha 90.000000
_cell_angle_beta 90.000000
_cell_angle_gamma 90.000000
_cell_volume 2621.508742
_symmetry_space_group_name_H-M "P M M A"
_symmetry_group_IT_number 51
_symmetry_cell_setting 'orthorhombic'
loop_
_space_group_symop_operation_xyz
x,y,z
1/2-x,-y,z
1/2+x,-y,-z
-x,y,-z
-x,-y,-z
1/2+x,y,-z
1/2-x,y,z
x,-y,z
loop_
_atom_site_type_symbol
_atom_site_label
_atom_site_fract_x
_atom_site_fract_y
_atom_site_fract_z
Si Si1 0.392075 0.332227 0.570822
Si Si2 0.428170 0.173592 0.102221
Si Si3 0.750000 0.827030 0.347698
Si Si4 0.898117 0.173696 0.071483
Si Si5 0.430417 0.667650 0.391746
Si Si6 0.160521 0.173531 0.255682
Si Si7 0.750000 0.825754 0.168095
O O1 0.368333 0.500000 0.585272
O O2 0.328106 0.228134 0.609467
O O3 0.476514 0.298031 0.609986
O O4 0.395052 0.298972 0.477783
O O5 0.518775 0.228867 0.107729
O O6 0.378810 0.237569 0.175658
O O7 0.426727 0.000000 0.104574
O O8 0.389762 0.227535 0.019518
O O9 0.750000 0.768972 0.257778
O O10 0.750000 0.000000 0.350789
O O11 0.827025 0.238377 0.123758
O O12 0.895737 0.000000 0.073197
O O13 0.415028 0.500000 0.368738
O O14 0.387395 0.771972 0.330782
O O15 0.250000 0.231332 0.259964
O O16 0.157877 0.000000 0.255731
O O17 0.750000 0.000000 0.165266
#
# Coordination Sequence:
#
# PCOD8212912 Si02
#       7
#     8   8   4   8   8   8   4
#     4   9  20  40  60  76  99 137 183 221 255 306
#     4   8  15  27  44  66  97 138 174 206 253 308
#     4  11  23  33  51  86 117 138 166 209 269 321
#     4   8  14  26  43  64  95 137 177 208 245 301
#     4   9  20  39  60  77  96 135 185 222 257 306
#     4  10  21  32  48  79 113 137 165 213 271 319
#     4   9  18  27  41  70 105 134 166 209 253 303
#
# _framework density 18.310067
#
# number of rings (size 3 to 8) (size 9 to 14) (size 15 to 20)
#    0.000    3.000    0.000    2.250    4.667    1.667 
#    0.000    1.667    0.000    0.000    0.000    4.667 
#    0.000    0.000    0.000    0.000    0.000    0.000 
#
# Total GULP energy -595071.696582 kJ/mol
# GULP energy per Si atom -12397.327012 kJ/mol
# Density = 1.826839 g / cm^3
# Si number density = 18.310067 Si / 1000 Ang^3
#
#
#
# Elastic Constant Matrix: (Units=GPa)
#
#
# Indices 1 2 3 4 5 6 
#
# 1 138.4073 33.6131 88.9295 0.0000 0.0000 0.0000
# 2 33.6131 26.8142 31.6871 0.0000 0.0000 0.0000
# 3 88.9295 31.6871 129.7021 0.0000 0.0000 0.0000
# 4 0.0000 0.0000 0.0000 -0.7926 0.0000 0.0000
# 5 0.0000 0.0000 0.0000 0.0000 33.8774 0.0000
# 6 0.0000 0.0000 0.0000 0.0000 0.0000 23.9481
#
#
#
# Elastic Compliance Matrix: (Units=1/GPa)
#
#
# Indices 1 2 3 4 5 6 
#
# 1 0.014281 -0.008900 -0.007617 0.000000 0.000000 0.000000
# 2 -0.008900 0.057978 -0.008062 0.000000 0.000000 0.000000
# 3 -0.007617 -0.008062 0.014902 0.000000 0.000000 0.000000
# 4 0.000000 0.000000 0.000000 -1.261655 0.000000 0.000000
# 5 0.000000 0.000000 0.000000 0.000000 0.029518 0.000000
# 6 0.000000 0.000000 0.000000 0.000000 0.000000 0.041757
#
#
# Mechanical properties :
#
#
# Convention : Reuss Voigt Hill
#
# Bulk Modulus (GPa) = 26.31442 67.04255 46.67848
# Shear Modulus (GPa) = -4.80126 20.78617 7.99246
#
# Velocity S-wave (km/s) = -1.62108 3.37298 2.09154
# Velocity P-wave (km/s) = 3.30135 7.20166 5.60191
#
# Compressibility (1/GPa) = 0.03800198
#
# Stress axis : x y z
#
# Youngs Moduli (GPa) = 70.02480 17.24802 67.10455
#
# Poissons Ratio (x) = 0.15351 0.51114
# Poissons Ratio (y) = 0.62324 0.54099
# Poissons Ratio (z) = 0.53338 0.13905
#
# Static dielectric constant tensor:
#      x y z
#    x 3.607880 0.000000 0.000000 
#    y 0.000000 2.835680 0.000000 
#    z 0.000000 0.000000 3.558770 
# 
# 
# High freq. dielectric constant tensor:
#      x y z
#    x 1.722930 0.000000 0.000000 
#    y 0.000000 1.655530 0.000000 
#    z 0.000000 0.000000 1.720470 
# 
# From -- ./inp_files/24954.got.cif
#   From: 2010.03.12/outbox.cif.g09.slc.cpg/sg51_13_cif.got.tgz:24954.got - 2010.04.16 13:43:02.
