data_PCOD8212519
_publ_section_title
;
Structure prediction by ZEFSAII (Michael W. Deem and Ramdas Pophale) SiO2 
 PCOD8212519
Probable space group: P M M A
;
_chemical_formula_sum "Si O2"
_cell_formula_units_Z 48
_cell_length_a 14.162519
_cell_length_b 12.116886
_cell_length_c 14.149337
_cell_angle_alpha 90.000000
_cell_angle_beta 90.000000
_cell_angle_gamma 90.000000
_cell_volume 2428.105864
_symmetry_space_group_name_H-M "P M M A"
_symmetry_group_IT_number 51
_symmetry_cell_setting 'orthorhombic'
loop_
_space_group_symop_operation_xyz
x,y,z
1/2-x,-y,z
1/2+x,-y,-z
-x,y,-z
-x,-y,-z
1/2+x,y,-z
1/2-x,y,z
x,-y,z
loop_
_atom_site_type_symbol
_atom_site_label
_atom_site_fract_x
_atom_site_fract_y
_atom_site_fract_z
Si Si1 0.643399 0.694582 0.634909
Si Si2 0.637820 0.000000 0.148655
Si Si3 0.138031 0.763318 0.571061
Si Si4 0.645181 0.121729 0.778911
Si Si5 0.979652 0.788532 0.104684
Si Si6 0.138392 0.000000 0.632467
Si Si7 0.462004 0.375306 0.730380
O O1 0.750000 0.643792 0.638125
O O2 0.605854 0.710781 0.528392
O O3 0.642207 0.815676 0.679718
O O4 0.571194 0.619638 0.694883
O O5 0.594993 0.110631 0.101780
O O6 0.750000 0.000000 0.132843
O O7 0.608641 0.000000 0.258159
O O8 0.250000 0.765750 0.577534
O O9 0.100498 0.685135 0.652794
O O10 0.097824 0.888214 0.584071
O O11 0.750000 0.122990 0.822329
O O12 0.580217 0.172301 0.858426
O O13 0.609858 0.000000 0.753930
O O14 0.945377 0.687880 0.170688
O O15 0.000000 0.743075 0.000000
O O16 0.250000 0.000000 0.622787
O O17 0.426322 0.500000 0.744328
#
# Coordination Sequence:
#
# PCOD8212519 Si02
#       7
#     8   4   8   8   8   4   8
#     4   9  20  36  56  84 116 153 192 232 280 334
#     4  11  21  37  61  88 121 153 178 224 289 354
#     4  10  20  36  58  88 121 155 190 229 282 342
#     4   9  18  33  54  83 119 152 184 226 276 334
#     4  11  23  40  59  85 114 146 190 236 288 352
#     4   9  18  33  55  83 119 154 182 216 274 344
#     4  11  24  41  59  80 111 151 199 248 286 327
#
# _framework density 19.768495000000001
#
# number of rings (size 3 to 8) (size 9 to 14) (size 15 to 20)
#    0.000    2.000    2.500    0.750    1.167    3.000 
#    0.000    2.500    0.000    0.000    0.000    4.667 
#    0.000    0.000    0.000    0.000    0.000    0.000 
#
# Total GULP energy -595085.813768 kJ/mol
# GULP energy per Si atom -12397.621120 kJ/mol
# Density = 1.972350 g / cm^3
# Si number density = 19.768495 Si / 1000 Ang^3
#
#
#
# Elastic Constant Matrix: (Units=GPa)
#
#
# Indices 1 2 3 4 5 6 
#
# 1 35.5579 16.1385 28.1299 0.0000 0.0000 0.0000
# 2 16.1385 131.5785 42.8437 0.0000 0.0000 0.0000
# 3 28.1299 42.8437 129.7844 0.0000 0.0000 0.0000
# 4 0.0000 0.0000 0.0000 10.2055 0.0000 0.0000
# 5 0.0000 0.0000 0.0000 0.0000 23.8920 0.0000
# 6 0.0000 0.0000 0.0000 0.0000 0.0000 15.7219
#
#
#
# Elastic Compliance Matrix: (Units=1/GPa)
#
#
# Indices 1 2 3 4 5 6 
#
# 1 0.034410 -0.002008 -0.006795 0.000000 0.000000 0.000000
# 2 -0.002008 0.008632 -0.002415 0.000000 0.000000 0.000000
# 3 -0.006795 -0.002415 0.009975 0.000000 0.000000 0.000000
# 4 0.000000 0.000000 0.000000 0.097986 0.000000 0.000000
# 5 0.000000 0.000000 0.000000 0.000000 0.041855 0.000000
# 6 0.000000 0.000000 0.000000 0.000000 0.000000 0.063605
#
#
# Mechanical properties :
#
#
# Convention : Reuss Voigt Hill
#
# Bulk Modulus (GPa) = 32.69871 52.34945 42.52408
# Shear Modulus (GPa) = 17.29540 23.95114 20.62327
#
# Velocity S-wave (km/s) = 2.96107 3.48455 3.23343
# Velocity P-wave (km/s) = 5.31670 6.53668 5.95800
#
# Compressibility (1/GPa) = 0.03058225
#
# Stress axis : x y z
#
# Youngs Moduli (GPa) = 29.06107 115.84139 100.25052
#
# Poissons Ratio (x) = 0.23259 0.68124
# Poissons Ratio (y) = 0.05835 0.24206
# Poissons Ratio (z) = 0.19748 0.27970
#
# Static dielectric constant tensor:
#      x y z
#    x 3.791290 0.000000 0.000000 
#    y 0.000000 3.492980 0.000000 
#    z 0.000000 0.000000 3.509860 
# 
# 
# High freq. dielectric constant tensor:
#      x y z
#    x 1.776330 0.000000 0.000000 
#    y 0.000000 1.755900 0.000000 
#    z 0.000000 0.000000 1.762130 
# 
# From -- ./inp_files/24093.got.cif
#   From: 2010.03.12/outbox.cif.g09.slc.cpg/sg51_13_cif.got.tgz:24093.got - 2010.04.16 13:43:02.
