data_PCOD8212763
_publ_section_title
;
Structure prediction by ZEFSAII (Michael W. Deem and Ramdas Pophale) SiO2 
 PCOD8212763
Probable space group: P M M A
;
_chemical_formula_sum "Si O2"
_cell_formula_units_Z 48
_cell_length_a 27.792376
_cell_length_b 8.714106
_cell_length_c 9.922672
_cell_angle_alpha 90.000000
_cell_angle_beta 90.000000
_cell_angle_gamma 90.000000
_cell_volume 2403.129368
_symmetry_space_group_name_H-M "P M M A"
_symmetry_group_IT_number 51
_symmetry_cell_setting 'orthorhombic'
loop_
_space_group_symop_operation_xyz
x,y,z
1/2-x,-y,z
1/2+x,-y,-z
-x,y,-z
-x,-y,-z
1/2+x,y,-z
1/2-x,y,z
x,-y,z
loop_
_atom_site_type_symbol
_atom_site_label
_atom_site_fract_x
_atom_site_fract_y
_atom_site_fract_z
Si Si1 0.540535 0.680209 0.896637
Si Si2 0.541380 0.818657 0.600366
Si Si3 0.303976 0.181244 0.769490
Si Si4 0.138380 0.179063 0.025736
Si Si5 0.353187 0.819517 0.496554
Si Si6 0.194251 0.673586 0.255650
O O1 0.538302 0.500000 0.874969
O O2 0.534123 0.754675 0.750001
O O3 0.500000 0.738429 0.000000
O O4 0.589552 0.726660 0.969330
O O5 0.500000 0.755651 0.500000
O O6 0.592482 0.767796 0.537481
O O7 0.538143 0.000000 0.611785
O O8 0.250000 0.251669 0.754301
O O9 0.329084 0.244586 0.904378
O O10 0.339276 0.227740 0.648005
O O11 0.299141 0.000000 0.779463
O O12 0.126510 0.000000 0.009205
O O13 0.166640 0.205292 0.163608
O O14 0.315768 0.724054 0.407659
O O15 0.345956 0.000000 0.471965
O O16 0.250000 0.685521 0.223665
O O17 0.175641 0.500000 0.231384
#
# Coordination Sequence:
#
# PCOD8212763 Si02
#       6
#     8   8   8   8   8   8
#     4  11  25  43  62  88 122 160 200 244 302 366
#     4  10  22  39  63  94 123 154 198 250 302 359
#     4   9  19  35  57  88 122 154 195 247 298 351
#     4  11  22  38  63  90 117 155 202 251 303 353
#     4  10  20  37  61  89 119 156 198 246 300 354
#     4  11  23  38  58  86 122 162 199 242 297 358
#
# _framework density 19.973956000000001
#
# number of rings (size 3 to 8) (size 9 to 14) (size 15 to 20)
#    0.000    1.667    1.667    2.500    2.333    4.333 
#    0.000    1.667    0.000    4.000    0.000    0.000 
#    0.000    0.000    0.000    0.000    0.000    0.000 
#
# Total GULP energy -595282.740489 kJ/mol
# GULP energy per Si atom -12401.723760 kJ/mol
# Density = 1.992849 g / cm^3
# Si number density = 19.973956 Si / 1000 Ang^3
#
#
#
# Elastic Constant Matrix: (Units=GPa)
#
#
# Indices 1 2 3 4 5 6 
#
# 1 123.5885 16.8658 65.0452 0.0000 0.0000 0.0000
# 2 16.8658 19.1337 16.8946 0.0000 0.0000 0.0000
# 3 65.0452 16.8946 128.7886 0.0000 0.0000 0.0000
# 4 0.0000 0.0000 0.0000 10.2987 0.0000 0.0000
# 5 0.0000 0.0000 0.0000 0.0000 44.8716 0.0000
# 6 0.0000 0.0000 0.0000 0.0000 0.0000 22.5849
#
#
#
# Elastic Compliance Matrix: (Units=1/GPa)
#
#
# Indices 1 2 3 4 5 6 
#
# 1 0.011543 -0.005686 -0.005084 0.000000 0.000000 0.000000
# 2 -0.005686 0.061911 -0.005250 0.000000 0.000000 0.000000
# 3 -0.005084 -0.005250 0.011021 0.000000 0.000000 0.000000
# 4 0.000000 0.000000 0.000000 0.097100 0.000000 0.000000
# 5 0.000000 0.000000 0.000000 0.000000 0.022286 0.000000
# 6 0.000000 0.000000 0.000000 0.000000 0.000000 0.044277
#
#
# Mechanical properties :
#
#
# Convention : Reuss Voigt Hill
#
# Bulk Modulus (GPa) = 19.07090 52.12465 35.59778
# Shear Modulus (GPa) = 16.79789 27.06472 21.93131
#
# Velocity S-wave (km/s) = 2.90313 3.68503 3.31720
# Velocity P-wave (km/s) = 4.56138 6.65273 5.70373
#
# Compressibility (1/GPa) = 0.05243592
#
# Stress axis : x y z
#
# Youngs Moduli (GPa) = 86.63252 16.15215 90.73561
#
# Poissons Ratio (x) = 0.09184 0.46130
# Poissons Ratio (y) = 0.49257 0.47636
# Poissons Ratio (z) = 0.44044 0.08480
#
# Static dielectric constant tensor:
#      x y z
#    x 3.908640 0.000000 0.000000 
#    y 0.000000 3.420950 0.000000 
#    z 0.000000 0.000000 3.752670 
# 
# 
# High freq. dielectric constant tensor:
#      x y z
#    x 1.792550 0.000000 0.000000 
#    y 0.000000 1.758440 0.000000 
#    z 0.000000 0.000000 1.791480 
# 
# From -- ./inp_files/12740.got.cif
#   From: 2010.03.12/outbox.cif.g09.slc.cpg/sg51_7_cif.got.tgz:12740.got - 2010.04.16 13:43:02.
