data_PCOD8212915
_publ_section_title
;
Structure prediction by ZEFSAII (Michael W. Deem and Ramdas Pophale) SiO2 
 PCOD8212915
Probable space group: P M M A
;
_chemical_formula_sum "Si O2"
_cell_formula_units_Z 52
_cell_length_a 27.656295
_cell_length_b 7.590990
_cell_length_c 13.247874
_cell_angle_alpha 90.000000
_cell_angle_beta 90.000000
_cell_angle_gamma 90.000000
_cell_volume 2781.240899
_symmetry_space_group_name_H-M "P M M A"
_symmetry_group_IT_number 51
_symmetry_cell_setting 'orthorhombic'
loop_
_space_group_symop_operation_xyz
x,y,z
1/2-x,-y,z
1/2+x,-y,-z
-x,y,-z
-x,-y,-z
1/2+x,y,-z
1/2-x,y,z
x,-y,z
loop_
_atom_site_type_symbol
_atom_site_label
_atom_site_fract_x
_atom_site_fract_y
_atom_site_fract_z
Si Si1 0.344063 0.302901 0.084623
Si Si2 0.801032 0.000000 0.808579
Si Si3 0.195123 0.703840 0.699500
Si Si4 0.572145 0.698678 0.751337
Si Si5 0.878723 0.708468 0.130861
Si Si6 0.804953 0.000000 0.462747
Si Si7 0.985963 0.290366 0.110775
Si Si8 0.619363 0.000000 0.642285
O O1 0.322767 0.500000 0.075299
O O2 0.389121 0.300771 0.159665
O O3 0.302237 0.175032 0.123299
O O4 0.360614 0.226196 0.977354
O O5 0.844302 0.000000 0.733435
O O6 0.750000 0.000000 0.750294
O O7 0.250000 0.724305 0.741113
O O8 0.184661 0.500000 0.670850
O O9 0.157684 0.777116 0.782869
O O10 0.188188 0.822199 0.600823
O O11 0.566016 0.500000 0.708356
O O12 0.523041 0.771826 0.802408
O O13 0.586638 0.824233 0.656611
O O14 0.879231 0.500000 0.132480
O O15 0.933280 0.780231 0.145616
O O16 0.848941 0.000000 0.541717
O O17 0.750000 0.000000 0.509269
O O18 0.986888 0.500000 0.103575
O O19 0.000000 0.213851 0.000000
#
# Coordination Sequence:
#
# PCOD8212915 Si02
#       8
#     8   4   8   8   8   4   8   4
#     4   9  17  30  47  69 101 138 168 197 239 291
#     4  10  21  33  45  67  98 129 166 208 245 300
#     4   9  19  35  54  78 103 127 166 218 267 316
#     4   9  17  31  50  75 108 139 168 205 245 292
#     4   9  16  28  50  78 107 139 172 206 247 298
#     4  10  21  39  61  76  92 126 172 227 280 314
#     4   9  14  25  50  79 108 145 180 205 236 287
#     4  10  21  36  53  74  96 126 170 215 266 315
#
# _framework density 18.69669
#
# number of rings (size 3 to 8) (size 9 to 14) (size 15 to 20)
#    0.000    2.769    1.538    0.231    0.000    2.154 
#    0.000    4.231    0.000    4.615    0.000    4.308 
#    0.000    0.000    0.000    0.000    0.000    0.000 
#
# Total GULP energy -644386.028511 kJ/mol
# GULP energy per Si atom -12392.039010 kJ/mol
# Density = 1.865414 g / cm^3
# Si number density = 18.696690 Si / 1000 Ang^3
#
#
#
# Elastic Constant Matrix: (Units=GPa)
#
#
# Indices 1 2 3 4 5 6 
#
# 1 104.1989 27.7501 38.8189 0.0000 0.0000 0.0000
# 2 27.7501 77.9049 26.1992 0.0000 0.0000 0.0000
# 3 38.8189 26.1992 69.3016 0.0000 0.0000 0.0000
# 4 0.0000 0.0000 0.0000 -1.9955 0.0000 0.0000
# 5 0.0000 0.0000 0.0000 0.0000 47.0242 0.0000
# 6 0.0000 0.0000 0.0000 0.0000 0.0000 15.5337
#
#
#
# Elastic Compliance Matrix: (Units=1/GPa)
#
#
# Indices 1 2 3 4 5 6 
#
# 1 0.012509 -0.002405 -0.006098 0.000000 0.000000 0.000000
# 2 -0.002405 0.015168 -0.004387 0.000000 0.000000 0.000000
# 3 -0.006098 -0.004387 0.019504 0.000000 0.000000 0.000000
# 4 0.000000 0.000000 0.000000 -0.501124 0.000000 0.000000
# 5 0.000000 0.000000 0.000000 0.000000 0.021266 0.000000
# 6 0.000000 0.000000 0.000000 0.000000 0.000000 0.064376
#
#
# Mechanical properties :
#
#
# Convention : Reuss Voigt Hill
#
# Bulk Modulus (GPa) = 46.72593 48.54907 47.63750
# Shear Modulus (GPa) = -14.90815 22.68828 3.89006
#
# Velocity S-wave (km/s) = -2.82683 3.48730 1.44400
# Velocity P-wave (km/s) = 3.79357 6.49908 5.32115
#
# Compressibility (1/GPa) = 0.02140139
#
# Stress axis : x y z
#
# Youngs Moduli (GPa) = 79.94074 65.92710 51.27209
#
# Poissons Ratio (x) = 0.15857 0.31264
# Poissons Ratio (y) = 0.19227 0.22493
# Poissons Ratio (z) = 0.48746 0.28922
#
# Static dielectric constant tensor:
#      x y z
#    x 3.928540 0.000000 0.000000 
#    y 0.000000 3.526720 0.000000 
#    z 0.000000 0.000000 3.154720 
# 
# 
# High freq. dielectric constant tensor:
#      x y z
#    x 1.727540 0.000000 0.000000 
#    y 0.000000 1.724760 0.000000 
#    z 0.000000 0.000000 1.685390 
# 
# From -- ./inp_files/26085.got.cif
#   From: 2010.03.12/outbox.cif.g09.slc.cpg/sg51_14_cif.got.tgz:26085.got - 2010.04.16 13:43:02.
