data_PCOD8212024
_publ_section_title
;
Structure prediction by ZEFSAII (Michael W. Deem and Ramdas Pophale) SiO2 
 PCOD8212024
Probable space group: P M M A
;
_chemical_formula_sum "Si O2"
_cell_formula_units_Z 48
_cell_length_a 9.202768
_cell_length_b 14.303925
_cell_length_c 20.810758
_cell_angle_alpha 90.000000
_cell_angle_beta 90.000000
_cell_angle_gamma 90.000000
_cell_volume 2739.438765
_symmetry_space_group_name_H-M "P M M A"
_symmetry_group_IT_number 51
_symmetry_cell_setting 'orthorhombic'
loop_
_space_group_symop_operation_xyz
x,y,z
1/2-x,-y,z
1/2+x,-y,-z
-x,y,-z
-x,-y,-z
1/2+x,y,-z
1/2-x,y,z
x,-y,z
loop_
_atom_site_type_symbol
_atom_site_label
_atom_site_fract_x
_atom_site_fract_y
_atom_site_fract_z
Si Si1 0.920493 0.102737 0.756989
Si Si2 0.578713 0.293336 0.810262
Si Si3 0.916505 0.103782 0.373094
Si Si4 0.417927 0.610296 0.319503
Si Si5 0.420128 0.293344 0.564466
Si Si6 0.080641 0.608757 0.063433
O O1 0.750000 0.104721 0.745328
O O2 0.965022 0.183334 0.807509
O O3 0.988966 0.127071 0.688831
O O4 0.971019 0.000000 0.782058
O O5 0.750000 0.308548 0.812961
O O6 0.520903 0.346071 0.746857
O O7 0.512817 0.336759 0.875357
O O8 0.750000 0.108780 0.350916
O O9 0.949239 0.182314 0.426273
O O10 0.953951 0.000000 0.400554
O O11 0.250000 0.639087 0.331163
O O12 0.435553 0.500000 0.314899
O O13 0.515926 0.648123 0.376901
O O14 0.500000 0.326106 0.500000
O O15 0.250000 0.315678 0.558332
O O16 0.250000 0.629756 0.054302
O O17 0.050143 0.500000 0.075120
O O18 0.000000 0.645424 0.000000
#
# Coordination Sequence:
#
# PCOD8212024 Si02
#       6
#     8   8   8   8   8   8
#     4   9  16  27  48  76 100 124 158 200 243 290
#     4   9  16  29  51  76 101 128 161 200 244 292
#     4   9  18  33  51  72  99 128 158 197 248 299
#     4  10  20  35  55  76  97 125 164 208 251 297
#     4  11  23  37  53  72  98 131 165 204 250 298
#     4   9  17  30  48  71 100 133 166 200 240 286
#
# _framework density 17.521837999999999
#
# number of rings (size 3 to 8) (size 9 to 14) (size 15 to 20)
#    0.000    2.500    1.667    1.000    0.000    3.667 
#    0.000    1.667    0.000    2.500    0.000    0.000 
#    0.000    0.000    0.000    0.000    0.000    0.000 
#
# Total GULP energy -595052.369620 kJ/mol
# GULP energy per Si atom -12396.924367 kJ/mol
# Density = 1.748196 g / cm^3
# Si number density = 17.521838 Si / 1000 Ang^3
#
#
#
# Elastic Constant Matrix: (Units=GPa)
#
#
# Indices 1 2 3 4 5 6 
#
# 1 47.6991 35.1962 44.8285 0.0000 0.0000 0.0000
# 2 35.1962 91.7039 64.6787 0.0000 0.0000 0.0000
# 3 44.8285 64.6787 148.0141 0.0000 0.0000 0.0000
# 4 0.0000 0.0000 0.0000 27.8724 0.0000 0.0000
# 5 0.0000 0.0000 0.0000 0.0000 25.6540 0.0000
# 6 0.0000 0.0000 0.0000 0.0000 0.0000 20.3841
#
#
#
# Elastic Compliance Matrix: (Units=1/GPa)
#
#
# Indices 1 2 3 4 5 6 
#
# 1 0.033022 -0.008124 -0.006451 0.000000 0.000000 0.000000
# 2 -0.008124 0.017761 -0.005301 0.000000 0.000000 0.000000
# 3 -0.006451 -0.005301 0.011026 0.000000 0.000000 0.000000
# 4 0.000000 0.000000 0.000000 0.035878 0.000000 0.000000
# 5 0.000000 0.000000 0.000000 0.000000 0.038980 0.000000
# 6 0.000000 0.000000 0.000000 0.000000 0.000000 0.049058
#
#
# Mechanical properties :
#
#
# Convention : Reuss Voigt Hill
#
# Bulk Modulus (GPa) = 45.33550 64.09154 54.71352
# Shear Modulus (GPa) = 21.47483 24.29635 22.88559
#
# Velocity S-wave (km/s) = 3.50466 3.72779 3.61795
# Velocity P-wave (km/s) = 6.50436 7.42873 6.98186
#
# Compressibility (1/GPa) = 0.02205777
#
# Stress axis : x y z
#
# Youngs Moduli (GPa) = 30.28252 56.30219 90.69170
#
# Poissons Ratio (x) = 0.45739 0.58509
# Poissons Ratio (y) = 0.24601 0.48074
# Poissons Ratio (z) = 0.19537 0.29845
#
# Static dielectric constant tensor:
#      x y z
#    x 2.979550 0.000000 0.000000 
#    y 0.000000 3.553340 0.000000 
#    z 0.000000 0.000000 3.214630 
# 
# 
# High freq. dielectric constant tensor:
#      x y z
#    x 1.658870 0.000000 0.000000 
#    y 0.000000 1.686830 0.000000 
#    z 0.000000 0.000000 1.659670 
# 
# From -- ./inp_files/27514.got.cif
#   From: 2010.03.12/outbox.cif.g09.slc.cpg/sg51_14_cif.got.tgz:27514.got - 2010.04.16 13:43:02.
