data_PCOD8212116
_publ_section_title
;
Structure prediction by ZEFSAII (Michael W. Deem and Ramdas Pophale) SiO2 
 PCOD8212116
Probable space group: P M M A
;
_chemical_formula_sum "Si O2"
_cell_formula_units_Z 56
_cell_length_a 22.184505
_cell_length_b 8.799901
_cell_length_c 14.677140
_cell_angle_alpha 90.000000
_cell_angle_beta 90.000000
_cell_angle_gamma 90.000000
_cell_volume 2865.292519
_symmetry_space_group_name_H-M "P M M A"
_symmetry_group_IT_number 51
_symmetry_cell_setting 'orthorhombic'
loop_
_space_group_symop_operation_xyz
x,y,z
1/2-x,-y,z
1/2+x,-y,-z
-x,y,-z
-x,-y,-z
1/2+x,y,-z
1/2-x,y,z
x,-y,z
loop_
_atom_site_type_symbol
_atom_site_label
_atom_site_fract_x
_atom_site_fract_y
_atom_site_fract_z
Si Si1 0.075092 0.179489 0.759814
Si Si2 0.455134 0.680574 0.303960
Si Si3 0.250000 0.664423 0.159746
Si Si4 0.250000 0.333546 0.368923
Si Si5 0.366256 0.820421 0.441277
Si Si6 0.377994 0.320953 0.132967
Si Si7 0.067169 0.167959 0.966305
Si Si8 0.318219 0.179162 0.634059
O O1 0.071583 0.234689 0.864344
O O2 0.141105 0.225930 0.721036
O O3 0.023605 0.261537 0.700911
O O4 0.064034 0.000000 0.752136
O O5 0.454415 0.500000 0.307051
O O6 0.425031 0.742442 0.396887
O O7 0.419674 0.744578 0.214476
O O8 0.250000 0.500000 0.108496
O O9 0.250000 0.628376 0.264810
O O10 0.188740 0.754980 0.135511
O O11 0.250000 0.500000 0.419680
O O12 0.192238 0.232124 0.387768
O O13 0.355487 0.766048 0.545303
O O14 0.374526 0.000000 0.433910
O O15 0.373153 0.500000 0.148013
O O16 0.401702 0.286209 0.032967
O O17 0.097513 0.000000 0.970137
O O18 0.000000 0.152465 0.000000
O O19 0.250000 0.250462 0.639149
O O20 0.310456 0.000000 0.628837
#
# Coordination Sequence:
#
# PCOD8212116 Si02
#       8
#     8   8   4   4   8   8   8   8
#     4  10  21  39  61  82 112 151 189 240 293 337
#     4  11  22  36  57  87 119 151 187 232 289 349
#     4   9  18  35  53  76 111 150 188 223 273 343
#     4  11  19  33  55  82 117 154 192 229 281 341
#     4  11  21  35  58  87 114 145 193 237 276 332
#     4  10  20  35  56  79 110 154 191 225 279 349
#     4  10  20  35  56  84 112 141 185 240 290 333
#     4   9  19  38  62  84 108 148 199 236 272 337
#
# _framework density 19.544250999999999
#
# number of rings (size 3 to 8) (size 9 to 14) (size 15 to 20)
#    0.000    1.857    3.571    1.071    0.000    2.000 
#    1.286    4.643    0.000    0.000    0.000    0.000 
#    0.000    0.000    0.000    0.000    0.000    0.000 
#
# Total GULP energy -694055.781766 kJ/mol
# GULP energy per Si atom -12393.853246 kJ/mol
# Density = 1.949977 g / cm^3
# Si number density = 19.544251 Si / 1000 Ang^3
#
#
#
# Elastic Constant Matrix: (Units=GPa)
#
#
# Indices 1 2 3 4 5 6 
#
# 1 124.3662 25.1815 63.4930 0.0000 0.0000 0.0000
# 2 25.1815 41.4214 21.4788 0.0000 0.0000 0.0000
# 3 63.4930 21.4788 123.5329 0.0000 0.0000 0.0000
# 4 0.0000 0.0000 0.0000 24.4153 0.0000 0.0000
# 5 0.0000 0.0000 0.0000 0.0000 30.3629 0.0000
# 6 0.0000 0.0000 0.0000 0.0000 0.0000 14.9657
#
#
#
# Elastic Compliance Matrix: (Units=1/GPa)
#
#
# Indices 1 2 3 4 5 6 
#
# 1 0.011571 -0.004342 -0.005192 0.000000 0.000000 0.000000
# 2 -0.004342 0.028164 -0.002665 0.000000 0.000000 0.000000
# 3 -0.005192 -0.002665 0.011227 0.000000 0.000000 0.000000
# 4 0.000000 0.000000 0.000000 0.040958 0.000000 0.000000
# 5 0.000000 0.000000 0.000000 0.000000 0.032935 0.000000
# 6 0.000000 0.000000 0.000000 0.000000 0.000000 0.066819
#
#
# Mechanical properties :
#
#
# Convention : Reuss Voigt Hill
#
# Bulk Modulus (GPa) = 37.64641 56.62524 47.13582
# Shear Modulus (GPa) = 22.22948 25.89325 24.06137
#
# Velocity S-wave (km/s) = 3.37618 3.64380 3.51254
# Velocity P-wave (km/s) = 5.87385 6.83658 6.37342
#
# Compressibility (1/GPa) = 0.02656296
#
# Stress axis : x y z
#
# Youngs Moduli (GPa) = 86.42558 35.50671 89.07062
#
# Poissons Ratio (x) = 0.15417 0.46247
# Poissons Ratio (y) = 0.37525 0.23739
# Poissons Ratio (z) = 0.44873 0.09463
#
# Static dielectric constant tensor:
#      x y z
#    x 4.028250 0.000000 0.000000 
#    y 0.000000 3.378500 0.000000 
#    z 0.000000 0.000000 3.638910 
# 
# 
# High freq. dielectric constant tensor:
#      x y z
#    x 1.766180 0.000000 0.000000 
#    y 0.000000 1.735180 0.000000 
#    z 0.000000 0.000000 1.756530 
# 
# From -- ./inp_files/25923.got.cif
#   From: 2010.03.12/outbox.cif.g09.slc.cpg/sg51_13_cif.got.tgz:25923.got - 2010.04.16 13:43:02.
