data_PCOD8212412
_publ_section_title
;
Structure prediction by ZEFSAII (Michael W. Deem and Ramdas Pophale) SiO2 
 PCOD8212412
Probable space group: P M M A
;
_chemical_formula_sum "Si O2"
_cell_formula_units_Z 64
_cell_length_a 17.622433
_cell_length_b 9.242163
_cell_length_c 21.536357
_cell_angle_alpha 90.000000
_cell_angle_beta 90.000000
_cell_angle_gamma 90.000000
_cell_volume 3507.613505
_symmetry_space_group_name_H-M "P M M A"
_symmetry_group_IT_number 51
_symmetry_cell_setting 'orthorhombic'
loop_
_space_group_symop_operation_xyz
x,y,z
1/2-x,-y,z
1/2+x,-y,-z
-x,y,-z
-x,-y,-z
1/2+x,y,-z
1/2-x,y,z
x,-y,z
loop_
_atom_site_type_symbol
_atom_site_label
_atom_site_fract_x
_atom_site_fract_y
_atom_site_fract_z
Si Si1 0.836890 0.833446 0.495738
Si Si2 0.945580 0.164747 0.187345
Si Si3 0.336363 0.329258 0.729892
Si Si4 0.393488 0.835325 0.242082
Si Si5 0.967965 0.169917 0.934260
Si Si6 0.419303 0.165540 0.378911
Si Si7 0.425871 0.328381 0.608353
Si Si8 0.663515 0.333149 0.870599
O O1 0.750000 0.787775 0.486771
O O2 0.858604 0.807351 0.567232
O O3 0.888565 0.732941 0.453604
O O4 0.850317 0.000000 0.476962
O O5 0.876243 0.263456 0.209403
O O6 0.017103 0.191302 0.232093
O O7 0.968868 0.207842 0.117317
O O8 0.917856 0.000000 0.190325
O O9 0.250000 0.274545 0.727319
O O10 0.340935 0.500000 0.735937
O O11 0.377826 0.274662 0.667621
O O12 0.376163 0.802025 0.314070
O O13 0.344547 0.730695 0.198739
O O14 0.372472 0.000000 0.224021
O O15 0.889607 0.251402 0.919833
O O16 0.949563 0.000000 0.934055
O O17 0.000000 0.223182 0.000000
O O18 0.489007 0.272736 0.387281
O O19 0.449462 0.000000 0.379391
O O20 0.426844 0.500000 0.603839
O O21 0.750000 0.314504 0.892853
O O22 0.639314 0.500000 0.868283
#
# Coordination Sequence:
#
# PCOD8212412 Si02
#       8
#     8   8   8   8   8   8   8   8
#     4  10  22  38  54  74 102 138 179 225 276 325
#     4   9  17  32  54  80 105 131 170 216 262 311
#     4  10  21  35  51  74 104 139 176 215 264 319
#     4   9  18  33  55  80 106 138 177 221 270 322
#     4   9  19  37  60  84 110 144 186 228 267 314
#     4  10  20  36  57  80 105 135 177 226 272 327
#     4  11  22  36  55  77 104 139 179 222 270 326
#     4  10  21  35  53  82 118 150 184 225 267 317
#
# _framework density 18.246023999999998
#
# number of rings (size 3 to 8) (size 9 to 14) (size 15 to 20)
#    0.000    2.250    1.250    2.250    0.000    7.750 
#    0.000    1.875    0.000    3.750    0.000    0.000 
#    0.000    0.000    0.000    0.000    0.000    0.000 
#
# Total GULP energy -793763.354272 kJ/mol
# GULP energy per Si atom -12402.552410 kJ/mol
# Density = 1.820449 g / cm^3
# Si number density = 18.246024 Si / 1000 Ang^3
#
#
#
# Elastic Constant Matrix: (Units=GPa)
#
#
# Indices 1 2 3 4 5 6 
#
# 1 68.7574 38.1758 31.0792 0.0000 0.0000 0.0000
# 2 38.1758 66.0537 39.5163 0.0000 0.0000 0.0000
# 3 31.0792 39.5163 117.7851 0.0000 0.0000 0.0000
# 4 0.0000 0.0000 0.0000 18.8038 0.0000 0.0000
# 5 0.0000 0.0000 0.0000 0.0000 19.0391 0.0000
# 6 0.0000 0.0000 0.0000 0.0000 0.0000 27.5580
#
#
#
# Elastic Compliance Matrix: (Units=1/GPa)
#
#
# Indices 1 2 3 4 5 6 
#
# 1 0.021752 -0.011433 -0.001904 0.000000 0.000000 0.000000
# 2 -0.011433 0.024950 -0.005354 0.000000 0.000000 0.000000
# 3 -0.001904 -0.005354 0.010789 0.000000 0.000000 0.000000
# 4 0.000000 0.000000 0.000000 0.053181 0.000000 0.000000
# 5 0.000000 0.000000 0.000000 0.000000 0.052523 0.000000
# 6 0.000000 0.000000 0.000000 0.000000 0.000000 0.036287
#
#
# Mechanical properties :
#
#
# Convention : Reuss Voigt Hill
#
# Bulk Modulus (GPa) = 49.72778 52.23764 50.98271
# Shear Modulus (GPa) = 20.52835 22.66852 21.59843
#
# Velocity S-wave (km/s) = 3.35787 3.52857 3.44428
# Velocity P-wave (km/s) = 6.50745 6.72999 6.61966
#
# Compressibility (1/GPa) = 0.02010949
#
# Stress axis : x y z
#
# Youngs Moduli (GPa) = 45.97240 40.08087 92.69027
#
# Poissons Ratio (x) = 0.45823 0.17648
# Poissons Ratio (y) = 0.52558 0.49625
# Poissons Ratio (z) = 0.08753 0.21459
#
# Static dielectric constant tensor:
#      x y z
#    x 3.242170 0.000000 0.000000 
#    y 0.000000 3.304960 0.000000 
#    z 0.000000 0.000000 3.451450 
# 
# 
# High freq. dielectric constant tensor:
#      x y z
#    x 1.698710 0.000000 0.000000 
#    y 0.000000 1.703360 0.000000 
#    z 0.000000 0.000000 1.708310 
# 
# From -- ./inp_files/33959.got.cif
#   From: 2010.03.12/outbox.cif.g09.slc.cpg/sg51_17_cif.got.tgz:33959.got - 2010.04.16 13:43:02.
