data_PCOD8212866
_publ_section_title
;
Structure prediction by ZEFSAII (Michael W. Deem and Ramdas Pophale) SiO2 
 PCOD8212866
Probable space group: P M M A
;
_chemical_formula_sum "Si O2"
_cell_formula_units_Z 48
_cell_length_a 19.405056
_cell_length_b 7.845114
_cell_length_c 16.177375
_cell_angle_alpha 90.000000
_cell_angle_beta 90.000000
_cell_angle_gamma 90.000000
_cell_volume 2462.760685
_symmetry_space_group_name_H-M "P M M A"
_symmetry_group_IT_number 51
_symmetry_cell_setting 'orthorhombic'
loop_
_space_group_symop_operation_xyz
x,y,z
1/2-x,-y,z
1/2+x,-y,-z
-x,y,-z
-x,-y,-z
1/2+x,y,-z
1/2-x,y,z
x,-y,z
loop_
_atom_site_type_symbol
_atom_site_label
_atom_site_fract_x
_atom_site_fract_y
_atom_site_fract_z
Si Si1 0.571821 0.500000 0.046739
Si Si2 0.172377 0.500000 0.103345
Si Si3 0.546655 0.810786 0.158831
Si Si4 0.072661 0.306311 0.663303
Si Si5 0.427288 0.198785 0.382342
Si Si6 0.327689 0.798619 0.524149
Si Si7 0.609295 0.806161 0.803257
O O1 0.581981 0.668546 0.102362
O O2 0.500000 0.500000 0.000000
O O3 0.631372 0.500000 0.980877
O O4 0.250000 0.500000 0.074580
O O5 0.159905 0.329489 0.156255
O O6 0.571500 0.805096 0.253667
O O7 0.464951 0.780500 0.155099
O O8 0.564882 0.000000 0.124966
O O9 0.079249 0.500000 0.691482
O O10 0.139246 0.253223 0.611130
O O11 0.002817 0.282433 0.609929
O O12 0.375154 0.276935 0.450356
O O13 0.394142 0.236068 0.293586
O O14 0.438657 0.000000 0.397400
O O15 0.250000 0.723262 0.518447
O O16 0.324460 0.000000 0.515998
O O17 0.635904 0.000000 0.817248
#
# Coordination Sequence:
#
# PCOD8212866 Si02
#       7
#     4   4   8   8   8   8   8
#     4  12  22  40  66  91 121 150 191 248 291 357
#     4  12  26  40  58  89 127 161 189 234 298 360
#     4  10  20  38  66  95 117 149 198 251 301 349
#     4  11  21  35  58  87 120 153 197 254 299 349
#     4   9  19  35  59  86 115 152 203 254 294 342
#     4  10  21  37  55  79 116 163 209 250 297 349
#     4   9  19  37  61  89 119 155 197 243 295 353
#
# _framework density 19.490321999999999
#
# number of rings (size 3 to 8) (size 9 to 14) (size 15 to 20)
#    0.000    1.833    2.500    3.000    3.500    5.000 
#    0.000    2.500    0.000    1.000    0.000    0.000 
#    0.000    0.000    0.000    0.000    0.000    0.000 
#
# Total GULP energy -595256.508284 kJ/mol
# GULP energy per Si atom -12401.177256 kJ/mol
# Density = 1.944596 g / cm^3
# Si number density = 19.490322 Si / 1000 Ang^3
#
#
#
# Elastic Constant Matrix: (Units=GPa)
#
#
# Indices 1 2 3 4 5 6 
#
# 1 111.3340 34.7453 50.9366 0.0000 0.0000 0.0000
# 2 34.7453 96.2826 37.6136 0.0000 0.0000 0.0000
# 3 50.9366 37.6136 80.6309 0.0000 0.0000 0.0000
# 4 0.0000 0.0000 0.0000 29.2586 0.0000 0.0000
# 5 0.0000 0.0000 0.0000 0.0000 24.0894 0.0000
# 6 0.0000 0.0000 0.0000 0.0000 0.0000 19.0600
#
#
#
# Elastic Compliance Matrix: (Units=1/GPa)
#
#
# Indices 1 2 3 4 5 6 
#
# 1 0.012883 -0.001797 -0.007300 0.000000 0.000000 0.000000
# 2 -0.001797 0.012951 -0.004906 0.000000 0.000000 0.000000
# 3 -0.007300 -0.004906 0.019303 0.000000 0.000000 0.000000
# 4 0.000000 0.000000 0.000000 0.034178 0.000000 0.000000
# 5 0.000000 0.000000 0.000000 0.000000 0.041512 0.000000
# 6 0.000000 0.000000 0.000000 0.000000 0.000000 0.052466
#
#
# Mechanical properties :
#
#
# Convention : Reuss Voigt Hill
#
# Bulk Modulus (GPa) = 58.37855 59.42650 58.90252
# Shear Modulus (GPa) = 24.15352 25.47841 24.81596
#
# Velocity S-wave (km/s) = 3.52413 3.61949 3.57213
# Velocity P-wave (km/s) = 6.82473 6.92994 6.87754
#
# Compressibility (1/GPa) = 0.01712958
#
# Stress axis : x y z
#
# Youngs Moduli (GPa) = 77.62375 77.21206 51.80665
#
# Poissons Ratio (x) = 0.13876 0.37819
# Poissons Ratio (y) = 0.13950 0.25418
# Poissons Ratio (z) = 0.56665 0.37883
#
# Static dielectric constant tensor:
#      x y z
#    x 4.451910 0.000000 0.000000 
#    y 0.000000 3.603720 0.000000 
#    z 0.000000 0.000000 3.528860 
# 
# 
# High freq. dielectric constant tensor:
#      x y z
#    x 1.730840 0.000000 0.000000 
#    y 0.000000 1.766290 0.000000 
#    z 0.000000 0.000000 1.758670 
# 
# From -- ./inp_files/24919.got.cif
#   From: 2010.03.12/outbox.cif.g09.slc.cpg/sg51_13_cif.got.tgz:24919.got - 2010.04.16 13:43:02.
