data_PCOD8212150
_publ_section_title
;
Structure prediction by ZEFSAII (Michael W. Deem and Ramdas Pophale) SiO2 
 PCOD8212150
Probable space group: P M M A
;
_chemical_formula_sum "Si O2"
_cell_formula_units_Z 48
_cell_length_a 17.756243
_cell_length_b 8.915685
_cell_length_c 15.407079
_cell_angle_alpha 90.000000
_cell_angle_beta 90.000000
_cell_angle_gamma 90.000000
_cell_volume 2439.080338
_symmetry_space_group_name_H-M "P M M A"
_symmetry_group_IT_number 51
_symmetry_cell_setting 'orthorhombic'
loop_
_space_group_symop_operation_xyz
x,y,z
1/2-x,-y,z
1/2+x,-y,-z
-x,y,-z
-x,-y,-z
1/2+x,y,-z
1/2-x,y,z
x,-y,z
loop_
_atom_site_type_symbol
_atom_site_label
_atom_site_fract_x
_atom_site_fract_y
_atom_site_fract_z
Si Si1 0.927672 0.322915 0.848268
Si Si2 0.587407 0.176752 0.173095
Si Si3 0.336765 0.323654 0.665289
Si Si4 0.336481 0.328652 0.982192
Si Si5 0.165043 0.678708 0.317853
Si Si6 0.415813 0.677875 0.489587
O O1 0.940898 0.500000 0.842046
O O2 0.879096 0.264484 0.766913
O O3 0.006796 0.241490 0.851183
O O4 0.885028 0.277016 0.935757
O O5 0.613147 0.237506 0.265626
O O6 0.646786 0.225069 0.100009
O O7 0.583075 0.000000 0.177534
O O8 0.250000 0.277448 0.675440
O O9 0.348344 0.500000 0.679528
O O10 0.364770 0.273314 0.570633
O O11 0.250000 0.310669 0.008982
O O12 0.355137 0.500000 0.956630
O O13 0.250000 0.742592 0.315891
O O14 0.167366 0.500000 0.320073
O O15 0.122268 0.742994 0.402483
O O16 0.500000 0.744242 0.500000
O O17 0.420054 0.500000 0.482537
#
# Coordination Sequence:
#
# PCOD8212150 Si02
#       6
#     8   8   8   8   8   8
#     4  10  20  36  59  84 110 141 177 219 269 323
#     4  12  25  38  54  78 109 146 186 226 270 318
#     4  10  20  35  56  81 109 143 183 225 269 318
#     4  10  21  38  60  85 111 140 177 221 269 322
#     4   9  16  28  51  84 115 139 171 220 272 321
#     4   9  16  27  48  81 116 144 172 214 269 323
#
# _framework density 19.679549000000002
#
# number of rings (size 3 to 8) (size 9 to 14) (size 15 to 20)
#    0.000    2.000    0.000    4.500    0.000   12.000 
#    0.000    0.000    0.000    6.000    0.000    0.000 
#    0.000    0.000    0.000    0.000    0.000    0.000 
#
# Total GULP energy -595372.351410 kJ/mol
# GULP energy per Si atom -12403.590654 kJ/mol
# Density = 1.963476 g / cm^3
# Si number density = 19.679549 Si / 1000 Ang^3
#
#
#
# Elastic Constant Matrix: (Units=GPa)
#
#
# Indices 1 2 3 4 5 6 
#
# 1 99.0431 18.8331 18.9826 0.0000 0.0000 0.0000
# 2 18.8331 37.8739 24.6485 0.0000 0.0000 0.0000
# 3 18.9826 24.6485 109.8203 0.0000 0.0000 0.0000
# 4 0.0000 0.0000 0.0000 -1.4675 0.0000 0.0000
# 5 0.0000 0.0000 0.0000 0.0000 45.5932 0.0000
# 6 0.0000 0.0000 0.0000 0.0000 0.0000 2.0145
#
#
#
# Elastic Compliance Matrix: (Units=1/GPa)
#
#
# Indices 1 2 3 4 5 6 
#
# 1 0.011211 -0.005052 -0.000804 0.000000 0.000000 0.000000
# 2 -0.005052 0.033196 -0.006577 0.000000 0.000000 0.000000
# 3 -0.000804 -0.006577 0.010721 0.000000 0.000000 0.000000
# 4 0.000000 0.000000 0.000000 -0.681412 0.000000 0.000000
# 5 0.000000 0.000000 0.000000 0.000000 0.021933 0.000000
# 6 0.000000 0.000000 0.000000 0.000000 0.000000 0.496390
#
#
# Mechanical properties :
#
#
# Convention : Reuss Voigt Hill
#
# Bulk Modulus (GPa) = 33.04469 41.29618 37.17043
# Shear Modulus (GPa) = -68.48687 21.51291 -23.48698
#
# Velocity S-wave (km/s) = -5.90564 3.30989 -3.45841
# Velocity P-wave (km/s) = 5.44741 5.96967 1.72666
#
# Compressibility (1/GPa) = 0.03026205
#
# Stress axis : x y z
#
# Youngs Moduli (GPa) = 89.19578 30.12407 93.27446
#
# Poissons Ratio (x) = 0.15217 0.07500
# Poissons Ratio (y) = 0.45058 0.61351
# Poissons Ratio (z) = 0.07172 0.19814
#
# Static dielectric constant tensor:
#      x y z
#    x 3.790370 0.000000 0.000000 
#    y 0.000000 3.105930 0.000000 
#    z 0.000000 0.000000 3.782430 
# 
# 
# High freq. dielectric constant tensor:
#      x y z
#    x 1.787110 0.000000 0.000000 
#    y 0.000000 1.709790 0.000000 
#    z 0.000000 0.000000 1.786130 
# 
# From -- ./inp_files/24675.got.cif
#   From: 2010.03.12/outbox.cif.g09.slc.cpg/sg51_13_cif.got.tgz:24675.got - 2010.04.16 13:43:02.
