data_PCOD8212400
_publ_section_title
;
Structure prediction by ZEFSAII (Michael W. Deem and Ramdas Pophale) SiO2 
 PCOD8212400
Probable space group: P M M A
;
_chemical_formula_sum "Si O2"
_cell_formula_units_Z 40
_cell_length_a 8.524926
_cell_length_b 25.162167
_cell_length_c 9.709012
_cell_angle_alpha 90.000000
_cell_angle_beta 90.000000
_cell_angle_gamma 90.000000
_cell_volume 2082.637558
_symmetry_space_group_name_H-M "P M M A"
_symmetry_group_IT_number 51
_symmetry_cell_setting 'orthorhombic'
loop_
_space_group_symop_operation_xyz
x,y,z
1/2-x,-y,z
1/2+x,-y,-z
-x,y,-z
-x,-y,-z
1/2+x,y,-z
1/2-x,y,z
x,-y,z
loop_
_atom_site_type_symbol
_atom_site_label
_atom_site_fract_x
_atom_site_fract_y
_atom_site_fract_z
Si Si1 0.565351 0.292807 0.356111
Si Si2 0.564801 0.500000 0.846589
Si Si3 0.063999 0.587204 0.647548
Si Si4 0.936513 0.796090 0.147403
Si Si5 0.935764 0.000000 0.345661
Si Si6 0.935730 0.090021 0.848630
O O1 0.500000 0.272244 0.500000
O O2 0.750000 0.292527 0.363062
O O3 0.506524 0.352500 0.323644
O O4 0.504088 0.251519 0.243525
O O5 0.750000 0.500000 0.851594
O O6 0.506133 0.447640 0.769232
O O7 0.500000 0.500000 0.000000
O O8 0.250000 0.581502 0.647100
O O9 0.000000 0.567438 0.500000
O O10 0.750000 0.803183 0.145824
O O11 0.014352 0.850942 0.196121
O O12 0.000000 0.779531 0.000000
O O13 0.000000 0.000000 0.500000
O O14 0.994945 0.948266 0.266261
O O15 0.750000 0.000000 0.350440
O O16 0.750000 0.084578 0.852421
O O17 0.000000 0.075330 0.000000
#
# Coordination Sequence:
#
# PCOD8212400 Si02
#       6
#     8   4   8   8   4   8
#     4   9  20  36  57  83 113 146 186 229 275 328
#     4  12  25  40  57  82 112 146 184 232 285 336
#     4  10  20  38  60  84 112 148 189 231 276 333
#     4  10  20  36  56  83 114 148 188 232 277 330
#     4  12  25  42  61  86 116 148 186 234 285 336
#     4  11  22  39  61  86 114 151 192 233 278 333
#
# _framework density 19.206413999999999
#
# number of rings (size 3 to 8) (size 9 to 14) (size 15 to 20)
#    0.000    1.600    0.000    6.600    0.000    4.000 
#    0.000    4.000    0.000    0.000    0.000    0.000 
#    0.000    0.000    0.000    0.000    0.000    0.000 
#
# Total GULP energy -496102.544516 kJ/mol
# GULP energy per Si atom -12402.563613 kJ/mol
# Density = 1.916270 g / cm^3
# Si number density = 19.206414 Si / 1000 Ang^3
#
#
#
# Elastic Constant Matrix: (Units=GPa)
#
#
# Indices 1 2 3 4 5 6 
#
# 1 127.2811 50.3276 62.2057 0.0000 0.0000 0.0000
# 2 50.3276 140.7740 113.1958 0.0000 0.0000 0.0000
# 3 62.2057 113.1958 170.6272 0.0000 0.0000 0.0000
# 4 0.0000 0.0000 0.0000 46.3373 0.0000 0.0000
# 5 0.0000 0.0000 0.0000 0.0000 37.0492 0.0000
# 6 0.0000 0.0000 0.0000 0.0000 0.0000 31.5923
#
#
#
# Elastic Compliance Matrix: (Units=1/GPa)
#
#
# Indices 1 2 3 4 5 6 
#
# 1 0.009676 -0.001335 -0.002642 0.000000 0.000000 0.000000
# 2 -0.001335 0.015410 -0.009736 0.000000 0.000000 0.000000
# 3 -0.002642 -0.009736 0.013283 0.000000 0.000000 0.000000
# 4 0.000000 0.000000 0.000000 0.021581 0.000000 0.000000
# 5 0.000000 0.000000 0.000000 0.000000 0.026991 0.000000
# 6 0.000000 0.000000 0.000000 0.000000 0.000000 0.031653
#
#
# Mechanical properties :
#
#
# Convention : Reuss Voigt Hill
#
# Bulk Modulus (GPa) = 91.38810 98.90448 95.14629
# Shear Modulus (GPa) = 33.40743 37.19264 35.30004
#
# Velocity S-wave (km/s) = 4.17512 4.40531 4.29176
# Velocity P-wave (km/s) = 8.42185 8.80244 8.61425
#
# Compressibility (1/GPa) = 0.01094234
#
# Stress axis : x y z
#
# Youngs Moduli (GPa) = 103.35308 64.89408 75.28334
#
# Poissons Ratio (x) = 0.08661 0.19890
# Poissons Ratio (y) = 0.13794 0.73299
# Poissons Ratio (z) = 0.27306 0.63183
#
# Static dielectric constant tensor:
#      x y z
#    x 3.621630 0.000000 0.000000 
#    y 0.000000 3.840670 0.000000 
#    z 0.000000 0.000000 3.566080 
# 
# 
# High freq. dielectric constant tensor:
#      x y z
#    x 1.762190 0.000000 0.000000 
#    y 0.000000 1.760640 0.000000 
#    z 0.000000 0.000000 1.747810 
# 
# From -- ./inp_files/5624.got.cif
#   From: 2010.03.12/outbox.cif.g09.slc.cpg/sg51_3_cif.got.tgz:5624.got - 2010.04.16 13:43:02.
