data_PCOD8212130
_publ_section_title
;
Structure prediction by ZEFSAII (Michael W. Deem and Ramdas Pophale) SiO2 
 PCOD8212130
Probable space group: P M M A
;
_chemical_formula_sum "Si O2"
_cell_formula_units_Z 48
_cell_length_a 29.831993
_cell_length_b 8.564084
_cell_length_c 9.976376
_cell_angle_alpha 90.000000
_cell_angle_beta 90.000000
_cell_angle_gamma 90.000000
_cell_volume 2548.801393
_symmetry_space_group_name_H-M "P M M A"
_symmetry_group_IT_number 51
_symmetry_cell_setting 'orthorhombic'
loop_
_space_group_symop_operation_xyz
x,y,z
1/2-x,-y,z
1/2+x,-y,-z
-x,y,-z
-x,-y,-z
1/2+x,y,-z
1/2-x,y,z
x,-y,z
loop_
_atom_site_type_symbol
_atom_site_label
_atom_site_fract_x
_atom_site_fract_y
_atom_site_fract_z
Si Si1 0.866671 0.818495 0.613298
Si Si2 0.198905 0.819609 0.878183
Si Si3 0.197699 0.679937 0.599459
Si Si4 0.960781 0.314631 0.597932
Si Si5 0.035730 0.315911 0.102236
Si Si6 0.136706 0.317754 0.098818
O O1 0.828821 0.787396 0.503680
O O2 0.914383 0.764523 0.552904
O O3 0.854580 0.722058 0.746387
O O4 0.867993 0.000000 0.649292
O O5 0.250000 0.777569 0.914602
O O6 0.182520 0.720044 0.750608
O O7 0.193573 0.000000 0.840815
O O8 0.169649 0.780782 0.007192
O O9 0.250000 0.717873 0.581298
O O10 0.186632 0.500000 0.570856
O O11 0.953995 0.500000 0.592341
O O12 0.973667 0.256376 0.747132
O O13 0.000000 0.257643 0.500000
O O14 0.029710 0.500000 0.100617
O O15 0.085991 0.270915 0.058278
O O16 0.000000 0.237938 0.000000
O O17 0.145772 0.500000 0.076832
#
# Coordination Sequence:
#
# PCOD8212130 Si02
#       6
#     8   8   8   8   8   8
#     4  11  22  36  55  79 111 146 180 225 277 325
#     4  10  21  37  56  80 111 143 175 217 272 327
#     4  10  21  38  59  81 106 139 181 226 270 323
#     4   9  18  33  53  76 104 139 179 222 266 317
#     4   8  15  29  49  74 101 130 169 215 259 303
#     4  10  20  35  56  80 107 142 184 225 264 315
#
# _framework density 18.832381000000002
#
# number of rings (size 3 to 8) (size 9 to 14) (size 15 to 20)
#    0.000    2.333    0.000    4.000    0.000    4.333 
#    0.000    3.333    0.000   12.500    0.000    0.000 
#    0.000    0.000    0.000    0.000    0.000    0.000 
#
# Total GULP energy -595303.332606 kJ/mol
# GULP energy per Si atom -12402.152763 kJ/mol
# Density = 1.878952 g / cm^3
# Si number density = 18.832381 Si / 1000 Ang^3
#
#
#
# Elastic Constant Matrix: (Units=GPa)
#
#
# Indices 1 2 3 4 5 6 
#
# 1 97.1584 26.4393 64.2857 0.0000 0.0000 0.0000
# 2 26.4393 48.2028 17.0695 0.0000 0.0000 0.0000
# 3 64.2857 17.0695 84.9336 0.0000 0.0000 0.0000
# 4 0.0000 0.0000 0.0000 26.6757 0.0000 0.0000
# 5 0.0000 0.0000 0.0000 0.0000 40.7331 0.0000
# 6 0.0000 0.0000 0.0000 0.0000 0.0000 23.9597
#
#
#
# Elastic Compliance Matrix: (Units=1/GPa)
#
#
# Indices 1 2 3 4 5 6 
#
# 1 0.022513 -0.006798 -0.015674 0.000000 0.000000 0.000000
# 2 -0.006798 0.024388 0.000244 0.000000 0.000000 0.000000
# 3 -0.015674 0.000244 0.023588 0.000000 0.000000 0.000000
# 4 0.000000 0.000000 0.000000 0.037487 0.000000 0.000000
# 5 0.000000 0.000000 0.000000 0.000000 0.024550 0.000000
# 6 0.000000 0.000000 0.000000 0.000000 0.000000 0.041737
#
#
# Mechanical properties :
#
#
# Convention : Reuss Voigt Hill
#
# Bulk Modulus (GPa) = 38.41170 49.54265 43.97718
# Shear Modulus (GPa) = 21.98797 26.44038 24.21418
#
# Velocity S-wave (km/s) = 3.42067 3.75104 3.58966
# Velocity P-wave (km/s) = 6.00352 6.71749 6.37051
#
# Compressibility (1/GPa) = 0.02603373
#
# Stress axis : x y z
#
# Youngs Moduli (GPa) = 44.41861 41.00371 42.39401
#
# Poissons Ratio (x) = 0.27875 0.66447
# Poissons Ratio (y) = 0.30196 -0.01035
# Poissons Ratio (z) = 0.69621 -0.01001
#
# Static dielectric constant tensor:
#      x y z
#    x 3.528540 0.000000 0.000000 
#    y 0.000000 3.280550 0.000000 
#    z 0.000000 0.000000 3.518430 
# 
# 
# High freq. dielectric constant tensor:
#      x y z
#    x 1.732640 0.000000 0.000000 
#    y 0.000000 1.721810 0.000000 
#    z 0.000000 0.000000 1.732890 
# 
# From -- ./inp_files/12728.got.cif
#   From: 2010.03.12/outbox.cif.g09.slc.cpg/sg51_7_cif.got.tgz:12728.got - 2010.04.16 13:43:02.
