data_PCOD8212640
_publ_section_title
;
Structure prediction by ZEFSAII (Michael W. Deem and Ramdas Pophale) SiO2 
 PCOD8212640
Probable space group: P M M A
;
_chemical_formula_sum "Si O2"
_cell_formula_units_Z 48
_cell_length_a 27.776293
_cell_length_b 9.141660
_cell_length_c 9.828033
_cell_angle_alpha 90.000000
_cell_angle_beta 90.000000
_cell_angle_gamma 90.000000
_cell_volume 2495.548161
_symmetry_space_group_name_H-M "P M M A"
_symmetry_group_IT_number 51
_symmetry_cell_setting 'orthorhombic'
loop_
_space_group_symop_operation_xyz
x,y,z
1/2-x,-y,z
1/2+x,-y,-z
-x,y,-z
-x,-y,-z
1/2+x,y,-z
1/2-x,y,z
x,-y,z
loop_
_atom_site_type_symbol
_atom_site_label
_atom_site_fract_x
_atom_site_fract_y
_atom_site_fract_z
Si Si1 0.250000 0.673335 0.406994
Si Si2 0.994024 0.330177 0.154650
Si Si3 0.156136 0.830956 0.046335
Si Si4 0.750000 0.673687 0.903213
Si Si5 0.902195 0.333763 0.734629
Si Si6 0.650786 0.331378 0.462278
Si Si7 0.599411 0.830720 0.226108
O O1 0.250000 0.500000 0.399145
O O2 0.250000 0.731725 0.252397
O O3 0.202148 0.728911 0.483651
O O4 0.979850 0.500000 0.152417
O O5 0.952532 0.244443 0.233799
O O6 0.042009 0.299685 0.240541
O O7 0.000000 0.272314 0.000000
O O8 0.203822 0.737083 0.019235
O O9 0.130595 0.777587 0.182935
O O10 0.170103 0.000000 0.061819
O O11 0.119980 0.803425 0.923238
O O12 0.750000 0.500000 0.913998
O O13 0.889667 0.500000 0.780705
O O14 0.890436 0.312639 0.576238
O O15 0.655526 0.500000 0.418312
O O16 0.636383 0.237213 0.332879
O O17 0.593122 0.000000 0.260451
#
# Coordination Sequence:
#
# PCOD8212640 Si02
#       7
#     4   8   8   4   8   8   8
#     4   9  18  36  63  90 114 148 193 243 296 349
#     4  10  20  36  63  92 117 153 203 251 301 355
#     4  11  23  38  58  88 123 156 194 242 297 354
#     4  11  21  38  65  92 118 150 199 253 298 351
#     4  10  20  37  63  92 118 151 199 252 297 350
#     4  10  21  39  62  88 121 155 198 250 299 352
#     4  11  25  41  57  84 125 165 199 241 299 361
#
# _framework density 19.234251
#
# number of rings (size 3 to 8) (size 9 to 14) (size 15 to 20)
#    0.000    1.667    3.333    1.250    0.000    5.000 
#    0.000    5.417    0.000    0.000    0.000    0.000 
#    0.000    0.000    0.000    0.000    0.000    0.000 
#
# Total GULP energy -595434.356807 kJ/mol
# GULP energy per Si atom -12404.882433 kJ/mol
# Density = 1.919047 g / cm^3
# Si number density = 19.234251 Si / 1000 Ang^3
#
#
#
# Elastic Constant Matrix: (Units=GPa)
#
#
# Indices 1 2 3 4 5 6 
#
# 1 114.2736 45.2654 13.9405 0.0000 0.0000 0.0000
# 2 45.2654 83.0751 23.9236 0.0000 0.0000 0.0000
# 3 13.9405 23.9236 38.3973 0.0000 0.0000 0.0000
# 4 0.0000 0.0000 0.0000 28.2305 0.0000 0.0000
# 5 0.0000 0.0000 0.0000 0.0000 31.9311 0.0000
# 6 0.0000 0.0000 0.0000 0.0000 0.0000 25.4566
#
#
#
# Elastic Compliance Matrix: (Units=1/GPa)
#
#
# Indices 1 2 3 4 5 6 
#
# 1 0.011163 -0.005990 -0.000321 0.000000 0.000000 0.000000
# 2 -0.005990 0.017884 -0.008968 0.000000 0.000000 0.000000
# 3 -0.000321 -0.008968 0.031747 0.000000 0.000000 0.000000
# 4 0.000000 0.000000 0.000000 0.035423 0.000000 0.000000
# 5 0.000000 0.000000 0.000000 0.000000 0.031317 0.000000
# 6 0.000000 0.000000 0.000000 0.000000 0.000000 0.039283
#
#
# Mechanical properties :
#
#
# Convention : Reuss Voigt Hill
#
# Bulk Modulus (GPa) = 33.07217 44.66723 38.86970
# Shear Modulus (GPa) = 24.10197 27.29807 25.70002
#
# Velocity S-wave (km/s) = 3.54372 3.77137 3.65932
# Velocity P-wave (km/s) = 5.82887 6.49904 6.17305
#
# Compressibility (1/GPa) = 0.03023691
#
# Stress axis : x y z
#
# Youngs Moduli (GPa) = 89.58360 55.91729 31.49874
#
# Poissons Ratio (x) = 0.33494 0.01010
# Poissons Ratio (y) = 0.53660 0.28247
# Poissons Ratio (z) = 0.02873 0.50145
#
# Static dielectric constant tensor:
#      x y z
#    x 3.695820 0.000000 0.000000 
#    y 0.000000 3.410100 0.000000 
#    z 0.000000 0.000000 3.378430 
# 
# 
# High freq. dielectric constant tensor:
#      x y z
#    x 1.762210 0.000000 0.000000 
#    y 0.000000 1.738060 0.000000 
#    z 0.000000 0.000000 1.739860 
# 
# From -- ./inp_files/12984.got.cif
#   From: 2010.03.12/outbox.cif.g09.slc.cpg/sg51_7_cif.got.tgz:12984.got - 2010.04.16 13:43:02.
