data_PCOD8212338
_publ_section_title
;
Structure prediction by ZEFSAII (Michael W. Deem and Ramdas Pophale) SiO2 
 PCOD8212338
Probable space group: P M M A
;
_chemical_formula_sum "Si O2"
_cell_formula_units_Z 48
_cell_length_a 27.316165
_cell_length_b 14.532024
_cell_length_c 5.784064
_cell_angle_alpha 90.000000
_cell_angle_beta 90.000000
_cell_angle_gamma 90.000000
_cell_volume 2296.037218
_symmetry_space_group_name_H-M "P M M A"
_symmetry_group_IT_number 51
_symmetry_cell_setting 'orthorhombic'
loop_
_space_group_symop_operation_xyz
x,y,z
1/2-x,-y,z
1/2+x,-y,-z
-x,y,-z
-x,-y,-z
1/2+x,y,-z
1/2-x,y,z
x,-y,z
loop_
_atom_site_type_symbol
_atom_site_label
_atom_site_fract_x
_atom_site_fract_y
_atom_site_fract_z
Si Si1 0.620763 0.753320 0.229168
Si Si2 0.124625 0.603351 0.407255
Si Si3 0.954201 0.829546 0.878134
Si Si4 0.522929 0.360094 0.746560
Si Si5 0.692263 0.740660 0.847969
Si Si6 0.633459 0.103994 0.611829
O O1 0.606936 0.663224 0.373987
O O2 0.625047 0.848668 0.367200
O O3 0.577145 0.766675 0.051901
O O4 0.673142 0.734106 0.109596
O O5 0.140819 0.500000 0.476433
O O6 0.078344 0.600531 0.235793
O O7 0.170994 0.655354 0.296781
O O8 0.977231 0.751010 0.713827
O O9 0.918824 0.899613 0.745617
O O10 0.000000 0.882958 0.000000
O O11 0.500000 0.398685 0.500000
O O12 0.500000 0.389197 0.000000
O O13 0.750000 0.735556 0.842531
O O14 0.674261 0.838845 0.749353
O O15 0.652009 0.000000 0.577274
#
# Coordination Sequence:
#
# PCOD8212338 Si02
#       6
#     8   8   8   8   8   8
#     4  10  20  41  59  91 122 169 206 264 321 393
#     4  11  23  40  63  93 128 165 213 268 320 383
#     4  10  20  35  62  87 128 174 211 253 315 381
#     4  11  22  38  66  97 133 180 225 268 323 390
#     4  10  23  44  65  86 120 164 209 266 336 395
#     4  10  22  39  63  92 121 157 208 266 326 393
#
# _framework density 20.905583
#
# number of rings (size 3 to 8) (size 9 to 14) (size 15 to 20)
#    0.000    1.667    5.000    2.000    0.000    7.667 
#    0.000    0.833    0.000    0.500    0.000    0.000 
#    0.000    0.000    0.000    0.000    0.000    0.000 
#
# Total GULP energy -594745.961804 kJ/mol
# GULP energy per Si atom -12390.540871 kJ/mol
# Density = 2.085800 g / cm^3
# Si number density = 20.905583 Si / 1000 Ang^3
#
#
#
# Elastic Constant Matrix: (Units=GPa)
#
#
# Indices 1 2 3 4 5 6 
#
# 1 111.2759 0.6991 21.4536 0.0000 0.0000 0.0000
# 2 0.6991 134.6513 24.2685 0.0000 0.0000 0.0000
# 3 21.4536 24.2685 104.2130 0.0000 0.0000 0.0000
# 4 0.0000 0.0000 0.0000 -9.1779 0.0000 0.0000
# 5 0.0000 0.0000 0.0000 0.0000 18.8443 0.0000
# 6 0.0000 0.0000 0.0000 0.0000 0.0000 7.3877
#
#
#
# Elastic Compliance Matrix: (Units=1/GPa)
#
#
# Indices 1 2 3 4 5 6 
#
# 1 0.009371 0.000312 -0.002002 0.000000 0.000000 0.000000
# 2 0.000312 0.007762 -0.001872 0.000000 0.000000 0.000000
# 3 -0.002002 -0.001872 0.010444 0.000000 0.000000 0.000000
# 4 0.000000 0.000000 0.000000 -0.108957 0.000000 0.000000
# 5 0.000000 0.000000 0.000000 0.000000 0.053066 0.000000
# 6 0.000000 0.000000 0.000000 0.000000 0.000000 0.135361
#
#
# Mechanical properties :
#
#
# Convention : Reuss Voigt Hill
#
# Bulk Modulus (GPa) = 48.89098 49.22027 49.05562
# Shear Modulus (GPa) = 41.32634 23.65874 32.49254
#
# Velocity S-wave (km/s) = 4.45096 3.36772 3.94668
# Velocity P-wave (km/s) = 7.06060 6.22232 6.65467
#
# Compressibility (1/GPa) = 0.02045367
#
# Stress axis : x y z
#
# Youngs Moduli (GPa) = 106.71624 128.82705 95.75116
#
# Poissons Ratio (x) = -0.04021 0.19167
# Poissons Ratio (y) = -0.03331 0.17924
# Poissons Ratio (z) = 0.21362 0.24115
#
# Static dielectric constant tensor:
#      x y z
#    x 3.649480 0.000000 0.000000 
#    y 0.000000 3.527520 0.000000 
#    z 0.000000 0.000000 3.999060 
# 
# 
# High freq. dielectric constant tensor:
#      x y z
#    x 1.808640 0.000000 0.000000 
#    y 0.000000 1.798250 0.000000 
#    z 0.000000 0.000000 1.823610 
# 
# From -- ./inp_files/3510.got.cif
#   From: 2010.03.12/outbox.cif.g09.slc.cpg/sg51_2_cif.got.tgz:3510.got - 2010.04.16 13:43:02.
