data_PCOD8212994
_publ_section_title
;
Structure prediction by ZEFSAII (Michael W. Deem and Ramdas Pophale) SiO2 
 PCOD8212994
Probable space group: P M M A
;
_chemical_formula_sum "Si O2"
_cell_formula_units_Z 36
_cell_length_a 17.537000
_cell_length_b 7.510343
_cell_length_c 15.547957
_cell_angle_alpha 90.000000
_cell_angle_beta 90.000000
_cell_angle_gamma 90.000000
_cell_volume 2047.804083
_symmetry_space_group_name_H-M "P M M A"
_symmetry_group_IT_number 51
_symmetry_cell_setting 'orthorhombic'
loop_
_space_group_symop_operation_xyz
x,y,z
1/2-x,-y,z
1/2+x,-y,-z
-x,y,-z
-x,-y,-z
1/2+x,y,-z
1/2-x,y,z
x,-y,z
loop_
_atom_site_type_symbol
_atom_site_label
_atom_site_fract_x
_atom_site_fract_y
_atom_site_fract_z
Si Si1 0.661738 0.000000 0.370678
Si Si2 0.338512 0.298821 0.495859
Si Si3 0.024104 0.000000 0.738811
Si Si4 0.583604 0.295804 0.680600
Si Si5 0.337688 0.704951 0.143519
Si Si6 0.447948 0.000000 0.083315
O O1 0.638605 0.826782 0.425482
O O2 0.614145 0.000000 0.282092
O O3 0.750000 0.000000 0.344524
O O4 0.250000 0.280910 0.474678
O O5 0.360624 0.500000 0.521681
O O6 0.380987 0.237576 0.409839
O O7 0.989945 0.176566 0.696080
O O8 0.009399 0.000000 0.840070
O O9 0.557026 0.500000 0.679468
O O10 0.645708 0.262556 0.755622
O O11 0.250000 0.757927 0.125981
O O12 0.352799 0.500000 0.117988
O O13 0.393724 0.826204 0.086123
O O14 0.500000 0.000000 0.000000
#
# Coordination Sequence:
#
# PCOD8212994 Si02
#       6
#     4   8   4   8   8   4
#     4  10  21  35  47  61  88 130 173 205 230 263
#     4   9  17  29  46  69  98 132 166 195 225 267
#     4  10  21  35  49  68  93 122 160 201 246 294
#     4   9  17  29  48  75 103 127 152 190 241 291
#     4   9  17  31  53  79 105 130 156 192 242 299
#     4  10  21  36  53  75 100 128 160 200 251 303
#
# _framework density 17.579806999999999
#
# number of rings (size 3 to 8) (size 9 to 14) (size 15 to 20)
#    0.000    2.667    0.000    1.667    0.000    5.778 
#    0.000    6.667    0.000    0.000    0.000    3.111 
#    0.000    0.000    0.000    0.000    0.000    0.000 
#
# Total GULP energy -446367.422879 kJ/mol
# GULP energy per Si atom -12399.095080 kJ/mol
# Density = 1.753979 g / cm^3
# Si number density = 17.579807 Si / 1000 Ang^3
#
#
#
# Elastic Constant Matrix: (Units=GPa)
#
#
# Indices 1 2 3 4 5 6 
#
# 1 110.7943 55.6799 72.6584 0.0000 0.0000 0.0000
# 2 55.6799 97.7708 46.1079 0.0000 0.0000 0.0000
# 3 72.6584 46.1079 87.4271 0.0000 0.0000 0.0000
# 4 0.0000 0.0000 0.0000 17.6561 0.0000 0.0000
# 5 0.0000 0.0000 0.0000 0.0000 30.8945 0.0000
# 6 0.0000 0.0000 0.0000 0.0000 0.0000 20.2003
#
#
#
# Elastic Compliance Matrix: (Units=1/GPa)
#
#
# Indices 1 2 3 4 5 6 
#
# 1 0.021595 -0.005104 -0.015255 0.000000 0.000000 0.000000
# 2 -0.005104 0.014820 -0.003574 0.000000 0.000000 0.000000
# 3 -0.015255 -0.003574 0.026001 0.000000 0.000000 0.000000
# 4 0.000000 0.000000 0.000000 0.056638 0.000000 0.000000
# 5 0.000000 0.000000 0.000000 0.000000 0.032368 0.000000
# 6 0.000000 0.000000 0.000000 0.000000 0.000000 0.049504
#
#
# Mechanical properties :
#
#
# Convention : Reuss Voigt Hill
#
# Bulk Modulus (GPa) = 68.73007 71.65382 70.19195
# Shear Modulus (GPa) = 19.71267 21.85326 20.78296
#
# Velocity S-wave (km/s) = 3.35225 3.52957 3.44205
# Velocity P-wave (km/s) = 7.35964 7.58012 7.47069
#
# Compressibility (1/GPa) = 0.01454967
#
# Stress axis : x y z
#
# Youngs Moduli (GPa) = 46.30661 67.47518 38.45940
#
# Poissons Ratio (x) = 0.34439 0.58671
# Poissons Ratio (y) = 0.23635 0.13746
# Poissons Ratio (z) = 0.70643 0.24117
#
# Static dielectric constant tensor:
#      x y z
#    x 3.092840 0.000000 0.000000 
#    y 0.000000 3.755250 0.000000 
#    z 0.000000 0.000000 2.934180 
# 
# 
# High freq. dielectric constant tensor:
#      x y z
#    x 1.669150 0.000000 0.000000 
#    y 0.000000 1.697890 0.000000 
#    z 0.000000 0.000000 1.644230 
# 
# From -- ./inp_files/23631.got.cif
#   From: 2010.03.12/outbox.cif.g09.slc.cpg/sg51_12_cif.got.tgz:23631.got - 2010.04.16 13:43:02.
