data_PCOD8212362
_publ_section_title
;
Structure prediction by ZEFSAII (Michael W. Deem and Ramdas Pophale) SiO2 
 PCOD8212362
Probable space group: P M M A
;
_chemical_formula_sum "Si O2"
_cell_formula_units_Z 36
_cell_length_a 8.755697
_cell_length_b 15.020950
_cell_length_c 14.554393
_cell_angle_alpha 90.000000
_cell_angle_beta 90.000000
_cell_angle_gamma 90.000000
_cell_volume 1914.177566
_symmetry_space_group_name_H-M "P M M A"
_symmetry_group_IT_number 51
_symmetry_cell_setting 'orthorhombic'
loop_
_space_group_symop_operation_xyz
x,y,z
1/2-x,-y,z
1/2+x,-y,-z
-x,y,-z
-x,-y,-z
1/2+x,y,-z
1/2-x,y,z
x,-y,z
loop_
_atom_site_type_symbol
_atom_site_label
_atom_site_fract_x
_atom_site_fract_y
_atom_site_fract_z
Si Si1 0.569448 0.752859 0.722237
Si Si2 0.069840 0.306848 0.898898
Si Si3 0.929222 0.397864 0.401583
Si Si4 0.572539 0.896434 0.403482
Si Si5 0.074615 0.500000 0.903398
O O1 0.750000 0.748131 0.719805
O O2 0.510642 0.759177 0.827356
O O3 0.502222 0.665898 0.673481
O O4 0.512650 0.843060 0.675608
O O5 0.250000 0.287953 0.903580
O O6 0.033018 0.406042 0.855651
O O7 0.000000 0.293562 0.000000
O O8 0.750000 0.379406 0.406427
O O9 0.963559 0.500000 0.373369
O O10 0.000000 0.375151 0.500000
O O11 0.500000 0.868151 0.500000
O O12 0.750000 0.870883 0.405384
O O13 0.546280 0.000000 0.383262
O O14 0.250000 0.500000 0.925835
O O15 0.000000 0.500000 0.000000
#
# Coordination Sequence:
#
# PCOD8212362 Si02
#       5
#     8   8   8   8   4
#     4  12  24  36  55  83 114 150 189 230 278 335
#     4  10  20  36  55  79 110 147 191 237 286 332
#     4  10  21  37  55  76 108 148 189 232 277 329
#     4  10  21  39  63  89 116 146 182 229 283 338
#     4   8  16  30  50  72  99 136 179 228 276 320
#
# _framework density 18.807032
#
# number of rings (size 3 to 8) (size 9 to 14) (size 15 to 20)
#    0.000    1.778    0.000    4.667    1.556    3.556 
#    0.000    0.000    0.000    0.667    0.000    0.000 
#    0.000    0.000    0.000    0.000    0.000    0.000 
#
# Total GULP energy -446278.794484 kJ/mol
# GULP energy per Si atom -12396.633180 kJ/mol
# Density = 1.876423 g / cm^3
# Si number density = 18.807032 Si / 1000 Ang^3
#
#
#
# Elastic Constant Matrix: (Units=GPa)
#
#
# Indices 1 2 3 4 5 6 
#
# 1 130.8794 43.9472 67.5764 0.0000 0.0000 0.0000
# 2 43.9472 71.9296 58.5500 0.0000 0.0000 0.0000
# 3 67.5764 58.5500 126.5860 0.0000 0.0000 0.0000
# 4 0.0000 0.0000 0.0000 1.1428 0.0000 0.0000
# 5 0.0000 0.0000 0.0000 0.0000 35.8142 0.0000
# 6 0.0000 0.0000 0.0000 0.0000 0.0000 27.9885
#
#
#
# Elastic Compliance Matrix: (Units=1/GPa)
#
#
# Indices 1 2 3 4 5 6 
#
# 1 0.010963 -0.003102 -0.004418 0.000000 0.000000 0.000000
# 2 -0.003102 0.023175 -0.009063 0.000000 0.000000 0.000000
# 3 -0.004418 -0.009063 0.014450 0.000000 0.000000 0.000000
# 4 0.000000 0.000000 0.000000 0.875019 0.000000 0.000000
# 5 0.000000 0.000000 0.000000 0.000000 0.027922 0.000000
# 6 0.000000 0.000000 0.000000 0.000000 0.000000 0.035729
#
#
# Mechanical properties :
#
#
# Convention : Reuss Voigt Hill
#
# Bulk Modulus (GPa) = 64.84121 74.39357 69.61739
# Shear Modulus (GPa) = 4.87536 23.61054 14.24295
#
# Velocity S-wave (km/s) = 1.61181 3.54702 2.75493
# Velocity P-wave (km/s) = 6.16570 7.51114 6.87143
#
# Compressibility (1/GPa) = 0.01542229
#
# Stress axis : x y z
#
# Youngs Moduli (GPa) = 91.21336 43.14950 69.20376
#
# Poissons Ratio (x) = 0.13386 0.30572
# Poissons Ratio (y) = 0.28297 0.62720
# Poissons Ratio (z) = 0.40295 0.39107
#
# Static dielectric constant tensor:
#      x y z
#    x 3.575100 0.000000 0.000000 
#    y 0.000000 3.491670 0.000000 
#    z 0.000000 0.000000 3.382190 
# 
# 
# High freq. dielectric constant tensor:
#      x y z
#    x 1.748160 0.000000 0.000000 
#    y 0.000000 1.717470 0.000000 
#    z 0.000000 0.000000 1.727510 
# 
# From -- ./inp_files/20331.got.cif
#   From: 2010.03.12/outbox.cif.g09.slc.cpg/sg51_11_cif.got.tgz:20331.got - 2010.04.16 13:43:02.
