data_PCOD8212767
_publ_section_title
;
Structure prediction by ZEFSAII (Michael W. Deem and Ramdas Pophale) SiO2 
 PCOD8212767
Probable space group: P M M A
;
_chemical_formula_sum "Si O2"
_cell_formula_units_Z 30
_cell_length_a 14.983173
_cell_length_b 7.557348
_cell_length_c 12.906059
_cell_angle_alpha 90.000000
_cell_angle_beta 90.000000
_cell_angle_gamma 90.000000
_cell_volume 1461.392456
_symmetry_space_group_name_H-M "P M M A"
_symmetry_group_IT_number 51
_symmetry_cell_setting 'orthorhombic'
loop_
_space_group_symop_operation_xyz
x,y,z
1/2-x,-y,z
1/2+x,-y,-z
-x,y,-z
-x,-y,-z
1/2+x,y,-z
1/2-x,y,z
x,-y,z
loop_
_atom_site_type_symbol
_atom_site_label
_atom_site_fract_x
_atom_site_fract_y
_atom_site_fract_z
Si Si1 0.250000 0.203735 0.416310
Si Si2 0.344928 0.500000 0.911169
Si Si3 0.426346 0.795110 0.286492
Si Si4 0.096531 0.195629 0.049501
Si Si5 0.936543 0.500000 0.296843
Si Si6 0.250000 0.500000 0.584377
O O1 0.162671 0.248290 0.349710
O O2 0.250000 0.322364 0.517732
O O3 0.250000 0.000000 0.451608
O O4 0.250000 0.500000 0.852024
O O5 0.423942 0.500000 0.827726
O O6 0.344454 0.670834 0.984300
O O7 0.407155 0.743142 0.168293
O O8 0.507534 0.674624 0.329256
O O9 0.455306 0.000000 0.297525
O O10 0.139619 0.000000 0.042785
O O11 0.000000 0.194974 0.000000
O O12 0.840189 0.500000 0.349114
#
# Coordination Sequence:
#
# PCOD8212767 Si02
#       6
#     4   4   8   8   4   2
#     4  10  24  46  67  93 123 153 204 268 321 368
#     4  12  24  36  54  88 132 172 205 244 292 358
#     4  10  22  41  67  96 126 161 201 252 311 370
#     4  10  20  37  61  90 125 164 204 242 291 364
#     4  12  24  42  63  89 127 165 210 255 306 365
#     4  12  28  46  64  90 120 162 212 266 316 366
#
# _framework density 20.528368
#
# number of rings (size 3 to 8) (size 9 to 14) (size 15 to 20)
#    0.000    1.333    3.333    2.000    1.867    3.733 
#    0.000    2.667    0.000    0.000    0.000    0.000 
#    0.000    0.000    0.000    0.000    0.000    0.000 
#
# Total GULP energy -371995.780411 kJ/mol
# GULP energy per Si atom -12399.859347 kJ/mol
# Density = 2.048164 g / cm^3
# Si number density = 20.528368 Si / 1000 Ang^3
#
#
#
# Elastic Constant Matrix: (Units=GPa)
#
#
# Indices 1 2 3 4 5 6 
#
# 1 146.6365 74.4382 50.2658 0.0000 0.0000 0.0000
# 2 74.4382 131.3544 53.6050 0.0000 0.0000 0.0000
# 3 50.2658 53.6050 95.5623 0.0000 0.0000 0.0000
# 4 0.0000 0.0000 0.0000 33.8589 0.0000 0.0000
# 5 0.0000 0.0000 0.0000 0.0000 30.1011 0.0000
# 6 0.0000 0.0000 0.0000 0.0000 0.0000 -19.6638
#
#
#
# Elastic Compliance Matrix: (Units=1/GPa)
#
#
# Indices 1 2 3 4 5 6 
#
# 1 0.010092 -0.004608 -0.002724 0.000000 0.000000 0.000000
# 2 -0.004608 0.011977 -0.004295 0.000000 0.000000 0.000000
# 3 -0.002724 -0.004295 0.014306 0.000000 0.000000 0.000000
# 4 0.000000 0.000000 0.000000 0.029534 0.000000 0.000000
# 5 0.000000 0.000000 0.000000 0.000000 0.033221 0.000000
# 6 0.000000 0.000000 0.000000 0.000000 0.000000 -0.050855
#
#
# Mechanical properties :
#
#
# Convention : Reuss Voigt Hill
#
# Bulk Modulus (GPa) = 76.20312 81.13012 78.66662
# Shear Modulus (GPa) = 65.87348 21.87551 43.87450
#
# Velocity S-wave (km/s) = 5.67086 3.26793 4.62807
# Velocity P-wave (km/s) = 8.94873 7.33798 8.18308
#
# Compressibility (1/GPa) = 0.01312282
#
# Stress axis : x y z
#
# Youngs Moduli (GPa) = 99.08476 83.49494 69.89972
#
# Poissons Ratio (x) = 0.38472 0.19040
# Poissons Ratio (y) = 0.45655 0.30019
# Poissons Ratio (z) = 0.26990 0.35858
#
# Static dielectric constant tensor:
#      x y z
#    x 3.641380 0.000000 0.000000 
#    y 0.000000 4.169280 0.000000 
#    z 0.000000 0.000000 3.627230 
# 
# 
# High freq. dielectric constant tensor:
#      x y z
#    x 1.806160 0.000000 0.000000 
#    y 0.000000 1.816550 0.000000 
#    z 0.000000 0.000000 1.793530 
# 
# From -- ./inp_files/15864.got.cif
#   From: 2010.03.12/outbox.cif.g09.slc.cpg/sg51_8_cif.got.tgz:15864.got - 2010.04.16 13:43:02.
