data_PCOD8212528
_publ_section_title
;
Structure prediction by ZEFSAII (Michael W. Deem and Ramdas Pophale) SiO2 
 PCOD8212528
Probable space group: P M M A
;
_chemical_formula_sum "Si O2"
_cell_formula_units_Z 64
_cell_length_a 23.974039
_cell_length_b 8.823268
_cell_length_c 16.133067
_cell_angle_alpha 90.000000
_cell_angle_beta 90.000000
_cell_angle_gamma 90.000000
_cell_volume 3412.617517
_symmetry_space_group_name_H-M "P M M A"
_symmetry_group_IT_number 51
_symmetry_cell_setting 'orthorhombic'
loop_
_space_group_symop_operation_xyz
x,y,z
1/2-x,-y,z
1/2+x,-y,-z
-x,y,-z
-x,-y,-z
1/2+x,y,-z
1/2-x,y,z
x,-y,z
loop_
_atom_site_type_symbol
_atom_site_label
_atom_site_fract_x
_atom_site_fract_y
_atom_site_fract_z
Si Si1 0.614833 0.676756 0.119380
Si Si2 0.097992 0.170659 0.619433
Si Si3 0.973677 0.823046 0.225760
Si Si4 0.686698 0.178525 0.979500
Si Si5 0.939231 0.324915 0.534876
Si Si6 0.186602 0.675393 0.195570
Si Si7 0.812586 0.170760 0.252322
Si Si8 0.409222 0.176788 0.293951
O O1 0.608533 0.500000 0.104907
O O2 0.553912 0.741257 0.145945
O O3 0.658319 0.711311 0.191784
O O4 0.638782 0.748646 0.035621
O O5 0.054489 0.234007 0.688417
O O6 0.101724 0.278670 0.539761
O O7 0.159675 0.173520 0.657599
O O8 0.080786 0.000000 0.592979
O O9 0.039631 0.788724 0.230546
O O10 0.960376 0.000000 0.216147
O O11 0.750000 0.228629 0.005733
O O12 0.674331 0.228593 0.886244
O O13 0.680835 0.000000 0.985355
O O14 0.931512 0.500000 0.558298
O O15 0.926793 0.223939 0.614291
O O16 0.000000 0.286709 0.500000
O O17 0.250000 0.702041 0.226455
O O18 0.175965 0.500000 0.175592
O O19 0.145061 0.729913 0.267319
O O20 0.750000 0.225148 0.263905
O O21 0.816538 0.000000 0.214485
O O22 0.394744 0.000000 0.293844
#
# Coordination Sequence:
#
# PCOD8212528 Si02
#       8
#     8   8   8   8   8   8   8   8
#     4  11  21  31  50  81 115 147 183 228 277 326
#     4   9  17  32  52  75 104 140 183 227 270 320
#     4   9  19  35  54  78 110 147 184 224 272 325
#     4  10  20  36  59  83 109 146 192 235 273 322
#     4  11  22  34  53  82 113 143 181 227 277 329
#     4  10  22  41  63  87 116 145 177 226 284 334
#     4   9  18  33  51  72 104 146 186 223 268 325
#     4  11  22  38  62  86 110 145 188 230 274 330
#
# _framework density 18.753931999999999
#
# number of rings (size 3 to 8) (size 9 to 14) (size 15 to 20)
#    0.000    2.000    1.250    3.750    0.000    6.750 
#    0.000    1.250    0.000    6.000    0.000    0.000 
#    0.000    0.000    0.000    0.000    0.000    0.000 
#
# Total GULP energy -793597.748872 kJ/mol
# GULP energy per Si atom -12399.964826 kJ/mol
# Density = 1.871125 g / cm^3
# Si number density = 18.753932 Si / 1000 Ang^3
#
#
#
# Elastic Constant Matrix: (Units=GPa)
#
#
# Indices 1 2 3 4 5 6 
#
# 1 92.5566 32.3102 34.6427 0.0000 0.0000 0.0000
# 2 32.3102 71.9447 29.7135 0.0000 0.0000 0.0000
# 3 34.6427 29.7135 71.7000 0.0000 0.0000 0.0000
# 4 0.0000 0.0000 0.0000 26.4308 0.0000 0.0000
# 5 0.0000 0.0000 0.0000 0.0000 25.8256 0.0000
# 6 0.0000 0.0000 0.0000 0.0000 0.0000 24.4792
#
#
#
# Elastic Compliance Matrix: (Units=1/GPa)
#
#
# Indices 1 2 3 4 5 6 
#
# 1 0.014202 -0.004276 -0.005090 0.000000 0.000000 0.000000
# 2 -0.004276 0.018057 -0.005417 0.000000 0.000000 0.000000
# 3 -0.005090 -0.005417 0.018651 0.000000 0.000000 0.000000
# 4 0.000000 0.000000 0.000000 0.037835 0.000000 0.000000
# 5 0.000000 0.000000 0.000000 0.000000 0.038721 0.000000
# 6 0.000000 0.000000 0.000000 0.000000 0.000000 0.040851
#
#
# Mechanical properties :
#
#
# Convention : Reuss Voigt Hill
#
# Bulk Modulus (GPa) = 46.85069 47.72602 47.28836
# Shear Modulus (GPa) = 24.39049 24.64944 24.51996
#
# Velocity S-wave (km/s) = 3.61023 3.62935 3.61980
# Velocity P-wave (km/s) = 6.51263 6.56252 6.53762
#
# Compressibility (1/GPa) = 0.02134440
#
# Stress axis : x y z
#
# Youngs Moduli (GPa) = 70.41308 55.37956 53.61589
#
# Poissons Ratio (x) = 0.23680 0.27290
# Poissons Ratio (y) = 0.30108 0.29045
# Poissons Ratio (z) = 0.35839 0.30000
#
# Static dielectric constant tensor:
#      x y z
#    x 3.511670 0.000000 0.000000 
#    y 0.000000 3.397990 0.000000 
#    z 0.000000 0.000000 3.272210 
# 
# 
# High freq. dielectric constant tensor:
#      x y z
#    x 1.722490 0.000000 0.000000 
#    y 0.000000 1.730180 0.000000 
#    z 0.000000 0.000000 1.714410 
# 
# From -- ./inp_files/26165.got.cif
#   From: 2010.03.12/outbox.cif.g09.slc.cpg/sg51_14_cif.got.tgz:26165.got - 2010.04.16 13:43:02.
