data_PCOD8212118
_publ_section_title
;
Structure prediction by ZEFSAII (Michael W. Deem and Ramdas Pophale) SiO2 
 PCOD8212118
Probable space group: P M M A
;
_chemical_formula_sum "Si O2"
_cell_formula_units_Z 48
_cell_length_a 8.836389
_cell_length_b 30.067335
_cell_length_c 9.508155
_cell_angle_alpha 90.000000
_cell_angle_beta 90.000000
_cell_angle_gamma 90.000000
_cell_volume 2526.190023
_symmetry_space_group_name_H-M "P M M A"
_symmetry_group_IT_number 51
_symmetry_cell_setting 'orthorhombic'
loop_
_space_group_symop_operation_xyz
x,y,z
1/2-x,-y,z
1/2+x,-y,-z
-x,y,-z
-x,-y,-z
1/2+x,y,-z
1/2-x,y,z
x,-y,z
loop_
_atom_site_type_symbol
_atom_site_label
_atom_site_fract_x
_atom_site_fract_y
_atom_site_fract_z
Si Si1 0.574493 0.447991 0.854854
Si Si2 0.429537 0.792834 0.149221
Si Si3 0.428135 0.872938 0.348466
Si Si4 0.572772 0.380726 0.349306
Si Si5 0.572134 0.299560 0.147408
Si Si6 0.071662 0.949798 0.146589
O O1 0.750000 0.435673 0.861636
O O2 0.546730 0.500000 0.831787
O O3 0.497896 0.423754 0.724154
O O4 0.500000 0.431570 0.000000
O O5 0.250000 0.789189 0.133349
O O6 0.478468 0.829631 0.261869
O O7 0.496690 0.745978 0.201540
O O8 0.500000 0.806439 0.000000
O O9 0.500000 0.870802 0.500000
O O10 0.250000 0.874705 0.366317
O O11 0.487214 0.917054 0.268458
O O12 0.500000 0.373951 0.500000
O O13 0.750000 0.388715 0.365349
O O14 0.534740 0.336968 0.260614
O O15 0.750000 0.292198 0.126436
O O16 0.500000 0.314601 0.000000
O O17 0.250000 0.945803 0.128396
O O18 0.021938 0.000000 0.186106
O O19 0.000000 0.934570 0.000000
#
# Coordination Sequence:
#
# PCOD8212118 Si02
#       6
#     8   8   8   8   8   8
#     4  10  21  38  61  87 114 146 185 228 272 321
#     4  10  20  35  56  80 105 136 176 221 266 314
#     4  10  22  36  51  76 108 141 176 215 262 316
#     4  11  24  39  57  82 113 149 185 225 274 326
#     4  10  21  37  58  83 108 139 180 223 269 320
#     4   9  18  34  55  78 104 135 174 219 264 312
#
# _framework density 19.000945999999999
#
# number of rings (size 3 to 8) (size 9 to 14) (size 15 to 20)
#    0.000    2.000    0.000    4.000    0.000    8.333 
#    0.000    3.333    0.000    0.000    0.000    0.000 
#    0.000    0.000    0.000    0.000    0.000    0.000 
#
# Total GULP energy -595382.386055 kJ/mol
# GULP energy per Si atom -12403.799709 kJ/mol
# Density = 1.895770 g / cm^3
# Si number density = 19.000946 Si / 1000 Ang^3
#
#
#
# Elastic Constant Matrix: (Units=GPa)
#
#
# Indices 1 2 3 4 5 6 
#
# 1 90.7904 63.7440 65.8852 0.0000 0.0000 0.0000
# 2 63.7440 117.0692 91.9707 0.0000 0.0000 0.0000
# 3 65.8852 91.9707 158.5101 0.0000 0.0000 0.0000
# 4 0.0000 0.0000 0.0000 16.1260 0.0000 0.0000
# 5 0.0000 0.0000 0.0000 0.0000 38.4303 0.0000
# 6 0.0000 0.0000 0.0000 0.0000 0.0000 22.8251
#
#
#
# Elastic Compliance Matrix: (Units=1/GPa)
#
#
# Indices 1 2 3 4 5 6 
#
# 1 0.018802 -0.007531 -0.003446 0.000000 0.000000 0.000000
# 2 -0.007531 0.018713 -0.007728 0.000000 0.000000 0.000000
# 3 -0.003446 -0.007728 0.012225 0.000000 0.000000 0.000000
# 4 0.000000 0.000000 0.000000 0.062012 0.000000 0.000000
# 5 0.000000 0.000000 0.000000 0.000000 0.026021 0.000000
# 6 0.000000 0.000000 0.000000 0.000000 0.000000 0.043811
#
#
# Mechanical properties :
#
#
# Convention : Reuss Voigt Hill
#
# Bulk Modulus (GPa) = 81.08986 89.95216 85.52101
# Shear Modulus (GPa) = 22.41112 25.12762 23.76937
#
# Velocity S-wave (km/s) = 3.43807 3.64048 3.54072
# Velocity P-wave (km/s) = 7.65048 8.06935 7.86271
#
# Compressibility (1/GPa) = 0.01233200
#
# Stress axis : x y z
#
# Youngs Moduli (GPa) = 53.18504 53.43744 81.80154
#
# Poissons Ratio (x) = 0.40243 0.28186
# Poissons Ratio (y) = 0.40053 0.63214
# Poissons Ratio (z) = 0.18326 0.41295
#
# Static dielectric constant tensor:
#      x y z
#    x 3.533570 0.000000 0.000000 
#    y 0.000000 3.697640 0.000000 
#    z 0.000000 0.000000 2.992980 
# 
# 
# High freq. dielectric constant tensor:
#      x y z
#    x 1.746650 0.000000 0.000000 
#    y 0.000000 1.752480 0.000000 
#    z 0.000000 0.000000 1.735790 
# 
# From -- ./inp_files/6056.got.cif
#   From: 2010.03.12/outbox.cif.g09.slc.cpg/sg51_4_cif.got.tgz:6056.got - 2010.04.16 13:43:02.
