data_PCOD8212672
_publ_section_title
;
Structure prediction by ZEFSAII (Michael W. Deem and Ramdas Pophale) SiO2 
 PCOD8212672
Probable space group: P M M A
;
_chemical_formula_sum "Si O2"
_cell_formula_units_Z 44
_cell_length_a 8.693065
_cell_length_b 27.212538
_cell_length_c 9.904084
_cell_angle_alpha 90.000000
_cell_angle_beta 90.000000
_cell_angle_gamma 90.000000
_cell_volume 2342.913693
_symmetry_space_group_name_H-M "P M M A"
_symmetry_group_IT_number 51
_symmetry_cell_setting 'orthorhombic'
loop_
_space_group_symop_operation_xyz
x,y,z
1/2-x,-y,z
1/2+x,-y,-z
-x,y,-z
-x,-y,-z
1/2+x,y,-z
1/2-x,y,z
x,-y,z
loop_
_atom_site_type_symbol
_atom_site_label
_atom_site_fract_x
_atom_site_fract_y
_atom_site_fract_z
Si Si1 0.926958 0.373993 0.856691
Si Si2 0.568170 0.811301 0.357464
Si Si3 0.569166 0.444706 0.359428
Si Si4 0.567309 0.916126 0.644722
Si Si5 0.568866 0.000000 0.850084
Si Si6 0.071780 0.739450 0.144692
O O1 0.750000 0.389382 0.860532
O O2 0.947709 0.317348 0.815606
O O3 0.015760 0.407365 0.752718
O O4 0.000000 0.384924 0.000000
O O5 0.500000 0.794165 0.500000
O O6 0.750000 0.817031 0.369362
O O7 0.496006 0.863076 0.312989
O O8 0.525443 0.770208 0.250454
O O9 0.500000 0.426549 0.500000
O O10 0.750000 0.442840 0.371602
O O11 0.512270 0.500000 0.324924
O O12 0.500000 0.933212 0.500000
O O13 0.750000 0.914519 0.630381
O O14 0.514733 0.952693 0.764012
O O15 0.750000 0.000000 0.867559
O O16 0.500000 0.000000 0.000000
O O17 0.250000 0.755299 0.145331
O O18 0.000000 0.750579 0.000000
#
# Coordination Sequence:
#
# PCOD8212672 Si02
#       6
#     8   8   8   8   4   8
#     4  10  21  37  58  82 110 144 183 226 272 324
#     4  11  22  37  58  84 112 146 185 228 274 323
#     4  10  21  37  57  81 110 144 182 225 274 326
#     4  10  20  37  58  82 110 143 183 226 271 324
#     4  10  23  38  56  82 112 144 181 224 270 322
#     4  10  21  38  58  82 111 145 183 225 274 327
#
# _framework density 18.780035000000002
#
# number of rings (size 3 to 8) (size 9 to 14) (size 15 to 20)
#    0.000    1.818    0.000    5.182    0.000    6.545 
#    0.000    1.818    0.000    0.000    0.000    0.000 
#    0.000    0.000    0.000    0.000    0.000    0.000 
#
# Total GULP energy -545722.927482 kJ/mol
# GULP energy per Si atom -12402.793806 kJ/mol
# Density = 1.873729 g / cm^3
# Si number density = 18.780035 Si / 1000 Ang^3
#
#
#
# Elastic Constant Matrix: (Units=GPa)
#
#
# Indices 1 2 3 4 5 6 
#
# 1 97.7839 37.0894 43.1990 0.0000 0.0000 0.0000
# 2 37.0894 87.7000 76.3556 0.0000 0.0000 0.0000
# 3 43.1990 76.3556 119.0269 0.0000 0.0000 0.0000
# 4 0.0000 0.0000 0.0000 16.9813 0.0000 0.0000
# 5 0.0000 0.0000 0.0000 0.0000 37.3939 0.0000
# 6 0.0000 0.0000 0.0000 0.0000 0.0000 33.7352
#
#
#
# Elastic Compliance Matrix: (Units=1/GPa)
#
#
# Indices 1 2 3 4 5 6 
#
# 1 0.012526 -0.003034 -0.002600 0.000000 0.000000 0.000000
# 2 -0.003034 0.026563 -0.015939 0.000000 0.000000 0.000000
# 3 -0.002600 -0.015939 0.019570 0.000000 0.000000 0.000000
# 4 0.000000 0.000000 0.000000 0.058888 0.000000 0.000000
# 5 0.000000 0.000000 0.000000 0.000000 0.026742 0.000000
# 6 0.000000 0.000000 0.000000 0.000000 0.000000 0.029643
#
#
# Mechanical properties :
#
#
# Convention : Reuss Voigt Hill
#
# Bulk Modulus (GPa) = 64.46079 68.64431 66.55255
# Shear Modulus (GPa) = 22.49745 27.47988 24.98867
#
# Velocity S-wave (km/s) = 3.46489 3.82939 3.65169
# Velocity P-wave (km/s) = 7.09971 7.49556 7.30032
#
# Compressibility (1/GPa) = 0.01551331
#
# Stress axis : x y z
#
# Youngs Moduli (GPa) = 79.83441 37.64704 51.09917
#
# Poissons Ratio (x) = 0.11421 0.13286
# Poissons Ratio (y) = 0.24219 0.81446
# Poissons Ratio (z) = 0.20757 0.60005
#
# Static dielectric constant tensor:
#      x y z
#    x 3.598970 0.000000 0.000000 
#    y 0.000000 3.556900 0.000000 
#    z 0.000000 0.000000 3.542540 
# 
# 
# High freq. dielectric constant tensor:
#      x y z
#    x 1.747390 0.000000 0.000000 
#    y 0.000000 1.734150 0.000000 
#    z 0.000000 0.000000 1.733530 
# 
# From -- ./inp_files/5868.got.cif
#   From: 2010.03.12/outbox.cif.g09.slc.cpg/sg51_3_cif.got.tgz:5868.got - 2010.04.16 13:43:02.
