data_PCOD8212453
_publ_section_title
;
Structure prediction by ZEFSAII (Michael W. Deem and Ramdas Pophale) SiO2 
 PCOD8212453
Probable space group: P M M A
;
_chemical_formula_sum "Si O2"
_cell_formula_units_Z 64
_cell_length_a 18.850540
_cell_length_b 19.435938
_cell_length_c 9.292707
_cell_angle_alpha 90.000000
_cell_angle_beta 90.000000
_cell_angle_gamma 90.000000
_cell_volume 3404.642724
_symmetry_space_group_name_H-M "P M M A"
_symmetry_group_IT_number 51
_symmetry_cell_setting 'orthorhombic'
loop_
_space_group_symop_operation_xyz
x,y,z
1/2-x,-y,z
1/2+x,-y,-z
-x,y,-z
-x,-y,-z
1/2+x,y,-z
1/2-x,y,z
x,-y,z
loop_
_atom_site_type_symbol
_atom_site_label
_atom_site_fract_x
_atom_site_fract_y
_atom_site_fract_z
Si Si1 0.330106 0.422427 0.416659
Si Si2 0.580771 0.185349 0.145192
Si Si3 0.079031 0.182242 0.178096
Si Si4 0.449067 0.421032 0.627677
Si Si5 0.331527 0.076101 0.680695
Si Si6 0.929372 0.332734 0.090704
Si Si7 0.429377 0.923232 0.418542
Si Si8 0.335075 0.677137 0.161538
O O1 0.250000 0.406620 0.457225
O O2 0.341324 0.500000 0.358237
O O3 0.370238 0.412023 0.567093
O O4 0.356783 0.371194 0.294055
O O5 0.503236 0.194793 0.213909
O O6 0.628878 0.134823 0.233871
O O7 0.608907 0.263738 0.149812
O O8 0.583546 0.154596 0.984404
O O9 0.100615 0.122986 0.288908
O O10 0.128846 0.249256 0.195196
O O11 0.500000 0.391690 0.500000
O O12 0.469937 0.500000 0.658864
O O13 0.452565 0.382937 0.780901
O O14 0.250000 0.097151 0.672422
O O15 0.362341 0.074111 0.521922
O O16 0.341171 0.000000 0.751681
O O17 0.870080 0.360819 0.978322
O O18 0.000000 0.312017 0.000000
O O19 0.500000 0.894349 0.500000
O O20 0.447738 0.000000 0.360188
O O21 0.250000 0.684202 0.142858
#
# Coordination Sequence:
#
# PCOD8212453 Si02
#       8
#     8   8   8   8   8   8   8   8
#     4   9  19  38  59  81 114 152 191 236 290 350
#     4  10  20  37  57  83 114 154 193 232 292 345
#     4  10  20  36  57  83 115 148 192 242 285 343
#     4  10  22  37  57  86 117 153 197 244 292 344
#     4  10  22  40  60  86 121 155 192 242 295 346
#     4  11  21  38  58  82 117 153 192 241 294 348
#     4  10  20  36  59  86 115 150 193 239 286 342
#     4  10  21  37  58  85 116 153 193 243 298 348
#
# _framework density 18.797861000000001
#
# number of rings (size 3 to 8) (size 9 to 14) (size 15 to 20)
#    0.000    2.000    3.750    0.750    0.000    5.250 
#    0.000    2.500    0.000    1.500    0.000    0.000 
#    0.000    0.000    0.000    0.000    0.000    0.000 
#
# Total GULP energy -793013.825154 kJ/mol
# GULP energy per Si atom -12390.841018 kJ/mol
# Density = 1.875508 g / cm^3
# Si number density = 18.797861 Si / 1000 Ang^3
#
#
#
# Elastic Constant Matrix: (Units=GPa)
#
#
# Indices 1 2 3 4 5 6 
#
# 1 91.6335 35.6646 32.9975 0.0000 0.0000 0.0000
# 2 35.6646 89.4651 60.7657 0.0000 0.0000 0.0000
# 3 32.9975 60.7657 92.4505 0.0000 0.0000 0.0000
# 4 0.0000 0.0000 0.0000 43.1982 0.0000 0.0000
# 5 0.0000 0.0000 0.0000 0.0000 28.7220 0.0000
# 6 0.0000 0.0000 0.0000 0.0000 0.0000 27.0823
#
#
#
# Elastic Compliance Matrix: (Units=1/GPa)
#
#
# Indices 1 2 3 4 5 6 
#
# 1 0.013173 -0.003717 -0.002258 0.000000 0.000000 0.000000
# 2 -0.003717 0.021241 -0.012634 0.000000 0.000000 0.000000
# 3 -0.002258 -0.012634 0.019927 0.000000 0.000000 0.000000
# 4 0.000000 0.000000 0.000000 0.023149 0.000000 0.000000
# 5 0.000000 0.000000 0.000000 0.000000 0.034816 0.000000
# 6 0.000000 0.000000 0.000000 0.000000 0.000000 0.036925
#
#
# Mechanical properties :
#
#
# Convention : Reuss Voigt Hill
#
# Bulk Modulus (GPa) = 58.40902 59.15605 58.78253
# Shear Modulus (GPa) = 26.02023 29.40858 27.71441
#
# Velocity S-wave (km/s) = 3.72454 3.95962 3.84388
# Velocity P-wave (km/s) = 7.04527 7.24173 7.14418
#
# Compressibility (1/GPa) = 0.01712064
#
# Stress axis : x y z
#
# Youngs Moduli (GPa) = 75.91194 47.07911 50.18348
#
# Poissons Ratio (x) = 0.17502 0.11333
# Poissons Ratio (y) = 0.28220 0.63403
# Poissons Ratio (z) = 0.17144 0.59481
#
# Static dielectric constant tensor:
#      x y z
#    x 3.539600 0.000000 0.000000 
#    y 0.000000 3.464870 0.000000 
#    z 0.000000 0.000000 3.472970 
# 
# 
# High freq. dielectric constant tensor:
#      x y z
#    x 1.733950 0.000000 0.000000 
#    y 0.000000 1.725230 0.000000 
#    z 0.000000 0.000000 1.723660 
# 
# From -- ./inp_files/10096.got.cif
#   From: 2010.03.12/outbox.cif.g09.slc.cpg/sg51_6_cif.got.tgz:10096.got - 2010.04.16 13:43:02.
