data_PCOD8212084
_publ_section_title
;
Structure prediction by ZEFSAII (Michael W. Deem and Ramdas Pophale) SiO2 
 PCOD8212084
Probable space group: P M M A
;
_chemical_formula_sum "Si O2"
_cell_formula_units_Z 64
_cell_length_a 8.384864
_cell_length_b 22.699249
_cell_length_c 16.355241
_cell_angle_alpha 90.000000
_cell_angle_beta 90.000000
_cell_angle_gamma 90.000000
_cell_volume 3112.894913
_symmetry_space_group_name_H-M "P M M A"
_symmetry_group_IT_number 51
_symmetry_cell_setting 'orthorhombic'
loop_
_space_group_symop_operation_xyz
x,y,z
1/2-x,-y,z
1/2+x,-y,-z
-x,y,-z
-x,-y,-z
1/2+x,y,-z
1/2-x,y,z
x,-y,z
loop_
_atom_site_type_symbol
_atom_site_label
_atom_site_fract_x
_atom_site_fract_y
_atom_site_fract_z
Si Si1 0.562225 0.145872 0.912788
Si Si2 0.435349 0.565176 0.250915
Si Si3 0.935857 0.759254 0.585228
Si Si4 0.566432 0.601759 0.082008
Si Si5 0.433518 0.721894 0.117181
Si Si6 0.930303 0.683844 0.278937
Si Si7 0.562970 0.066255 0.235282
Si Si8 0.060369 0.888485 0.586270
O O1 0.750000 0.144367 0.914835
O O2 0.499871 0.213100 0.904395
O O3 0.511355 0.109341 0.832494
O O4 0.500000 0.119782 0.000000
O O5 0.250000 0.570915 0.270336
O O6 0.497099 0.500000 0.276083
O O7 0.463151 0.575242 0.154871
O O8 0.528892 0.615720 0.300538
O O9 0.750000 0.744833 0.598710
O O10 0.000000 0.736239 0.500000
O O11 0.052227 0.723809 0.643274
O O12 0.965544 0.828104 0.595473
O O13 0.750000 0.586054 0.095635
O O14 0.542368 0.672579 0.073924
O O15 0.500000 0.571612 0.000000
O O16 0.250000 0.714717 0.090617
O O17 0.447176 0.711007 0.213879
O O18 0.750000 0.686696 0.245112
O O19 0.750000 0.074655 0.227961
O O20 0.513392 0.076765 0.330592
O O21 0.509390 0.000000 0.213236
O O22 0.250000 0.878781 0.580281
O O23 0.000000 0.918723 0.500000
#
# Coordination Sequence:
#
# PCOD8212084 Si02
#       8
#     8   8   8   8   8   8   8   8
#     4  11  24  39  59  84 110 146 189 238 292 343
#     4  10  21  37  55  75 101 137 182 227 269 315
#     4  11  21  35  56  84 117 147 179 218 266 323
#     4  11  21  33  51  75 105 139 175 218 271 326
#     4  10  20  35  55  81 110 139 178 224 275 333
#     4  11  21  34  55  82 112 146 181 220 272 327
#     4  10  23  42  61  82 112 151 194 238 281 331
#     4  10  20  36  60  90 122 153 186 226 279 340
#
# _framework density 20.559642
#
# number of rings (size 3 to 8) (size 9 to 14) (size 15 to 20)
#    0.000    1.500    0.000    8.250    0.000    8.000 
#    0.000    0.000    0.000    0.375    0.000    0.000 
#    0.000    0.000    0.000    0.000    0.000    0.000 
#
# Total GULP energy -793235.933612 kJ/mol
# GULP energy per Si atom -12394.311463 kJ/mol
# Density = 2.051285 g / cm^3
# Si number density = 20.559642 Si / 1000 Ang^3
#
#
#
# Elastic Constant Matrix: (Units=GPa)
#
#
# Indices 1 2 3 4 5 6 
#
# 1 72.6142 14.1275 15.5180 0.0000 0.0000 0.0000
# 2 14.1275 62.1123 24.4669 0.0000 0.0000 0.0000
# 3 15.5180 24.4669 90.5008 0.0000 0.0000 0.0000
# 4 0.0000 0.0000 0.0000 1.1824 0.0000 0.0000
# 5 0.0000 0.0000 0.0000 0.0000 32.1684 0.0000
# 6 0.0000 0.0000 0.0000 0.0000 0.0000 23.1922
#
#
#
# Elastic Compliance Matrix: (Units=1/GPa)
#
#
# Indices 1 2 3 4 5 6 
#
# 1 0.014668 -0.002625 -0.001805 0.000000 0.000000 0.000000
# 2 -0.002625 0.018489 -0.004548 0.000000 0.000000 0.000000
# 3 -0.001805 -0.004548 0.012589 0.000000 0.000000 0.000000
# 4 0.000000 0.000000 0.000000 0.845737 0.000000 0.000000
# 5 0.000000 0.000000 0.000000 0.000000 0.031086 0.000000
# 6 0.000000 0.000000 0.000000 0.000000 0.000000 0.043118
#
#
# Mechanical properties :
#
#
# Convention : Reuss Voigt Hill
#
# Bulk Modulus (GPa) = 35.98693 37.05023 36.51858
# Shear Modulus (GPa) = 5.03572 22.71625 13.87599
#
# Velocity S-wave (km/s) = 1.56673 3.32760 2.60073
# Velocity P-wave (km/s) = 4.56229 5.72921 5.17873
#
# Compressibility (1/GPa) = 0.02778787
#
# Stress axis : x y z
#
# Youngs Moduli (GPa) = 68.17584 54.08748 79.43564
#
# Poissons Ratio (x) = 0.14198 0.14341
# Poissons Ratio (y) = 0.17897 0.36129
# Poissons Ratio (z) = 0.12308 0.24600
#
# Static dielectric constant tensor:
#      x y z
#    x 3.655420 0.000000 0.000000 
#    y 0.000000 3.840620 0.000000 
#    z 0.000000 0.000000 3.976780 
# 
# 
# High freq. dielectric constant tensor:
#      x y z
#    x 1.809500 0.000000 0.000000 
#    y 0.000000 1.795440 0.000000 
#    z 0.000000 0.000000 1.800480 
# 
# From -- ./inp_files/28630.got.cif
#   From: 2010.03.12/outbox.cif.g09.slc.cpg/sg51_15_cif.got.tgz:28630.got - 2010.04.16 13:43:02.
