data_PCOD8212332
_publ_section_title
;
Structure prediction by ZEFSAII (Michael W. Deem and Ramdas Pophale) SiO2 
 PCOD8212332
Probable space group: P M M A
;
_chemical_formula_sum "Si O2"
_cell_formula_units_Z 40
_cell_length_a 17.641196
_cell_length_b 7.692896
_cell_length_c 15.483883
_cell_angle_alpha 90.000000
_cell_angle_beta 90.000000
_cell_angle_gamma 90.000000
_cell_volume 2101.346967
_symmetry_space_group_name_H-M "P M M A"
_symmetry_group_IT_number 51
_symmetry_cell_setting 'orthorhombic'
loop_
_space_group_symop_operation_xyz
x,y,z
1/2-x,-y,z
1/2+x,-y,-z
-x,y,-z
-x,-y,-z
1/2+x,y,-z
1/2-x,y,z
x,-y,z
loop_
_atom_site_type_symbol
_atom_site_label
_atom_site_fract_x
_atom_site_fract_y
_atom_site_fract_z
Si Si1 0.339306 0.500000 0.829282
Si Si2 0.518454 0.705048 0.594993
Si Si3 0.588806 0.805193 0.858600
Si Si4 0.436149 0.803631 0.761530
Si Si5 0.411129 0.500000 0.015192
Si Si6 0.165617 0.702747 0.308245
O O1 0.250000 0.500000 0.822739
O O2 0.368377 0.672210 0.780829
O O3 0.364179 0.500000 0.928054
O O4 0.500000 0.777637 0.500000
O O5 0.505787 0.500000 0.599908
O O6 0.460940 0.793443 0.661769
O O7 0.605285 0.756386 0.618084
O O8 0.506697 0.749563 0.822090
O O9 0.613025 0.672926 0.933218
O O10 0.648918 0.802378 0.780670
O O11 0.586889 0.000000 0.897338
O O12 0.409370 0.000000 0.781354
O O13 0.500000 0.500000 0.000000
O O14 0.250000 0.751826 0.340856
O O15 0.158192 0.500000 0.287352
#
# Coordination Sequence:
#
# PCOD8212332 Si02
#       6
#     4   8   8   8   4   8
#     4  12  26  42  59  82 114 154 197 241 288 336
#     4   9  17  32  58  87 119 153 198 240 280 338
#     4  10  20  35  60  88 111 146 190 230 285 355
#     4  10  20  38  62  85 113 151 193 234 284 344
#     4  12  22  38  62  84 113 148 186 239 288 339
#     4   9  17  31  53  81 117 154 187 234 293 343
#
# _framework density 19.035409999999999
#
# number of rings (size 3 to 8) (size 9 to 14) (size 15 to 20)
#    0.000    2.000    4.000    0.000    0.000    3.200 
#    0.000    1.000    0.000    0.000    0.000    0.000 
#    0.000    0.000    0.000    0.000    0.000    0.000 
#
# Total GULP energy -496056.010614 kJ/mol
# GULP energy per Si atom -12401.400265 kJ/mol
# Density = 1.899208 g / cm^3
# Si number density = 19.035410 Si / 1000 Ang^3
#
#
#
# Elastic Constant Matrix: (Units=GPa)
#
#
# Indices 1 2 3 4 5 6 
#
# 1 134.9859 45.5468 56.2751 0.0000 0.0000 0.0000
# 2 45.5468 100.0127 51.4762 0.0000 0.0000 0.0000
# 3 56.2751 51.4762 110.7844 0.0000 0.0000 0.0000
# 4 0.0000 0.0000 0.0000 5.5262 0.0000 0.0000
# 5 0.0000 0.0000 0.0000 0.0000 20.2610 0.0000
# 6 0.0000 0.0000 0.0000 0.0000 0.0000 9.1210
#
#
#
# Elastic Compliance Matrix: (Units=1/GPa)
#
#
# Indices 1 2 3 4 5 6 
#
# 1 0.009857 -0.002513 -0.003839 0.000000 0.000000 0.000000
# 2 -0.002513 0.013782 -0.005128 0.000000 0.000000 0.000000
# 3 -0.003839 -0.005128 0.013359 0.000000 0.000000 0.000000
# 4 0.000000 0.000000 0.000000 0.180957 0.000000 0.000000
# 5 0.000000 0.000000 0.000000 0.000000 0.049356 0.000000
# 6 0.000000 0.000000 0.000000 0.000000 0.000000 0.109637
#
#
# Mechanical properties :
#
#
# Convention : Reuss Voigt Hill
#
# Bulk Modulus (GPa) = 71.23033 72.48659 71.85846
# Shear Modulus (GPa) = 12.35830 19.81396 16.08613
#
# Velocity S-wave (km/s) = 2.55076 3.22980 2.91015
# Velocity P-wave (km/s) = 6.79531 7.21605 7.00884
#
# Compressibility (1/GPa) = 0.01403896
#
# Stress axis : x y z
#
# Youngs Moduli (GPa) = 101.45459 72.55749 74.85411
#
# Poissons Ratio (x) = 0.18232 0.28739
# Poissons Ratio (y) = 0.25493 0.38382
# Poissons Ratio (z) = 0.38952 0.37204
#
# Static dielectric constant tensor:
#      x y z
#    x 3.381620 0.000000 0.000000 
#    y 0.000000 3.586990 0.000000 
#    z 0.000000 0.000000 3.554250 
# 
# 
# High freq. dielectric constant tensor:
#      x y z
#    x 1.716890 0.000000 0.000000 
#    y 0.000000 1.747890 0.000000 
#    z 0.000000 0.000000 1.728490 
# 
# From -- ./inp_files/23798.got.cif
#   From: 2010.03.12/outbox.cif.g09.slc.cpg/sg51_12_cif.got.tgz:23798.got - 2010.04.16 13:43:02.
