data_PCOD8212870
_publ_section_title
;
Structure prediction by ZEFSAII (Michael W. Deem and Ramdas Pophale) SiO2 
 PCOD8212870
Probable space group: P M M A
;
_chemical_formula_sum "Si O2"
_cell_formula_units_Z 32
_cell_length_a 23.848016
_cell_length_b 7.664525
_cell_length_c 9.196531
_cell_angle_alpha 90.000000
_cell_angle_beta 90.000000
_cell_angle_gamma 90.000000
_cell_volume 1680.976100
_symmetry_space_group_name_H-M "P M M A"
_symmetry_group_IT_number 51
_symmetry_cell_setting 'orthorhombic'
loop_
_space_group_symop_operation_xyz
x,y,z
1/2-x,-y,z
1/2+x,-y,-z
-x,y,-z
-x,-y,-z
1/2+x,y,-z
1/2-x,y,z
x,-y,z
loop_
_atom_site_type_symbol
_atom_site_label
_atom_site_fract_x
_atom_site_fract_y
_atom_site_fract_z
Si Si1 0.250000 0.196525 0.428594
Si Si2 0.857700 0.700787 0.080635
Si Si3 0.859513 0.694610 0.415051
Si Si4 0.558273 0.000000 0.080311
Si Si5 0.750000 0.296892 0.894652
Si Si6 0.941354 0.000000 0.420553
O O1 0.304785 0.294379 0.485582
O O2 0.250000 0.191469 0.254544
O O3 0.250000 0.000000 0.488673
O O4 0.875251 0.500000 0.052390
O O5 0.842061 0.733322 0.248899
O O6 0.908524 0.825670 0.033354
O O7 0.804103 0.755771 0.987438
O O8 0.884667 0.500000 0.430331
O O9 0.906578 0.829389 0.468956
O O10 0.546398 0.000000 0.250651
O O11 0.500000 0.000000 0.000000
O O12 0.750000 0.500000 0.857376
O O13 0.000000 0.000000 0.500000
#
# Coordination Sequence:
#
# PCOD8212870 Si02
#       6
#     4   8   8   4   4   4
#     4  12  23  34  54  88 120 147 180 228 279 332
#     4   9  20  38  60  82 109 145 187 226 270 330
#     4  10  20  39  61  82 111 150 187 227 275 331
#     4  10  22  37  56  81 109 146 186 228 275 322
#     4  10  21  36  54  85 117 144 178 225 280 332
#     4  10  22  39  56  83 113 142 192 234 269 330
#
# _framework density 19.036559
#
# number of rings (size 3 to 8) (size 9 to 14) (size 15 to 20)
#    0.000    2.000    1.250    1.875    1.750    5.000 
#    0.000    0.000    0.000    0.000    0.000    0.000 
#    0.000    0.000    0.000    0.000    0.000    0.000 
#
# Total GULP energy -396919.409268 kJ/mol
# GULP energy per Si atom -12403.731540 kJ/mol
# Density = 1.899323 g / cm^3
# Si number density = 19.036559 Si / 1000 Ang^3
#
#
#
# Elastic Constant Matrix: (Units=GPa)
#
#
# Indices 1 2 3 4 5 6 
#
# 1 169.5114 76.9536 68.5029 0.0000 0.0000 0.0000
# 2 76.9536 130.9860 42.3575 0.0000 0.0000 0.0000
# 3 68.5029 42.3575 75.6713 0.0000 0.0000 0.0000
# 4 0.0000 0.0000 0.0000 23.3341 0.0000 0.0000
# 5 0.0000 0.0000 0.0000 0.0000 40.0999 0.0000
# 6 0.0000 0.0000 0.0000 0.0000 0.0000 25.7404
#
#
#
# Elastic Compliance Matrix: (Units=1/GPa)
#
#
# Indices 1 2 3 4 5 6 
#
# 1 0.010683 -0.003845 -0.007519 0.000000 0.000000 0.000000
# 2 -0.003845 0.010706 -0.002512 0.000000 0.000000 0.000000
# 3 -0.007519 -0.002512 0.021428 0.000000 0.000000 0.000000
# 4 0.000000 0.000000 0.000000 0.042856 0.000000 0.000000
# 5 0.000000 0.000000 0.000000 0.000000 0.024938 0.000000
# 6 0.000000 0.000000 0.000000 0.000000 0.000000 0.038849
#
#
# Mechanical properties :
#
#
# Convention : Reuss Voigt Hill
#
# Bulk Modulus (GPa) = 66.37855 83.53296 74.95576
# Shear Modulus (GPa) = 27.43738 30.39187 28.91463
#
# Velocity S-wave (km/s) = 3.80056 3.99996 3.90153
# Velocity P-wave (km/s) = 7.36232 8.08136 7.73021
#
# Compressibility (1/GPa) = 0.01506511
#
# Stress axis : x y z
#
# Youngs Moduli (GPa) = 93.60265 93.40952 46.66821
#
# Poissons Ratio (x) = 0.35916 0.35091
# Poissons Ratio (y) = 0.35990 0.11722
# Poissons Ratio (z) = 0.70381 0.23462
#
# Static dielectric constant tensor:
#      x y z
#    x 3.299530 0.000000 0.000000 
#    y 0.000000 3.692060 0.000000 
#    z 0.000000 0.000000 3.380290 
# 
# 
# High freq. dielectric constant tensor:
#      x y z
#    x 1.727800 0.000000 0.000000 
#    y 0.000000 1.758140 0.000000 
#    z 0.000000 0.000000 1.734080 
# 
# From -- ./inp_files/11375.got.cif
#   From: 2010.03.12/outbox.cif.g09.slc.cpg/sg51_6_cif.got.tgz:11375.got - 2010.04.16 13:43:02.
