data_PCOD8212042
_publ_section_title
;
Structure prediction by ZEFSAII (Michael W. Deem and Ramdas Pophale) SiO2 
 PCOD8212042
Probable space group: P M M A
;
_chemical_formula_sum "Si O2"
_cell_formula_units_Z 64
_cell_length_a 23.862642
_cell_length_b 9.291315
_cell_length_c 14.942890
_cell_angle_alpha 90.000000
_cell_angle_beta 90.000000
_cell_angle_gamma 90.000000
_cell_volume 3313.067691
_symmetry_space_group_name_H-M "P M M A"
_symmetry_group_IT_number 51
_symmetry_cell_setting 'orthorhombic'
loop_
_space_group_symop_operation_xyz
x,y,z
1/2-x,-y,z
1/2+x,-y,-z
-x,y,-z
-x,-y,-z
1/2+x,y,-z
1/2-x,y,z
x,-y,z
loop_
_atom_site_type_symbol
_atom_site_label
_atom_site_fract_x
_atom_site_fract_y
_atom_site_fract_z
Si Si1 0.121688 0.668999 0.441646
Si Si2 0.381060 0.664800 0.830612
Si Si3 0.386843 0.830045 0.141232
Si Si4 0.313672 0.163964 0.309795
Si Si5 0.002824 0.332385 0.103603
Si Si6 0.185890 0.169893 0.972903
Si Si7 0.088452 0.664395 0.638162
Si Si8 0.484132 0.160284 0.397335
O O1 0.118731 0.500000 0.425241
O O2 0.177167 0.735747 0.397070
O O3 0.121311 0.706894 0.547400
O O4 0.071069 0.743825 0.387597
O O5 0.372780 0.500000 0.860824
O O6 0.444276 0.714723 0.852387
O O7 0.335482 0.760304 0.880935
O O8 0.370983 0.683231 0.723747
O O9 0.351685 0.783822 0.227718
O O10 0.447260 0.756334 0.149250
O O11 0.395208 0.000000 0.136012
O O12 0.352821 0.774613 0.054233
O O13 0.250000 0.179573 0.277902
O O14 0.327526 0.000000 0.336723
O O15 0.015229 0.500000 0.118700
O O16 0.000000 0.291551 0.000000
O O17 0.250000 0.217000 0.990414
O O18 0.181538 0.000000 0.962289
O O19 0.066981 0.500000 0.630423
O O20 0.034496 0.763650 0.655198
O O21 0.500000 0.149758 0.500000
O O22 0.473799 0.000000 0.357623
#
# Coordination Sequence:
#
# PCOD8212042 Si02
#       8
#     8   8   8   8   8   8   8   8
#     4  10  20  35  55  78 107 142 186 232 274 325
#     4  10  21  37  56  81 116 153 187 224 274 333
#     4  10  21  37  59  84 111 145 184 226 279 342
#     4  10  22  40  59  81 111 146 187 236 289 344
#     4  10  20  35  55  83 118 149 180 226 279 331
#     4  10  21  38  59  82 109 143 184 230 276 325
#     4   9  19  35  54  78 110 149 186 224 273 326
#     4   9  17  30  50  77 107 139 177 221 269 324
#
# _framework density 19.317443999999998
#
# number of rings (size 3 to 8) (size 9 to 14) (size 15 to 20)
#    0.000    2.250    1.250    1.125    1.750    5.750 
#    0.000    0.625    0.000    6.000    0.000    0.000 
#    0.000    0.000    0.000    0.000    0.000    0.000 
#
# Total GULP energy -793674.759222 kJ/mol
# GULP energy per Si atom -12401.168113 kJ/mol
# Density = 1.927348 g / cm^3
# Si number density = 19.317444 Si / 1000 Ang^3
#
#
#
# Elastic Constant Matrix: (Units=GPa)
#
#
# Indices 1 2 3 4 5 6 
#
# 1 84.3798 32.5367 29.9897 0.0000 0.0000 0.0000
# 2 32.5367 63.6212 33.0045 0.0000 0.0000 0.0000
# 3 29.9897 33.0045 92.5491 0.0000 0.0000 0.0000
# 4 0.0000 0.0000 0.0000 27.8425 0.0000 0.0000
# 5 0.0000 0.0000 0.0000 0.0000 27.9104 0.0000
# 6 0.0000 0.0000 0.0000 0.0000 0.0000 27.7119
#
#
#
# Elastic Compliance Matrix: (Units=1/GPa)
#
#
# Indices 1 2 3 4 5 6 
#
# 1 0.015276 -0.006435 -0.002655 0.000000 0.000000 0.000000
# 2 -0.006435 0.021997 -0.005759 0.000000 0.000000 0.000000
# 3 -0.002655 -0.005759 0.013719 0.000000 0.000000 0.000000
# 4 0.000000 0.000000 0.000000 0.035916 0.000000 0.000000
# 5 0.000000 0.000000 0.000000 0.000000 0.035829 0.000000
# 6 0.000000 0.000000 0.000000 0.000000 0.000000 0.036086
#
#
# Mechanical properties :
#
#
# Convention : Reuss Voigt Hill
#
# Bulk Modulus (GPa) = 46.96317 47.95687 47.46002
# Shear Modulus (GPa) = 25.55980 26.36090 25.96035
#
# Velocity S-wave (km/s) = 3.64145 3.69808 3.66988
# Velocity P-wave (km/s) = 6.48416 6.56612 6.52527
#
# Compressibility (1/GPa) = 0.02129328
#
# Stress axis : x y z
#
# Youngs Moduli (GPa) = 65.46120 45.46152 72.88997
#
# Poissons Ratio (x) = 0.29254 0.19354
# Poissons Ratio (y) = 0.42124 0.41979
# Poissons Ratio (z) = 0.17382 0.26182
#
# Static dielectric constant tensor:
#      x y z
#    x 3.405860 0.000000 0.000000 
#    y 0.000000 3.486850 0.000000 
#    z 0.000000 0.000000 3.599540 
# 
# 
# High freq. dielectric constant tensor:
#      x y z
#    x 1.736410 0.000000 0.000000 
#    y 0.000000 1.746220 0.000000 
#    z 0.000000 0.000000 1.757000 
# 
# From -- ./inp_files/26173.got.cif
#   From: 2010.03.12/outbox.cif.g09.slc.cpg/sg51_14_cif.got.tgz:26173.got - 2010.04.16 13:43:02.
