data_PCOD8212177
_publ_section_title
;
Structure prediction by ZEFSAII (Michael W. Deem and Ramdas Pophale) SiO2 
 PCOD8212177
Probable space group: P M M A
;
_chemical_formula_sum "Si O2"
_cell_formula_units_Z 64
_cell_length_a 29.099221
_cell_length_b 8.798216
_cell_length_c 12.385404
_cell_angle_alpha 90.000000
_cell_angle_beta 90.000000
_cell_angle_gamma 90.000000
_cell_volume 3170.926388
_symmetry_space_group_name_H-M "P M M A"
_symmetry_group_IT_number 51
_symmetry_cell_setting 'orthorhombic'
loop_
_space_group_symop_operation_xyz
x,y,z
1/2-x,-y,z
1/2+x,-y,-z
-x,y,-z
-x,-y,-z
1/2+x,y,-z
1/2-x,y,z
x,-y,z
loop_
_atom_site_type_symbol
_atom_site_label
_atom_site_fract_x
_atom_site_fract_y
_atom_site_fract_z
Si Si1 0.424881 0.178006 0.007341
Si Si2 0.197979 0.178805 0.519325
Si Si3 0.949375 0.325179 0.202754
Si Si4 0.851372 0.323765 0.281428
Si Si5 0.169813 0.324937 0.958507
Si Si6 0.641531 0.324384 0.671045
Si Si7 0.199382 0.829522 0.154342
Si Si8 0.049416 0.674034 0.223182
O O1 0.456203 0.224420 0.905168
O O2 0.380200 0.281406 0.000145
O O3 0.413358 0.000000 0.001737
O O4 0.448513 0.215495 0.120633
O O5 0.250000 0.246537 0.508635
O O6 0.175176 0.226036 0.631284
O O7 0.164566 0.229995 0.423837
O O8 0.201045 0.000000 0.514748
O O9 0.940417 0.500000 0.167984
O O10 0.905120 0.272185 0.273039
O O11 0.997198 0.309264 0.270101
O O12 0.848307 0.500000 0.314178
O O13 0.825526 0.290821 0.168557
O O14 0.179951 0.500000 0.982096
O O15 0.204476 0.223784 0.029704
O O16 0.648475 0.500000 0.643492
O O17 0.666070 0.284780 0.783476
O O18 0.587273 0.283249 0.685295
O O19 0.250000 0.826272 0.207236
O O20 0.179073 0.000000 0.160235
O O21 0.058232 0.500000 0.186320
#
# Coordination Sequence:
#
# PCOD8212177 Si02
#       8
#     8   8   8   8   8   8   8   8
#     4  11  20  30  50  82 120 159 198 240 285 338
#     4  11  25  44  65  87 113 149 193 245 306 363
#     4   9  19  36  57  83 119 159 197 239 288 346
#     4   9  20  39  63  88 115 149 195 246 292 344
#     4  10  20  36  57  83 116 155 196 238 289 350
#     4  11  23  39  62  88 115 152 200 246 290 346
#     4  11  23  37  55  83 120 156 189 236 301 363
#     4  10  20  35  56  83 117 158 199 239 287 346
#
# _framework density 20.183377
#
# number of rings (size 3 to 8) (size 9 to 14) (size 15 to 20)
#    0.000    1.750    1.250    4.125    0.000    9.000 
#    0.000    3.125    0.000    3.750    0.000    0.000 
#    0.000    0.000    0.000    0.000    0.000    0.000 
#
# Total GULP energy -793336.274364 kJ/mol
# GULP energy per Si atom -12395.879287 kJ/mol
# Density = 2.013744 g / cm^3
# Si number density = 20.183377 Si / 1000 Ang^3
#
#
#
# Elastic Constant Matrix: (Units=GPa)
#
#
# Indices 1 2 3 4 5 6 
#
# 1 90.4094 25.2718 38.8483 0.0000 0.0000 0.0000
# 2 25.2718 57.3909 30.4661 0.0000 0.0000 0.0000
# 3 38.8483 30.4661 87.8873 0.0000 0.0000 0.0000
# 4 0.0000 0.0000 0.0000 25.4064 0.0000 0.0000
# 5 0.0000 0.0000 0.0000 0.0000 21.6044 0.0000
# 6 0.0000 0.0000 0.0000 0.0000 0.0000 12.5244
#
#
#
# Elastic Compliance Matrix: (Units=1/GPa)
#
#
# Indices 1 2 3 4 5 6 
#
# 1 0.014232 -0.003588 -0.005047 0.000000 0.000000 0.000000
# 2 -0.003588 0.022258 -0.006130 0.000000 0.000000 0.000000
# 3 -0.005047 -0.006130 0.015734 0.000000 0.000000 0.000000
# 4 0.000000 0.000000 0.000000 0.039360 0.000000 0.000000
# 5 0.000000 0.000000 0.000000 0.000000 0.046287 0.000000
# 6 0.000000 0.000000 0.000000 0.000000 0.000000 0.079844
#
#
# Mechanical properties :
#
#
# Convention : Reuss Voigt Hill
#
# Bulk Modulus (GPa) = 44.06300 47.20667 45.63483
# Shear Modulus (GPa) = 19.62237 21.31382 20.46809
#
# Velocity S-wave (km/s) = 3.12140 3.25315 3.18796
# Velocity P-wave (km/s) = 5.90505 6.12783 6.01747
#
# Compressibility (1/GPa) = 0.02269478
#
# Stress axis : x y z
#
# Youngs Moduli (GPa) = 70.26173 44.92699 63.55570
#
# Poissons Ratio (x) = 0.16119 0.32079
# Poissons Ratio (y) = 0.25208 0.38959
# Poissons Ratio (z) = 0.35464 0.27540
#
# Static dielectric constant tensor:
#      x y z
#    x 3.903860 0.000000 0.000000 
#    y 0.000000 3.606800 0.000000 
#    z 0.000000 0.000000 3.566980 
# 
# 
# High freq. dielectric constant tensor:
#      x y z
#    x 1.799790 0.000000 0.000000 
#    y 0.000000 1.785080 0.000000 
#    z 0.000000 0.000000 1.761720 
# 
# From -- ./inp_files/19621.got.cif
#   From: 2010.03.12/outbox.cif.g09.slc.cpg/sg51_10_cif.got.tgz:19621.got - 2010.04.16 13:43:02.
