data_PCOD8212697
_publ_section_title
;
Structure prediction by ZEFSAII (Michael W. Deem and Ramdas Pophale) SiO2 
 PCOD8212697
Probable space group: P M M A
;
_chemical_formula_sum "Si O2"
_cell_formula_units_Z 48
_cell_length_a 16.566511
_cell_length_b 9.042336
_cell_length_c 16.257586
_cell_angle_alpha 90.000000
_cell_angle_beta 90.000000
_cell_angle_gamma 90.000000
_cell_volume 2435.385713
_symmetry_space_group_name_H-M "P M M A"
_symmetry_group_IT_number 51
_symmetry_cell_setting 'orthorhombic'
loop_
_space_group_symop_operation_xyz
x,y,z
1/2-x,-y,z
1/2+x,-y,-z
-x,y,-z
-x,-y,-z
1/2+x,y,-z
1/2-x,y,z
x,-y,z
loop_
_atom_site_type_symbol
_atom_site_label
_atom_site_fract_x
_atom_site_fract_y
_atom_site_fract_z
Si Si1 0.386554 0.332958 0.301019
Si Si2 0.589566 0.833930 0.533143
Si Si3 0.839949 0.173189 0.365645
Si Si4 0.250000 0.826759 0.208000
Si Si5 0.440592 0.666004 0.770148
Si Si6 0.919159 0.323960 0.046333
Si Si7 0.750000 0.324121 0.966540
O O1 0.351107 0.500000 0.304270
O O2 0.405042 0.281211 0.393081
O O3 0.326831 0.216186 0.261364
O O4 0.464260 0.331925 0.243260
O O5 0.500000 0.839369 0.500000
O O6 0.644846 0.771868 0.458795
O O7 0.616422 0.000000 0.560628
O O8 0.750000 0.217203 0.339236
O O9 0.900469 0.240202 0.300733
O O10 0.855527 0.000000 0.364170
O O11 0.250000 0.735657 0.124760
O O12 0.250000 0.000000 0.188867
O O13 0.406152 0.500000 0.764865
O O14 0.422049 0.733843 0.859837
O O15 0.922198 0.500000 0.043357
O O16 0.833316 0.267066 0.009375
O O17 0.000000 0.262346 0.000000
O O18 0.750000 0.500000 0.964209
#
# Coordination Sequence:
#
# PCOD8212697 Si02
#       7
#     8   8   8   4   8   8   4
#     4  11  23  39  61  90 121 154 198 251 302 350
#     4  10  20  37  59  82 115 162 208 246 294 354
#     4  10  22  38  56  82 119 162 202 243 294 352
#     4  12  26  42  62  87 120 157 196 241 298 365
#     4  10  21  37  61  90 118 152 197 248 298 353
#     4   9  18  34  58  87 117 150 191 241 300 358
#     4  10  20  38  64  87 114 153 196 245 296 351
#
# _framework density 19.709403999999999
#
# number of rings (size 3 to 8) (size 9 to 14) (size 15 to 20)
#    0.000    1.833    1.667    2.250    2.333    4.667 
#    0.000    0.833    0.000    2.000    0.000    0.000 
#    0.000    0.000    0.000    0.000    0.000    0.000 
#
# Total GULP energy -595136.281597 kJ/mol
# GULP energy per Si atom -12398.672533 kJ/mol
# Density = 1.966454 g / cm^3
# Si number density = 19.709404 Si / 1000 Ang^3
#
#
#
# Elastic Constant Matrix: (Units=GPa)
#
#
# Indices 1 2 3 4 5 6 
#
# 1 104.6190 22.0309 37.5031 0.0000 0.0000 0.0000
# 2 22.0309 22.3329 15.1618 0.0000 0.0000 0.0000
# 3 37.5031 15.1618 113.2074 0.0000 0.0000 0.0000
# 4 0.0000 0.0000 0.0000 12.8294 0.0000 0.0000
# 5 0.0000 0.0000 0.0000 0.0000 -470.8004 0.0000
# 6 0.0000 0.0000 0.0000 0.0000 0.0000 22.8416
#
#
#
# Elastic Compliance Matrix: (Units=1/GPa)
#
#
# Indices 1 2 3 4 5 6 
#
# 1 0.012829 -0.010748 -0.002811 0.000000 0.000000 0.000000
# 2 -0.010748 0.058259 -0.004242 0.000000 0.000000 0.000000
# 3 -0.002811 -0.004242 0.010333 0.000000 0.000000 0.000000
# 4 0.000000 0.000000 0.000000 0.077946 0.000000 0.000000
# 5 0.000000 0.000000 0.000000 0.000000 -0.002124 0.000000
# 6 0.000000 0.000000 0.000000 0.000000 0.000000 0.043780
#
#
# Mechanical properties :
#
#
# Convention : Reuss Voigt Hill
#
# Bulk Modulus (GPa) = 21.82437 43.28343 32.55390
# Shear Modulus (GPa) = 19.84932 -75.99499 -28.07284
#
# Velocity S-wave (km/s) = 3.17693 -6.21622 -3.77813
# Velocity P-wave (km/s) = 4.95522 5.43263 1.57467
#
# Compressibility (1/GPa) = 0.04582033
#
# Stress axis : x y z
#
# Youngs Moduli (GPa) = 77.94664 17.16459 96.78112
#
# Poissons Ratio (x) = 0.18448 0.27201
# Poissons Ratio (y) = 0.83775 0.41057
# Poissons Ratio (z) = 0.21908 0.07282
#
# Static dielectric constant tensor:
#      x y z
#    x 3.834470 0.000000 0.000000 
#    y 0.000000 3.367430 0.000000 
#    z 0.000000 0.000000 3.726420 
# 
# 
# High freq. dielectric constant tensor:
#      x y z
#    x 1.779810 0.000000 0.000000 
#    y 0.000000 1.739730 0.000000 
#    z 0.000000 0.000000 1.781330 
# 
# From -- ./inp_files/29645.got.cif
#   From: 2010.03.12/outbox.cif.g09.slc.cpg/sg51_15_cif.got.tgz:29645.got - 2010.04.16 13:43:02.
