data_PCOD8212009
_publ_section_title
;
Structure prediction by ZEFSAII (Michael W. Deem and Ramdas Pophale) SiO2 
 PCOD8212009
Probable space group: P M M A
;
_chemical_formula_sum "Si O2"
_cell_formula_units_Z 64
_cell_length_a 20.899861
_cell_length_b 9.281193
_cell_length_c 16.670399
_cell_angle_alpha 90.000000
_cell_angle_beta 90.000000
_cell_angle_gamma 90.000000
_cell_volume 3233.651375
_symmetry_space_group_name_H-M "P M M A"
_symmetry_group_IT_number 51
_symmetry_cell_setting 'orthorhombic'
loop_
_space_group_symop_operation_xyz
x,y,z
1/2-x,-y,z
1/2+x,-y,-z
-x,y,-z
-x,-y,-z
1/2+x,y,-z
1/2-x,y,z
x,-y,z
loop_
_atom_site_type_symbol
_atom_site_label
_atom_site_fract_x
_atom_site_fract_y
_atom_site_fract_z
Si Si1 0.397033 0.336359 0.808978
Si Si2 0.180217 0.160188 0.700881
Si Si3 0.929165 0.671324 0.017704
Si Si4 0.319525 0.833752 0.437105
Si Si5 0.503977 0.666973 0.674135
Si Si6 0.176057 0.331527 0.112737
Si Si7 0.127763 0.167309 0.267216
Si Si8 0.581077 0.834128 0.439056
O O1 0.378983 0.500000 0.823207
O O2 0.333719 0.261518 0.776087
O O3 0.453278 0.316796 0.745111
O O4 0.413965 0.266149 0.894362
O O5 0.250000 0.195649 0.666717
O O6 0.132978 0.184797 0.628862
O O7 0.174977 0.000000 0.734995
O O8 0.932093 0.500000 0.017693
O O9 0.873973 0.721820 0.955488
O O10 0.000000 0.733730 0.000000
O O11 0.250000 0.765903 0.461663
O O12 0.324384 0.817827 0.341839
O O13 0.382467 0.768096 0.482195
O O14 0.319248 0.000000 0.463997
O O15 0.519603 0.500000 0.656326
O O16 0.564137 0.749472 0.708913
O O17 0.480321 0.740864 0.589933
O O18 0.250000 0.304837 0.085668
O O19 0.165026 0.500000 0.131910
O O20 0.161936 0.239836 0.191845
O O21 0.112259 0.000000 0.248709
O O22 0.558471 0.000000 0.450821
#
# Coordination Sequence:
#
# PCOD8212009 Si02
#       8
#     8   8   8   8   8   8   8   8
#     4   9  18  32  52  76 100 131 171 212 253 305
#     4   9  17  29  47  72 102 134 164 199 249 306
#     4   9  17  32  55  79 102 133 176 221 264 316
#     4   9  18  33  54  78 102 133 177 224 264 309
#     4  10  20  35  54  78 110 142 173 214 267 321
#     4  10  21  37  57  81 109 141 178 223 277 331
#     4  11  22  36  56  79 104 138 182 227 268 315
#     4   9  17  32  54  77 102 134 174 216 258 309
#
# _framework density 19.791865999999999
#
# number of rings (size 3 to 8) (size 9 to 14) (size 15 to 20)
#    0.000    2.500    0.000    2.250    0.000    6.000 
#    0.000    5.625    0.000    4.125    0.000    0.000 
#    0.000    0.000    0.000    0.000    0.000    0.000 
#
# Total GULP energy -793099.966962 kJ/mol
# GULP energy per Si atom -12392.186984 kJ/mol
# Density = 1.974682 g / cm^3
# Si number density = 19.791866 Si / 1000 Ang^3
#
#
#
# Elastic Constant Matrix: (Units=GPa)
#
#
# Indices 1 2 3 4 5 6 
#
# 1 100.4833 29.2976 15.1628 0.0000 0.0000 0.0000
# 2 29.2976 59.4165 19.0994 0.0000 0.0000 0.0000
# 3 15.1628 19.0994 74.3729 0.0000 0.0000 0.0000
# 4 0.0000 0.0000 0.0000 22.4675 0.0000 0.0000
# 5 0.0000 0.0000 0.0000 0.0000 36.4997 0.0000
# 6 0.0000 0.0000 0.0000 0.0000 0.0000 29.0819
#
#
#
# Elastic Compliance Matrix: (Units=1/GPa)
#
#
# Indices 1 2 3 4 5 6 
#
# 1 0.011689 -0.005447 -0.000984 0.000000 0.000000 0.000000
# 2 -0.005447 0.020883 -0.004252 0.000000 0.000000 0.000000
# 3 -0.000984 -0.004252 0.014738 0.000000 0.000000 0.000000
# 4 0.000000 0.000000 0.000000 0.044509 0.000000 0.000000
# 5 0.000000 0.000000 0.000000 0.000000 0.027397 0.000000
# 6 0.000000 0.000000 0.000000 0.000000 0.000000 0.034386
#
#
# Mechanical properties :
#
#
# Convention : Reuss Voigt Hill
#
# Bulk Modulus (GPa) = 38.54626 40.15468 39.35047
# Shear Modulus (GPa) = 27.23057 28.99069 28.11063
#
# Velocity S-wave (km/s) = 3.71326 3.83139 3.77279
# Velocity P-wave (km/s) = 6.15650 6.31706 6.23730
#
# Compressibility (1/GPa) = 0.02594286
#
# Stress axis : x y z
#
# Youngs Moduli (GPa) = 85.55334 47.88540 67.84978
#
# Poissons Ratio (x) = 0.26084 0.06677
# Poissons Ratio (y) = 0.46602 0.28852
# Poissons Ratio (z) = 0.08420 0.20363
#
# Static dielectric constant tensor:
#      x y z
#    x 3.832700 0.000000 0.000000 
#    y 0.000000 3.458350 0.000000 
#    z 0.000000 0.000000 3.860780 
# 
# 
# High freq. dielectric constant tensor:
#      x y z
#    x 1.785090 0.000000 0.000000 
#    y 0.000000 1.736020 0.000000 
#    z 0.000000 0.000000 1.776560 
# 
# From -- ./inp_files/30628.got.cif
#   From: 2010.03.12/outbox.cif.g09.slc.cpg/sg51_16_cif.got.tgz:30628.got - 2010.04.16 13:43:02.
