data_PCOD8212503
_publ_section_title
;
Structure prediction by ZEFSAII (Michael W. Deem and Ramdas Pophale) SiO2 
 PCOD8212503
Probable space group: P M M A
;
_chemical_formula_sum "Si O2"
_cell_formula_units_Z 48
_cell_length_a 28.029367
_cell_length_b 9.008008
_cell_length_c 9.992993
_cell_angle_alpha 90.000000
_cell_angle_beta 90.000000
_cell_angle_gamma 90.000000
_cell_volume 2523.118433
_symmetry_space_group_name_H-M "P M M A"
_symmetry_group_IT_number 51
_symmetry_cell_setting 'orthorhombic'
loop_
_space_group_symop_operation_xyz
x,y,z
1/2-x,-y,z
1/2+x,-y,-z
-x,y,-z
-x,-y,-z
1/2+x,y,-z
1/2-x,y,z
x,-y,z
loop_
_atom_site_type_symbol
_atom_site_label
_atom_site_fract_x
_atom_site_fract_y
_atom_site_fract_z
Si Si1 0.453084 0.328411 0.284441
Si Si2 0.198479 0.175998 0.407384
Si Si3 0.696202 0.827600 0.896715
Si Si4 0.100221 0.173577 0.518791
Si Si5 0.893866 0.329121 0.976700
Si Si6 0.949615 0.173455 0.208121
O O1 0.465438 0.500000 0.306315
O O2 0.436050 0.260712 0.424223
O O3 0.412100 0.306381 0.174248
O O4 0.499959 0.245662 0.237003
O O5 0.250000 0.236141 0.461532
O O6 0.191564 0.229927 0.255316
O O7 0.154442 0.233015 0.497388
O O8 0.200080 0.000000 0.408197
O O9 0.750000 0.800778 0.949612
O O10 0.659678 0.734927 0.987860
O O11 0.682412 0.000000 0.907459
O O12 0.086965 0.205957 0.671410
O O13 0.095980 0.000000 0.482964
O O14 0.893664 0.500000 0.019819
O O15 0.928822 0.241654 0.073806
O O16 0.957511 0.000000 0.186560
#
# Coordination Sequence:
#
# PCOD8212503 Si02
#       6
#     8   8   8   8   8   8
#     4  11  23  38  57  81 108 145 190 231 277 333
#     4   8  14  28  54  84 109 135 171 219 270 317
#     4   9  17  32  58  87 110 139 182 227 272 323
#     4  10  20  36  58  84 112 142 182 228 276 330
#     4  11  23  38  56  81 113 149 186 226 277 332
#     4  11  24  38  55  81 112 148 188 232 280 330
#
# _framework density 19.024077999999999
#
# number of rings (size 3 to 8) (size 9 to 14) (size 15 to 20)
#    0.000    2.000    1.667    3.500    0.000    7.667 
#    0.000    0.833    0.000    3.500    0.000    0.000 
#    0.000    0.000    0.000    0.000    0.000    0.000 
#
# Total GULP energy -595221.882170 kJ/mol
# GULP energy per Si atom -12400.455879 kJ/mol
# Density = 1.898078 g / cm^3
# Si number density = 19.024078 Si / 1000 Ang^3
#
#
#
# Elastic Constant Matrix: (Units=GPa)
#
#
# Indices 1 2 3 4 5 6 
#
# 1 114.0065 38.8280 3.3898 0.0000 0.0000 0.0000
# 2 38.8280 84.6886 29.4864 0.0000 0.0000 0.0000
# 3 3.3898 29.4864 34.6157 0.0000 0.0000 0.0000
# 4 0.0000 0.0000 0.0000 23.3980 0.0000 0.0000
# 5 0.0000 0.0000 0.0000 0.0000 68.3222 0.0000
# 6 0.0000 0.0000 0.0000 0.0000 0.0000 4.4083
#
#
#
# Elastic Compliance Matrix: (Units=1/GPa)
#
#
# Indices 1 2 3 4 5 6 
#
# 1 0.010871 -0.006558 0.004522 0.000000 0.000000 0.000000
# 2 -0.006558 0.020743 -0.017027 0.000000 0.000000 0.000000
# 3 0.004522 -0.017027 0.042950 0.000000 0.000000 0.000000
# 4 0.000000 0.000000 0.000000 0.042739 0.000000 0.000000
# 5 0.000000 0.000000 0.000000 0.000000 0.014637 0.000000
# 6 0.000000 0.000000 0.000000 0.000000 0.000000 0.226844
#
#
# Mechanical properties :
#
#
# Convention : Reuss Voigt Hill
#
# Bulk Modulus (GPa) = 27.44491 41.85767 34.65129
# Shear Modulus (GPa) = 12.22324 29.99949 21.11137
#
# Velocity S-wave (km/s) = 2.53754 3.97536 3.33486
# Velocity P-wave (km/s) = 4.80033 6.56670 5.75173
#
# Compressibility (1/GPa) = 0.03643663
#
# Stress axis : x y z
#
# Youngs Moduli (GPa) = 91.99104 48.20812 23.28281
#
# Poissons Ratio (x) = 0.31617 -0.10529
# Poissons Ratio (y) = 0.60332 0.39645
# Poissons Ratio (z) = -0.41599 0.82086
#
# Static dielectric constant tensor:
#      x y z
#    x 4.206540 0.000000 0.000000 
#    y 0.000000 3.349430 0.000000 
#    z 0.000000 0.000000 3.353440 
# 
# 
# High freq. dielectric constant tensor:
#      x y z
#    x 1.758050 0.000000 0.000000 
#    y 0.000000 1.725500 0.000000 
#    z 0.000000 0.000000 1.719640 
# 
# From -- ./inp_files/12800.got.cif
#   From: 2010.03.12/outbox.cif.g09.slc.cpg/sg51_7_cif.got.tgz:12800.got - 2010.04.16 13:43:02.
