data_PCOD8212837
_publ_section_title
;
Structure prediction by ZEFSAII (Michael W. Deem and Ramdas Pophale) SiO2 
 PCOD8212837
Probable space group: P M M A
;
_chemical_formula_sum "Si O2"
_cell_formula_units_Z 48
_cell_length_a 10.059326
_cell_length_b 9.160063
_cell_length_c 29.015346
_cell_angle_alpha 90.000000
_cell_angle_beta 90.000000
_cell_angle_gamma 90.000000
_cell_volume 2673.591780
_symmetry_space_group_name_H-M "P M M A"
_symmetry_group_IT_number 51
_symmetry_cell_setting 'orthorhombic'
loop_
_space_group_symop_operation_xyz
x,y,z
1/2-x,-y,z
1/2+x,-y,-z
-x,y,-z
-x,-y,-z
1/2+x,y,-z
1/2-x,y,z
x,-y,z
loop_
_atom_site_type_symbol
_atom_site_label
_atom_site_fract_x
_atom_site_fract_y
_atom_site_fract_z
Si Si1 0.750000 0.827566 0.945945
Si Si2 0.603397 0.673313 0.536527
Si Si3 0.597263 0.666863 0.198113
Si Si4 0.750000 0.332716 0.041574
Si Si5 0.989665 0.668270 0.900149
Si Si6 0.903830 0.329772 0.640875
Si Si7 0.902815 0.827985 0.289559
O O1 0.621678 0.774290 0.918870
O O2 0.750000 0.000000 0.947612
O O3 0.750000 0.769933 0.997660
O O4 0.500000 0.742181 0.500000
O O5 0.750000 0.735031 0.524858
O O6 0.605755 0.500000 0.532338
O O7 0.563533 0.716468 0.588416
O O8 0.750000 0.695460 0.184861
O O9 0.575970 0.500000 0.213518
O O10 0.509372 0.704217 0.153631
O O11 0.550798 0.768740 0.239934
O O12 0.750000 0.500000 0.024640
O O13 0.622960 0.297661 0.072254
O O14 0.947125 0.500000 0.906920
O O15 0.750000 0.294713 0.652559
O O16 0.932777 0.500000 0.648811
O O17 0.001692 0.236712 0.671984
O O18 0.750000 0.781250 0.299445
O O19 0.918957 0.000000 0.289370
#
# Coordination Sequence:
#
# PCOD8212837 Si02
#       7
#     4   8   8   4   8   8   8
#     4  12  26  38  50  80 120 150 178 212 255 312
#     4   8  14  25  43  70 103 134 167 213 265 313
#     4   9  17  34  60  85 104 128 172 223 268 316
#     4  10  20  38  64  86 104 136 182 224 265 314
#     4  10  20  38  62  84 106 137 177 222 268 313
#     4   9  18  33  52  76 106 140 179 219 262 313
#     4  10  21  35  52  77 107 138 173 215 264 317
#
# _framework density 17.953377
#
# number of rings (size 3 to 8) (size 9 to 14) (size 15 to 20)
#    0.000    2.500    0.833    2.750    0.000    5.333 
#    1.500    1.667    0.000    0.500    0.000    0.000 
#    0.000    0.000    0.000    0.000    0.000    0.000 
#
# Total GULP energy -595190.394983 kJ/mol
# GULP energy per Si atom -12399.799895 kJ/mol
# Density = 1.791251 g / cm^3
# Si number density = 17.953377 Si / 1000 Ang^3
#
#
#
# Elastic Constant Matrix: (Units=GPa)
#
#
# Indices 1 2 3 4 5 6 
#
# 1 111.5582 62.5718 84.0007 0.0000 0.0000 0.0000
# 2 62.5718 84.2647 67.3717 0.0000 0.0000 0.0000
# 3 84.0007 67.3717 147.4236 0.0000 0.0000 0.0000
# 4 0.0000 0.0000 0.0000 -2.8494 0.0000 0.0000
# 5 0.0000 0.0000 0.0000 0.0000 327.8063 0.0000
# 6 0.0000 0.0000 0.0000 0.0000 0.0000 20.9611
#
#
#
# Elastic Compliance Matrix: (Units=1/GPa)
#
#
# Indices 1 2 3 4 5 6 
#
# 1 0.018954 -0.008572 -0.006883 0.000000 0.000000 0.000000
# 2 -0.008572 0.022576 -0.005433 0.000000 0.000000 0.000000
# 3 -0.006883 -0.005433 0.013188 0.000000 0.000000 0.000000
# 4 0.000000 0.000000 0.000000 -0.350945 0.000000 0.000000
# 5 0.000000 0.000000 0.000000 0.000000 0.003051 0.000000
# 6 0.000000 0.000000 0.000000 0.000000 0.000000 0.047707
#
#
# Mechanical properties :
#
#
# Convention : Reuss Voigt Hill
#
# Bulk Modulus (GPa) = 77.26104 85.68166 81.47135
# Shear Modulus (GPa) = -25.07790 77.80374 26.36292
#
# Velocity S-wave (km/s) = -3.74148 6.59019 3.83614
# Velocity P-wave (km/s) = 4.94599 10.28278 8.06841
#
# Compressibility (1/GPa) = 0.01294313
#
# Stress axis : x y z
#
# Youngs Moduli (GPa) = 52.75843 44.29399 75.82767
#
# Poissons Ratio (x) = 0.37968 0.52190
# Poissons Ratio (y) = 0.45224 0.41198
# Poissons Ratio (z) = 0.36312 0.24065
#
# Static dielectric constant tensor:
#      x y z
#    x 3.428930 0.000000 0.000000 
#    y 0.000000 3.078640 0.000000 
#    z 0.000000 0.000000 3.476780 
# 
# 
# High freq. dielectric constant tensor:
#      x y z
#    x 1.695160 0.000000 0.000000 
#    y 0.000000 1.670200 0.000000 
#    z 0.000000 0.000000 1.705270 
# 
# From -- ./inp_files/37164.got.cif
#   From: 2010.03.12/outbox.cif.g09.slc.cpg/sg51_19_cif.got.tgz:37164.got - 2010.04.16 13:43:02.
