data_PCOD8212604
_publ_section_title
;
Structure prediction by ZEFSAII (Michael W. Deem and Ramdas Pophale) SiO2 
 PCOD8212604
Probable space group: P M M A
;
_chemical_formula_sum "Si O2"
_cell_formula_units_Z 48
_cell_length_a 8.735129
_cell_length_b 9.778033
_cell_length_c 29.178812
_cell_angle_alpha 90.000000
_cell_angle_beta 90.000000
_cell_angle_gamma 90.000000
_cell_volume 2492.231767
_symmetry_space_group_name_H-M "P M M A"
_symmetry_group_IT_number 51
_symmetry_cell_setting 'orthorhombic'
loop_
_space_group_symop_operation_xyz
x,y,z
1/2-x,-y,z
1/2+x,-y,-z
-x,y,-z
-x,-y,-z
1/2+x,y,-z
1/2-x,y,z
x,-y,z
loop_
_atom_site_type_symbol
_atom_site_label
_atom_site_fract_x
_atom_site_fract_y
_atom_site_fract_z
Si Si1 0.930524 0.238946 0.106754
Si Si2 0.073384 0.158762 0.197949
Si Si3 0.069685 0.156910 0.704826
Si Si4 0.570581 0.000000 0.950221
Si Si5 0.569553 0.155382 0.450836
Si Si6 0.930892 0.341162 0.627115
Si Si7 0.073157 0.500000 0.950452
O O1 0.750000 0.209619 0.108172
O O2 0.976533 0.374462 0.080458
O O3 0.995223 0.247505 0.158200
O O4 0.018784 0.128198 0.078157
O O5 0.250000 0.200802 0.204239
O O6 0.982003 0.191816 0.244010
O O7 0.057883 0.000000 0.184620
O O8 0.250000 0.178337 0.699848
O O9 0.984287 0.263534 0.672530
O O10 0.025013 0.000000 0.692236
O O11 0.750000 0.000000 0.956191
O O12 0.500000 0.000000 0.000000
O O13 0.500000 0.188830 0.500000
O O14 0.750000 0.172973 0.453436
O O15 0.504188 0.266067 0.416108
O O16 0.526607 0.000000 0.435557
O O17 0.750000 0.330807 0.623104
O O18 0.983799 0.500000 0.628589
O O19 0.250000 0.500000 0.960851
O O20 0.000000 0.500000 0.000000
#
# Coordination Sequence:
#
# PCOD8212604 Si02
#       7
#     8   8   8   4   8   8   4
#     4  11  22  39  61  86 117 152 191 238 289 346
#     4  10  20  36  60  90 120 150 190 238 290 348
#     4  10  21  38  62  89 116 152 196 242 295 353
#     4  12  24  38  58  88 118 150 192 238 289 346
#     4  10  21  38  62  91 121 157 203 251 300 356
#     4  11  24  40  58  85 122 161 202 248 299 354
#     4  10  24  42  60  84 114 152 194 234 283 344
#
# _framework density 19.259844999999999
#
# number of rings (size 3 to 8) (size 9 to 14) (size 15 to 20)
#    0.000    1.500    0.833    4.250    0.000    9.000 
#    1.500    0.000    0.000    0.000    0.000    0.000 
#    0.000    0.000    0.000    0.000    0.000    0.000 
#
# Total GULP energy -595288.667513 kJ/mol
# GULP energy per Si atom -12401.847240 kJ/mol
# Density = 1.921601 g / cm^3
# Si number density = 19.259845 Si / 1000 Ang^3
#
#
#
# Elastic Constant Matrix: (Units=GPa)
#
#
# Indices 1 2 3 4 5 6 
#
# 1 66.7101 47.9402 31.6761 0.0000 0.0000 0.0000
# 2 47.9402 134.6654 77.7489 0.0000 0.0000 0.0000
# 3 31.6761 77.7489 135.8074 0.0000 0.0000 0.0000
# 4 0.0000 0.0000 0.0000 22.9957 0.0000 0.0000
# 5 0.0000 0.0000 0.0000 0.0000 43.6007 0.0000
# 6 0.0000 0.0000 0.0000 0.0000 0.0000 31.4134
#
#
#
# Elastic Compliance Matrix: (Units=1/GPa)
#
#
# Indices 1 2 3 4 5 6 
#
# 1 0.020215 -0.006683 -0.000889 0.000000 0.000000 0.000000
# 2 -0.006683 0.013302 -0.006056 0.000000 0.000000 0.000000
# 3 -0.000889 -0.006056 0.011038 0.000000 0.000000 0.000000
# 4 0.000000 0.000000 0.000000 0.043486 0.000000 0.000000
# 5 0.000000 0.000000 0.000000 0.000000 0.022935 0.000000
# 6 0.000000 0.000000 0.000000 0.000000 0.000000 0.031834
#
#
# Mechanical properties :
#
#
# Convention : Reuss Voigt Hill
#
# Bulk Modulus (GPa) = 57.81101 72.43482 65.12292
# Shear Modulus (GPa) = 28.43610 31.58981 30.01295
#
# Velocity S-wave (km/s) = 3.84662 4.05432 3.95184
# Velocity P-wave (km/s) = 7.05763 7.72059 7.39654
#
# Compressibility (1/GPa) = 0.01729774
#
# Stress axis : x y z
#
# Youngs Moduli (GPa) = 49.46777 75.17881 90.59718
#
# Poissons Ratio (x) = 0.50244 0.08053
# Poissons Ratio (y) = 0.33061 0.54868
# Poissons Ratio (z) = 0.04397 0.45530
#
# Static dielectric constant tensor:
#      x y z
#    x 3.648640 0.000000 0.000000 
#    y 0.000000 3.512800 0.000000 
#    z 0.000000 0.000000 3.641640 
# 
# 
# High freq. dielectric constant tensor:
#      x y z
#    x 1.765090 0.000000 0.000000 
#    y 0.000000 1.743430 0.000000 
#    z 0.000000 0.000000 1.767000 
# 
# From -- ./inp_files/37198.got.cif
#   From: 2010.03.12/outbox.cif.g09.slc.cpg/sg51_19_cif.got.tgz:37198.got - 2010.04.16 13:43:02.
