data_PCOD8212039
_publ_section_title
;
Structure prediction by ZEFSAII (Michael W. Deem and Ramdas Pophale) SiO2 
 PCOD8212039
Probable space group: P M M A
;
_chemical_formula_sum "Si O2"
_cell_formula_units_Z 52
_cell_length_a 8.706137
_cell_length_b 21.778760
_cell_length_c 14.208191
_cell_angle_alpha 90.000000
_cell_angle_beta 90.000000
_cell_angle_gamma 90.000000
_cell_volume 2693.999015
_symmetry_space_group_name_H-M "P M M A"
_symmetry_group_IT_number 51
_symmetry_cell_setting 'orthorhombic'
loop_
_space_group_symop_operation_xyz
x,y,z
1/2-x,-y,z
1/2+x,-y,-z
-x,y,-z
-x,-y,-z
1/2+x,y,-z
1/2-x,y,z
x,-y,z
loop_
_atom_site_type_symbol
_atom_site_label
_atom_site_fract_x
_atom_site_fract_y
_atom_site_fract_z
Si Si1 0.931308 0.383345 0.285913
Si Si2 0.069135 0.569706 0.907009
Si Si3 0.433118 0.500000 0.601656
Si Si4 0.568438 0.067566 0.782188
Si Si5 0.933011 0.183680 0.896613
Si Si6 0.567925 0.753816 0.282282
Si Si7 0.431856 0.860039 0.399327
O O1 0.750000 0.391418 0.285483
O O2 0.994882 0.392070 0.180584
O O3 0.999301 0.437830 0.350296
O O4 0.977825 0.314774 0.316606
O O5 0.250000 0.572274 0.913502
O O6 0.010416 0.500000 0.896342
O O7 0.000000 0.600819 0.000000
O O8 0.250000 0.500000 0.601516
O O9 0.500000 0.500000 0.500000
O O10 0.750000 0.063999 0.786360
O O11 0.511798 0.116012 0.861045
O O12 0.519138 0.088855 0.677425
O O13 0.496731 0.000000 0.802082
O O14 0.750000 0.188496 0.900008
O O15 0.995453 0.232364 0.820313
O O16 0.000000 0.196829 0.000000
O O17 0.750000 0.762302 0.273937
O O18 0.500771 0.795655 0.364954
O O19 0.500000 0.879175 0.500000
O O20 0.250000 0.853516 0.407272
#
# Coordination Sequence:
#
# PCOD8212039 Si02
#       7
#     8   8   4   8   8   8   8
#     4   9  18  34  56  76 100 136 170 207 261 319
#     4   9  16  29  49  72  97 127 158 194 241 298
#     4  10  20  38  57  76 102 132 169 212 261 316
#     4   8  16  32  53  78 108 140 176 218 263 311
#     4  10  20  35  55  79 110 147 182 220 262 307
#     4  10  20  35  55  79 105 138 180 222 267 317
#     4  10  20  35  55  78 106 140 176 218 268 317
#
# _framework density 19.302160000000001
#
# number of rings (size 3 to 8) (size 9 to 14) (size 15 to 20)
#    0.000    2.615    0.769    2.308    0.000    1.846 
#    0.000    6.923    0.000   15.692    0.000    0.000 
#    0.000    0.000    0.000    0.000    0.000    0.000 
#
# Total GULP energy -644499.780089 kJ/mol
# GULP energy per Si atom -12394.226540 kJ/mol
# Density = 1.925823 g / cm^3
# Si number density = 19.302160 Si / 1000 Ang^3
#
#
#
# Elastic Constant Matrix: (Units=GPa)
#
#
# Indices 1 2 3 4 5 6 
#
# 1 48.7554 24.0979 15.9613 0.0000 0.0000 0.0000
# 2 24.0979 113.4325 28.8259 0.0000 0.0000 0.0000
# 3 15.9613 28.8259 96.3001 0.0000 0.0000 0.0000
# 4 0.0000 0.0000 0.0000 16.8231 0.0000 0.0000
# 5 0.0000 0.0000 0.0000 0.0000 33.7076 0.0000
# 6 0.0000 0.0000 0.0000 0.0000 0.0000 19.5158
#
#
#
# Elastic Compliance Matrix: (Units=1/GPa)
#
#
# Indices 1 2 3 4 5 6 
#
# 1 0.023503 -0.004333 -0.002599 0.000000 0.000000 0.000000
# 2 -0.004333 0.010340 -0.002377 0.000000 0.000000 0.000000
# 3 -0.002599 -0.002377 0.011526 0.000000 0.000000 0.000000
# 4 0.000000 0.000000 0.000000 0.059442 0.000000 0.000000
# 5 0.000000 0.000000 0.000000 0.000000 0.029667 0.000000
# 6 0.000000 0.000000 0.000000 0.000000 0.000000 0.051240
#
#
# Mechanical properties :
#
#
# Convention : Reuss Voigt Hill
#
# Bulk Modulus (GPa) = 37.37912 44.02870 40.70391
# Shear Modulus (GPa) = 23.44629 26.64948 25.04788
#
# Velocity S-wave (km/s) = 3.48903 3.71974 3.60623
# Velocity P-wave (km/s) = 5.96979 6.42716 6.20269
#
# Compressibility (1/GPa) = 0.02675290
#
# Stress axis : x y z
#
# Youngs Moduli (GPa) = 42.54833 96.70880 86.75688
#
# Poissons Ratio (x) = 0.41900 0.22544
# Poissons Ratio (y) = 0.18434 0.20623
# Poissons Ratio (z) = 0.11057 0.22989
#
# Static dielectric constant tensor:
#      x y z
#    x 3.253200 0.000000 0.000000 
#    y 0.000000 3.845240 0.000000 
#    z 0.000000 0.000000 3.634760 
# 
# 
# High freq. dielectric constant tensor:
#      x y z
#    x 1.725890 0.000000 0.000000 
#    y 0.000000 1.752350 0.000000 
#    z 0.000000 0.000000 1.754090 
# 
# From -- ./inp_files/22092.got.cif
#   From: 2010.03.12/outbox.cif.g09.slc.cpg/sg51_12_cif.got.tgz:22092.got - 2010.04.16 13:43:02.
