data_PCOD8212417
_publ_section_title
;
Structure prediction by ZEFSAII (Michael W. Deem and Ramdas Pophale) SiO2 
 PCOD8212417
Probable space group: P M M A
;
_chemical_formula_sum "Si O2"
_cell_formula_units_Z 64
_cell_length_a 9.480437
_cell_length_b 18.386096
_cell_length_c 19.453639
_cell_angle_alpha 90.000000
_cell_angle_beta 90.000000
_cell_angle_gamma 90.000000
_cell_volume 3390.929280
_symmetry_space_group_name_H-M "P M M A"
_symmetry_group_IT_number 51
_symmetry_cell_setting 'orthorhombic'
loop_
_space_group_symop_operation_xyz
x,y,z
1/2-x,-y,z
1/2+x,-y,-z
-x,y,-z
-x,-y,-z
1/2+x,y,-z
1/2-x,y,z
x,-y,z
loop_
_atom_site_type_symbol
_atom_site_label
_atom_site_fract_x
_atom_site_fract_y
_atom_site_fract_z
Si Si1 0.906887 0.414430 0.438389
Si Si2 0.413386 0.915604 0.317264
Si Si3 0.582546 0.839817 0.197348
Si Si4 0.594364 0.085839 0.060100
Si Si5 0.588588 0.302975 0.815972
Si Si6 0.409586 0.333469 0.341562
Si Si7 0.088758 0.194597 0.431072
Si Si8 0.413860 0.416759 0.066744
O O1 0.750000 0.380361 0.441111
O O2 0.897176 0.500000 0.446208
O O3 0.000000 0.379951 0.500000
O O4 0.983358 0.395106 0.367458
O O5 0.250000 0.905013 0.295443
O O6 0.510838 0.871975 0.264809
O O7 0.438681 0.882348 0.393080
O O8 0.456661 0.000000 0.319036
O O9 0.750000 0.833722 0.209657
O O10 0.540942 0.893641 0.135540
O O11 0.519931 0.762571 0.175222
O O12 0.750000 0.117913 0.048631
O O13 0.593078 0.000000 0.054024
O O14 0.500000 0.121035 0.000000
O O15 0.750000 0.276964 0.828488
O O16 0.572308 0.333079 0.739550
O O17 0.545036 0.366376 0.868761
O O18 0.250000 0.354836 0.361817
O O19 0.452221 0.256824 0.376014
O O20 0.250000 0.201976 0.453712
O O21 0.000000 0.200411 0.500000
O O22 0.250000 0.409140 0.048571
O O23 0.452285 0.500000 0.086070
O O24 0.500000 0.390751 0.000000
#
# Coordination Sequence:
#
# PCOD8212417 Si02
#       8
#     8   8   8   8   8   8   8   8
#     4  10  21  36  54  79 111 145 184 227 273 332
#     4  10  21  39  61  82 109 148 191 234 284 344
#     4  11  22  36  56  83 116 149 184 233 287 336
#     4   9  19  35  53  76 107 142 182 226 271 324
#     4  10  21  38  59  83 113 148 189 231 274 333
#     4  10  20  36  57  80 110 146 186 236 282 331
#     4  10  21  37  56  82 111 143 186 231 283 339
#     4   9  19  37  61  87 116 153 195 238 284 334
#
# _framework density 18.873882999999999
#
# number of rings (size 3 to 8) (size 9 to 14) (size 15 to 20)
#    0.000    2.125    1.250    1.500    0.000    6.750 
#    0.000    5.000    0.000    1.500    0.000    0.000 
#    0.000    0.000    0.000    0.000    0.000    0.000 
#
# Total GULP energy -793615.959147 kJ/mol
# GULP energy per Si atom -12400.249362 kJ/mol
# Density = 1.883093 g / cm^3
# Si number density = 18.873883 Si / 1000 Ang^3
#
#
#
# Elastic Constant Matrix: (Units=GPa)
#
#
# Indices 1 2 3 4 5 6 
#
# 1 99.5046 41.6165 67.0312 0.0000 0.0000 0.0000
# 2 41.6165 63.9320 48.5890 0.0000 0.0000 0.0000
# 3 67.0312 48.5890 136.2937 0.0000 0.0000 0.0000
# 4 0.0000 0.0000 0.0000 34.4970 0.0000 0.0000
# 5 0.0000 0.0000 0.0000 0.0000 29.1457 0.0000
# 6 0.0000 0.0000 0.0000 0.0000 0.0000 25.8052
#
#
#
# Elastic Compliance Matrix: (Units=1/GPa)
#
#
# Indices 1 2 3 4 5 6 
#
# 1 0.016722 -0.006357 -0.005958 0.000000 0.000000 0.000000
# 2 -0.006357 0.023872 -0.005384 0.000000 0.000000 0.000000
# 3 -0.005958 -0.005384 0.012187 0.000000 0.000000 0.000000
# 4 0.000000 0.000000 0.000000 0.028988 0.000000 0.000000
# 5 0.000000 0.000000 0.000000 0.000000 0.034310 0.000000
# 6 0.000000 0.000000 0.000000 0.000000 0.000000 0.038752
#
#
# Mechanical properties :
#
#
# Convention : Reuss Voigt Hill
#
# Bulk Modulus (GPa) = 57.52844 68.24487 62.88666
# Shear Modulus (GPa) = 25.50735 27.38917 26.44826
#
# Velocity S-wave (km/s) = 3.68021 3.81355 3.74748
# Velocity P-wave (km/s) = 6.97175 7.45840 7.21918
#
# Compressibility (1/GPa) = 0.01738271
#
# Stress axis : x y z
#
# Youngs Moduli (GPa) = 59.80112 41.89091 82.05800
#
# Poissons Ratio (x) = 0.26631 0.48888
# Poissons Ratio (y) = 0.38017 0.44177
# Poissons Ratio (z) = 0.35628 0.22553
#
# Static dielectric constant tensor:
#      x y z
#    x 3.629170 0.000000 0.000000 
#    y 0.000000 3.411380 0.000000 
#    z 0.000000 0.000000 3.501780 
# 
# 
# High freq. dielectric constant tensor:
#      x y z
#    x 1.735470 0.000000 0.000000 
#    y 0.000000 1.727000 0.000000 
#    z 0.000000 0.000000 1.736680 
# 
# From -- ./inp_files/32396.got.cif
#   From: 2010.03.12/outbox.cif.g09.slc.cpg/sg51_17_cif.got.tgz:32396.got - 2010.04.16 13:43:02.
