data_PCOD8212728
_publ_section_title
;
Structure prediction by ZEFSAII (Michael W. Deem and Ramdas Pophale) SiO2 
 PCOD8212728
Probable space group: P M M A
;
_chemical_formula_sum "Si O2"
_cell_formula_units_Z 48
_cell_length_a 29.801499
_cell_length_b 8.651693
_cell_length_c 9.549005
_cell_angle_alpha 90.000000
_cell_angle_beta 90.000000
_cell_angle_gamma 90.000000
_cell_volume 2462.052619
_symmetry_space_group_name_H-M "P M M A"
_symmetry_group_IT_number 51
_symmetry_cell_setting 'orthorhombic'
loop_
_space_group_symop_operation_xyz
x,y,z
1/2-x,-y,z
1/2+x,-y,-z
-x,y,-z
-x,-y,-z
1/2+x,y,-z
1/2-x,y,z
x,-y,z
loop_
_atom_site_type_symbol
_atom_site_label
_atom_site_fract_x
_atom_site_fract_y
_atom_site_fract_z
Si Si1 0.178870 0.819642 0.349198
Si Si2 0.425077 0.178745 0.343486
Si Si3 0.176952 0.318494 0.646164
Si Si4 0.750000 0.680957 0.852375
Si Si5 0.998413 0.317547 0.844630
Si Si6 0.425817 0.680956 0.637023
Si Si7 0.250000 0.182417 0.842852
O O1 0.127022 0.783781 0.320473
O O2 0.192722 0.763763 0.503718
O O3 0.205906 0.723905 0.234737
O O4 0.190437 0.000000 0.336214
O O5 0.451980 0.270505 0.226272
O O6 0.440426 0.232065 0.496628
O O7 0.435895 0.000000 0.327018
O O8 0.185259 0.500000 0.629175
O O9 0.125149 0.280000 0.679818
O O10 0.205513 0.253530 0.774194
O O11 0.750000 0.500000 0.886873
O O12 0.750000 0.777219 0.994538
O O13 0.000565 0.500000 0.853312
O O14 0.041565 0.256509 0.758696
O O15 0.000000 0.244942 0.000000
O O16 0.432209 0.500000 0.609265
O O17 0.250000 0.000000 0.822206
#
# Coordination Sequence:
#
# PCOD8212728 Si02
#       7
#     8   8   8   4   8   8   4
#     4  10  21  39  60  84 114 147 184 229 285 338
#     4  10  21  36  57  84 111 143 184 228 274 328
#     4  10  20  37  60  85 111 145 193 238 275 325
#     4  12  25  40  59  84 112 146 188 230 275 332
#     4  10  21  36  54  79 112 149 186 227 278 330
#     4   9  19  36  58  82 109 144 186 231 276 324
#     4  12  25  40  57  82 118 154 184 224 283 338
#
# _framework density 19.495926999999998
#
# number of rings (size 3 to 8) (size 9 to 14) (size 15 to 20)
#    0.000    1.833    0.000    4.000    0.000    7.000 
#    0.000    1.667    0.000    0.000    0.000    0.000 
#    0.000    0.000    0.000    0.000    0.000    0.000 
#
# Total GULP energy -595437.572828 kJ/mol
# GULP energy per Si atom -12404.949434 kJ/mol
# Density = 1.945155 g / cm^3
# Si number density = 19.495927 Si / 1000 Ang^3
#
#
#
# Elastic Constant Matrix: (Units=GPa)
#
#
# Indices 1 2 3 4 5 6 
#
# 1 99.8800 21.8957 66.3442 0.0000 0.0000 0.0000
# 2 21.8957 36.6575 8.5210 0.0000 0.0000 0.0000
# 3 66.3442 8.5210 127.4983 0.0000 0.0000 0.0000
# 4 0.0000 0.0000 0.0000 23.2334 0.0000 0.0000
# 5 0.0000 0.0000 0.0000 0.0000 13.8617 0.0000
# 6 0.0000 0.0000 0.0000 0.0000 0.0000 29.7173
#
#
#
# Elastic Compliance Matrix: (Units=1/GPa)
#
#
# Indices 1 2 3 4 5 6 
#
# 1 0.017572 -0.008503 -0.008575 0.000000 0.000000 0.000000
# 2 -0.008503 0.031824 0.002297 0.000000 0.000000 0.000000
# 3 -0.008575 0.002297 0.012152 0.000000 0.000000 0.000000
# 4 0.000000 0.000000 0.000000 0.043041 0.000000 0.000000
# 5 0.000000 0.000000 0.000000 0.000000 0.072141 0.000000
# 6 0.000000 0.000000 0.000000 0.000000 0.000000 0.033650
#
#
# Mechanical properties :
#
#
# Convention : Reuss Voigt Hill
#
# Bulk Modulus (GPa) = 31.26264 50.83973 41.05118
# Shear Modulus (GPa) = 19.95173 24.51413 22.23293
#
# Velocity S-wave (km/s) = 3.20250 3.54983 3.38063
# Velocity P-wave (km/s) = 5.45389 6.55251 6.02828
#
# Compressibility (1/GPa) = 0.03198707
#
# Stress axis : x y z
#
# Youngs Moduli (GPa) = 56.90841 31.42271 82.29120
#
# Poissons Ratio (x) = 0.26717 0.70568
# Poissons Ratio (y) = 0.48387 -0.18906
# Poissons Ratio (z) = 0.48802 -0.07219
#
# Static dielectric constant tensor:
#      x y z
#    x 3.901660 0.000000 0.000000 
#    y 0.000000 3.544160 0.000000 
#    z 0.000000 0.000000 3.640790 
# 
# 
# High freq. dielectric constant tensor:
#      x y z
#    x 1.772000 0.000000 0.000000 
#    y 0.000000 1.762240 0.000000 
#    z 0.000000 0.000000 1.757840 
# 
# From -- ./inp_files/12888.got.cif
#   From: 2010.03.12/outbox.cif.g09.slc.cpg/sg51_7_cif.got.tgz:12888.got - 2010.04.16 13:43:02.
