data_PCOD8212922
_publ_section_title
;
Structure prediction by ZEFSAII (Michael W. Deem and Ramdas Pophale) SiO2 
 PCOD8212922
Probable space group: P M M A
;
_chemical_formula_sum "Si O2"
_cell_formula_units_Z 48
_cell_length_a 18.166137
_cell_length_b 7.747382
_cell_length_c 17.235964
_cell_angle_alpha 90.000000
_cell_angle_beta 90.000000
_cell_angle_gamma 90.000000
_cell_volume 2425.789622
_symmetry_space_group_name_H-M "P M M A"
_symmetry_group_IT_number 51
_symmetry_cell_setting 'orthorhombic'
loop_
_space_group_symop_operation_xyz
x,y,z
1/2-x,-y,z
1/2+x,-y,-z
-x,y,-z
-x,-y,-z
1/2+x,y,-z
1/2-x,y,z
x,-y,z
loop_
_atom_site_type_symbol
_atom_site_label
_atom_site_fract_x
_atom_site_fract_y
_atom_site_fract_z
Si Si1 0.831097 0.197205 0.079477
Si Si2 0.580155 0.799545 0.769275
Si Si3 0.668763 0.696028 0.915374
Si Si4 0.837031 0.500000 0.503918
Si Si5 0.836589 0.197607 0.614839
Si Si6 0.837651 0.500000 0.328822
Si Si7 0.410504 0.794919 0.768792
O O1 0.750000 0.287434 0.083405
O O2 0.885548 0.269170 0.145538
O O3 0.820687 0.000000 0.099917
O O4 0.864767 0.215951 0.992972
O O5 0.613692 0.708908 0.844106
O O6 0.623384 0.740352 0.692905
O O7 0.495705 0.746869 0.760085
O O8 0.590026 0.000000 0.783810
O O9 0.750000 0.775472 0.895373
O O10 0.678410 0.500000 0.938185
O O11 0.750000 0.500000 0.502327
O O12 0.864199 0.325590 0.547121
O O13 0.867801 0.500000 0.416962
O O14 0.750000 0.215418 0.629686
O O15 0.857634 0.000000 0.592744
O O16 0.750000 0.500000 0.324328
O O17 0.866025 0.321606 0.291828
O O18 0.396788 0.000000 0.752930
#
# Coordination Sequence:
#
# PCOD8212922 Si02
#       7
#     8   8   8   4   8   4   8
#     4   9  18  35  56  76 106 149 193 240 289 334
#     4  10  21  37  56  81 117 156 192 232 280 338
#     4  10  21  33  52  84 115 149 194 241 283 329
#     4   9  20  37  59  88 113 140 185 235 286 339
#     4   9  18  34  58  85 115 152 189 229 279 336
#     4  11  24  41  65  89 110 145 187 236 293 343
#     4  10  23  40  59  86 117 152 193 237 287 340
#
# _framework density 19.787372000000001
#
# number of rings (size 3 to 8) (size 9 to 14) (size 15 to 20)
#    0.000    2.333    0.000    1.500    3.500    4.000 
#    0.000    6.667    0.000    3.000    0.000    0.000 
#    0.000    0.000    0.000    0.000    0.000    0.000 
#
# Total GULP energy -594999.195439 kJ/mol
# GULP energy per Si atom -12395.816572 kJ/mol
# Density = 1.974233 g / cm^3
# Si number density = 19.787372 Si / 1000 Ang^3
#
#
#
# Elastic Constant Matrix: (Units=GPa)
#
#
# Indices 1 2 3 4 5 6 
#
# 1 86.9658 38.8205 63.5605 0.0000 0.0000 0.0000
# 2 38.8205 80.4942 62.1813 0.0000 0.0000 0.0000
# 3 63.5605 62.1813 173.8821 0.0000 0.0000 0.0000
# 4 0.0000 0.0000 0.0000 34.6179 0.0000 0.0000
# 5 0.0000 0.0000 0.0000 0.0000 5.1751 0.0000
# 6 0.0000 0.0000 0.0000 0.0000 0.0000 22.2384
#
#
#
# Elastic Compliance Matrix: (Units=1/GPa)
#
#
# Indices 1 2 3 4 5 6 
#
# 1 0.016867 -0.004659 -0.004500 0.000000 0.000000 0.000000
# 2 -0.004659 0.018452 -0.004896 0.000000 0.000000 0.000000
# 3 -0.004500 -0.004896 0.009146 0.000000 0.000000 0.000000
# 4 0.000000 0.000000 0.000000 0.028887 0.000000 0.000000
# 5 0.000000 0.000000 0.000000 0.000000 0.193232 0.000000
# 6 0.000000 0.000000 0.000000 0.000000 0.000000 0.044967
#
#
# Mechanical properties :
#
#
# Convention : Reuss Voigt Hill
#
# Bulk Modulus (GPa) = 61.13342 74.49629 67.81486
# Shear Modulus (GPa) = 14.48806 24.19160 19.33983
#
# Velocity S-wave (km/s) = 2.70883 3.50033 3.12970
# Velocity P-wave (km/s) = 6.38325 7.35300 6.88522
#
# Compressibility (1/GPa) = 0.01635766
#
# Stress axis : x y z
#
# Youngs Moduli (GPa) = 59.28767 54.19519 109.33206
#
# Poissons Ratio (x) = 0.25248 0.49194
# Poissons Ratio (y) = 0.27620 0.53524
# Poissons Ratio (z) = 0.26677 0.26532
#
# Static dielectric constant tensor:
#      x y z
#    x 3.657920 0.000000 0.000000 
#    y 0.000000 3.611250 0.000000 
#    z 0.000000 0.000000 3.666020 
# 
# 
# High freq. dielectric constant tensor:
#      x y z
#    x 1.755710 0.000000 0.000000 
#    y 0.000000 1.774780 0.000000 
#    z 0.000000 0.000000 1.771860 
# 
# From -- ./inp_files/24900.got.cif
#   From: 2010.03.12/outbox.cif.g09.slc.cpg/sg51_13_cif.got.tgz:24900.got - 2010.04.16 13:43:02.
