data_PCOD8212830
_publ_section_title
;
Structure prediction by ZEFSAII (Michael W. Deem and Ramdas Pophale) SiO2 
 PCOD8212830
Probable space group: P M M A
;
_chemical_formula_sum "Si O2"
_cell_formula_units_Z 48
_cell_length_a 8.735212
_cell_length_b 30.726841
_cell_length_c 9.358733
_cell_angle_alpha 90.000000
_cell_angle_beta 90.000000
_cell_angle_gamma 90.000000
_cell_volume 2511.935132
_symmetry_space_group_name_H-M "P M M A"
_symmetry_group_IT_number 51
_symmetry_cell_setting 'orthorhombic'
loop_
_space_group_symop_operation_xyz
x,y,z
1/2-x,-y,z
1/2+x,-y,-z
-x,y,-z
-x,-y,-z
1/2+x,y,-z
1/2-x,y,z
x,-y,z
loop_
_atom_site_type_symbol
_atom_site_label
_atom_site_fract_x
_atom_site_fract_y
_atom_site_fract_z
Si Si1 0.569365 0.906069 0.156344
Si Si2 0.568058 0.174249 0.343159
Si Si3 0.071637 0.671291 0.352705
Si Si4 0.431014 0.250663 0.156338
Si Si5 0.931738 0.427379 0.650781
Si Si6 0.070921 0.000000 0.846656
Si Si7 0.568165 0.500000 0.155450
O O1 0.750000 0.902376 0.137692
O O2 0.509769 0.869681 0.265471
O O3 0.521770 0.953715 0.224531
O O4 0.500000 0.898289 0.000000
O O5 0.500000 0.175017 0.500000
O O6 0.750000 0.176814 0.351458
O O7 0.505383 0.214647 0.255605
O O8 0.250000 0.672570 0.379698
O O9 0.024475 0.702411 0.222061
O O10 0.018586 0.622300 0.316319
O O11 0.000000 0.688498 0.500000
O O12 0.250000 0.243525 0.149482
O O13 0.500000 0.247370 0.000000
O O14 0.750000 0.433911 0.650183
O O15 0.000000 0.442530 0.500000
O O16 0.007967 0.456518 0.770693
O O17 0.250000 0.000000 0.866123
O O18 0.000000 0.000000 0.000000
O O19 0.750000 0.500000 0.152340
O O20 0.500000 0.500000 0.000000
#
# Coordination Sequence:
#
# PCOD8212830 Si02
#       7
#     8   8   8   8   8   4   4
#     4   9  18  32  53  78 105 136 175 219 267 319
#     4  11  23  38  55  78 107 143 182 225 273 325
#     4   9  20  37  59  85 113 144 182 224 270 321
#     4  11  23  39  58  83 112 145 182 224 271 324
#     4  10  20  38  61  86 114 148 187 227 270 323
#     4   8  14  28  49  74 102 134 170 214 263 316
#     4  12  25  40  57  82 114 150 188 232 281 328
#
# _framework density 19.108774
#
# number of rings (size 3 to 8) (size 9 to 14) (size 15 to 20)
#    0.000    2.000    0.000    3.500    0.000    6.667 
#    0.000    2.083    0.000    0.000    0.000    0.000 
#    0.000    0.000    0.000    0.000    0.000    0.000 
#
# Total GULP energy -595046.614551 kJ/mol
# GULP energy per Si atom -12396.804470 kJ/mol
# Density = 1.906528 g / cm^3
# Si number density = 19.108774 Si / 1000 Ang^3
#
#
#
# Elastic Constant Matrix: (Units=GPa)
#
#
# Indices 1 2 3 4 5 6 
#
# 1 75.5689 50.7505 51.8486 0.0000 0.0000 0.0000
# 2 50.7505 146.2824 91.0061 0.0000 0.0000 0.0000
# 3 51.8486 91.0061 158.9181 0.0000 0.0000 0.0000
# 4 0.0000 0.0000 0.0000 165.0853 0.0000 0.0000
# 5 0.0000 0.0000 0.0000 0.0000 35.6350 0.0000
# 6 0.0000 0.0000 0.0000 0.0000 0.0000 38.6170
#
#
#
# Elastic Compliance Matrix: (Units=1/GPa)
#
#
# Indices 1 2 3 4 5 6 
#
# 1 0.018538 -0.004146 -0.003674 0.000000 0.000000 0.000000
# 2 -0.004146 0.011547 -0.005260 0.000000 0.000000 0.000000
# 3 -0.003674 -0.005260 0.010503 0.000000 0.000000 0.000000
# 4 0.000000 0.000000 0.000000 0.006057 0.000000 0.000000
# 5 0.000000 0.000000 0.000000 0.000000 0.028062 0.000000
# 6 0.000000 0.000000 0.000000 0.000000 0.000000 0.025895
#
#
# Mechanical properties :
#
#
# Convention : Reuss Voigt Hill
#
# Bulk Modulus (GPa) = 69.30581 85.33110 77.31845
# Shear Modulus (GPa) = 38.00212 60.34507 49.17360
#
# Velocity S-wave (km/s) = 4.46435 5.62568 5.07832
# Velocity P-wave (km/s) = 7.93232 9.32471 8.65656
#
# Compressibility (1/GPa) = 0.01442880
#
# Stress axis : x y z
#
# Youngs Moduli (GPa) = 53.94331 86.60571 95.20833
#
# Poissons Ratio (x) = 0.35904 0.34981
# Poissons Ratio (y) = 0.22363 0.50077
# Poissons Ratio (z) = 0.19819 0.45552
#
# Static dielectric constant tensor:
#      x y z
#    x 3.599370 0.000000 0.000000 
#    y 0.000000 4.246690 0.000000 
#    z 0.000000 0.000000 3.433520 
# 
# 
# High freq. dielectric constant tensor:
#      x y z
#    x 1.749260 0.000000 0.000000 
#    y 0.000000 1.767440 0.000000 
#    z 0.000000 0.000000 1.730840 
# 
# From -- ./inp_files/6259.got.cif
#   From: 2010.03.12/outbox.cif.g09.slc.cpg/sg51_4_cif.got.tgz:6259.got - 2010.04.16 13:43:02.
