data_PCOD8212239
_publ_section_title
;
Structure prediction by ZEFSAII (Michael W. Deem and Ramdas Pophale) SiO2 
 PCOD8212239
Probable space group: P M M A
;
_chemical_formula_sum "Si O2"
_cell_formula_units_Z 56
_cell_length_a 18.355093
_cell_length_b 19.354536
_cell_length_c 8.016936
_cell_angle_alpha 90.000000
_cell_angle_beta 90.000000
_cell_angle_gamma 90.000000
_cell_volume 2848.051053
_symmetry_space_group_name_H-M "P M M A"
_symmetry_group_IT_number 51
_symmetry_cell_setting 'orthorhombic'
loop_
_space_group_symop_operation_xyz
x,y,z
1/2-x,-y,z
1/2+x,-y,-z
-x,y,-z
-x,-y,-z
1/2+x,y,-z
1/2-x,y,z
x,-y,z
loop_
_atom_site_type_symbol
_atom_site_label
_atom_site_fract_x
_atom_site_fract_y
_atom_site_fract_z
Si Si1 0.572640 0.576773 0.900215
Si Si2 0.334548 0.160097 0.788387
Si Si3 0.092337 0.709671 0.666091
Si Si4 0.333780 0.422667 0.788258
Si Si5 0.925162 0.289150 0.710795
Si Si6 0.664301 0.831818 0.841125
Si Si7 0.163256 0.922396 0.473095
O O1 0.561406 0.500000 0.823376
O O2 0.589243 0.630778 0.754021
O O3 0.500000 0.599322 0.000000
O O4 0.642639 0.577576 0.019371
O O5 0.250000 0.156498 0.755673
O O6 0.357589 0.239773 0.773535
O O7 0.370165 0.113074 0.641384
O O8 0.352521 0.134071 0.976839
O O9 0.115149 0.630199 0.688952
O O10 0.103625 0.726847 0.472942
O O11 0.010789 0.724388 0.725845
O O12 0.250000 0.399558 0.775461
O O13 0.344906 0.500000 0.713971
O O14 0.881078 0.239235 0.834250
O O15 0.750000 0.814791 0.824283
O O16 0.637423 0.882748 0.694266
O O17 0.250000 0.923782 0.478741
O O18 0.131976 0.000000 0.464929
#
# Coordination Sequence:
#
# PCOD8212239 Si02
#       7
#     8   8   8   8   8   8   8
#     4  10  20  37  57  79 111 149 193 246 295 343
#     4  10  20  35  57  84 114 151 190 232 287 344
#     4  11  22  36  54  81 115 149 191 243 291 343
#     4  10  21  37  57  81 110 148 192 239 295 352
#     4  11  23  35  55  83 111 150 197 239 291 349
#     4  10  21  36  58  87 117 152 193 241 290 345
#     4   9  18  35  58  86 120 152 186 234 291 348
#
# _framework density 19.662571
#
# number of rings (size 3 to 8) (size 9 to 14) (size 15 to 20)
#    0.000    1.857    2.857    1.286    0.000    3.429 
#    0.000    4.286    0.000    3.429    0.000    2.000 
#    0.000    0.000    0.000    0.000    0.000    0.000 
#
# Total GULP energy -694262.284287 kJ/mol
# GULP energy per Si atom -12397.540791 kJ/mol
# Density = 1.961782 g / cm^3
# Si number density = 19.662571 Si / 1000 Ang^3
#
#
#
# Elastic Constant Matrix: (Units=GPa)
#
#
# Indices 1 2 3 4 5 6 
#
# 1 40.7460 22.1790 38.0053 0.0000 0.0000 0.0000
# 2 22.1790 121.3505 64.7349 0.0000 0.0000 0.0000
# 3 38.0053 64.7349 126.4377 0.0000 0.0000 0.0000
# 4 0.0000 0.0000 0.0000 30.4790 0.0000 0.0000
# 5 0.0000 0.0000 0.0000 0.0000 21.4794 0.0000
# 6 0.0000 0.0000 0.0000 0.0000 0.0000 16.9674
#
#
#
# Elastic Compliance Matrix: (Units=1/GPa)
#
#
# Indices 1 2 3 4 5 6 
#
# 1 0.034202 -0.001055 -0.009740 0.000000 0.000000 0.000000
# 2 -0.001055 0.011370 -0.005504 0.000000 0.000000 0.000000
# 3 -0.009740 -0.005504 0.013655 0.000000 0.000000 0.000000
# 4 0.000000 0.000000 0.000000 0.032809 0.000000 0.000000
# 5 0.000000 0.000000 0.000000 0.000000 0.046556 0.000000
# 6 0.000000 0.000000 0.000000 0.000000 0.000000 0.058936
#
#
# Mechanical properties :
#
#
# Convention : Reuss Voigt Hill
#
# Bulk Modulus (GPa) = 37.55526 59.81919 48.68723
# Shear Modulus (GPa) = 20.92027 24.69285 22.80656
#
# Velocity S-wave (km/s) = 3.26538 3.54761 3.40942
# Velocity P-wave (km/s) = 5.77567 6.87529 6.34933
#
# Compressibility (1/GPa) = 0.02662743
#
# Stress axis : x y z
#
# Youngs Moduli (GPa) = 29.23826 87.95446 73.23404
#
# Poissons Ratio (x) = 0.09279 0.71333
# Poissons Ratio (y) = 0.03084 0.40308
# Poissons Ratio (z) = 0.28479 0.48410
#
# Static dielectric constant tensor:
#      x y z
#    x 3.355740 0.000000 0.000000 
#    y 0.000000 3.650560 0.000000 
#    z 0.000000 0.000000 3.722480 
# 
# 
# High freq. dielectric constant tensor:
#      x y z
#    x 1.745010 0.000000 0.000000 
#    y 0.000000 1.763950 0.000000 
#    z 0.000000 0.000000 1.765740 
# 
# From -- ./inp_files/11104.got.cif
#   From: 2010.03.12/outbox.cif.g09.slc.cpg/sg51_6_cif.got.tgz:11104.got - 2010.04.16 13:43:02.
