data_PCOD8212699
_publ_section_title
;
Structure prediction by ZEFSAII (Michael W. Deem and Ramdas Pophale) SiO2 
 PCOD8212699
Probable space group: P M M A
;
_chemical_formula_sum "Si O2"
_cell_formula_units_Z 44
_cell_length_a 8.812173
_cell_length_b 28.447065
_cell_length_c 9.504085
_cell_angle_alpha 90.000000
_cell_angle_beta 90.000000
_cell_angle_gamma 90.000000
_cell_volume 2382.488382
_symmetry_space_group_name_H-M "P M M A"
_symmetry_group_IT_number 51
_symmetry_cell_setting 'orthorhombic'
loop_
_space_group_symop_operation_xyz
x,y,z
1/2-x,-y,z
1/2+x,-y,-z
-x,y,-z
-x,-y,-z
1/2+x,y,-z
1/2-x,y,z
x,-y,z
loop_
_atom_site_type_symbol
_atom_site_label
_atom_site_fract_x
_atom_site_fract_y
_atom_site_fract_z
Si Si1 0.429563 0.764892 0.152330
Si Si2 0.927185 0.683694 0.645291
Si Si3 0.431184 0.500000 0.846100
Si Si4 0.072019 0.049590 0.348586
Si Si5 0.570178 0.423760 0.648762
Si Si6 0.429362 0.151287 0.346850
O O1 0.250000 0.766540 0.137820
O O2 0.484439 0.717223 0.229462
O O3 0.491496 0.809454 0.240319
O O4 0.500000 0.766178 0.000000
O O5 0.750000 0.689127 0.623391
O O6 0.971396 0.630236 0.681979
O O7 0.000000 0.700556 0.500000
O O8 0.250000 0.500000 0.851629
O O9 0.490877 0.453570 0.769403
O O10 0.500000 0.500000 0.000000
O O11 0.250000 0.050208 0.369987
O O12 0.024424 0.099770 0.279830
O O13 0.000000 0.048106 0.500000
O O14 0.025497 0.000000 0.268412
O O15 0.500000 0.439297 0.500000
O O16 0.750000 0.432964 0.646546
O O17 0.500000 0.159043 0.500000
O O18 0.250000 0.156256 0.364399
#
# Coordination Sequence:
#
# PCOD8212699 Si02
#       6
#     8   8   4   8   8   8
#     4  10  21  35  49  70  99 131 166 203 245 294
#     4   9  19  35  56  80 104 130 165 207 249 296
#     4  12  25  40  57  80 110 144 178 214 255 298
#     4   8  13  22  38  62  90 118 149 190 240 288
#     4  10  20  37  59  83 109 138 172 210 252 300
#     4   9  17  29  47  70  95 123 159 201 243 291
#
# _framework density 18.468086
#
# number of rings (size 3 to 8) (size 9 to 14) (size 15 to 20)
#    0.000    2.545    0.000    2.182    0.000    2.909 
#    0.000    1.818    0.000    0.545    0.000    0.000 
#    0.000    0.000    0.000    0.000    0.000    0.000 
#
# Total GULP energy -545185.113096 kJ/mol
# GULP energy per Si atom -12390.570752 kJ/mol
# Density = 1.842605 g / cm^3
# Si number density = 18.468086 Si / 1000 Ang^3
#
#
#
# Elastic Constant Matrix: (Units=GPa)
#
#
# Indices 1 2 3 4 5 6 
#
# 1 49.4219 40.6049 40.8608 0.0000 0.0000 0.0000
# 2 40.6049 163.3833 93.8753 0.0000 0.0000 0.0000
# 3 40.8608 93.8753 137.9235 0.0000 0.0000 0.0000
# 4 0.0000 0.0000 0.0000 6.5046 0.0000 0.0000
# 5 0.0000 0.0000 0.0000 0.0000 30.7953 0.0000
# 6 0.0000 0.0000 0.0000 0.0000 0.0000 13.7567
#
#
#
# Elastic Compliance Matrix: (Units=1/GPa)
#
#
# Indices 1 2 3 4 5 6 
#
# 1 0.028034 -0.003605 -0.005851 0.000000 0.000000 0.000000
# 2 -0.003605 0.010515 -0.006089 0.000000 0.000000 0.000000
# 3 -0.005851 -0.006089 0.013128 0.000000 0.000000 0.000000
# 4 0.000000 0.000000 0.000000 0.153738 0.000000 0.000000
# 5 0.000000 0.000000 0.000000 0.000000 0.032472 0.000000
# 6 0.000000 0.000000 0.000000 0.000000 0.000000 0.072692
#
#
# Mechanical properties :
#
#
# Convention : Reuss Voigt Hill
#
# Bulk Modulus (GPa) = 48.57618 77.93451 63.25535
# Shear Modulus (GPa) = 14.34589 21.90383 18.12486
#
# Velocity S-wave (km/s) = 2.79012 3.44762 3.13615
# Velocity P-wave (km/s) = 6.06132 7.62491 6.88763
#
# Compressibility (1/GPa) = 0.02058622
#
# Stress axis : x y z
#
# Youngs Moduli (GPa) = 35.67140 95.10240 76.17181
#
# Poissons Ratio (x) = 0.34284 0.44572
# Poissons Ratio (y) = 0.12859 0.46380
# Poissons Ratio (z) = 0.20873 0.57906
#
# Static dielectric constant tensor:
#      x y z
#    x 3.374820 0.000000 0.000000 
#    y 0.000000 4.242520 0.000000 
#    z 0.000000 0.000000 3.174750 
# 
# 
# High freq. dielectric constant tensor:
#      x y z
#    x 1.712650 0.000000 0.000000 
#    y 0.000000 1.747820 0.000000 
#    z 0.000000 0.000000 1.681730 
# 
# From -- ./inp_files/5693.got.cif
#   From: 2010.03.12/outbox.cif.g09.slc.cpg/sg51_3_cif.got.tgz:5693.got - 2010.04.16 13:43:02.
