data_PCOD8212317
_publ_section_title
;
Structure prediction by ZEFSAII (Michael W. Deem and Ramdas Pophale) SiO2 
 PCOD8212317
Probable space group: P M M A
;
_chemical_formula_sum "Si O2"
_cell_formula_units_Z 48
_cell_length_a 19.185427
_cell_length_b 7.665835
_cell_length_c 16.635414
_cell_angle_alpha 90.000000
_cell_angle_beta 90.000000
_cell_angle_gamma 90.000000
_cell_volume 2446.608894
_symmetry_space_group_name_H-M "P M M A"
_symmetry_group_IT_number 51
_symmetry_cell_setting 'orthorhombic'
loop_
_space_group_symop_operation_xyz
x,y,z
1/2-x,-y,z
1/2+x,-y,-z
-x,y,-z
-x,-y,-z
1/2+x,y,-z
1/2-x,y,z
x,-y,z
loop_
_atom_site_type_symbol
_atom_site_label
_atom_site_fract_x
_atom_site_fract_y
_atom_site_fract_z
Si Si1 0.576505 0.801791 0.200410
Si Si2 0.670921 0.203734 0.886173
Si Si3 0.100622 0.500000 0.562151
Si Si4 0.168720 0.203021 0.656421
Si Si5 0.071775 0.794352 0.258143
Si Si6 0.926940 0.697092 0.027079
Si Si7 0.443965 0.500000 0.382248
O O1 0.631918 0.720915 0.262685
O O2 0.498405 0.728619 0.212969
O O3 0.601662 0.783283 0.108658
O O4 0.573669 0.000000 0.225043
O O5 0.750000 0.272877 0.883190
O O6 0.635499 0.248020 0.801364
O O7 0.667461 0.000000 0.903904
O O8 0.631290 0.296195 0.958908
O O9 0.142247 0.323491 0.583764
O O10 0.094355 0.500000 0.466829
O O11 0.026832 0.500000 0.607213
O O12 0.250000 0.229569 0.669756
O O13 0.151317 0.000000 0.637164
O O14 0.080539 0.676336 0.337058
O O15 0.070530 0.000000 0.281535
O O16 0.943892 0.500000 0.050162
O O17 0.000000 0.788493 0.000000
#
# Coordination Sequence:
#
# PCOD8212317 Si02
#       7
#     8   8   4   8   8   8   4
#     4  10  20  35  59  87 116 157 205 247 294 352
#     4  10  22  40  60  83 118 162 203 250 304 356
#     4  11  23  40  62  97 126 154 197 247 308 369
#     4  10  22  41  64  90 125 165 200 244 305 366
#     4  10  21  39  63  90 122 160 204 252 302 356
#     4  11  23  34  54  86 120 158 202 252 299 350
#     4  11  24  38  66  94 122 156 197 254 304 361
#
# _framework density 19.618991000000001
#
# number of rings (size 3 to 8) (size 9 to 14) (size 15 to 20)
#    0.000    1.667    3.333    0.750    3.500    2.333 
#    0.000    5.000    0.000    2.000    0.000    0.000 
#    0.000    0.000    0.000    0.000    0.000    0.000 
#
# Total GULP energy -595141.273562 kJ/mol
# GULP energy per Si atom -12398.776533 kJ/mol
# Density = 1.957434 g / cm^3
# Si number density = 19.618991 Si / 1000 Ang^3
#
#
#
# Elastic Constant Matrix: (Units=GPa)
#
#
# Indices 1 2 3 4 5 6 
#
# 1 136.2303 40.9702 62.4945 0.0000 0.0000 0.0000
# 2 40.9702 78.2149 54.3311 0.0000 0.0000 0.0000
# 3 62.4945 54.3311 140.3066 0.0000 0.0000 0.0000
# 4 0.0000 0.0000 0.0000 33.2888 0.0000 0.0000
# 5 0.0000 0.0000 0.0000 0.0000 30.1808 0.0000
# 6 0.0000 0.0000 0.0000 0.0000 0.0000 21.0976
#
#
#
# Elastic Compliance Matrix: (Units=1/GPa)
#
#
# Indices 1 2 3 4 5 6 
#
# 1 0.009664 -0.002835 -0.003207 0.000000 0.000000 0.000000
# 2 -0.002835 0.018321 -0.005832 0.000000 0.000000 0.000000
# 3 -0.003207 -0.005832 0.010814 0.000000 0.000000 0.000000
# 4 0.000000 0.000000 0.000000 0.030040 0.000000 0.000000
# 5 0.000000 0.000000 0.000000 0.000000 0.033134 0.000000
# 6 0.000000 0.000000 0.000000 0.000000 0.000000 0.047399
#
#
# Mechanical properties :
#
#
# Convention : Reuss Voigt Hill
#
# Bulk Modulus (GPa) = 66.43469 74.48262 70.45865
# Shear Modulus (GPa) = 28.06842 30.04384 29.05613
#
# Velocity S-wave (km/s) = 3.78653 3.91751 3.85258
# Velocity P-wave (km/s) = 7.28375 7.64915 7.46869
#
# Compressibility (1/GPa) = 0.01505238
#
# Stress axis : x y z
#
# Youngs Moduli (GPa) = 103.47541 54.58155 92.47302
#
# Poissons Ratio (x) = 0.15472 0.29655
# Poissons Ratio (y) = 0.29331 0.53930
# Poissons Ratio (z) = 0.33184 0.31832
#
# Static dielectric constant tensor:
#      x y z
#    x 3.690840 0.000000 0.000000 
#    y 0.000000 3.553250 0.000000 
#    z 0.000000 0.000000 3.389790 
# 
# 
# High freq. dielectric constant tensor:
#      x y z
#    x 1.759900 0.000000 0.000000 
#    y 0.000000 1.767440 0.000000 
#    z 0.000000 0.000000 1.756490 
# 
# From -- ./inp_files/24881.got.cif
#   From: 2010.03.12/outbox.cif.g09.slc.cpg/sg51_13_cif.got.tgz:24881.got - 2010.04.16 13:43:02.
