data_PCOD8212508
_publ_section_title
;
Structure prediction by ZEFSAII (Michael W. Deem and Ramdas Pophale) SiO2 
 PCOD8212508
Probable space group: P M M A
;
_chemical_formula_sum "Si O2"
_cell_formula_units_Z 48
_cell_length_a 15.566868
_cell_length_b 17.444333
_cell_length_c 8.908687
_cell_angle_alpha 90.000000
_cell_angle_beta 90.000000
_cell_angle_gamma 90.000000
_cell_volume 2419.186286
_symmetry_space_group_name_H-M "P M M A"
_symmetry_group_IT_number 51
_symmetry_cell_setting 'orthorhombic'
loop_
_space_group_symop_operation_xyz
x,y,z
1/2-x,-y,z
1/2+x,-y,-z
-x,y,-z
-x,-y,-z
1/2+x,y,-z
1/2-x,y,z
x,-y,z
loop_
_atom_site_type_symbol
_atom_site_label
_atom_site_fract_x
_atom_site_fract_y
_atom_site_fract_z
Si Si1 0.847115 0.824427 0.674788
Si Si2 0.843842 0.340000 0.802075
Si Si3 0.006853 0.588103 0.672183
Si Si4 0.578022 0.692884 0.098388
Si Si5 0.516170 0.137443 0.162432
Si Si6 0.845367 0.915096 0.381819
O O1 0.750000 0.849663 0.724510
O O2 0.858426 0.733742 0.695785
O O3 0.862866 0.848442 0.502515
O O4 0.921348 0.865430 0.767826
O O5 0.750000 0.375697 0.771488
O O6 0.914908 0.401460 0.753896
O O7 0.843733 0.314824 0.979970
O O8 0.034858 0.500000 0.683096
O O9 0.081681 0.638278 0.754444
O O10 0.000000 0.614878 0.500000
O O11 0.559540 0.778851 0.151534
O O12 0.500000 0.661144 0.000000
O O13 0.582904 0.086409 0.253563
O O14 0.500000 0.101038 0.000000
O O15 0.750000 0.902623 0.312027
O O16 0.850448 0.000000 0.456533
#
# Coordination Sequence:
#
# PCOD8212508 Si02
#       6
#     8   8   8   8   8   8
#     4  10  20  36  58  85 117 151 195 246 290 343
#     4  10  20  36  58  86 115 151 201 246 293 349
#     4  10  21  36  57  84 117 157 196 241 295 351
#     4   9  18  35  55  83 113 149 187 239 283 348
#     4  11  20  35  61  89 116 154 193 241 294 352
#     4  10  24  42  59  85 119 155 197 245 299 357
#
# _framework density 19.841384000000001
#
# number of rings (size 3 to 8) (size 9 to 14) (size 15 to 20)
#    0.000    2.000    5.000    0.500    2.333    6.333 
#    0.000    0.833    0.000    3.000    0.000    0.000 
#    0.000    0.000    0.000    0.000    0.000    0.000 
#
# Total GULP energy -594700.579828 kJ/mol
# GULP energy per Si atom -12389.595413 kJ/mol
# Density = 1.979622 g / cm^3
# Si number density = 19.841384 Si / 1000 Ang^3
#
#
#
# Elastic Constant Matrix: (Units=GPa)
#
#
# Indices 1 2 3 4 5 6 
#
# 1 81.1518 0.1331 20.1860 0.0000 0.0000 0.0000
# 2 0.1331 60.4648 36.2427 0.0000 0.0000 0.0000
# 3 20.1860 36.2427 100.5678 0.0000 0.0000 0.0000
# 4 0.0000 0.0000 0.0000 18.6807 0.0000 0.0000
# 5 0.0000 0.0000 0.0000 0.0000 30.1669 0.0000
# 6 0.0000 0.0000 0.0000 0.0000 0.0000 19.5908
#
#
#
# Elastic Compliance Matrix: (Units=1/GPa)
#
#
# Indices 1 2 3 4 5 6 
#
# 1 0.013154 0.001982 -0.003354 0.000000 0.000000 0.000000
# 2 0.001982 0.021394 -0.008108 0.000000 0.000000 0.000000
# 3 -0.003354 -0.008108 0.013539 0.000000 0.000000 0.000000
# 4 0.000000 0.000000 0.000000 0.053531 0.000000 0.000000
# 5 0.000000 0.000000 0.000000 0.000000 0.033149 0.000000
# 6 0.000000 0.000000 0.000000 0.000000 0.000000 0.051044
#
#
# Mechanical properties :
#
#
# Convention : Reuss Voigt Hill
#
# Bulk Modulus (GPa) = 34.33418 39.47868 36.90643
# Shear Modulus (GPa) = 23.31217 26.06252 24.68734
#
# Velocity S-wave (km/s) = 3.43144 3.62822 3.53120
# Velocity P-wave (km/s) = 5.74818 6.12309 5.93860
#
# Compressibility (1/GPa) = 0.02912550
#
# Stress axis : x y z
#
# Youngs Moduli (GPa) = 76.02416 46.74207 73.86232
#
# Poissons Ratio (x) = -0.09263 0.24776
# Poissons Ratio (y) = -0.15065 0.59886
# Poissons Ratio (z) = 0.25501 0.37897
#
# Static dielectric constant tensor:
#      x y z
#    x 3.718630 0.000000 0.000000 
#    y 0.000000 3.335950 0.000000 
#    z 0.000000 0.000000 3.927690 
# 
# 
# High freq. dielectric constant tensor:
#      x y z
#    x 1.768730 0.000000 0.000000 
#    y 0.000000 1.755120 0.000000 
#    z 0.000000 0.000000 1.771420 
# 
# From -- ./inp_files/8285.got.cif
#   From: 2010.03.12/outbox.cif.g09.slc.cpg/sg51_5_cif.got.tgz:8285.got - 2010.04.16 13:43:02.
