data_PCOD8212019
_publ_section_title
;
Structure prediction by ZEFSAII (Michael W. Deem and Ramdas Pophale) SiO2 
 PCOD8212019
Probable space group: P M M A
;
_chemical_formula_sum "Si O2"
_cell_formula_units_Z 64
_cell_length_a 18.482780
_cell_length_b 9.194879
_cell_length_c 20.557030
_cell_angle_alpha 90.000000
_cell_angle_beta 90.000000
_cell_angle_gamma 90.000000
_cell_volume 3493.604050
_symmetry_space_group_name_H-M "P M M A"
_symmetry_group_IT_number 51
_symmetry_cell_setting 'orthorhombic'
loop_
_space_group_symop_operation_xyz
x,y,z
1/2-x,-y,z
1/2+x,-y,-z
-x,y,-z
-x,-y,-z
1/2+x,y,-z
1/2-x,y,z
x,-y,z
loop_
_atom_site_type_symbol
_atom_site_label
_atom_site_fract_x
_atom_site_fract_y
_atom_site_fract_z
Si Si1 0.170201 0.671685 0.432802
Si Si2 0.834513 0.669125 0.199632
Si Si3 0.419292 0.172873 0.689312
Si Si4 0.667437 0.668545 0.807061
Si Si5 0.163728 0.837258 0.067277
Si Si6 0.335945 0.660958 0.945921
Si Si7 0.835088 0.666463 0.420676
Si Si8 0.070950 0.671413 0.316745
O O1 0.250000 0.739286 0.419357
O O2 0.177024 0.500000 0.425420
O O3 0.144415 0.710767 0.505603
O O4 0.112430 0.729790 0.380848
O O5 0.750000 0.697530 0.211191
O O6 0.852623 0.500000 0.213184
O O7 0.878780 0.772137 0.246815
O O8 0.857960 0.713162 0.126356
O O9 0.377532 0.224736 0.625389
O O10 0.498980 0.237068 0.689293
O O11 0.422405 0.000000 0.689951
O O12 0.750000 0.714359 0.792038
O O13 0.662676 0.500000 0.824608
O O14 0.635548 0.753194 0.869180
O O15 0.620540 0.708466 0.744710
O O16 0.250000 0.832333 0.065391
O O17 0.133761 0.000000 0.070754
O O18 0.131901 0.766247 0.001285
O O19 0.250000 0.655687 0.950020
O O20 0.367150 0.500000 0.958749
O O21 0.750000 0.683894 0.408643
O O22 0.858455 0.500000 0.406248
O O23 0.053363 0.500000 0.321072
#
# Coordination Sequence:
#
# PCOD8212019 Si02
#       8
#     8   8   8   8   8   8   8   8
#     4   8  15  31  58  87 105 122 161 215 260 297
#     4   9  18  34  56  78  99 128 169 215 260 304
#     4  12  25  36  48  71 106 142 173 207 247 297
#     4   9  17  30  51  77 101 128 166 212 257 299
#     4   9  16  25  41  69 104 137 165 197 242 298
#     4   8  14  26  46  72  99 125 158 205 255 299
#     4   9  18  35  59  82 103 129 164 208 255 302
#     4  10  20  35  55  76 101 134 171 211 254 300
#
# _framework density 18.319189999999999
#
# number of rings (size 3 to 8) (size 9 to 14) (size 15 to 20)
#    0.000    2.750    0.000    3.750    0.000    6.500 
#    0.000    4.375    0.000    2.625    0.000    5.250 
#    0.000    0.000    0.000    0.000    0.000    0.000 
#
# Total GULP energy -793450.294417 kJ/mol
# GULP energy per Si atom -12397.660850 kJ/mol
# Density = 1.827749 g / cm^3
# Si number density = 18.319190 Si / 1000 Ang^3
#
#
#
# Elastic Constant Matrix: (Units=GPa)
#
#
# Indices 1 2 3 4 5 6 
#
# 1 75.1494 53.5325 67.8304 0.0000 0.0000 0.0000
# 2 53.5325 101.6371 84.3334 0.0000 0.0000 0.0000
# 3 67.8304 84.3334 171.7431 0.0000 0.0000 0.0000
# 4 0.0000 0.0000 0.0000 5.2639 0.0000 0.0000
# 5 0.0000 0.0000 0.0000 0.0000 0.1883 0.0000
# 6 0.0000 0.0000 0.0000 0.0000 0.0000 13.3054
#
#
#
# Elastic Compliance Matrix: (Units=1/GPa)
#
#
# Indices 1 2 3 4 5 6 
#
# 1 0.024057 -0.008079 -0.005534 0.000000 0.000000 0.000000
# 2 -0.008079 0.019317 -0.006295 0.000000 0.000000 0.000000
# 3 -0.005534 -0.006295 0.011100 0.000000 0.000000 0.000000
# 4 0.000000 0.000000 0.000000 0.189972 0.000000 0.000000
# 5 0.000000 0.000000 0.000000 0.000000 5.310817 0.000000
# 6 0.000000 0.000000 0.000000 0.000000 0.000000 0.075157
#
#
# Mechanical properties :
#
#
# Convention : Reuss Voigt Hill
#
# Bulk Modulus (GPa) = 68.22313 84.43578 76.32946
# Shear Modulus (GPa) = 0.88104 13.27376 7.07740
#
# Velocity S-wave (km/s) = 0.69425 2.69473 1.96768
# Velocity P-wave (km/s) = 6.16156 7.47486 6.84976
#
# Compressibility (1/GPa) = 0.01465778
#
# Stress axis : x y z
#
# Youngs Moduli (GPa) = 41.56786 51.76739 90.09405
#
# Poissons Ratio (x) = 0.41822 0.49861
# Poissons Ratio (y) = 0.33582 0.56713
# Poissons Ratio (z) = 0.23005 0.32587
#
# Static dielectric constant tensor:
#      x y z
#    x 3.148570 0.000000 0.000000 
#    y 0.000000 3.231620 0.000000 
#    z 0.000000 0.000000 3.682390 
# 
# 
# High freq. dielectric constant tensor:
#      x y z
#    x 1.678800 0.000000 0.000000 
#    y 0.000000 1.686670 0.000000 
#    z 0.000000 0.000000 1.730130 
# 
# From -- ./inp_files/33856.got.cif
#   From: 2010.03.12/outbox.cif.g09.slc.cpg/sg51_17_cif.got.tgz:33856.got - 2010.04.16 13:43:02.
