data_PCOD8212389
_publ_section_title
;
Structure prediction by ZEFSAII (Michael W. Deem and Ramdas Pophale) SiO2 
 PCOD8212389
Probable space group: P M M A
;
_chemical_formula_sum "Si O2"
_cell_formula_units_Z 40
_cell_length_a 16.360986
_cell_length_b 9.014074
_cell_length_c 13.421367
_cell_angle_alpha 90.000000
_cell_angle_beta 90.000000
_cell_angle_gamma 90.000000
_cell_volume 1979.371643
_symmetry_space_group_name_H-M "P M M A"
_symmetry_group_IT_number 51
_symmetry_cell_setting 'orthorhombic'
loop_
_space_group_symop_operation_xyz
x,y,z
1/2-x,-y,z
1/2+x,-y,-z
-x,y,-z
-x,-y,-z
1/2+x,y,-z
1/2-x,y,z
x,-y,z
loop_
_atom_site_type_symbol
_atom_site_label
_atom_site_fract_x
_atom_site_fract_y
_atom_site_fract_z
Si Si1 0.659423 0.667721 0.875631
Si Si2 0.569728 0.322196 0.424319
Si Si3 0.112703 0.824654 0.925199
Si Si4 0.750000 0.336854 0.423617
Si Si5 0.502994 0.329644 0.213820
Si Si6 0.250000 0.664839 0.810826
O O1 0.750000 0.705615 0.834920
O O2 0.655669 0.500000 0.917459
O O3 0.595982 0.684925 0.783742
O O4 0.637731 0.776645 0.965244
O O5 0.500000 0.263820 0.500000
O O6 0.572710 0.500000 0.424310
O O7 0.661857 0.260212 0.452746
O O8 0.541923 0.264827 0.315153
O O9 0.171932 0.756727 0.842837
O O10 0.025947 0.762946 0.886220
O O11 0.113284 0.000000 0.921210
O O12 0.750000 0.500000 0.472882
O O13 0.750000 0.351445 0.306058
O O14 0.530863 0.500000 0.199989
O O15 0.250000 0.500000 0.859380
#
# Coordination Sequence:
#
# PCOD8212389 Si02
#       6
#     8   8   8   4   8   4
#     4  10  21  36  53  74 107 151 191 225 269 328
#     4   9  17  31  52  81 111 137 177 232 280 326
#     4  12  23  34  53  83 112 142 184 232 277 321
#     4   9  16  29  53  80 105 138 174 217 279 327
#     4  10  20  36  56  78 108 148 188 227 276 331
#     4  11  19  33  57  80 109 146 184 225 271 327
#
# _framework density 20.208434
#
# number of rings (size 3 to 8) (size 9 to 14) (size 15 to 20)
#    0.000    1.800    3.000    2.700    0.000    3.200 
#    1.800    0.000    0.000    0.600    0.000    0.000 
#    0.000    0.000    0.000    0.000    0.000    0.000 
#
# Total GULP energy -495565.978626 kJ/mol
# GULP energy per Si atom -12389.149466 kJ/mol
# Density = 2.016244 g / cm^3
# Si number density = 20.208434 Si / 1000 Ang^3
#
#
#
# Elastic Constant Matrix: (Units=GPa)
#
#
# Indices 1 2 3 4 5 6 
#
# 1 184.0774 28.9976 44.9484 0.0000 0.0000 0.0000
# 2 28.9976 79.7645 13.4091 0.0000 0.0000 0.0000
# 3 44.9484 13.4091 46.9054 0.0000 0.0000 0.0000
# 4 0.0000 0.0000 0.0000 1.2379 0.0000 0.0000
# 5 0.0000 0.0000 0.0000 0.0000 27.2514 0.0000
# 6 0.0000 0.0000 0.0000 0.0000 0.0000 -29.3237
#
#
#
# Elastic Compliance Matrix: (Units=1/GPa)
#
#
# Indices 1 2 3 4 5 6 
#
# 1 0.007269 -0.001546 -0.006524 0.000000 0.000000 0.000000
# 2 -0.001546 0.013499 -0.002378 0.000000 0.000000 0.000000
# 3 -0.006524 -0.002378 0.028251 0.000000 0.000000 0.000000
# 4 0.000000 0.000000 0.000000 0.807838 0.000000 0.000000
# 5 0.000000 0.000000 0.000000 0.000000 0.036695 0.000000
# 6 0.000000 0.000000 0.000000 0.000000 0.000000 -0.034102
#
#
# Mechanical properties :
#
#
# Convention : Reuss Voigt Hill
#
# Bulk Modulus (GPa) = 35.55684 53.93970 44.74827
# Shear Modulus (GPa) = 5.61975 14.72593 10.17284
#
# Velocity S-wave (km/s) = 1.66941 2.70238 2.24608
# Velocity P-wave (km/s) = 4.62051 6.04043 5.37754
#
# Compressibility (1/GPa) = 0.02812398
#
# Stress axis : x y z
#
# Youngs Moduli (GPa) = 137.57025 74.08186 35.39720
#
# Poissons Ratio (x) = 0.11452 0.23092
# Poissons Ratio (y) = 0.21267 0.08416
# Poissons Ratio (z) = 0.89748 0.17613
#
# Static dielectric constant tensor:
#      x y z
#    x 4.289980 0.000000 0.000000 
#    y 0.000000 3.240370 0.000000 
#    z 0.000000 0.000000 3.370450 
# 
# 
# High freq. dielectric constant tensor:
#      x y z
#    x 1.822430 0.000000 0.000000 
#    y 0.000000 1.735180 0.000000 
#    z 0.000000 0.000000 1.758440 
# 
# From -- ./inp_files/23783.got.cif
#   From: 2010.03.12/outbox.cif.g09.slc.cpg/sg51_12_cif.got.tgz:23783.got - 2010.04.16 13:43:02.
