data_PCOD8212860
_publ_section_title
;
Structure prediction by ZEFSAII (Michael W. Deem and Ramdas Pophale) SiO2 
 PCOD8212860
Probable space group: P M M A
;
_chemical_formula_sum "Si O2"
_cell_formula_units_Z 48
_cell_length_a 15.659474
_cell_length_b 9.243539
_cell_length_c 16.933036
_cell_angle_alpha 90.000000
_cell_angle_beta 90.000000
_cell_angle_gamma 90.000000
_cell_volume 2451.039328
_symmetry_space_group_name_H-M "P M M A"
_symmetry_group_IT_number 51
_symmetry_cell_setting 'orthorhombic'
loop_
_space_group_symop_operation_xyz
x,y,z
1/2-x,-y,z
1/2+x,-y,-z
-x,y,-z
-x,-y,-z
1/2+x,y,-z
1/2-x,y,z
x,-y,z
loop_
_atom_site_type_symbol
_atom_site_label
_atom_site_fract_x
_atom_site_fract_y
_atom_site_fract_z
Si Si1 0.596076 0.828587 0.812289
Si Si2 0.750000 0.828649 0.064413
Si Si3 0.119372 0.159096 0.650140
Si Si4 0.844754 0.340649 0.498245
Si Si5 0.250000 0.326109 0.100583
Si Si6 0.420426 0.157228 0.366034
Si Si7 0.096938 0.170716 0.821160
O O1 0.664629 0.735326 0.859500
O O2 0.611369 0.791410 0.720047
O O3 0.500450 0.777842 0.839480
O O4 0.609177 0.000000 0.828380
O O5 0.663803 0.785155 0.111340
O O6 0.750000 0.000000 0.044315
O O7 0.750000 0.729031 0.988516
O O8 0.160683 0.260197 0.584968
O O9 0.131792 0.231020 0.737069
O O10 0.020497 0.140809 0.634437
O O11 0.162658 0.000000 0.645385
O O12 0.750000 0.348500 0.533329
O O13 0.882775 0.500000 0.483551
O O14 0.901159 0.267194 0.564714
O O15 0.250000 0.500000 0.103966
O O16 0.379315 0.000000 0.385434
O O17 0.092136 0.000000 0.810022
#
# Coordination Sequence:
#
# PCOD8212860 Si02
#       7
#     8   4   8   8   4   8   8
#     4   9  19  39  63  87 114 147 189 238 287 337
#     4  10  20  38  64  91 116 147 184 227 284 345
#     4   9  18  35  58  83 107 137 182 235 281 326
#     4  11  24  35  45  73 115 154 189 224 267 324
#     4  12  26  40  56  85 120 153 188 229 280 341
#     4   9  19  36  58  81 105 137 184 236 283 326
#     4   8  17  35  63  93 115 141 187 240 286 333
#
# _framework density 19.58353
#
# number of rings (size 3 to 8) (size 9 to 14) (size 15 to 20)
#    0.000    2.500    0.000    3.750    2.333    5.333 
#    0.000    7.500    0.000    0.000    0.000    0.000 
#    0.000    0.000    0.000    0.000    0.000    0.000 
#
# Total GULP energy -594879.465729 kJ/mol
# GULP energy per Si atom -12393.322203 kJ/mol
# Density = 1.953896 g / cm^3
# Si number density = 19.583530 Si / 1000 Ang^3
#
#
#
# Elastic Constant Matrix: (Units=GPa)
#
#
# Indices 1 2 3 4 5 6 
#
# 1 92.9131 40.4620 64.2009 0.0000 0.0000 0.0000
# 2 40.4620 99.4002 61.3233 0.0000 0.0000 0.0000
# 3 64.2009 61.3233 123.3864 0.0000 0.0000 0.0000
# 4 0.0000 0.0000 0.0000 -9.1195 0.0000 0.0000
# 5 0.0000 0.0000 0.0000 0.0000 34.3144 0.0000
# 6 0.0000 0.0000 0.0000 0.0000 0.0000 24.4615
#
#
#
# Elastic Compliance Matrix: (Units=1/GPa)
#
#
# Indices 1 2 3 4 5 6 
#
# 1 0.017110 -0.002123 -0.007847 0.000000 0.000000 0.000000
# 2 -0.002123 0.014773 -0.006237 0.000000 0.000000 0.000000
# 3 -0.007847 -0.006237 0.015288 0.000000 0.000000 0.000000
# 4 0.000000 0.000000 0.000000 -0.109655 0.000000 0.000000
# 5 0.000000 0.000000 0.000000 0.000000 0.029142 0.000000
# 6 0.000000 0.000000 0.000000 0.000000 0.000000 0.040881
#
#
# Mechanical properties :
#
#
# Convention : Reuss Voigt Hill
#
# Bulk Modulus (GPa) = 67.77701 71.96355 69.87028
# Shear Modulus (GPa) = 111.42927 19.91219 65.67073
#
# Velocity S-wave (km/s) = 7.55136 3.19216 5.79711
# Velocity P-wave (km/s) = 10.52212 7.10023 8.97575
#
# Compressibility (1/GPa) = 0.01475427
#
# Stress axis : x y z
#
# Youngs Moduli (GPa) = 58.44623 67.69280 65.41257
#
# Poissons Ratio (x) = 0.14375 0.51331
# Poissons Ratio (y) = 0.12411 0.40799
# Poissons Ratio (z) = 0.45864 0.42221
#
# Static dielectric constant tensor:
#      x y z
#    x 3.664780 0.000000 0.000000 
#    y 0.000000 3.757600 0.000000 
#    z 0.000000 0.000000 3.735990 
# 
# 
# High freq. dielectric constant tensor:
#      x y z
#    x 1.772170 0.000000 0.000000 
#    y 0.000000 1.731000 0.000000 
#    z 0.000000 0.000000 1.765130 
# 
# From -- ./inp_files/24909.got.cif
#   From: 2010.03.12/outbox.cif.g09.slc.cpg/sg51_13_cif.got.tgz:24909.got - 2010.04.16 13:43:02.
