data_PCOD8212894
_publ_section_title
;
Structure prediction by ZEFSAII (Michael W. Deem and Ramdas Pophale) SiO2 
 PCOD8212894
Probable space group: P M M A
;
_chemical_formula_sum "Si O2"
_cell_formula_units_Z 48
_cell_length_a 18.984792
_cell_length_b 9.162163
_cell_length_c 14.886876
_cell_angle_alpha 90.000000
_cell_angle_beta 90.000000
_cell_angle_gamma 90.000000
_cell_volume 2589.449395
_symmetry_space_group_name_H-M "P M M A"
_symmetry_group_IT_number 51
_symmetry_cell_setting 'orthorhombic'
loop_
_space_group_symop_operation_xyz
x,y,z
1/2-x,-y,z
1/2+x,-y,-z
-x,y,-z
-x,-y,-z
1/2+x,y,-z
1/2-x,y,z
x,-y,z
loop_
_atom_site_type_symbol
_atom_site_label
_atom_site_fract_x
_atom_site_fract_y
_atom_site_fract_z
Si Si1 0.095141 0.172992 0.729295
Si Si2 0.668358 0.332001 0.426579
Si Si3 0.922589 0.830872 0.967823
Si Si4 0.167214 0.667435 0.891496
Si Si5 0.329122 0.329491 0.367504
Si Si6 0.936043 0.169268 0.761140
O O1 0.119981 0.226176 0.631976
O O2 0.143774 0.244147 0.804461
O O3 0.015182 0.224773 0.744366
O O4 0.102410 0.000000 0.736741
O O5 0.750000 0.300980 0.405628
O O6 0.650618 0.500000 0.404096
O O7 0.650805 0.296204 0.529662
O O8 0.914153 0.797929 0.862950
O O9 0.908588 0.000000 0.990759
O O10 0.866282 0.732635 0.018617
O O11 0.000000 0.785730 0.000000
O O12 0.250000 0.682425 0.902072
O O13 0.143841 0.500000 0.880352
O O14 0.250000 0.272781 0.347781
O O15 0.333267 0.500000 0.348439
O O16 0.383315 0.250941 0.303567
O O17 0.930727 0.000000 0.738525
#
# Coordination Sequence:
#
# PCOD8212894 Si02
#       6
#     8   8   8   8   8   8
#     4  11  22  37  57  84 117 151 189 233 283 339
#     4   9  19  37  58  81 113 151 190 234 283 334
#     4  10  20  40  62  80 111 152 191 231 281 338
#     4  11  24  39  57  86 119 149 188 237 284 336
#     4   9  20  39  60  82 112 150 190 234 283 337
#     4  10  22  38  58  84 114 148 187 234 283 334
#
# _framework density 18.536760000000001
#
# number of rings (size 3 to 8) (size 9 to 14) (size 15 to 20)
#    0.000    2.000    1.667    2.500    0.000    8.333 
#    0.000    8.333    0.000    0.000    0.000    0.000 
#    0.000    0.000    0.000    0.000    0.000    0.000 
#
# Total GULP energy -595373.521247 kJ/mol
# GULP energy per Si atom -12403.615026 kJ/mol
# Density = 1.849457 g / cm^3
# Si number density = 18.536760 Si / 1000 Ang^3
#
#
#
# Elastic Constant Matrix: (Units=GPa)
#
#
# Indices 1 2 3 4 5 6 
#
# 1 96.5293 59.7226 59.9743 0.0000 0.0000 0.0000
# 2 59.7226 82.7005 58.0541 0.0000 0.0000 0.0000
# 3 59.9743 58.0541 104.7575 0.0000 0.0000 0.0000
# 4 0.0000 0.0000 0.0000 32.0397 0.0000 0.0000
# 5 0.0000 0.0000 0.0000 0.0000 41.4156 0.0000
# 6 0.0000 0.0000 0.0000 0.0000 0.0000 36.0124
#
#
#
# Elastic Compliance Matrix: (Units=1/GPa)
#
#
# Indices 1 2 3 4 5 6 
#
# 1 0.020700 -0.010850 -0.005838 0.000000 0.000000 0.000000
# 2 -0.010850 0.025479 -0.007908 0.000000 0.000000 0.000000
# 3 -0.005838 -0.007908 0.017270 0.000000 0.000000 0.000000
# 4 0.000000 0.000000 0.000000 0.031211 0.000000 0.000000
# 5 0.000000 0.000000 0.000000 0.000000 0.024145 0.000000
# 6 0.000000 0.000000 0.000000 0.000000 0.000000 0.027768
#
#
# Mechanical properties :
#
#
# Convention : Reuss Voigt Hill
#
# Bulk Modulus (GPa) = 70.14141 71.05437 70.59789
# Shear Modulus (GPa) = 24.93551 28.97595 26.95573
#
# Velocity S-wave (km/s) = 3.67167 3.95797 3.81750
# Velocity P-wave (km/s) = 7.47637 7.70079 7.58941
#
# Compressibility (1/GPa) = 0.01425691
#
# Stress axis : x y z
#
# Youngs Moduli (GPa) = 48.30990 39.24865 57.90330
#
# Poissons Ratio (x) = 0.42587 0.33802
# Poissons Ratio (y) = 0.52419 0.45788
# Poissons Ratio (z) = 0.28202 0.31036
#
# Static dielectric constant tensor:
#      x y z
#    x 3.537780 0.000000 0.000000 
#    y 0.000000 3.410760 0.000000 
#    z 0.000000 0.000000 3.478910 
# 
# 
# High freq. dielectric constant tensor:
#      x y z
#    x 1.722680 0.000000 0.000000 
#    y 0.000000 1.718350 0.000000 
#    z 0.000000 0.000000 1.731040 
# 
# From -- ./inp_files/24672.got.cif
#   From: 2010.03.12/outbox.cif.g09.slc.cpg/sg51_13_cif.got.tgz:24672.got - 2010.04.16 13:43:02.
