data_PCOD8212219
_publ_section_title
;
Structure prediction by ZEFSAII (Michael W. Deem and Ramdas Pophale) SiO2 
 PCOD8212219
Probable space group: P M M A
;
_chemical_formula_sum "Si O2"
_cell_formula_units_Z 64
_cell_length_a 18.352613
_cell_length_b 8.742230
_cell_length_c 21.064216
_cell_angle_alpha 90.000000
_cell_angle_beta 90.000000
_cell_angle_gamma 90.000000
_cell_volume 3379.601035
_symmetry_space_group_name_H-M "P M M A"
_symmetry_group_IT_number 51
_symmetry_cell_setting 'orthorhombic'
loop_
_space_group_symop_operation_xyz
x,y,z
1/2-x,-y,z
1/2+x,-y,-z
-x,y,-z
-x,-y,-z
1/2+x,y,-z
1/2-x,y,z
x,-y,z
loop_
_atom_site_type_symbol
_atom_site_label
_atom_site_fract_x
_atom_site_fract_y
_atom_site_fract_z
Si Si1 0.966598 0.320099 0.804332
Si Si2 0.668392 0.821028 0.122064
Si Si3 0.833367 0.178404 0.743906
Si Si4 0.600947 0.820623 0.256390
Si Si5 0.965495 0.680212 0.064076
Si Si6 0.334731 0.679392 0.618731
Si Si7 0.833448 0.324772 0.612508
Si Si8 0.585891 0.175593 0.498452
O O1 0.977309 0.500000 0.795421
O O2 0.883325 0.272317 0.792580
O O3 0.017655 0.233117 0.753481
O O4 0.986564 0.267168 0.875603
O O5 0.750000 0.761771 0.110123
O O6 0.646150 0.778854 0.193589
O O7 0.616785 0.739314 0.071165
O O8 0.661735 0.000000 0.110946
O O9 0.750000 0.226065 0.757558
O O10 0.854867 0.220221 0.672049
O O11 0.846140 0.000000 0.754460
O O12 0.638494 0.726237 0.311932
O O13 0.602558 0.000000 0.272418
O O14 0.962751 0.500000 0.058891
O O15 0.000000 0.750973 0.000000
O O16 0.250000 0.722491 0.610635
O O17 0.347340 0.500000 0.608425
O O18 0.382453 0.772608 0.568715
O O19 0.750000 0.298879 0.592491
O O20 0.848382 0.500000 0.631368
O O21 0.882157 0.280938 0.553218
O O22 0.500000 0.198475 0.500000
O O23 0.607686 0.000000 0.510449
#
# Coordination Sequence:
#
# PCOD8212219 Si02
#       8
#     8   8   8   8   8   8   8   8
#     4  10  20  35  57  83 112 146 183 228 277 324
#     4   9  18  33  54  82 113 145 184 227 272 324
#     4  10  21  37  58  83 111 144 184 230 278 330
#     4  10  20  35  57  83 113 147 182 224 274 330
#     4   9  19  36  56  80 111 148 189 228 270 323
#     4  11  24  40  58  82 112 145 183 227 276 330
#     4  10  21  38  60  83 107 139 180 228 281 333
#     4  11  25  41  57  79 108 144 186 230 276 329
#
# _framework density 18.937147
#
# number of rings (size 3 to 8) (size 9 to 14) (size 15 to 20)
#    0.000    2.000    0.000    3.000    1.750    7.000 
#    0.000    0.625    0.000    3.750    0.000    0.000 
#    0.000    0.000    0.000    0.000    0.000    0.000 
#
# Total GULP energy -793879.469174 kJ/mol
# GULP energy per Si atom -12404.366706 kJ/mol
# Density = 1.889405 g / cm^3
# Si number density = 18.937147 Si / 1000 Ang^3
#
#
#
# Elastic Constant Matrix: (Units=GPa)
#
#
# Indices 1 2 3 4 5 6 
#
# 1 118.0515 33.2347 62.2560 0.0000 0.0000 0.0000
# 2 33.2347 41.2688 22.2655 0.0000 0.0000 0.0000
# 3 62.2560 22.2655 89.6781 0.0000 0.0000 0.0000
# 4 0.0000 0.0000 0.0000 24.8512 0.0000 0.0000
# 5 0.0000 0.0000 0.0000 0.0000 30.4576 0.0000
# 6 0.0000 0.0000 0.0000 0.0000 0.0000 33.1729
#
#
#
# Elastic Compliance Matrix: (Units=1/GPa)
#
#
# Indices 1 2 3 4 5 6 
#
# 1 0.015154 -0.007538 -0.008649 0.000000 0.000000 0.000000
# 2 -0.007538 0.031729 -0.002645 0.000000 0.000000 0.000000
# 3 -0.008649 -0.002645 0.017812 0.000000 0.000000 0.000000
# 4 0.000000 0.000000 0.000000 0.040240 0.000000 0.000000
# 5 0.000000 0.000000 0.000000 0.000000 0.032833 0.000000
# 6 0.000000 0.000000 0.000000 0.000000 0.000000 0.030145
#
#
# Mechanical properties :
#
#
# Convention : Reuss Voigt Hill
#
# Bulk Modulus (GPa) = 36.99334 53.83453 45.41393
# Shear Modulus (GPa) = 23.30085 26.44580 24.87332
#
# Velocity S-wave (km/s) = 3.51156 3.74104 3.62811
# Velocity P-wave (km/s) = 6.00155 6.86660 6.44860
#
# Compressibility (1/GPa) = 0.02703189
#
# Stress axis : x y z
#
# Youngs Moduli (GPa) = 65.98962 31.51726 56.14292
#
# Poissons Ratio (x) = 0.23757 0.48556
# Poissons Ratio (y) = 0.49741 0.14849
# Poissons Ratio (z) = 0.57072 0.08336
#
# Static dielectric constant tensor:
#      x y z
#    x 3.600510 0.000000 0.000000 
#    y 0.000000 3.485220 0.000000 
#    z 0.000000 0.000000 3.461150 
# 
# 
# High freq. dielectric constant tensor:
#      x y z
#    x 1.743280 0.000000 0.000000 
#    y 0.000000 1.743170 0.000000 
#    z 0.000000 0.000000 1.727200 
# 
# From -- ./inp_files/33795.got.cif
#   From: 2010.03.12/outbox.cif.g09.slc.cpg/sg51_17_cif.got.tgz:33795.got - 2010.04.16 13:43:02.
