data_PCOD8212516
_publ_section_title
;
Structure prediction by ZEFSAII (Michael W. Deem and Ramdas Pophale) SiO2 
 PCOD8212516
Probable space group: P M M A
;
_chemical_formula_sum "Si O2"
_cell_formula_units_Z 64
_cell_length_a 30.762401
_cell_length_b 8.919064
_cell_length_c 11.961385
_cell_angle_alpha 90.000000
_cell_angle_beta 90.000000
_cell_angle_gamma 90.000000
_cell_volume 3281.867012
_symmetry_space_group_name_H-M "P M M A"
_symmetry_group_IT_number 51
_symmetry_cell_setting 'orthorhombic'
loop_
_space_group_symop_operation_xyz
x,y,z
1/2-x,-y,z
1/2+x,-y,-z
-x,y,-z
-x,-y,-z
1/2+x,y,-z
1/2-x,y,z
x,-y,z
loop_
_atom_site_type_symbol
_atom_site_label
_atom_site_fract_x
_atom_site_fract_y
_atom_site_fract_z
Si Si1 0.547979 0.828434 0.976962
Si Si2 0.822543 0.323823 0.754377
Si Si3 0.549239 0.175764 0.508264
Si Si4 0.798050 0.678019 0.508577
Si Si5 0.588786 0.170246 0.744389
Si Si6 0.701480 0.829051 0.973976
Si Si7 0.125369 0.677124 0.892541
Si Si8 0.378087 0.322200 0.636975
O O1 0.554643 0.815212 0.844460
O O2 0.551962 0.000000 0.017811
O O3 0.500000 0.764239 0.000000
O O4 0.582726 0.732403 0.044459
O O5 0.815021 0.500000 0.767773
O O6 0.806220 0.264296 0.634435
O O7 0.873065 0.286494 0.768733
O O8 0.796081 0.239901 0.850266
O O9 0.500000 0.234207 0.500000
O O10 0.565285 0.218476 0.631276
O O11 0.578244 0.258242 0.416605
O O12 0.551942 0.000000 0.483948
O O13 0.750000 0.732404 0.469341
O O14 0.800384 0.500000 0.507622
O O15 0.835300 0.742666 0.426699
O O16 0.606906 0.000000 0.736470
O O17 0.750000 0.819859 0.025259
O O18 0.685083 0.000000 0.965619
O O19 0.669025 0.740045 0.053072
O O20 0.127388 0.500000 0.901518
O O21 0.124052 0.731654 0.764619
O O22 0.379603 0.500000 0.627120
#
# Coordination Sequence:
#
# PCOD8212516 Si02
#       8
#     8   8   8   8   8   8   8   8
#     4  10  22  39  62  87 116 157 197 239 293 351
#     4  11  20  34  60  90 120 152 190 236 290 345
#     4  10  22  38  60  88 118 154 196 241 288 345
#     4   9  18  34  57  84 114 149 187 228 280 340
#     4  10  20  36  58  87 120 152 194 241 291 345
#     4  11  24  41  61  86 119 157 195 240 295 353
#     4  11  24  40  60  87 118 154 198 248 296 348
#     4  10  22  40  59  84 117 152 194 242 292 343
#
# _framework density 19.501096
#
# number of rings (size 3 to 8) (size 9 to 14) (size 15 to 20)
#    0.000    1.750    2.500    1.500    1.750    3.500 
#    0.000    1.250    0.000    1.125    0.000    0.000 
#    0.000    0.000    0.000    0.000    0.000    0.000 
#
# Total GULP energy -793757.182041 kJ/mol
# GULP energy per Si atom -12402.455969 kJ/mol
# Density = 1.945671 g / cm^3
# Si number density = 19.501096 Si / 1000 Ang^3
#
#
#
# Elastic Constant Matrix: (Units=GPa)
#
#
# Indices 1 2 3 4 5 6 
#
# 1 138.4411 29.5141 55.6682 0.0000 0.0000 0.0000
# 2 29.5141 50.9064 39.8945 0.0000 0.0000 0.0000
# 3 55.6682 39.8945 138.6883 0.0000 0.0000 0.0000
# 4 0.0000 0.0000 0.0000 21.0731 0.0000 0.0000
# 5 0.0000 0.0000 0.0000 0.0000 27.0943 0.0000
# 6 0.0000 0.0000 0.0000 0.0000 0.0000 3.0450
#
#
#
# Elastic Compliance Matrix: (Units=1/GPa)
#
#
# Indices 1 2 3 4 5 6 
#
# 1 0.008971 -0.003072 -0.002717 0.000000 0.000000 0.000000
# 2 -0.003072 0.026413 -0.006365 0.000000 0.000000 0.000000
# 3 -0.002717 -0.006365 0.010132 0.000000 0.000000 0.000000
# 4 0.000000 0.000000 0.000000 0.047454 0.000000 0.000000
# 5 0.000000 0.000000 0.000000 0.000000 0.036908 0.000000
# 6 0.000000 0.000000 0.000000 0.000000 0.000000 0.328402
#
#
# Mechanical properties :
#
#
# Convention : Reuss Voigt Hill
#
# Bulk Modulus (GPa) = 47.15168 64.24329 55.69749
# Shear Modulus (GPa) = 10.21125 23.77309 16.99217
#
# Velocity S-wave (km/s) = 2.29077 3.49530 2.95506
# Velocity P-wave (km/s) = 5.58823 7.02171 6.34558
#
# Compressibility (1/GPa) = 0.02120815
#
# Stress axis : x y z
#
# Youngs Moduli (GPa) = 111.47378 37.86045 98.69734
#
# Poissons Ratio (x) = 0.11629 0.26818
# Poissons Ratio (y) = 0.34240 0.62820
# Poissons Ratio (z) = 0.30290 0.24098
#
# Static dielectric constant tensor:
#      x y z
#    x 3.749430 0.000000 0.000000 
#    y 0.000000 3.412720 0.000000 
#    z 0.000000 0.000000 3.721980 
# 
# 
# High freq. dielectric constant tensor:
#      x y z
#    x 1.771340 0.000000 0.000000 
#    y 0.000000 1.743120 0.000000 
#    z 0.000000 0.000000 1.765710 
# 
# From -- ./inp_files/19440.got.cif
#   From: 2010.03.12/outbox.cif.g09.slc.cpg/sg51_10_cif.got.tgz:19440.got - 2010.04.16 13:43:02.
