data_PCOD8212692
_publ_section_title
;
Structure prediction by ZEFSAII (Michael W. Deem and Ramdas Pophale) SiO2 
 PCOD8212692
Probable space group: P M M A
;
_chemical_formula_sum "Si O2"
_cell_formula_units_Z 64
_cell_length_a 19.001876
_cell_length_b 13.380191
_cell_length_c 13.174789
_cell_angle_alpha 90.000000
_cell_angle_beta 90.000000
_cell_angle_gamma 90.000000
_cell_volume 3349.673374
_symmetry_space_group_name_H-M "P M M A"
_symmetry_group_IT_number 51
_symmetry_cell_setting 'orthorhombic'
loop_
_space_group_symop_operation_xyz
x,y,z
1/2-x,-y,z
1/2+x,-y,-z
-x,y,-z
-x,-y,-z
1/2+x,y,-z
1/2-x,y,z
x,-y,z
loop_
_atom_site_type_symbol
_atom_site_label
_atom_site_fract_x
_atom_site_fract_y
_atom_site_fract_z
Si Si1 0.924108 0.776977 0.548992
Si Si2 0.078281 0.391375 0.966597
Si Si3 0.041643 0.802196 0.895605
Si Si4 0.422145 0.118597 0.239441
Si Si5 0.331160 0.287139 0.143006
Si Si6 0.175677 0.884540 0.834767
Si Si7 0.829346 0.615617 0.645664
Si Si8 0.831223 0.112968 0.389029
O O1 0.925238 0.855627 0.641760
O O2 0.889532 0.673453 0.584542
O O3 0.874814 0.819541 0.463323
O O4 0.000000 0.756555 0.500000
O O5 0.112345 0.500000 0.936454
O O6 0.068380 0.312216 0.873625
O O7 0.124169 0.334630 0.051716
O O8 0.000000 0.415407 0.000000
O O9 0.112809 0.865261 0.912742
O O10 0.997782 0.848057 0.803973
O O11 0.000000 0.807507 0.000000
O O12 0.361658 0.179468 0.179296
O O13 0.409606 0.000000 0.224873
O O14 0.250000 0.272009 0.109913
O O15 0.337923 0.365008 0.234687
O O16 0.250000 0.839198 0.876156
O O17 0.158324 0.840210 0.723440
O O18 0.187163 0.000000 0.817298
O O19 0.750000 0.648038 0.612295
O O20 0.841896 0.500000 0.623801
O O21 0.750000 0.116110 0.421613
O O22 0.860349 0.000000 0.394884
#
# Coordination Sequence:
#
# PCOD8212692 Si02
#       8
#     8   8   8   8   8   8   8   8
#     4  11  22  34  54  86 117 147 186 235 289 334
#     4  10  20  37  59  81 106 140 185 234 281 329
#     4  11  21  38  55  79 108 151 186 225 277 334
#     4  11  23  38  55  81 119 157 189 227 278 338
#     4  10  20  38  59  84 112 144 189 236 285 338
#     4   9  19  35  56  80 106 142 191 238 275 327
#     4   9  19  36  58  81 109 147 186 229 285 346
#     4   9  18  35  58  80 104 143 190 231 275 328
#
# _framework density 19.106339999999999
#
# number of rings (size 3 to 8) (size 9 to 14) (size 15 to 20)
#    0.000    2.000    2.500    3.000    0.000    5.250 
#    0.000    0.000    0.000    2.250    0.000    1.750 
#    0.000    0.000    0.000    0.000    0.000    0.000 
#
# Total GULP energy -792958.280612 kJ/mol
# GULP energy per Si atom -12389.973135 kJ/mol
# Density = 1.906285 g / cm^3
# Si number density = 19.106340 Si / 1000 Ang^3
#
#
#
# Elastic Constant Matrix: (Units=GPa)
#
#
# Indices 1 2 3 4 5 6 
#
# 1 132.9176 50.9150 44.1181 0.0000 0.0000 0.0000
# 2 50.9150 115.1521 38.6128 0.0000 0.0000 0.0000
# 3 44.1181 38.6128 45.9526 0.0000 0.0000 0.0000
# 4 0.0000 0.0000 0.0000 68.6191 0.0000 0.0000
# 5 0.0000 0.0000 0.0000 0.0000 24.4297 0.0000
# 6 0.0000 0.0000 0.0000 0.0000 0.0000 22.4974
#
#
#
# Elastic Compliance Matrix: (Units=1/GPa)
#
#
# Indices 1 2 3 4 5 6 
#
# 1 0.011332 -0.001897 -0.009286 0.000000 0.000000 0.000000
# 2 -0.001897 0.012408 -0.008605 0.000000 0.000000 0.000000
# 3 -0.009286 -0.008605 0.037908 0.000000 0.000000 0.000000
# 4 0.000000 0.000000 0.000000 0.014573 0.000000 0.000000
# 5 0.000000 0.000000 0.000000 0.000000 0.040934 0.000000
# 6 0.000000 0.000000 0.000000 0.000000 0.000000 0.044450
#
#
# Mechanical properties :
#
#
# Convention : Reuss Voigt Hill
#
# Bulk Modulus (GPa) = 45.30625 62.36822 53.83724
# Shear Modulus (GPa) = 23.97637 33.80102 28.88869
#
# Velocity S-wave (km/s) = 3.54629 4.21063 3.89266
# Velocity P-wave (km/s) = 6.36650 7.50685 6.96007
#
# Compressibility (1/GPa) = 0.02207201
#
# Stress axis : x y z
#
# Youngs Moduli (GPa) = 88.24358 80.59050 26.37980
#
# Poissons Ratio (x) = 0.15287 0.24496
# Poissons Ratio (y) = 0.16738 0.22701
# Poissons Ratio (z) = 0.81943 0.69351
#
# Static dielectric constant tensor:
#      x y z
#    x 3.612800 0.000000 0.000000 
#    y 0.000000 3.686980 0.000000 
#    z 0.000000 0.000000 3.412490 
# 
# 
# High freq. dielectric constant tensor:
#      x y z
#    x 1.758030 0.000000 0.000000 
#    y 0.000000 1.738140 0.000000 
#    z 0.000000 0.000000 1.723920 
# 
# From -- ./inp_files/25247.got.cif
#   From: 2010.03.12/outbox.cif.g09.slc.cpg/sg51_13_cif.got.tgz:25247.got - 2010.04.16 13:43:02.
