data_PCOD8212638
_publ_section_title
;
Structure prediction by ZEFSAII (Michael W. Deem and Ramdas Pophale) SiO2 
 PCOD8212638
Probable space group: P M M A
;
_chemical_formula_sum "Si O2"
_cell_formula_units_Z 48
_cell_length_a 15.019475
_cell_length_b 17.653282
_cell_length_c 8.725426
_cell_angle_alpha 90.000000
_cell_angle_beta 90.000000
_cell_angle_gamma 90.000000
_cell_volume 2313.485867
_symmetry_space_group_name_H-M "P M M A"
_symmetry_group_IT_number 51
_symmetry_cell_setting 'orthorhombic'
loop_
_space_group_symop_operation_xyz
x,y,z
1/2-x,-y,z
1/2+x,-y,-z
-x,y,-z
-x,-y,-z
1/2+x,y,-z
1/2-x,y,z
x,-y,z
loop_
_atom_site_type_symbol
_atom_site_label
_atom_site_fract_x
_atom_site_fract_y
_atom_site_fract_z
Si Si1 0.417269 0.716958 0.895894
Si Si2 0.460840 0.346991 0.342472
Si Si3 0.479044 0.914936 0.173617
Si Si4 0.848837 0.147405 0.285294
Si Si5 0.352810 0.196048 0.366228
Si Si6 0.349567 0.582930 0.099611
O O1 0.451497 0.684126 0.737459
O O2 0.355876 0.787088 0.845171
O O3 0.500000 0.745081 0.000000
O O4 0.363453 0.650903 0.980564
O O5 0.500000 0.379701 0.500000
O O6 0.387315 0.281173 0.353326
O O7 0.416397 0.413390 0.243497
O O8 0.574385 0.914214 0.259409
O O9 0.409415 0.858108 0.253322
O O10 0.439859 0.000000 0.182990
O O11 0.500000 0.890508 0.000000
O O12 0.750000 0.111679 0.268638
O O13 0.864075 0.175320 0.457343
O O14 0.250000 0.191863 0.313185
O O15 0.250000 0.588892 0.163442
O O16 0.365327 0.500000 0.021906
#
# Coordination Sequence:
#
# PCOD8212638 Si02
#       6
#     8   8   8   8   8   8
#     4  10  20  36  63  89 123 162 207 257 313 371
#     4  11  20  37  63  90 124 161 211 262 309 372
#     4  11  25  44  63  89 127 166 206 254 310 368
#     4  11  22  38  63  94 125 161 211 258 308 369
#     4  11  23  40  65  94 124 162 208 257 313 371
#     4  10  23  41  59  88 128 168 212 261 315 376
#
# _framework density 20.747913
#
# number of rings (size 3 to 8) (size 9 to 14) (size 15 to 20)
#    0.000    1.333    3.333    2.000    2.333    6.000 
#    0.000    3.333    0.000    2.000    0.000    0.000 
#    0.000    0.000    0.000    0.000    0.000    0.000 
#
# Total GULP energy -594877.414458 kJ/mol
# GULP energy per Si atom -12393.279468 kJ/mol
# Density = 2.070069 g / cm^3
# Si number density = 20.747913 Si / 1000 Ang^3
#
#
#
# Elastic Constant Matrix: (Units=GPa)
#
#
# Indices 1 2 3 4 5 6 
#
# 1 108.5932 17.8782 27.7918 0.0000 0.0000 0.0000
# 2 17.8782 73.3660 14.2771 0.0000 0.0000 0.0000
# 3 27.7918 14.2771 98.5821 0.0000 0.0000 0.0000
# 4 0.0000 0.0000 0.0000 47.0822 0.0000 0.0000
# 5 0.0000 0.0000 0.0000 0.0000 28.2997 0.0000
# 6 0.0000 0.0000 0.0000 0.0000 0.0000 27.2519
#
#
#
# Elastic Compliance Matrix: (Units=1/GPa)
#
#
# Indices 1 2 3 4 5 6 
#
# 1 0.010197 -0.001981 -0.002588 0.000000 0.000000 0.000000
# 2 -0.001981 0.014411 -0.001528 0.000000 0.000000 0.000000
# 3 -0.002588 -0.001528 0.011095 0.000000 0.000000 0.000000
# 4 0.000000 0.000000 0.000000 0.021239 0.000000 0.000000
# 5 0.000000 0.000000 0.000000 0.000000 0.035336 0.000000
# 6 0.000000 0.000000 0.000000 0.000000 0.000000 0.036695
#
#
# Mechanical properties :
#
#
# Convention : Reuss Voigt Hill
#
# Bulk Modulus (GPa) = 42.53989 44.49282 43.51635
# Shear Modulus (GPa) = 33.55628 35.23305 34.39466
#
# Velocity S-wave (km/s) = 4.02597 4.12533 4.07595
# Velocity P-wave (km/s) = 6.49299 6.64697 6.57043
#
# Compressibility (1/GPa) = 0.02350735
#
# Stress axis : x y z
#
# Youngs Moduli (GPa) = 98.06664 69.39365 90.13292
#
# Poissons Ratio (x) = 0.13749 0.23324
# Poissons Ratio (y) = 0.19430 0.13776
# Poissons Ratio (z) = 0.25378 0.10606
#
# Static dielectric constant tensor:
#      x y z
#    x 3.975910 0.000000 0.000000 
#    y 0.000000 3.677630 0.000000 
#    z 0.000000 0.000000 4.048730 
# 
# 
# High freq. dielectric constant tensor:
#      x y z
#    x 1.817150 0.000000 0.000000 
#    y 0.000000 1.800580 0.000000 
#    z 0.000000 0.000000 1.819470 
# 
# From -- ./inp_files/8237.got.cif
#   From: 2010.03.12/outbox.cif.g09.slc.cpg/sg51_5_cif.got.tgz:8237.got - 2010.04.16 13:43:02.
