data_PCOD8212446
_publ_section_title
;
Structure prediction by ZEFSAII (Michael W. Deem and Ramdas Pophale) SiO2 
 PCOD8212446
Probable space group: P M M A
;
_chemical_formula_sum "Si O2"
_cell_formula_units_Z 52
_cell_length_a 9.056242
_cell_length_b 14.752763
_cell_length_c 19.844624
_cell_angle_alpha 90.000000
_cell_angle_beta 90.000000
_cell_angle_gamma 90.000000
_cell_volume 2651.332891
_symmetry_space_group_name_H-M "P M M A"
_symmetry_group_IT_number 51
_symmetry_cell_setting 'orthorhombic'
loop_
_space_group_symop_operation_xyz
x,y,z
1/2-x,-y,z
1/2+x,-y,-z
-x,y,-z
-x,-y,-z
1/2+x,y,-z
1/2-x,y,z
x,-y,z
loop_
_atom_site_type_symbol
_atom_site_label
_atom_site_fract_x
_atom_site_fract_y
_atom_site_fract_z
Si Si1 0.577090 0.743233 0.700610
Si Si2 0.423411 0.697088 0.572608
Si Si3 0.577167 0.393628 0.201806
Si Si4 0.083273 0.392309 0.065658
Si Si5 0.415630 0.108078 0.935365
Si Si6 0.920152 0.102471 0.804028
Si Si7 0.583895 0.500000 0.432243
O O1 0.750000 0.721969 0.693186
O O2 0.504047 0.760186 0.627211
O O3 0.499984 0.659729 0.737967
O O4 0.547330 0.836757 0.739296
O O5 0.500000 0.709093 0.500000
O O6 0.250000 0.720825 0.566255
O O7 0.448919 0.595295 0.604720
O O8 0.750000 0.370762 0.200015
O O9 0.550162 0.500000 0.214376
O O10 0.505273 0.360996 0.131701
O O11 0.250000 0.353586 0.068723
O O12 0.087253 0.500000 0.061394
O O13 0.000000 0.352757 0.000000
O O14 0.250000 0.145022 0.937302
O O15 0.490881 0.143500 0.867089
O O16 0.421927 0.000000 0.936847
O O17 0.500000 0.148468 0.000000
O O18 0.750000 0.104936 0.825169
O O19 0.970453 0.000000 0.786725
O O20 0.750000 0.500000 0.456471
O O21 0.500000 0.500000 0.500000
#
# Coordination Sequence:
#
# PCOD8212446 Si02
#       7
#     8   8   8   8   8   8   4
#     4  11  23  37  56  83 111 142 181 223 272 327
#     4  10  20  36  57  82 113 147 183 221 266 320
#     4  10  21  36  53  75 107 145 182 221 268 320
#     4   9  16  28  48  72  99 135 181 228 272 317
#     4   9  16  27  48  78 109 141 178 221 273 331
#     4   9  19  37  58  79 108 145 184 228 277 328
#     4   8  16  30  50  76 106 140 175 208 249 304
#
# _framework density 19.612776
#
# number of rings (size 3 to 8) (size 9 to 14) (size 15 to 20)
#    0.000    2.462    0.000    2.308    1.077    6.462 
#    0.000    0.769    0.000    4.154    0.000    0.000 
#    0.000    0.000    0.000    0.000    0.000    0.000 
#
# Total GULP energy -644623.393032 kJ/mol
# GULP energy per Si atom -12396.603712 kJ/mol
# Density = 1.956814 g / cm^3
# Si number density = 19.612776 Si / 1000 Ang^3
#
#
#
# Elastic Constant Matrix: (Units=GPa)
#
#
# Indices 1 2 3 4 5 6 
#
# 1 150.8161 41.4179 88.4615 0.0000 0.0000 0.0000
# 2 41.4179 46.4482 43.3382 0.0000 0.0000 0.0000
# 3 88.4615 43.3382 158.9996 0.0000 0.0000 0.0000
# 4 0.0000 0.0000 0.0000 9.1862 0.0000 0.0000
# 5 0.0000 0.0000 0.0000 0.0000 41.4373 0.0000
# 6 0.0000 0.0000 0.0000 0.0000 0.0000 16.4901
#
#
#
# Elastic Compliance Matrix: (Units=1/GPa)
#
#
# Indices 1 2 3 4 5 6 
#
# 1 0.010758 -0.005375 -0.004520 0.000000 0.000000 0.000000
# 2 -0.005375 0.031558 -0.005611 0.000000 0.000000 0.000000
# 3 -0.004520 -0.005611 0.010334 0.000000 0.000000 0.000000
# 4 0.000000 0.000000 0.000000 0.108859 0.000000 0.000000
# 5 0.000000 0.000000 0.000000 0.000000 0.024133 0.000000
# 6 0.000000 0.000000 0.000000 0.000000 0.000000 0.060642
#
#
# Mechanical properties :
#
#
# Convention : Reuss Voigt Hill
#
# Bulk Modulus (GPa) = 46.21863 78.07768 62.14815
# Shear Modulus (GPa) = 17.57410 25.62580 21.59995
#
# Velocity S-wave (km/s) = 2.99666 3.61860 3.32222
# Velocity P-wave (km/s) = 5.96574 7.57331 6.81708
#
# Compressibility (1/GPa) = 0.02163630
#
# Stress axis : x y z
#
# Youngs Moduli (GPa) = 92.95214 31.68774 96.77142
#
# Poissons Ratio (x) = 0.17034 0.43744
# Poissons Ratio (y) = 0.49966 0.54298
# Poissons Ratio (z) = 0.42017 0.17780
#
# Static dielectric constant tensor:
#      x y z
#    x 3.732940 0.000000 0.000000 
#    y 0.000000 3.382330 0.000000 
#    z 0.000000 0.000000 3.494960 
# 
# 
# High freq. dielectric constant tensor:
#      x y z
#    x 1.777900 0.000000 0.000000 
#    y 0.000000 1.735120 0.000000 
#    z 0.000000 0.000000 1.760720 
# 
# From -- ./inp_files/31776.got.cif
#   From: 2010.03.12/outbox.cif.g09.slc.cpg/sg51_16_cif.got.tgz:31776.got - 2010.04.16 13:43:02.
