data_PCOD8212222
_publ_section_title
;
Structure prediction by ZEFSAII (Michael W. Deem and Ramdas Pophale) SiO2 
 PCOD8212222
Probable space group: P M M A
;
_chemical_formula_sum "Si O2"
_cell_formula_units_Z 48
_cell_length_a 14.421972
_cell_length_b 10.023344
_cell_length_c 16.719474
_cell_angle_alpha 90.000000
_cell_angle_beta 90.000000
_cell_angle_gamma 90.000000
_cell_volume 2416.906746
_symmetry_space_group_name_H-M "P M M A"
_symmetry_group_IT_number 51
_symmetry_cell_setting 'orthorhombic'
loop_
_space_group_symop_operation_xyz
x,y,z
1/2-x,-y,z
1/2+x,-y,-z
-x,y,-z
-x,-y,-z
1/2+x,y,-z
1/2-x,y,z
x,-y,z
loop_
_atom_site_type_symbol
_atom_site_label
_atom_site_fract_x
_atom_site_fract_y
_atom_site_fract_z
Si Si1 0.644834 0.850025 0.466246
Si Si2 0.478280 0.844151 0.907720
Si Si3 0.452752 0.352430 0.646713
Si Si4 0.352846 0.253738 0.360436
Si Si5 0.150308 0.152039 0.189438
Si Si6 0.858432 0.346137 0.188007
O O1 0.750000 0.821064 0.439173
O O2 0.577926 0.747808 0.422189
O O3 0.634308 0.835774 0.561177
O O4 0.615534 0.000000 0.442876
O O5 0.565757 0.782600 0.858942
O O6 0.390745 0.753271 0.882685
O O7 0.457896 0.000000 0.887675
O O8 0.500000 0.824258 0.000000
O O9 0.414261 0.500000 0.627006
O O10 0.564895 0.361677 0.646593
O O11 0.412808 0.304422 0.731575
O O12 0.250000 0.322407 0.361001
O O13 0.364205 0.157270 0.284498
O O14 0.250000 0.219541 0.166686
O O15 0.153510 0.000000 0.161862
O O16 0.750000 0.323956 0.202752
O O17 0.879661 0.500000 0.164819
#
# Coordination Sequence:
#
# PCOD8212222 Si02
#       6
#     8   8   8   8   8   8
#     4  10  22  38  57  85 117 151 197 247 290 341
#     4  10  21  37  61  93 122 149 187 238 293 350
#     4  11  23  39  59  84 117 157 198 242 292 344
#     4  10  20  35  57  83 113 152 195 240 290 344
#     4   9  17  32  55  82 115 153 188 228 284 344
#     4  10  22  41  62  84 116 159 202 241 285 342
#
# _framework density 19.860095000000001
#
# number of rings (size 3 to 8) (size 9 to 14) (size 15 to 20)
#    0.000    2.000    1.667    1.500    0.000    8.667 
#    0.000    3.333    0.000    0.500    0.000    0.000 
#    0.000    0.000    0.000    0.000    0.000    0.000 
#
# Total GULP energy -595003.271502 kJ/mol
# GULP energy per Si atom -12395.901490 kJ/mol
# Density = 1.981489 g / cm^3
# Si number density = 19.860095 Si / 1000 Ang^3
#
#
#
# Elastic Constant Matrix: (Units=GPa)
#
#
# Indices 1 2 3 4 5 6 
#
# 1 132.4802 49.9679 54.5984 0.0000 0.0000 0.0000
# 2 49.9679 78.1663 44.3740 0.0000 0.0000 0.0000
# 3 54.5984 44.3740 106.3497 0.0000 0.0000 0.0000
# 4 0.0000 0.0000 0.0000 22.3814 0.0000 0.0000
# 5 0.0000 0.0000 0.0000 0.0000 28.9734 0.0000
# 6 0.0000 0.0000 0.0000 0.0000 0.0000 26.4090
#
#
#
# Elastic Compliance Matrix: (Units=1/GPa)
#
#
# Indices 1 2 3 4 5 6 
#
# 1 0.010863 -0.004951 -0.003511 0.000000 0.000000 0.000000
# 2 -0.004951 0.019020 -0.005395 0.000000 0.000000 0.000000
# 3 -0.003511 -0.005395 0.013456 0.000000 0.000000 0.000000
# 4 0.000000 0.000000 0.000000 0.044680 0.000000 0.000000
# 5 0.000000 0.000000 0.000000 0.000000 0.034514 0.000000
# 6 0.000000 0.000000 0.000000 0.000000 0.000000 0.037866
#
#
# Mechanical properties :
#
#
# Convention : Reuss Voigt Hill
#
# Bulk Modulus (GPa) = 63.99317 68.31965 66.15641
# Shear Modulus (GPa) = 25.86371 26.75648 26.31009
#
# Velocity S-wave (km/s) = 3.61265 3.67447 3.64369
# Velocity P-wave (km/s) = 7.04937 7.24413 7.14741
#
# Compressibility (1/GPa) = 0.01562667
#
# Stress axis : x y z
#
# Youngs Moduli (GPa) = 92.05930 52.57504 74.31474
#
# Poissons Ratio (x) = 0.26029 0.26092
# Poissons Ratio (y) = 0.45576 0.40089
# Poissons Ratio (z) = 0.32322 0.28362
#
# Static dielectric constant tensor:
#      x y z
#    x 3.993270 0.000000 0.000000 
#    y 0.000000 3.296780 0.000000 
#    z 0.000000 0.000000 3.459420 
# 
# 
# High freq. dielectric constant tensor:
#      x y z
#    x 1.792350 0.000000 0.000000 
#    y 0.000000 1.747330 0.000000 
#    z 0.000000 0.000000 1.766530 
# 
# From -- ./inp_files/29466.got.cif
#   From: 2010.03.12/outbox.cif.g09.slc.cpg/sg51_15_cif.got.tgz:29466.got - 2010.04.16 13:43:02.
