data_PCOD8212350
_publ_section_title
;
Structure prediction by ZEFSAII (Michael W. Deem and Ramdas Pophale) SiO2 
 PCOD8212350
Probable space group: P M M A
;
_chemical_formula_sum "Si O2"
_cell_formula_units_Z 48
_cell_length_a 8.790255
_cell_length_b 30.544733
_cell_length_c 9.660967
_cell_angle_alpha 90.000000
_cell_angle_beta 90.000000
_cell_angle_gamma 90.000000
_cell_volume 2593.930918
_symmetry_space_group_name_H-M "P M M A"
_symmetry_group_IT_number 51
_symmetry_cell_setting 'orthorhombic'
loop_
_space_group_symop_operation_xyz
x,y,z
1/2-x,-y,z
1/2+x,-y,-z
-x,y,-z
-x,-y,-z
1/2+x,y,-z
1/2-x,y,z
x,-y,z
loop_
_atom_site_type_symbol
_atom_site_label
_atom_site_fract_x
_atom_site_fract_y
_atom_site_fract_z
Si Si1 0.930574 0.633464 0.652501
Si Si2 0.427934 0.802446 0.856627
Si Si3 0.070231 0.123840 0.650363
Si Si4 0.070667 0.950586 0.855877
Si Si5 0.429696 0.702251 0.854449
Si Si6 0.572068 0.547486 0.349757
O O1 0.750000 0.634631 0.646807
O O2 0.000000 0.636023 0.500000
O O3 0.991927 0.674690 0.735136
O O4 0.987890 0.588095 0.726540
O O5 0.250000 0.808036 0.875787
O O6 0.487151 0.833030 0.732173
O O7 0.472257 0.752530 0.822609
O O8 0.500000 0.818328 0.000000
O O9 0.250000 0.124014 0.634933
O O10 0.013691 0.080870 0.732986
O O11 0.000000 0.123648 0.500000
O O12 0.250000 0.947518 0.872759
O O13 0.017590 0.000000 0.820413
O O14 0.000000 0.934493 0.000000
O O15 0.250000 0.694145 0.856590
O O16 0.500000 0.687379 0.000000
O O17 0.500000 0.543862 0.500000
O O18 0.750000 0.558357 0.362375
O O19 0.547476 0.500000 0.274486
#
# Coordination Sequence:
#
# PCOD8212350 Si02
#       6
#     8   8   8   8   8   8
#     4  11  21  33  51  76 105 137 172 212 258 304
#     4   9  19  35  55  76  98 128 167 210 251 299
#     4  10  21  35  50  74 106 136 168 207 254 303
#     4   9  18  33  53  76 102 133 171 213 253 298
#     4  10  20  36  55  76 102 132 169 210 256 309
#     4   9  16  27  45  70 100 133 169 210 254 300
#
# _framework density 18.504733999999999
#
# number of rings (size 3 to 8) (size 9 to 14) (size 15 to 20)
#    0.000    2.333    0.000    4.000    0.000    4.000 
#    0.000    1.667    0.000    0.500    0.000    0.000 
#    0.000    0.000    0.000    0.000    0.000    0.000 
#
# Total GULP energy -595042.778343 kJ/mol
# GULP energy per Si atom -12396.724549 kJ/mol
# Density = 1.846262 g / cm^3
# Si number density = 18.504734 Si / 1000 Ang^3
#
#
#
# Elastic Constant Matrix: (Units=GPa)
#
#
# Indices 1 2 3 4 5 6 
#
# 1 83.6738 50.8085 44.6355 0.0000 0.0000 0.0000
# 2 50.8085 137.6261 84.7819 0.0000 0.0000 0.0000
# 3 44.6355 84.7819 124.2593 0.0000 0.0000 0.0000
# 4 0.0000 0.0000 0.0000 17.0852 0.0000 0.0000
# 5 0.0000 0.0000 0.0000 0.0000 32.8061 0.0000
# 6 0.0000 0.0000 0.0000 0.0000 0.0000 2.0569
#
#
#
# Elastic Compliance Matrix: (Units=1/GPa)
#
#
# Indices 1 2 3 4 5 6 
#
# 1 0.016013 -0.004085 -0.002965 0.000000 0.000000 0.000000
# 2 -0.004085 0.013577 -0.007796 0.000000 0.000000 0.000000
# 3 -0.002965 -0.007796 0.014432 0.000000 0.000000 0.000000
# 4 0.000000 0.000000 0.000000 0.058530 0.000000 0.000000
# 5 0.000000 0.000000 0.000000 0.000000 0.030482 0.000000
# 6 0.000000 0.000000 0.000000 0.000000 0.000000 0.486163
#
#
# Mechanical properties :
#
#
# Convention : Reuss Voigt Hill
#
# Bulk Modulus (GPa) = 69.78413 78.44566 74.11489
# Shear Modulus (GPa) = 7.64917 21.41188 14.53052
#
# Velocity S-wave (km/s) = 2.03534 3.40531 2.80524
# Velocity P-wave (km/s) = 6.58155 7.61221 7.11557
#
# Compressibility (1/GPa) = 0.01432991
#
# Stress axis : x y z
#
# Youngs Moduli (GPa) = 62.44741 73.65496 69.29151
#
# Poissons Ratio (x) = 0.30091 0.20543
# Poissons Ratio (y) = 0.25512 0.54019
# Poissons Ratio (z) = 0.18514 0.57421
#
# Static dielectric constant tensor:
#      x y z
#    x 3.378940 0.000000 0.000000 
#    y 0.000000 4.121930 0.000000 
#    z 0.000000 0.000000 3.305610 
# 
# 
# High freq. dielectric constant tensor:
#      x y z
#    x 1.721920 0.000000 0.000000 
#    y 0.000000 1.739430 0.000000 
#    z 0.000000 0.000000 1.687860 
# 
# From -- ./inp_files/6042.got.cif
#   From: 2010.03.12/outbox.cif.g09.slc.cpg/sg51_4_cif.got.tgz:6042.got - 2010.04.16 13:43:02.
