data_PCOD8212454
_publ_section_title
;
Structure prediction by ZEFSAII (Michael W. Deem and Ramdas Pophale) SiO2 
 PCOD8212454
Probable space group: P M M A
;
_chemical_formula_sum "Si O2"
_cell_formula_units_Z 56
_cell_length_a 9.117317
_cell_length_b 19.101107
_cell_length_c 15.863196
_cell_angle_alpha 90.000000
_cell_angle_beta 90.000000
_cell_angle_gamma 90.000000
_cell_volume 2762.589029
_symmetry_space_group_name_H-M "P M M A"
_symmetry_group_IT_number 51
_symmetry_cell_setting 'orthorhombic'
loop_
_space_group_symop_operation_xyz
x,y,z
1/2-x,-y,z
1/2+x,-y,-z
-x,y,-z
-x,-y,-z
1/2+x,y,-z
1/2-x,y,z
x,-y,z
loop_
_atom_site_type_symbol
_atom_site_label
_atom_site_fract_x
_atom_site_fract_y
_atom_site_fract_z
Si Si1 0.079225 0.078453 0.587473
Si Si2 0.583968 0.796602 0.658375
Si Si3 0.081449 0.417486 0.741736
Si Si4 0.082479 0.779032 0.154844
Si Si5 0.921681 0.348008 0.585040
Si Si6 0.420174 0.923802 0.085992
Si Si7 0.077038 0.653354 0.915823
O O1 0.250000 0.089091 0.572394
O O2 0.000000 0.092271 0.500000
O O3 0.022748 0.136930 0.651806
O O4 0.044778 0.000000 0.621482
O O5 0.750000 0.824777 0.650433
O O6 0.559316 0.758813 0.748000
O O7 0.551415 0.735770 0.590807
O O8 0.250000 0.395046 0.727135
O O9 0.061855 0.500000 0.741635
O O10 0.027766 0.390341 0.833399
O O11 0.985475 0.386650 0.666406
O O12 0.250000 0.765315 0.125729
O O13 0.041023 0.861393 0.149815
O O14 0.975638 0.733386 0.096738
O O15 0.750000 0.365604 0.579511
O O16 0.000000 0.375243 0.500000
O O17 0.250000 0.925001 0.065024
O O18 0.469142 0.000000 0.123147
O O19 0.500000 0.906935 0.000000
O O20 0.250000 0.650808 0.929654
O O21 0.000000 0.622301 0.000000
#
# Coordination Sequence:
#
# PCOD8212454 Si02
#       7
#     8   8   8   8   8   8   8
#     4  10  21  36  54  78 110 150 198 250 303 360
#     4  10  21  36  57  85 116 152 196 250 304 360
#     4  10  23  44  67  93 125 160 201 248 299 358
#     4  10  20  36  57  83 115 150 197 250 297 355
#     4  11  23  40  64  94 126 162 204 248 302 362
#     4   9  18  32  50  73 104 144 189 238 290 342
#     4  11  23  39  63  92 124 162 201 247 300 357
#
# _framework density 20.27084
#
# number of rings (size 3 to 8) (size 9 to 14) (size 15 to 20)
#    0.000    1.857    1.429    2.143    0.000    7.429 
#    0.000    1.429    0.000    1.714    0.000    0.000 
#    0.000    0.000    0.000    0.000    0.000    0.000 
#
# Total GULP energy -694349.369958 kJ/mol
# GULP energy per Si atom -12399.095892 kJ/mol
# Density = 2.022470 g / cm^3
# Si number density = 20.270840 Si / 1000 Ang^3
#
#
#
# Elastic Constant Matrix: (Units=GPa)
#
#
# Indices 1 2 3 4 5 6 
#
# 1 93.5034 47.6644 61.6160 0.0000 0.0000 0.0000
# 2 47.6644 83.7082 44.5536 0.0000 0.0000 0.0000
# 3 61.6160 44.5536 126.7120 0.0000 0.0000 0.0000
# 4 0.0000 0.0000 0.0000 23.3641 0.0000 0.0000
# 5 0.0000 0.0000 0.0000 0.0000 35.9350 0.0000
# 6 0.0000 0.0000 0.0000 0.0000 0.0000 28.7628
#
#
#
# Elastic Compliance Matrix: (Units=1/GPa)
#
#
# Indices 1 2 3 4 5 6 
#
# 1 0.018654 -0.007128 -0.006565 0.000000 0.000000 0.000000
# 2 -0.007128 0.017420 -0.002659 0.000000 0.000000 0.000000
# 3 -0.006565 -0.002659 0.012019 0.000000 0.000000 0.000000
# 4 0.000000 0.000000 0.000000 0.042801 0.000000 0.000000
# 5 0.000000 0.000000 0.000000 0.000000 0.027828 0.000000
# 6 0.000000 0.000000 0.000000 0.000000 0.000000 0.034767
#
#
# Mechanical properties :
#
#
# Convention : Reuss Voigt Hill
#
# Bulk Modulus (GPa) = 64.97647 67.95460 66.46554
# Shear Modulus (GPa) = 26.13381 27.61835 26.87608
#
# Velocity S-wave (km/s) = 3.59448 3.69517 3.64517
# Velocity P-wave (km/s) = 7.02501 7.19734 7.11170
#
# Compressibility (1/GPa) = 0.01539019
#
# Stress axis : x y z
#
# Youngs Moduli (GPa) = 53.60708 57.40439 83.20087
#
# Poissons Ratio (x) = 0.40917 0.54619
# Poissons Ratio (y) = 0.38210 0.22124
# Poissons Ratio (z) = 0.35191 0.15265
#
# Static dielectric constant tensor:
#      x y z
#    x 3.690340 0.000000 0.000000 
#    y 0.000000 3.710160 0.000000 
#    z 0.000000 0.000000 3.534890 
# 
# 
# High freq. dielectric constant tensor:
#      x y z
#    x 1.789660 0.000000 0.000000 
#    y 0.000000 1.792950 0.000000 
#    z 0.000000 0.000000 1.789460 
# 
# From -- ./inp_files/21832.got.cif
#   From: 2010.03.12/outbox.cif.g09.slc.cpg/sg51_11_cif.got.tgz:21832.got - 2010.04.16 13:43:02.
