data_PCOD8212650
_publ_section_title
;
Structure prediction by ZEFSAII (Michael W. Deem and Ramdas Pophale) SiO2 
 PCOD8212650
Probable space group: P M M A
;
_chemical_formula_sum "Si O2"
_cell_formula_units_Z 64
_cell_length_a 18.682925
_cell_length_b 19.843478
_cell_length_c 9.556163
_cell_angle_alpha 90.000000
_cell_angle_beta 90.000000
_cell_angle_gamma 90.000000
_cell_volume 3542.796552
_symmetry_space_group_name_H-M "P M M A"
_symmetry_group_IT_number 51
_symmetry_cell_setting 'orthorhombic'
loop_
_space_group_symop_operation_xyz
x,y,z
1/2-x,-y,z
1/2+x,-y,-z
-x,y,-z
-x,-y,-z
1/2+x,y,-z
1/2-x,y,z
x,-y,z
loop_
_atom_site_type_symbol
_atom_site_label
_atom_site_fract_x
_atom_site_fract_y
_atom_site_fract_z
Si Si1 0.832503 0.803997 0.537818
Si Si2 0.833014 0.322669 0.345021
Si Si3 0.057786 0.574157 0.117150
Si Si4 0.667331 0.675701 0.016163
Si Si5 0.541541 0.575646 0.357941
Si Si6 0.566254 0.923018 0.901496
Si Si7 0.427661 0.073768 0.419154
Si Si8 0.167359 0.806205 0.138535
O O1 0.750000 0.820268 0.510407
O O2 0.856558 0.743274 0.434708
O O3 0.875814 0.872258 0.507277
O O4 0.847862 0.787330 0.699902
O O5 0.750000 0.340993 0.379752
O O6 0.843995 0.312741 0.180345
O O7 0.885456 0.383450 0.384880
O O8 0.087158 0.500000 0.162001
O O9 0.014526 0.608549 0.246683
O O10 0.123873 0.615574 0.055189
O O11 0.000000 0.565055 0.000000
O O12 0.750000 0.661804 0.980087
O O13 0.637890 0.743471 0.947632
O O14 0.500000 0.572186 0.500000
O O15 0.562896 0.500000 0.307249
O O16 0.547992 0.911486 0.739254
O O17 0.631667 0.872577 0.927872
O O18 0.589672 0.000000 0.933335
O O19 0.500000 0.902574 0.000000
O O20 0.500000 0.074492 0.500000
O O21 0.390159 0.000000 0.428465
O O22 0.250000 0.818958 0.112396
#
# Coordination Sequence:
#
# PCOD8212650 Si02
#       8
#     8   8   8   8   8   8   8   8
#     4   9  19  35  53  75 104 138 176 217 262 314
#     4  10  21  37  56  79 108 142 179 222 270 322
#     4  10  20  37  57  79 109 140 176 221 266 316
#     4  10  21  36  55  80 109 141 179 223 270 320
#     4  10  22  39  57  81 111 142 178 221 268 320
#     4   9  18  33  52  76 105 136 172 216 265 314
#     4   9  18  33  52  75 104 136 173 218 262 310
#     4   9  19  35  53  75 104 138 176 218 261 311
#
# _framework density 18.064824999999999
#
# number of rings (size 3 to 8) (size 9 to 14) (size 15 to 20)
#    0.000    2.500    1.250    0.000    1.750    3.000 
#    2.250    3.750    0.000    2.250    0.000    7.000 
#    0.000    0.000    0.000    0.000    0.000    0.000 
#
# Total GULP energy -793054.469363 kJ/mol
# GULP energy per Si atom -12391.476084 kJ/mol
# Density = 1.802371 g / cm^3
# Si number density = 18.064825 Si / 1000 Ang^3
#
#
#
# Elastic Constant Matrix: (Units=GPa)
#
#
# Indices 1 2 3 4 5 6 
#
# 1 77.3254 68.3795 39.7038 0.0000 0.0000 0.0000
# 2 68.3795 122.1944 48.8944 0.0000 0.0000 0.0000
# 3 39.7038 48.8944 69.3314 0.0000 0.0000 0.0000
# 4 0.0000 0.0000 0.0000 30.8387 0.0000 0.0000
# 5 0.0000 0.0000 0.0000 0.0000 28.7269 0.0000
# 6 0.0000 0.0000 0.0000 0.0000 0.0000 43.6884
#
#
#
# Elastic Compliance Matrix: (Units=1/GPa)
#
#
# Indices 1 2 3 4 5 6 
#
# 1 0.027778 -0.012788 -0.006889 0.000000 0.000000 0.000000
# 2 -0.012788 0.017288 -0.004869 0.000000 0.000000 0.000000
# 3 -0.006889 -0.004869 0.021802 0.000000 0.000000 0.000000
# 4 0.000000 0.000000 0.000000 0.032427 0.000000 0.000000
# 5 0.000000 0.000000 0.000000 0.000000 0.034811 0.000000
# 6 0.000000 0.000000 0.000000 0.000000 0.000000 0.022889
#
#
# Mechanical properties :
#
#
# Convention : Reuss Voigt Hill
#
# Bulk Modulus (GPa) = 56.25367 64.75631 60.50499
# Shear Modulus (GPa) = 23.58352 28.10903 25.84627
#
# Velocity S-wave (km/s) = 3.61708 3.94891 3.78663
# Velocity P-wave (km/s) = 6.97509 7.53102 7.25838
#
# Compressibility (1/GPa) = 0.01777662
#
# Stress axis : x y z
#
# Youngs Moduli (GPa) = 35.99940 57.84394 45.86683
#
# Poissons Ratio (x) = 0.73971 0.31599
# Poissons Ratio (y) = 0.46036 0.22331
# Poissons Ratio (z) = 0.24801 0.28162
#
# Static dielectric constant tensor:
#      x y z
#    x 3.239790 0.000000 0.000000 
#    y 0.000000 3.608340 0.000000 
#    z 0.000000 0.000000 3.516180 
# 
# 
# High freq. dielectric constant tensor:
#      x y z
#    x 1.690710 0.000000 0.000000 
#    y 0.000000 1.700400 0.000000 
#    z 0.000000 0.000000 1.707390 
# 
# From -- ./inp_files/11194.got.cif
#   From: 2010.03.12/outbox.cif.g09.slc.cpg/sg51_6_cif.got.tgz:11194.got - 2010.04.16 13:43:02.
