data_PCOD8212644
_publ_section_title
;
Structure prediction by ZEFSAII (Michael W. Deem and Ramdas Pophale) SiO2 
 PCOD8212644
Probable space group: P M M A
;
_chemical_formula_sum "Si O2"
_cell_formula_units_Z 64
_cell_length_a 9.137691
_cell_length_b 23.050371
_cell_length_c 15.214643
_cell_angle_alpha 90.000000
_cell_angle_beta 90.000000
_cell_angle_gamma 90.000000
_cell_volume 3204.617162
_symmetry_space_group_name_H-M "P M M A"
_symmetry_group_IT_number 51
_symmetry_cell_setting 'orthorhombic'
loop_
_space_group_symop_operation_xyz
x,y,z
1/2-x,-y,z
1/2+x,-y,-z
-x,y,-z
-x,-y,-z
1/2+x,y,-z
1/2-x,y,z
x,-y,z
loop_
_atom_site_type_symbol
_atom_site_label
_atom_site_fract_x
_atom_site_fract_y
_atom_site_fract_z
Si Si1 0.082482 0.565557 0.091157
Si Si2 0.080719 0.196280 0.411552
Si Si3 0.419961 0.316412 0.329544
Si Si4 0.415844 0.235708 0.078022
Si Si5 0.081432 0.563022 0.409655
Si Si6 0.077403 0.332690 0.837664
Si Si7 0.083407 0.143973 0.226527
Si Si8 0.081829 0.068238 0.910666
O O1 0.250000 0.586162 0.080260
O O2 0.076004 0.500000 0.125825
O O3 0.998101 0.603994 0.162690
O O4 0.000000 0.572652 0.000000
O O5 0.250000 0.182567 0.425047
O O6 0.056010 0.265699 0.401057
O O7 0.026047 0.160514 0.324814
O O8 0.000000 0.174921 0.500000
O O9 0.250000 0.317054 0.298564
O O10 0.474341 0.380215 0.358914
O O11 0.528164 0.300262 0.250733
O O12 0.250000 0.249014 0.050373
O O13 0.509047 0.295177 0.083548
O O14 0.422005 0.202129 0.169380
O O15 0.500000 0.200238 0.000000
O O16 0.250000 0.572904 0.430990
O O17 0.057668 0.500000 0.360602
O O18 0.000000 0.560063 0.500000
O O19 0.250000 0.337772 0.846177
O O20 0.250000 0.120649 0.231247
O O21 0.984571 0.096127 0.178079
O O22 0.250000 0.087720 0.920360
O O23 0.066580 0.000000 0.897420
O O24 0.000000 0.087917 0.000000
#
# Coordination Sequence:
#
# PCOD8212644 Si02
#       8
#     8   8   8   8   8   8   8   8
#     4  10  21  38  58  76  98 133 177 226 282 344
#     4  10  21  38  59  85 115 154 199 251 308 359
#     4  10  20  37  55  74 108 145 185 237 291 353
#     4  11  22  38  57  81 116 153 191 235 286 344
#     4   9  18  32  52  76 101 132 171 219 281 350
#     4  12  24  36  53  78 107 140 182 231 284 342
#     4  10  21  38  60  87 121 160 203 249 295 344
#     4  10  21  37  60  93 132 171 208 246 291 345
#
# _framework density 19.971184999999998
#
# number of rings (size 3 to 8) (size 9 to 14) (size 15 to 20)
#    0.000    1.750    1.250    3.375    0.000    5.500 
#    0.000    1.250    0.000    0.375    0.000    0.000 
#    0.000    0.000    0.000    0.000    0.000    0.000 
#
# Total GULP energy -793234.948183 kJ/mol
# GULP energy per Si atom -12394.296065 kJ/mol
# Density = 1.992573 g / cm^3
# Si number density = 19.971185 Si / 1000 Ang^3
#
#
#
# Elastic Constant Matrix: (Units=GPa)
#
#
# Indices 1 2 3 4 5 6 
#
# 1 130.5157 44.5089 56.4259 0.0000 0.0000 0.0000
# 2 44.5089 72.3855 34.2219 0.0000 0.0000 0.0000
# 3 56.4259 34.2219 125.6042 0.0000 0.0000 0.0000
# 4 0.0000 0.0000 0.0000 30.1593 0.0000 0.0000
# 5 0.0000 0.0000 0.0000 0.0000 36.3670 0.0000
# 6 0.0000 0.0000 0.0000 0.0000 0.0000 13.5087
#
#
#
# Elastic Compliance Matrix: (Units=1/GPa)
#
#
# Indices 1 2 3 4 5 6 
#
# 1 0.010904 -0.005038 -0.003526 0.000000 0.000000 0.000000
# 2 -0.005038 0.018185 -0.002691 0.000000 0.000000 0.000000
# 3 -0.003526 -0.002691 0.010279 0.000000 0.000000 0.000000
# 4 0.000000 0.000000 0.000000 0.033157 0.000000 0.000000
# 5 0.000000 0.000000 0.000000 0.000000 0.027497 0.000000
# 6 0.000000 0.000000 0.000000 0.000000 0.000000 0.074027
#
#
# Mechanical properties :
#
#
# Convention : Reuss Voigt Hill
#
# Bulk Modulus (GPa) = 59.32073 66.53541 62.92807
# Shear Modulus (GPa) = 24.73050 28.89693 26.81371
#
# Velocity S-wave (km/s) = 3.52278 3.80798 3.66815
# Velocity P-wave (km/s) = 6.80546 7.26101 7.03692
#
# Compressibility (1/GPa) = 0.01685751
#
# Stress axis : x y z
#
# Youngs Moduli (GPa) = 91.70636 54.98999 97.28732
#
# Poissons Ratio (x) = 0.27704 0.34304
# Poissons Ratio (y) = 0.46201 0.26184
# Poissons Ratio (z) = 0.32336 0.14800
#
# Static dielectric constant tensor:
#      x y z
#    x 3.603210 0.000000 0.000000 
#    y 0.000000 3.667330 0.000000 
#    z 0.000000 0.000000 3.559450 
# 
# 
# High freq. dielectric constant tensor:
#      x y z
#    x 1.778120 0.000000 0.000000 
#    y 0.000000 1.770930 0.000000 
#    z 0.000000 0.000000 1.769860 
# 
# From -- ./inp_files/22402.got.cif
#   From: 2010.03.12/outbox.cif.g09.slc.cpg/sg51_12_cif.got.tgz:22402.got - 2010.04.16 13:43:02.
