data_PCOD8212228
_publ_section_title
;
Structure prediction by ZEFSAII (Michael W. Deem and Ramdas Pophale) SiO2 
 PCOD8212228
Probable space group: P M M A
;
_chemical_formula_sum "Si O2"
_cell_formula_units_Z 64
_cell_length_a 8.713184
_cell_length_b 17.696534
_cell_length_c 20.886875
_cell_angle_alpha 90.000000
_cell_angle_beta 90.000000
_cell_angle_gamma 90.000000
_cell_volume 3220.613194
_symmetry_space_group_name_H-M "P M M A"
_symmetry_group_IT_number 51
_symmetry_cell_setting 'orthorhombic'
loop_
_space_group_symop_operation_xyz
x,y,z
1/2-x,-y,z
1/2+x,-y,-z
-x,y,-z
-x,-y,-z
1/2+x,y,-z
1/2-x,y,z
x,-y,z
loop_
_atom_site_type_symbol
_atom_site_label
_atom_site_fract_x
_atom_site_fract_y
_atom_site_fract_z
Si Si1 0.433811 0.754733 0.064784
Si Si2 0.425592 0.081265 0.093119
Si Si3 0.070415 0.293434 0.201707
Si Si4 0.426841 0.414901 0.302342
Si Si5 0.077172 0.916063 0.643556
Si Si6 0.431205 0.634492 0.568192
Si Si7 0.576674 0.874991 0.763722
Si Si8 0.572170 0.204948 0.564007
O O1 0.250000 0.755814 0.065042
O O2 0.500508 0.841554 0.065568
O O3 0.492706 0.708452 0.127808
O O4 0.500000 0.716162 0.000000
O O5 0.250000 0.080188 0.071331
O O6 0.437796 0.084567 0.169024
O O7 0.501423 0.000000 0.071037
O O8 0.250000 0.307934 0.196868
O O9 0.000237 0.359290 0.247689
O O10 0.032831 0.213479 0.233694
O O11 0.250000 0.392486 0.314841
O O12 0.442037 0.500000 0.275664
O O13 0.512436 0.412761 0.370711
O O14 0.250000 0.888191 0.629399
O O15 0.045143 0.917373 0.719068
O O16 0.950976 0.858749 0.616741
O O17 0.053849 0.000000 0.615178
O O18 0.500000 0.605638 0.500000
O O19 0.250000 0.627660 0.562690
O O20 0.480937 0.719987 0.582249
O O21 0.750000 0.883740 0.737482
O O22 0.500000 0.169948 0.500000
O O23 0.750000 0.224990 0.555739
#
# Coordination Sequence:
#
# PCOD8212228 Si02
#       8
#     8   8   8   8   8   8   8   8
#     4   9  17  30  48  70  97 131 172 217 265 318
#     4   8  14  25  42  65  94 128 166 209 259 315
#     4   8  16  32  53  76 102 134 172 217 267 319
#     4  10  20  35  57  84 112 143 180 220 262 311
#     4  11  23  35  47  69 102 135 169 215 270 321
#     4  11  22  38  60  85 115 147 178 213 257 312
#     4   9  16  29  51  72  91 124 172 217 257 310
#     4  11  22  38  58  76  97 128 171 217 260 310
#
# _framework density 19.871991999999999
#
# number of rings (size 3 to 8) (size 9 to 14) (size 15 to 20)
#    0.000    2.375    0.000    6.000    0.000    3.500 
#    0.000    3.125    0.000    1.125    0.000    0.000 
#    0.000    0.000    0.000    0.000    0.000    0.000 
#
# Total GULP energy -792988.422981 kJ/mol
# GULP energy per Si atom -12390.444109 kJ/mol
# Density = 1.982676 g / cm^3
# Si number density = 19.871992 Si / 1000 Ang^3
#
#
#
# Elastic Constant Matrix: (Units=GPa)
#
#
# Indices 1 2 3 4 5 6 
#
# 1 66.0788 21.5840 27.5340 0.0000 0.0000 0.0000
# 2 21.5840 79.3894 45.5593 0.0000 0.0000 0.0000
# 3 27.5340 45.5593 108.4176 0.0000 0.0000 0.0000
# 4 0.0000 0.0000 0.0000 8.0665 0.0000 0.0000
# 5 0.0000 0.0000 0.0000 0.0000 29.3606 0.0000
# 6 0.0000 0.0000 0.0000 0.0000 0.0000 15.9746
#
#
#
# Elastic Compliance Matrix: (Units=1/GPa)
#
#
# Indices 1 2 3 4 5 6 
#
# 1 0.017415 -0.002895 -0.003206 0.000000 0.000000 0.000000
# 2 -0.002895 0.017080 -0.006442 0.000000 0.000000 0.000000
# 3 -0.003206 -0.006442 0.012745 0.000000 0.000000 0.000000
# 4 0.000000 0.000000 0.000000 0.123970 0.000000 0.000000
# 5 0.000000 0.000000 0.000000 0.000000 0.034059 0.000000
# 6 0.000000 0.000000 0.000000 0.000000 0.000000 0.062599
#
#
# Mechanical properties :
#
#
# Convention : Reuss Voigt Hill
#
# Bulk Modulus (GPa) = 45.13940 49.24893 47.19417
# Shear Modulus (GPa) = 16.64779 21.29422 18.97101
#
# Velocity S-wave (km/s) = 2.89753 3.27703 3.09311
# Velocity P-wave (km/s) = 5.82741 6.25744 6.04625
#
# Compressibility (1/GPa) = 0.02215359
#
# Stress axis : x y z
#
# Youngs Moduli (GPa) = 57.42178 58.54733 78.46166
#
# Poissons Ratio (x) = 0.16948 0.25158
# Poissons Ratio (y) = 0.16622 0.50547
# Poissons Ratio (z) = 0.18411 0.37718
#
# Static dielectric constant tensor:
#      x y z
#    x 3.281140 0.000000 0.000000 
#    y 0.000000 3.587920 0.000000 
#    z 0.000000 0.000000 3.122560 
# 
# 
# High freq. dielectric constant tensor:
#      x y z
#    x 1.742610 0.000000 0.000000 
#    y 0.000000 1.759430 0.000000 
#    z 0.000000 0.000000 1.779850 
# 
# From -- ./inp_files/32330.got.cif
#   From: 2010.03.12/outbox.cif.g09.slc.cpg/sg51_17_cif.got.tgz:32330.got - 2010.04.16 13:43:02.
