data_PCOD8212128
_publ_section_title
;
Structure prediction by ZEFSAII (Michael W. Deem and Ramdas Pophale) SiO2 
 PCOD8212128
Probable space group: P M M A
;
_chemical_formula_sum "Si O2"
_cell_formula_units_Z 64
_cell_length_a 21.221675
_cell_length_b 8.878468
_cell_length_c 16.619619
_cell_angle_alpha 90.000000
_cell_angle_beta 90.000000
_cell_angle_gamma 90.000000
_cell_volume 3131.401509
_symmetry_space_group_name_H-M "P M M A"
_symmetry_group_IT_number 51
_symmetry_cell_setting 'orthorhombic'
loop_
_space_group_symop_operation_xyz
x,y,z
1/2-x,-y,z
1/2+x,-y,-z
-x,y,-z
-x,-y,-z
1/2+x,y,-z
1/2-x,y,z
x,-y,z
loop_
_atom_site_type_symbol
_atom_site_label
_atom_site_fract_x
_atom_site_fract_y
_atom_site_fract_z
Si Si1 0.927909 0.176094 0.510064
Si Si2 0.821742 0.320784 0.396470
Si Si3 0.906169 0.824910 0.927744
Si Si4 0.998888 0.323453 0.180555
Si Si5 0.180488 0.675550 0.947268
Si Si6 0.588634 0.668140 0.671565
Si Si7 0.637335 0.676627 0.222930
Si Si8 0.821072 0.669668 0.804629
O O1 0.876449 0.256393 0.453636
O O2 0.910803 0.209415 0.601898
O O3 0.000000 0.235357 0.500000
O O4 0.923959 0.000000 0.491935
O O5 0.750000 0.271244 0.421277
O O6 0.826585 0.500000 0.400086
O O7 0.834598 0.257856 0.306053
O O8 0.972828 0.752435 0.900523
O O9 0.856824 0.791356 0.857487
O O10 0.917107 0.000000 0.939306
O O11 0.877118 0.760856 0.010323
O O12 0.996835 0.500000 0.162472
O O13 0.039686 0.286455 0.259191
O O14 0.930791 0.254340 0.200646
O O15 0.250000 0.719718 0.981836
O O16 0.167685 0.500000 0.960320
O O17 0.182407 0.714156 0.852177
O O18 0.573903 0.500000 0.637715
O O19 0.657396 0.672717 0.711959
O O20 0.629229 0.500000 0.235775
O O21 0.750000 0.719278 0.806805
O O22 0.832230 0.500000 0.839737
#
# Coordination Sequence:
#
# PCOD8212128 Si02
#       8
#     8   8   8   8   8   8   8   8
#     4  11  24  39  56  82 117 155 192 230 277 337
#     4  10  21  39  64  91 117 147 189 242 295 345
#     4  11  22  34  50  76 111 146 182 223 266 318
#     4   9  18  35  58  82 109 141 179 224 275 329
#     4  10  20  35  56  80 107 140 179 224 274 328
#     4   9  18  33  55  82 108 137 177 224 273 325
#     4   9  18  35  61  87 107 135 181 233 280 330
#     4   9  18  34  55  77 103 136 174 217 267 322
#
# _framework density 20.438133000000001
#
# number of rings (size 3 to 8) (size 9 to 14) (size 15 to 20)
#    0.000    2.250    0.000    3.750    0.000    8.750 
#    0.000    5.625    0.000    1.500    0.000    0.000 
#    0.000    0.000    0.000    0.000    0.000    0.000 
#
# Total GULP energy -793197.353494 kJ/mol
# GULP energy per Si atom -12393.708648 kJ/mol
# Density = 2.039161 g / cm^3
# Si number density = 20.438133 Si / 1000 Ang^3
#
#
#
# Elastic Constant Matrix: (Units=GPa)
#
#
# Indices 1 2 3 4 5 6 
#
# 1 119.7049 29.0137 26.3137 0.0000 0.0000 0.0000
# 2 29.0137 59.1629 28.3990 0.0000 0.0000 0.0000
# 3 26.3137 28.3990 88.5088 0.0000 0.0000 0.0000
# 4 0.0000 0.0000 0.0000 7.0025 0.0000 0.0000
# 5 0.0000 0.0000 0.0000 0.0000 24.1387 0.0000
# 6 0.0000 0.0000 0.0000 0.0000 0.0000 17.8692
#
#
#
# Elastic Compliance Matrix: (Units=1/GPa)
#
#
# Indices 1 2 3 4 5 6 
#
# 1 0.009669 -0.003974 -0.001599 0.000000 0.000000 0.000000
# 2 -0.003974 0.021613 -0.005753 0.000000 0.000000 0.000000
# 3 -0.001599 -0.005753 0.013620 0.000000 0.000000 0.000000
# 4 0.000000 0.000000 0.000000 0.142807 0.000000 0.000000
# 5 0.000000 0.000000 0.000000 0.000000 0.041427 0.000000
# 6 0.000000 0.000000 0.000000 0.000000 0.000000 0.055962
#
#
# Mechanical properties :
#
#
# Convention : Reuss Voigt Hill
#
# Bulk Modulus (GPa) = 44.94732 48.31437 46.63085
# Shear Modulus (GPa) = 15.86462 22.04543 18.95502
#
# Velocity S-wave (km/s) = 2.78911 3.28783 3.04868
# Velocity P-wave (km/s) = 5.69314 6.17282 5.93783
#
# Compressibility (1/GPa) = 0.02224827
#
# Stress axis : x y z
#
# Youngs Moduli (GPa) = 103.42734 46.26869 73.42232
#
# Poissons Ratio (x) = 0.18386 0.11744
# Poissons Ratio (y) = 0.41100 0.42242
# Poissons Ratio (z) = 0.16543 0.26620
#
# Static dielectric constant tensor:
#      x y z
#    x 4.049750 0.000000 0.000000 
#    y 0.000000 3.311260 0.000000 
#    z 0.000000 0.000000 3.717460 
# 
# 
# High freq. dielectric constant tensor:
#      x y z
#    x 1.813170 0.000000 0.000000 
#    y 0.000000 1.759800 0.000000 
#    z 0.000000 0.000000 1.800170 
# 
# From -- ./inp_files/26325.got.cif
#   From: 2010.03.12/outbox.cif.g09.slc.cpg/sg51_14_cif.got.tgz:26325.got - 2010.04.16 13:43:02.
