data_PCOD8212534
_publ_section_title
;
Structure prediction by ZEFSAII (Michael W. Deem and Ramdas Pophale) SiO2 
 PCOD8212534
Probable space group: P M M A
;
_chemical_formula_sum "Si O2"
_cell_formula_units_Z 56
_cell_length_a 18.849806
_cell_length_b 9.412761
_cell_length_c 16.130223
_cell_angle_alpha 90.000000
_cell_angle_beta 90.000000
_cell_angle_gamma 90.000000
_cell_volume 2861.964800
_symmetry_space_group_name_H-M "P M M A"
_symmetry_group_IT_number 51
_symmetry_cell_setting 'orthorhombic'
loop_
_space_group_symop_operation_xyz
x,y,z
1/2-x,-y,z
1/2+x,-y,-z
-x,y,-z
-x,-y,-z
1/2+x,y,-z
1/2-x,y,z
x,-y,z
loop_
_atom_site_type_symbol
_atom_site_label
_atom_site_fract_x
_atom_site_fract_y
_atom_site_fract_z
Si Si1 0.171225 0.161361 0.481549
Si Si2 0.415981 0.336863 0.168266
Si Si3 0.832831 0.663924 0.673017
Si Si4 0.540781 0.837506 0.416590
Si Si5 0.581696 0.165527 0.989708
Si Si6 0.833121 0.833715 0.153911
Si Si7 0.441254 0.335041 0.743408
O O1 0.250000 0.215147 0.504598
O O2 0.138099 0.252533 0.406737
O O3 0.124501 0.176602 0.563911
O O4 0.171914 0.000000 0.449873
O O5 0.396563 0.500000 0.151607
O O6 0.372705 0.277413 0.246554
O O7 0.389233 0.248960 0.089568
O O8 0.499899 0.318120 0.184847
O O9 0.750000 0.691921 0.685387
O O10 0.851214 0.500000 0.658514
O O11 0.500000 0.790092 0.500000
O O12 0.525656 0.733730 0.339894
O O13 0.520320 0.000000 0.393211
O O14 0.589010 0.000000 0.971247
O O15 0.500000 0.209984 0.000000
O O16 0.629491 0.209945 0.067906
O O17 0.750000 0.794840 0.149675
O O18 0.869977 0.745616 0.227854
O O19 0.844573 0.000000 0.172392
O O20 0.423999 0.500000 0.726416
#
# Coordination Sequence:
#
# PCOD8212534 Si02
#       7
#     8   8   8   8   8   8   8
#     4   9  18  33  52  74 101 135 176 222 273 326
#     4  10  21  35  54  81 113 147 181 220 273 331
#     4   9  18  33  52  76 108 144 181 221 269 326
#     4  10  21  36  55  80 110 145 189 236 283 334
#     4  10  20  36  59  84 108 140 184 229 273 328
#     4  10  22  41  62  84 113 149 189 234 284 336
#     4  11  23  37  56  83 114 148 187 232 281 338
#
# _framework density 19.566977999999999
#
# number of rings (size 3 to 8) (size 9 to 14) (size 15 to 20)
#    0.000    2.143    1.429    1.286    0.000    4.286 
#    0.000    1.429    0.000    0.000    0.000    0.000 
#    0.000    0.000    0.000    0.000    0.000    0.000 
#
# Total GULP energy -694477.941903 kJ/mol
# GULP energy per Si atom -12401.391820 kJ/mol
# Density = 1.952244 g / cm^3
# Si number density = 19.566978 Si / 1000 Ang^3
#
#
#
# Elastic Constant Matrix: (Units=GPa)
#
#
# Indices 1 2 3 4 5 6 
#
# 1 58.7109 21.9578 20.4576 0.0000 0.0000 0.0000
# 2 21.9578 68.3660 49.5076 0.0000 0.0000 0.0000
# 3 20.4576 49.5076 92.3904 0.0000 0.0000 0.0000
# 4 0.0000 0.0000 0.0000 13.0828 0.0000 0.0000
# 5 0.0000 0.0000 0.0000 0.0000 32.9908 0.0000
# 6 0.0000 0.0000 0.0000 0.0000 0.0000 22.7061
#
#
#
# Elastic Compliance Matrix: (Units=1/GPa)
#
#
# Indices 1 2 3 4 5 6 
#
# 1 0.019496 -0.005124 -0.001571 0.000000 0.000000 0.000000
# 2 -0.005124 0.025249 -0.012395 0.000000 0.000000 0.000000
# 3 -0.001571 -0.012395 0.017813 0.000000 0.000000 0.000000
# 4 0.000000 0.000000 0.000000 0.076436 0.000000 0.000000
# 5 0.000000 0.000000 0.000000 0.000000 0.030312 0.000000
# 6 0.000000 0.000000 0.000000 0.000000 0.000000 0.044041
#
#
# Mechanical properties :
#
#
# Convention : Reuss Voigt Hill
#
# Bulk Modulus (GPa) = 41.02051 44.81259 42.91655
# Shear Modulus (GPa) = 19.25638 22.25890 20.75764
#
# Velocity S-wave (km/s) = 3.14048 3.37645 3.26060
# Velocity P-wave (km/s) = 5.84464 6.17677 6.01300
#
# Compressibility (1/GPa) = 0.02437805
#
# Stress axis : x y z
#
# Youngs Moduli (GPa) = 51.29128 39.60576 56.13722
#
# Poissons Ratio (x) = 0.20294 0.08821
# Poissons Ratio (y) = 0.26282 0.69582
# Poissons Ratio (z) = 0.08059 0.49092
#
# Static dielectric constant tensor:
#      x y z
#    x 3.646810 0.000000 0.000000 
#    y 0.000000 3.460380 0.000000 
#    z 0.000000 0.000000 3.472740 
# 
# 
# High freq. dielectric constant tensor:
#      x y z
#    x 1.765750 0.000000 0.000000 
#    y 0.000000 1.753610 0.000000 
#    z 0.000000 0.000000 1.757710 
# 
# From -- ./inp_files/25779.got.cif
#   From: 2010.03.12/outbox.cif.g09.slc.cpg/sg51_13_cif.got.tgz:25779.got - 2010.04.16 13:43:02.
