data_PCOD8212397
_publ_section_title
;
Structure prediction by ZEFSAII (Michael W. Deem and Ramdas Pophale) SiO2 
 PCOD8212397
Probable space group: P M M A
;
_chemical_formula_sum "Si O2"
_cell_formula_units_Z 64
_cell_length_a 18.117108
_cell_length_b 9.188864
_cell_length_c 19.902019
_cell_angle_alpha 90.000000
_cell_angle_beta 90.000000
_cell_angle_gamma 90.000000
_cell_volume 3313.201380
_symmetry_space_group_name_H-M "P M M A"
_symmetry_group_IT_number 51
_symmetry_cell_setting 'orthorhombic'
loop_
_space_group_symop_operation_xyz
x,y,z
1/2-x,-y,z
1/2+x,-y,-z
-x,y,-z
-x,-y,-z
1/2+x,y,-z
1/2-x,y,z
x,-y,z
loop_
_atom_site_type_symbol
_atom_site_label
_atom_site_fract_x
_atom_site_fract_y
_atom_site_fract_z
Si Si1 0.165454 0.164657 0.791760
Si Si2 0.407334 0.670935 0.286253
Si Si3 0.078427 0.836812 0.534021
Si Si4 0.835325 0.668931 0.576150
Si Si5 0.664313 0.328764 0.854313
Si Si6 0.580632 0.172651 0.971288
Si Si7 0.162632 0.337493 0.917664
Si Si8 0.450087 0.831975 0.681063
O O1 0.250000 0.200342 0.776625
O O2 0.132388 0.272396 0.847876
O O3 0.124155 0.189838 0.722518
O O4 0.154940 0.000000 0.818365
O O5 0.420512 0.500000 0.289946
O O6 0.370601 0.729746 0.355002
O O7 0.355539 0.709229 0.222818
O O8 0.485903 0.748249 0.279419
O O9 0.134854 0.744931 0.490332
O O10 0.067528 0.765945 0.607660
O O11 0.000000 0.837284 0.500000
O O12 0.110387 0.000000 0.540565
O O13 0.750000 0.703111 0.581316
O O14 0.852736 0.500000 0.568574
O O15 0.750000 0.281608 0.867498
O O16 0.655752 0.500000 0.868867
O O17 0.604337 0.244750 0.900437
O O18 0.585345 0.000000 0.963041
O O19 0.500000 0.219543 0.000000
O O20 0.640494 0.229691 0.023412
O O21 0.250000 0.342281 0.916253
O O22 0.130114 0.500000 0.928080
O O23 0.473951 0.000000 0.674494
#
# Coordination Sequence:
#
# PCOD8212397 Si02
#       8
#     8   8   8   8   8   8   8   8
#     4   9  19  36  57  81 111 149 189 230 280 337
#     4  10  21  37  59  86 116 153 191 233 288 346
#     4  10  20  36  56  81 113 151 192 235 284 337
#     4  10  21  37  58  85 116 151 193 239 287 343
#     4  10  22  41  63  87 117 153 193 238 288 342
#     4  11  25  41  58  85 119 153 189 232 281 335
#     4  10  21  38  61  86 112 145 185 229 277 331
#     4  10  21  36  57  83 115 151 191 238 285 340
#
# _framework density 19.316665
#
# number of rings (size 3 to 8) (size 9 to 14) (size 15 to 20)
#    0.000    2.000    1.250    1.500    1.750    7.500 
#    0.000    1.250    0.000    3.750    0.000    0.000 
#    0.000    0.000    0.000    0.000    0.000    0.000 
#
# Total GULP energy -793578.912151 kJ/mol
# GULP energy per Si atom -12399.670502 kJ/mol
# Density = 1.927270 g / cm^3
# Si number density = 19.316665 Si / 1000 Ang^3
#
#
#
# Elastic Constant Matrix: (Units=GPa)
#
#
# Indices 1 2 3 4 5 6 
#
# 1 113.2310 26.0244 37.4151 0.0000 0.0000 0.0000
# 2 26.0244 64.6887 44.6651 0.0000 0.0000 0.0000
# 3 37.4151 44.6651 119.8837 0.0000 0.0000 0.0000
# 4 0.0000 0.0000 0.0000 37.8157 0.0000 0.0000
# 5 0.0000 0.0000 0.0000 0.0000 36.3882 0.0000
# 6 0.0000 0.0000 0.0000 0.0000 0.0000 19.3660
#
#
#
# Elastic Compliance Matrix: (Units=1/GPa)
#
#
# Indices 1 2 3 4 5 6 
#
# 1 0.010151 -0.002553 -0.002217 0.000000 0.000000 0.000000
# 2 -0.002553 0.021455 -0.007197 0.000000 0.000000 0.000000
# 3 -0.002217 -0.007197 0.011715 0.000000 0.000000 0.000000
# 4 0.000000 0.000000 0.000000 0.026444 0.000000 0.000000
# 5 0.000000 0.000000 0.000000 0.000000 0.027481 0.000000
# 6 0.000000 0.000000 0.000000 0.000000 0.000000 0.051637
#
#
# Mechanical properties :
#
#
# Convention : Reuss Voigt Hill
#
# Bulk Modulus (GPa) = 51.58072 57.11253 54.34662
# Shear Modulus (GPa) = 27.88969 31.36057 29.62513
#
# Velocity S-wave (km/s) = 3.80388 4.03364 3.92044
# Velocity P-wave (km/s) = 6.78626 7.16410 6.97774
#
# Compressibility (1/GPa) = 0.01938709
#
# Stress axis : x y z
#
# Youngs Moduli (GPa) = 98.51451 46.60969 85.36413
#
# Poissons Ratio (x) = 0.11900 0.18924
# Poissons Ratio (y) = 0.25151 0.61433
# Poissons Ratio (z) = 0.21839 0.33543
#
# Static dielectric constant tensor:
#      x y z
#    x 3.511150 0.000000 0.000000 
#    y 0.000000 3.636200 0.000000 
#    z 0.000000 0.000000 3.657710 
# 
# 
# High freq. dielectric constant tensor:
#      x y z
#    x 1.750160 0.000000 0.000000 
#    y 0.000000 1.743570 0.000000 
#    z 0.000000 0.000000 1.764840 
# 
# From -- ./inp_files/33830.got.cif
#   From: 2010.03.12/outbox.cif.g09.slc.cpg/sg51_17_cif.got.tgz:33830.got - 2010.04.16 13:43:02.
