data_PCOD8212965
_publ_section_title
;
Structure prediction by ZEFSAII (Michael W. Deem and Ramdas Pophale) SiO2 
 PCOD8212965
Probable space group: P M M A
;
_chemical_formula_sum "Si O2"
_cell_formula_units_Z 64
_cell_length_a 8.933837
_cell_length_b 14.935703
_cell_length_c 24.020050
_cell_angle_alpha 90.000000
_cell_angle_beta 90.000000
_cell_angle_gamma 90.000000
_cell_volume 3205.070600
_symmetry_space_group_name_H-M "P M M A"
_symmetry_group_IT_number 51
_symmetry_cell_setting 'orthorhombic'
loop_
_space_group_symop_operation_xyz
x,y,z
1/2-x,-y,z
1/2+x,-y,-z
-x,y,-z
-x,-y,-z
1/2+x,y,-z
1/2-x,y,z
x,-y,z
loop_
_atom_site_type_symbol
_atom_site_label
_atom_site_fract_x
_atom_site_fract_y
_atom_site_fract_z
Si Si1 0.575828 0.272562 0.057511
Si Si2 0.427444 0.397825 0.272505
Si Si3 0.423570 0.594597 0.441824
Si Si4 0.923770 0.396925 0.157210
Si Si5 0.577609 0.103539 0.763153
Si Si6 0.578922 0.770221 0.442898
Si Si7 0.922331 0.899395 0.122208
Si Si8 0.575675 0.768778 0.323433
O O1 0.750000 0.288208 0.049259
O O2 0.515852 0.337527 0.106137
O O3 0.538192 0.169582 0.073026
O O4 0.500000 0.298959 0.000000
O O5 0.250000 0.391769 0.274835
O O6 0.480836 0.500000 0.285512
O O7 0.483557 0.368660 0.211534
O O8 0.491133 0.327300 0.317482
O O9 0.500000 0.575728 0.500000
O O10 0.250000 0.622757 0.448347
O O11 0.434593 0.500000 0.407369
O O12 0.518014 0.676202 0.418158
O O13 0.750000 0.376959 0.169545
O O14 0.951066 0.500000 0.141474
O O15 0.750000 0.131377 0.757348
O O16 0.525597 0.123817 0.825545
O O17 0.480540 0.161448 0.721452
O O18 0.551955 0.000000 0.748360
O O19 0.500000 0.805374 0.500000
O O20 0.750000 0.764335 0.460490
O O21 0.553494 0.820953 0.384062
O O22 0.750000 0.888242 0.140990
O O23 0.953876 0.000000 0.100290
O O24 0.750000 0.748685 0.314421
#
# Coordination Sequence:
#
# PCOD8212965 Si02
#       8
#     8   8   8   8   8   8   8   8
#     4  10  21  34  49  73 104 140 183 226 268 316
#     4  10  21  36  56  84 114 144 182 230 282 330
#     4   9  16  26  42  63  88 122 164 208 252 297
#     4   9  18  34  54  74 101 139 181 226 276 328
#     4  10  21  37  60  90 116 138 172 222 278 330
#     4  10  21  35  51  72  99 135 178 218 260 313
#     4   9  18  34  55  78 107 142 176 213 263 324
#     4  11  23  37  56  82 111 146 183 220 268 327
#
# _framework density 19.968360000000001
#
# number of rings (size 3 to 8) (size 9 to 14) (size 15 to 20)
#    0.000    2.250    0.000    3.375    0.000    7.250 
#    0.000    2.500    0.000    0.375    0.000    0.000 
#    0.000    0.000    0.000    0.000    0.000    0.000 
#
# Total GULP energy -792878.984341 kJ/mol
# GULP energy per Si atom -12388.734130 kJ/mol
# Density = 1.992291 g / cm^3
# Si number density = 19.968360 Si / 1000 Ang^3
#
#
#
# Elastic Constant Matrix: (Units=GPa)
#
#
# Indices 1 2 3 4 5 6 
#
# 1 78.0853 17.3554 37.8838 0.0000 0.0000 0.0000
# 2 17.3554 47.5851 30.1614 0.0000 0.0000 0.0000
# 3 37.8838 30.1614 119.0362 0.0000 0.0000 0.0000
# 4 0.0000 0.0000 0.0000 7.5731 0.0000 0.0000
# 5 0.0000 0.0000 0.0000 0.0000 26.3857 0.0000
# 6 0.0000 0.0000 0.0000 0.0000 0.0000 21.9953
#
#
#
# Elastic Compliance Matrix: (Units=1/GPa)
#
#
# Indices 1 2 3 4 5 6 
#
# 1 0.015498 -0.003010 -0.004170 0.000000 0.000000 0.000000
# 2 -0.003010 0.025620 -0.005534 0.000000 0.000000 0.000000
# 3 -0.004170 -0.005534 0.011130 0.000000 0.000000 0.000000
# 4 0.000000 0.000000 0.000000 0.132047 0.000000 0.000000
# 5 0.000000 0.000000 0.000000 0.000000 0.037899 0.000000
# 6 0.000000 0.000000 0.000000 0.000000 0.000000 0.045464
#
#
# Mechanical properties :
#
#
# Convention : Reuss Voigt Hill
#
# Bulk Modulus (GPa) = 37.28267 46.16753 41.72510
# Shear Modulus (GPa) = 16.55484 21.81120 19.18302
#
# Velocity S-wave (km/s) = 2.88245 3.30856 3.10283
# Velocity P-wave (km/s) = 5.45797 6.14540 5.81186
#
# Compressibility (1/GPa) = 0.02682211
#
# Stress axis : x y z
#
# Youngs Moduli (GPa) = 64.52239 39.03162 89.84683
#
# Poissons Ratio (x) = 0.11747 0.37465
# Poissons Ratio (y) = 0.19419 0.49720
# Poissons Ratio (z) = 0.26905 0.21599
#
# Static dielectric constant tensor:
#      x y z
#    x 3.582560 0.000000 0.000000 
#    y 0.000000 6.899840 0.000000 
#    z 0.000000 0.000000 3.580320 
# 
# 
# High freq. dielectric constant tensor:
#      x y z
#    x 1.780100 0.000000 0.000000 
#    y 0.000000 1.764690 0.000000 
#    z 0.000000 0.000000 1.781120 
# 
# From -- ./inp_files/34924.got.cif
#   From: 2010.03.12/outbox.cif.g09.slc.cpg/sg51_18_cif.got.tgz:34924.got - 2010.04.16 13:43:02.
