data_PCOD8212900
_publ_section_title
;
Structure prediction by ZEFSAII (Michael W. Deem and Ramdas Pophale) SiO2 
 PCOD8212900
Probable space group: P M M A
;
_chemical_formula_sum "Si O2"
_cell_formula_units_Z 48
_cell_length_a 14.442387
_cell_length_b 9.049068
_cell_length_c 19.449889
_cell_angle_alpha 90.000000
_cell_angle_beta 90.000000
_cell_angle_gamma 90.000000
_cell_volume 2541.908756
_symmetry_space_group_name_H-M "P M M A"
_symmetry_group_IT_number 51
_symmetry_cell_setting 'orthorhombic'
loop_
_space_group_symop_operation_xyz
x,y,z
1/2-x,-y,z
1/2+x,-y,-z
-x,y,-z
-x,-y,-z
1/2+x,y,-z
1/2-x,y,z
x,-y,z
loop_
_atom_site_type_symbol
_atom_site_label
_atom_site_fract_x
_atom_site_fract_y
_atom_site_fract_z
Si Si1 0.066303 0.671349 0.061478
Si Si2 0.006033 0.173599 0.670481
Si Si3 0.143953 0.828244 0.551076
Si Si4 0.750000 0.329228 0.121281
Si Si5 0.142556 0.672142 0.412760
Si Si6 0.750000 0.175128 0.976622
Si Si7 0.441517 0.330786 0.807499
O O1 0.091554 0.500000 0.050092
O O2 0.159817 0.765329 0.062626
O O3 0.015478 0.699073 0.133074
O O4 0.000000 0.726152 0.000000
O O5 0.910816 0.253528 0.650440
O O6 0.085368 0.221419 0.616846
O O7 0.036656 0.222372 0.745546
O O8 0.989256 0.000000 0.670138
O O9 0.250000 0.788421 0.567740
O O10 0.107885 0.740215 0.484717
O O11 0.130907 0.000000 0.534275
O O12 0.750000 0.500000 0.097153
O O13 0.660591 0.291879 0.166199
O O14 0.750000 0.227362 0.054914
O O15 0.250000 0.706865 0.401150
O O16 0.121005 0.500000 0.413878
O O17 0.750000 0.000000 0.973873
O O18 0.446595 0.500000 0.782401
#
# Coordination Sequence:
#
# PCOD8212900 Si02
#       7
#     8   8   8   4   8   4   8
#     4  10  20  40  66  87 114 155 202 243 285 343
#     4  11  23  37  57  84 119 157 188 229 289 351
#     4   9  19  36  57  83 116 153 189 226 280 347
#     4  10  20  40  64  88 118 155 196 231 284 348
#     4  10  21  38  60  84 110 145 195 248 289 332
#     4  12  24  36  60  94 124 151 188 243 298 348
#     4  10  22  39  62  88 116 153 195 240 283 337
#
# _framework density 18.883447
#
# number of rings (size 3 to 8) (size 9 to 14) (size 15 to 20)
#    0.000    1.833    1.667    2.250    1.167    6.000 
#    1.500    0.000    0.000    0.000    0.000    0.000 
#    0.000    0.000    0.000    0.000    0.000    0.000 
#
# Total GULP energy -595479.243069 kJ/mol
# GULP energy per Si atom -12405.817564 kJ/mol
# Density = 1.884047 g / cm^3
# Si number density = 18.883447 Si / 1000 Ang^3
#
#
#
# Elastic Constant Matrix: (Units=GPa)
#
#
# Indices 1 2 3 4 5 6 
#
# 1 123.7948 62.6967 60.5362 0.0000 0.0000 0.0000
# 2 62.6967 84.4588 46.2280 0.0000 0.0000 0.0000
# 3 60.5362 46.2280 100.4487 0.0000 0.0000 0.0000
# 4 0.0000 0.0000 0.0000 36.8142 0.0000 0.0000
# 5 0.0000 0.0000 0.0000 0.0000 12.1158 0.0000
# 6 0.0000 0.0000 0.0000 0.0000 0.0000 19.7018
#
#
#
# Elastic Compliance Matrix: (Units=1/GPa)
#
#
# Indices 1 2 3 4 5 6 
#
# 1 0.014683 -0.008096 -0.005123 0.000000 0.000000 0.000000
# 2 -0.008096 0.020290 -0.004459 0.000000 0.000000 0.000000
# 3 -0.005123 -0.004459 0.015095 0.000000 0.000000 0.000000
# 4 0.000000 0.000000 0.000000 0.027163 0.000000 0.000000
# 5 0.000000 0.000000 0.000000 0.000000 0.082537 0.000000
# 6 0.000000 0.000000 0.000000 0.000000 0.000000 0.050757
#
#
# Mechanical properties :
#
#
# Convention : Reuss Voigt Hill
#
# Bulk Modulus (GPa) = 67.96812 71.95823 69.96317
# Shear Modulus (GPa) = 19.93731 23.00912 21.47322
#
# Velocity S-wave (km/s) = 3.25285 3.49446 3.37582
# Velocity P-wave (km/s) = 7.08376 7.38044 7.23362
#
# Compressibility (1/GPa) = 0.01471278
#
# Stress axis : x y z
#
# Youngs Moduli (GPa) = 68.10450 49.28421 66.24722
#
# Poissons Ratio (x) = 0.39899 0.33940
# Poissons Ratio (y) = 0.55136 0.29540
# Poissons Ratio (z) = 0.34891 0.21976
#
# Static dielectric constant tensor:
#      x y z
#    x 3.239620 0.000000 0.000000 
#    y 0.000000 3.392480 0.000000 
#    z 0.000000 0.000000 3.359280 
# 
# 
# High freq. dielectric constant tensor:
#      x y z
#    x 1.747990 0.000000 0.000000 
#    y 0.000000 1.730470 0.000000 
#    z 0.000000 0.000000 1.728610 
# 
# From -- ./inp_files/29504.got.cif
#   From: 2010.03.12/outbox.cif.g09.slc.cpg/sg51_15_cif.got.tgz:29504.got - 2010.04.16 13:43:02.
