data_PCOD8212291
_publ_section_title
;
Structure prediction by ZEFSAII (Michael W. Deem and Ramdas Pophale) SiO2 
 PCOD8212291
Probable space group: P M M A
;
_chemical_formula_sum "Si O2"
_cell_formula_units_Z 64
_cell_length_a 8.725904
_cell_length_b 14.306451
_cell_length_c 25.124944
_cell_angle_alpha 90.000000
_cell_angle_beta 90.000000
_cell_angle_gamma 90.000000
_cell_volume 3136.515549
_symmetry_space_group_name_H-M "P M M A"
_symmetry_group_IT_number 51
_symmetry_cell_setting 'orthorhombic'
loop_
_space_group_symop_operation_xyz
x,y,z
1/2-x,-y,z
1/2+x,-y,-z
-x,y,-z
-x,-y,-z
1/2+x,y,-z
1/2-x,y,z
x,-y,z
loop_
_atom_site_type_symbol
_atom_site_label
_atom_site_fract_x
_atom_site_fract_y
_atom_site_fract_z
Si Si1 0.929234 0.233319 0.363960
Si Si2 0.922987 0.110485 0.553542
Si Si3 0.427875 0.394624 0.081300
Si Si4 0.569458 0.605909 0.443801
Si Si5 0.569949 0.106646 0.845334
Si Si6 0.429116 0.791413 0.946746
Si Si7 0.422306 0.604465 0.808372
Si Si8 0.928838 0.237653 0.748360
O O1 0.750000 0.237714 0.350202
O O2 0.984465 0.326683 0.395564
O O3 0.967629 0.143796 0.399309
O O4 0.026645 0.212841 0.311285
O O5 0.750000 0.150439 0.558523
O O6 0.000000 0.149029 0.500000
O O7 0.919895 0.000000 0.554459
O O8 0.250000 0.373832 0.070633
O O9 0.473168 0.500000 0.062859
O O10 0.529983 0.318994 0.050670
O O11 0.458964 0.382873 0.143764
O O12 0.500000 0.639528 0.500000
O O13 0.750000 0.612101 0.450012
O O14 0.515794 0.500000 0.430437
O O15 0.750000 0.110387 0.855113
O O16 0.492615 0.161119 0.893793
O O17 0.525437 0.154970 0.789405
O O18 0.510432 0.000000 0.843539
O O19 0.250000 0.806159 0.948310
O O20 0.500000 0.838552 0.000000
O O21 0.250000 0.629498 0.827985
O O22 0.427198 0.500000 0.785449
O O23 0.473543 0.670336 0.760846
O O24 0.750000 0.259506 0.752550
#
# Coordination Sequence:
#
# PCOD8212291 Si02
#       8
#     8   8   8   8   8   8   8   8
#     4  11  23  37  57  86 121 158 199 248 300 358
#     4  10  21  38  60  85 115 151 192 241 300 362
#     4  10  20  36  60  90 125 163 201 242 291 349
#     4   9  19  36  57  82 115 157 202 248 299 353
#     4  10  23  45  69  90 117 155 200 252 311 371
#     4  12  25  41  65  94 127 162 201 250 303 361
#     4  10  20  35  58  87 119 157 198 241 291 347
#     4  11  23  39  61  88 121 160 201 249 304 360
#
# _framework density 20.404807999999999
#
# number of rings (size 3 to 8) (size 9 to 14) (size 15 to 20)
#    0.000    1.625    1.250    3.375    0.000    6.500 
#    0.000    2.500    0.000    0.000    0.000    0.000 
#    0.000    0.000    0.000    0.000    0.000    0.000 
#
# Total GULP energy -793672.288709 kJ/mol
# GULP energy per Si atom -12401.129511 kJ/mol
# Density = 2.035837 g / cm^3
# Si number density = 20.404808 Si / 1000 Ang^3
#
#
#
# Elastic Constant Matrix: (Units=GPa)
#
#
# Indices 1 2 3 4 5 6 
#
# 1 66.8265 42.2124 36.6033 0.0000 0.0000 0.0000
# 2 42.2124 89.3728 51.8486 0.0000 0.0000 0.0000
# 3 36.6033 51.8486 136.4464 0.0000 0.0000 0.0000
# 4 0.0000 0.0000 0.0000 7.2456 0.0000 0.0000
# 5 0.0000 0.0000 0.0000 0.0000 36.9971 0.0000
# 6 0.0000 0.0000 0.0000 0.0000 0.0000 28.4739
#
#
#
# Elastic Compliance Matrix: (Units=1/GPa)
#
#
# Indices 1 2 3 4 5 6 
#
# 1 0.021974 -0.008927 -0.002503 0.000000 0.000000 0.000000
# 2 -0.008927 0.017980 -0.004437 0.000000 0.000000 0.000000
# 3 -0.002503 -0.004437 0.009686 0.000000 0.000000 0.000000
# 4 0.000000 0.000000 0.000000 0.138014 0.000000 0.000000
# 5 0.000000 0.000000 0.000000 0.000000 0.027029 0.000000
# 6 0.000000 0.000000 0.000000 0.000000 0.000000 0.035120
#
#
# Mechanical properties :
#
#
# Convention : Reuss Voigt Hill
#
# Bulk Modulus (GPa) = 55.84644 61.55270 58.69957
# Shear Modulus (GPa) = 17.39100 25.34209 21.36654
#
# Velocity S-wave (km/s) = 2.92258 3.52798 3.23945
# Velocity P-wave (km/s) = 6.23036 6.84301 6.54386
#
# Compressibility (1/GPa) = 0.01790624
#
# Stress axis : x y z
#
# Youngs Moduli (GPa) = 45.50909 55.61834 103.23714
#
# Poissons Ratio (x) = 0.49649 0.25836
# Poissons Ratio (y) = 0.40625 0.45811
# Poissons Ratio (z) = 0.11389 0.24680
#
# Static dielectric constant tensor:
#      x y z
#    x 3.739600 0.000000 0.000000 
#    y 0.000000 3.841780 0.000000 
#    z 0.000000 0.000000 3.650410 
# 
# 
# High freq. dielectric constant tensor:
#      x y z
#    x 1.801440 0.000000 0.000000 
#    y 0.000000 1.798000 0.000000 
#    z 0.000000 0.000000 1.796160 
# 
# From -- ./inp_files/34868.got.cif
#   From: 2010.03.12/outbox.cif.g09.slc.cpg/sg51_18_cif.got.tgz:34868.got - 2010.04.16 13:43:02.
