data_PCOD8212918
_publ_section_title
;
Structure prediction by ZEFSAII (Michael W. Deem and Ramdas Pophale) SiO2 
 PCOD8212918
Probable space group: P M M A
;
_chemical_formula_sum "Si O2"
_cell_formula_units_Z 48
_cell_length_a 15.462353
_cell_length_b 9.205672
_cell_length_c 17.040057
_cell_angle_alpha 90.000000
_cell_angle_beta 90.000000
_cell_angle_gamma 90.000000
_cell_volume 2425.504719
_symmetry_space_group_name_H-M "P M M A"
_symmetry_group_IT_number 51
_symmetry_cell_setting 'orthorhombic'
loop_
_space_group_symop_operation_xyz
x,y,z
1/2-x,-y,z
1/2+x,-y,-z
-x,y,-z
-x,-y,-z
1/2+x,y,-z
1/2-x,y,z
x,-y,z
loop_
_atom_site_type_symbol
_atom_site_label
_atom_site_fract_x
_atom_site_fract_y
_atom_site_fract_z
Si Si1 0.653922 0.831791 0.649895
Si Si2 0.149097 0.830846 0.173577
Si Si3 0.597936 0.655425 0.507224
Si Si4 0.496086 0.332831 0.907389
Si Si5 0.148192 0.171321 0.811957
Si Si6 0.350327 0.337808 0.659333
O O1 0.750000 0.769118 0.643997
O O2 0.618715 0.801612 0.737017
O O3 0.599942 0.755030 0.583176
O O4 0.652305 0.000000 0.631004
O O5 0.250000 0.787419 0.161176
O O6 0.086818 0.733664 0.121186
O O7 0.136975 0.000000 0.152332
O O8 0.500000 0.616611 0.500000
O O9 0.647627 0.500000 0.518542
O O10 0.632176 0.731410 0.426934
O O11 0.488970 0.500000 0.879729
O O12 0.411319 0.246392 0.877788
O O13 0.500000 0.320464 0.000000
O O14 0.250000 0.204928 0.828230
O O15 0.114849 0.232344 0.727829
O O16 0.130982 0.000000 0.812868
O O17 0.250000 0.352761 0.673577
O O18 0.392844 0.500000 0.664868
#
# Coordination Sequence:
#
# PCOD8212918 Si02
#       6
#     8   8   8   8   8   8
#     4   9  19  36  56  79 109 146 188 234 283 333
#     4   9  20  40  64  90 121 156 195 242 294 347
#     4  10  21  33  48  78 116 151 190 234 279 331
#     4  11  25  42  62  90 122 155 191 236 292 354
#     4  10  22  40  63  90 118 153 198 244 293 350
#     4   9  18  34  54  76 109 153 194 236 287 337
#
# _framework density 19.789695999999999
#
# number of rings (size 3 to 8) (size 9 to 14) (size 15 to 20)
#    0.000    2.333    0.000    2.500    2.333    6.000 
#    0.000    6.667    0.000    0.000    0.000    0.000 
#    0.000    0.000    0.000    0.000    0.000    0.000 
#
# Total GULP energy -594840.348272 kJ/mol
# GULP energy per Si atom -12392.507256 kJ/mol
# Density = 1.974465 g / cm^3
# Si number density = 19.789696 Si / 1000 Ang^3
#
#
#
# Elastic Constant Matrix: (Units=GPa)
#
#
# Indices 1 2 3 4 5 6 
#
# 1 80.5685 53.4758 44.3147 0.0000 0.0000 0.0000
# 2 53.4758 103.5304 66.1159 0.0000 0.0000 0.0000
# 3 44.3147 66.1159 111.9486 0.0000 0.0000 0.0000
# 4 0.0000 0.0000 0.0000 36.9035 0.0000 0.0000
# 5 0.0000 0.0000 0.0000 0.0000 31.5848 0.0000
# 6 0.0000 0.0000 0.0000 0.0000 0.0000 32.9419
#
#
#
# Elastic Compliance Matrix: (Units=1/GPa)
#
#
# Indices 1 2 3 4 5 6 
#
# 1 0.019431 -0.008227 -0.002832 0.000000 0.000000 0.000000
# 2 -0.008227 0.018992 -0.007960 0.000000 0.000000 0.000000
# 3 -0.002832 -0.007960 0.014755 0.000000 0.000000 0.000000
# 4 0.000000 0.000000 0.000000 0.027098 0.000000 0.000000
# 5 0.000000 0.000000 0.000000 0.000000 0.031661 0.000000
# 6 0.000000 0.000000 0.000000 0.000000 0.000000 0.030356
#
#
# Mechanical properties :
#
#
# Convention : Reuss Voigt Hill
#
# Bulk Modulus (GPa) = 66.05860 69.31780 67.68820
# Shear Modulus (GPa) = 26.97207 29.09545 28.03376
#
# Velocity S-wave (km/s) = 3.69580 3.83852 3.76784
# Velocity P-wave (km/s) = 7.18782 7.39925 7.29430
#
# Compressibility (1/GPa) = 0.01513807
#
# Stress axis : x y z
#
# Youngs Moduli (GPa) = 51.46536 52.65450 67.77486
#
# Poissons Ratio (x) = 0.43321 0.19197
# Poissons Ratio (y) = 0.42343 0.53946
# Poissons Ratio (z) = 0.14577 0.41911
#
# Static dielectric constant tensor:
#      x y z
#    x 3.526030 0.000000 0.000000 
#    y 0.000000 3.665340 0.000000 
#    z 0.000000 0.000000 3.761590 
# 
# 
# High freq. dielectric constant tensor:
#      x y z
#    x 1.770160 0.000000 0.000000 
#    y 0.000000 1.767130 0.000000 
#    z 0.000000 0.000000 1.773420 
# 
# From -- ./inp_files/29440.got.cif
#   From: 2010.03.12/outbox.cif.g09.slc.cpg/sg51_15_cif.got.tgz:29440.got - 2010.04.16 13:43:02.
