data_PCOD8212038
_publ_section_title
;
Structure prediction by ZEFSAII (Michael W. Deem and Ramdas Pophale) SiO2 
 PCOD8212038
Probable space group: P M M A
;
_chemical_formula_sum "Si O2"
_cell_formula_units_Z 48
_cell_length_a 15.447120
_cell_length_b 9.056134
_cell_length_c 17.715041
_cell_angle_alpha 90.000000
_cell_angle_beta 90.000000
_cell_angle_gamma 90.000000
_cell_volume 2478.178142
_symmetry_space_group_name_H-M "P M M A"
_symmetry_group_IT_number 51
_symmetry_cell_setting 'orthorhombic'
loop_
_space_group_symop_operation_xyz
x,y,z
1/2-x,-y,z
1/2+x,-y,-z
-x,y,-z
-x,-y,-z
1/2+x,y,-z
1/2-x,y,z
x,-y,z
loop_
_atom_site_type_symbol
_atom_site_label
_atom_site_fract_x
_atom_site_fract_y
_atom_site_fract_z
Si Si1 0.750000 0.824429 0.202043
Si Si2 0.907966 0.829861 0.466850
Si Si3 0.250000 0.324831 0.284760
Si Si4 0.918706 0.171336 0.290017
Si Si5 0.250000 0.325020 0.455007
Si Si6 0.250000 0.175423 0.968027
Si Si7 0.080749 0.169173 0.054571
Si Si8 0.574056 0.324920 0.789517
O O1 0.664889 0.767547 0.245402
O O2 0.750000 0.759940 0.116975
O O3 0.750000 0.000000 0.202179
O O4 0.903938 0.803353 0.377985
O O5 0.835400 0.730385 0.504041
O O6 0.000000 0.779368 0.500000
O O7 0.889585 0.000000 0.487025
O O8 0.250000 0.500000 0.286262
O O9 0.250000 0.263020 0.369746
O O10 0.334115 0.265508 0.240995
O O11 0.001019 0.264845 0.265763
O O12 0.935603 0.000000 0.271049
O O13 0.250000 0.500000 0.456600
O O14 0.250000 0.000000 0.962405
O O15 0.165435 0.232098 0.012207
O O16 0.059714 0.266879 0.126609
O O17 0.095139 0.000000 0.079612
O O18 0.000000 0.183398 0.000000
O O19 0.569773 0.500000 0.789891
#
# Coordination Sequence:
#
# PCOD8212038 Si02
#       8
#     4   8   4   8   4   4   8   8
#     4   9  17  32  55  79 104 137 176 218 268 325
#     4  10  21  37  57  83 115 149 188 236 286 335
#     4   9  21  39  55  77 112 153 188 223 276 330
#     4  10  20  36  58  82 110 145 182 223 276 332
#     4  11  22  37  59  83 112 151 192 233 280 340
#     4   9  17  30  51  77 100 129 174 222 262 313
#     4  10  20  35  55  78 106 139 178 224 273 329
#     4  11  22  37  57  80 110 145 184 229 273 324
#
# _framework density 19.369067999999999
#
# number of rings (size 3 to 8) (size 9 to 14) (size 15 to 20)
#    0.000    2.000    0.000    3.750    0.000    5.333 
#    0.000    4.167    0.000    1.000    0.000    0.000 
#    0.000    0.000    0.000    0.000    0.000    0.000 
#
# Total GULP energy -595398.768200 kJ/mol
# GULP energy per Si atom -12404.141004 kJ/mol
# Density = 1.932498 g / cm^3
# Si number density = 19.369068 Si / 1000 Ang^3
#
#
#
# Elastic Constant Matrix: (Units=GPa)
#
#
# Indices 1 2 3 4 5 6 
#
# 1 126.4456 42.2035 29.1286 0.0000 0.0000 0.0000
# 2 42.2035 60.1686 38.6965 0.0000 0.0000 0.0000
# 3 29.1286 38.6965 92.3968 0.0000 0.0000 0.0000
# 4 0.0000 0.0000 0.0000 21.8238 0.0000 0.0000
# 5 0.0000 0.0000 0.0000 0.0000 35.3771 0.0000
# 6 0.0000 0.0000 0.0000 0.0000 0.0000 30.0146
#
#
#
# Elastic Compliance Matrix: (Units=1/GPa)
#
#
# Indices 1 2 3 4 5 6 
#
# 1 0.010332 -0.007052 -0.000304 0.000000 0.000000 0.000000
# 2 -0.007052 0.027560 -0.009319 0.000000 0.000000 0.000000
# 3 -0.000304 -0.009319 0.014822 0.000000 0.000000 0.000000
# 4 0.000000 0.000000 0.000000 0.045822 0.000000 0.000000
# 5 0.000000 0.000000 0.000000 0.000000 0.028267 0.000000
# 6 0.000000 0.000000 0.000000 0.000000 0.000000 0.033317
#
#
# Mechanical properties :
#
#
# Convention : Reuss Voigt Hill
#
# Bulk Modulus (GPa) = 51.64255 55.45202 53.54728
# Shear Modulus (GPa) = 25.00960 28.70859 26.85910
#
# Velocity S-wave (km/s) = 3.59724 3.85410 3.72788
# Velocity P-wave (km/s) = 6.63128 6.96396 6.79965
#
# Compressibility (1/GPa) = 0.01936388
#
# Stress axis : x y z
#
# Youngs Moduli (GPa) = 96.78482 36.28497 67.46897
#
# Poissons Ratio (x) = 0.25587 0.02051
# Poissons Ratio (y) = 0.68250 0.62875
# Poissons Ratio (z) = 0.02942 0.33814
#
# Static dielectric constant tensor:
#      x y z
#    x 3.742680 0.000000 0.000000 
#    y 0.000000 3.256050 0.000000 
#    z 0.000000 0.000000 3.681080 
# 
# 
# High freq. dielectric constant tensor:
#      x y z
#    x 1.773680 0.000000 0.000000 
#    y 0.000000 1.721280 0.000000 
#    z 0.000000 0.000000 1.771340 
# 
# From -- ./inp_files/29687.got.cif
#   From: 2010.03.12/outbox.cif.g09.slc.cpg/sg51_15_cif.got.tgz:29687.got - 2010.04.16 13:43:02.
