data_PCOD8212465
_publ_section_title
;
Structure prediction by ZEFSAII (Michael W. Deem and Ramdas Pophale) SiO2 
 PCOD8212465
Probable space group: P M M A
;
_chemical_formula_sum "Si O2"
_cell_formula_units_Z 64
_cell_length_a 8.908228
_cell_length_b 20.245042
_cell_length_c 19.982075
_cell_angle_alpha 90.000000
_cell_angle_beta 90.000000
_cell_angle_gamma 90.000000
_cell_volume 3603.716272
_symmetry_space_group_name_H-M "P M M A"
_symmetry_group_IT_number 51
_symmetry_cell_setting 'orthorhombic'
loop_
_space_group_symop_operation_xyz
x,y,z
1/2-x,-y,z
1/2+x,-y,-z
-x,y,-z
-x,-y,-z
1/2+x,y,-z
1/2-x,y,z
x,-y,z
loop_
_atom_site_type_symbol
_atom_site_label
_atom_site_fract_x
_atom_site_fract_y
_atom_site_fract_z
Si Si1 0.075556 0.576602 0.069765
Si Si2 0.924306 0.074434 0.149580
Si Si3 0.083650 0.728174 0.564023
Si Si4 0.928866 0.192175 0.927245
Si Si5 0.071826 0.119893 0.708582
Si Si6 0.427782 0.313205 0.848433
Si Si7 0.416591 0.886093 0.564463
Si Si8 0.927408 0.266276 0.292793
O O1 0.250000 0.595782 0.066232
O O2 0.052065 0.500000 0.086641
O O3 0.991586 0.617376 0.126721
O O4 0.000000 0.595948 0.000000
O O5 0.750000 0.096174 0.143183
O O6 0.975027 0.075921 0.227696
O O7 0.025505 0.122630 0.105547
O O8 0.948057 0.000000 0.123138
O O9 0.250000 0.699476 0.558694
O O10 0.082855 0.807122 0.561897
O O11 0.009512 0.706318 0.635729
O O12 0.000000 0.697697 0.500000
O O13 0.750000 0.196675 0.932257
O O14 0.991009 0.252541 0.884092
O O15 0.000000 0.197133 0.000000
O O16 0.250000 0.122395 0.701009
O O17 0.010276 0.092445 0.636639
O O18 0.007564 0.193330 0.722385
O O19 0.250000 0.307677 0.861014
O O20 0.468165 0.312881 0.769507
O O21 0.500000 0.916268 0.500000
O O22 0.250000 0.914684 0.559446
O O23 0.750000 0.259803 0.301815
#
# Coordination Sequence:
#
# PCOD8212465 Si02
#       8
#     8   8   8   8   8   8   8   8
#     4  10  21  37  55  77 108 143 177 211 248 295
#     4  10  20  36  58  78  95 122 164 211 258 309
#     4   8  13  22  36  58  88 125 161 195 237 287
#     4  12  25  40  57  77 102 130 162 203 253 308
#     4   8  13  26  46  67  92 122 158 198 246 299
#     4  11  20  34  57  81 107 137 172 212 250 296
#     4   8  13  21  37  59  86 119 154 193 234 285
#     4   8  14  25  45  68  95 129 163 200 247 296
#
# _framework density 17.759444999999999
#
# number of rings (size 3 to 8) (size 9 to 14) (size 15 to 20)
#    0.000    2.625    1.250    3.750    0.000    1.250 
#    0.000    1.875    0.000    0.375    0.000    0.000 
#    0.000    0.500    0.000    1.125    0.000    2.000 
#
# Total GULP energy -793020.723556 kJ/mol
# GULP energy per Si atom -12390.948806 kJ/mol
# Density = 1.771902 g / cm^3
# Si number density = 17.759445 Si / 1000 Ang^3
#
#
#
# Elastic Constant Matrix: (Units=GPa)
#
#
# Indices 1 2 3 4 5 6 
#
# 1 84.6758 29.0915 53.2983 0.0000 0.0000 0.0000
# 2 29.0915 56.5650 42.3599 0.0000 0.0000 0.0000
# 3 53.2983 42.3599 150.4918 0.0000 0.0000 0.0000
# 4 0.0000 0.0000 0.0000 20.7650 0.0000 0.0000
# 5 0.0000 0.0000 0.0000 0.0000 27.7345 0.0000
# 6 0.0000 0.0000 0.0000 0.0000 0.0000 -40.7420
#
#
#
# Elastic Compliance Matrix: (Units=1/GPa)
#
#
# Indices 1 2 3 4 5 6 
#
# 1 0.016299 -0.005144 -0.004325 0.000000 0.000000 0.000000
# 2 -0.005144 0.024024 -0.004940 0.000000 0.000000 0.000000
# 3 -0.004325 -0.004940 0.009567 0.000000 0.000000 0.000000
# 4 0.000000 0.000000 0.000000 0.048158 0.000000 0.000000
# 5 0.000000 0.000000 0.000000 0.000000 0.036056 0.000000
# 6 0.000000 0.000000 0.000000 0.000000 0.000000 -0.024545
#
#
# Mechanical properties :
#
#
# Convention : Reuss Voigt Hill
#
# Bulk Modulus (GPa) = 47.45594 60.13692 53.79643
# Shear Modulus (GPa) = 34.38742 12.68369 23.53555
#
# Velocity S-wave (km/s) = 4.40510 2.67534 3.64434
# Velocity P-wave (km/s) = 7.25622 6.59384 6.93295
#
# Compressibility (1/GPa) = 0.02107218
#
# Stress axis : x y z
#
# Youngs Moduli (GPa) = 61.35293 41.62475 104.52522
#
# Poissons Ratio (x) = 0.21412 0.45203
# Poissons Ratio (y) = 0.31561 0.51639
# Poissons Ratio (z) = 0.26532 0.20564
#
# Static dielectric constant tensor:
#      x y z
#    x 3.175530 0.000000 0.000000 
#    y 0.000000 2.908490 0.000000 
#    z 0.000000 0.000000 3.811550 
# 
# 
# High freq. dielectric constant tensor:
#      x y z
#    x 1.662570 0.000000 0.000000 
#    y 0.000000 1.639700 0.000000 
#    z 0.000000 0.000000 1.707860 
# 
# From -- ./inp_files/32639.got.cif
#   From: 2010.03.12/outbox.cif.g09.slc.cpg/sg51_17_cif.got.tgz:32639.got - 2010.04.16 13:43:02.
