data_PCOD8212602
_publ_section_title
;
Structure prediction by ZEFSAII (Michael W. Deem and Ramdas Pophale) SiO2 
 PCOD8212602
Probable space group: P M M A
;
_chemical_formula_sum "Si O2"
_cell_formula_units_Z 48
_cell_length_a 8.681919
_cell_length_b 9.814363
_cell_length_c 29.157079
_cell_angle_alpha 90.000000
_cell_angle_beta 90.000000
_cell_angle_gamma 90.000000
_cell_volume 2484.401943
_symmetry_space_group_name_H-M "P M M A"
_symmetry_group_IT_number 51
_symmetry_cell_setting 'orthorhombic'
loop_
_space_group_symop_operation_xyz
x,y,z
1/2-x,-y,z
1/2+x,-y,-z
-x,y,-z
-x,-y,-z
1/2+x,y,-z
1/2-x,y,z
x,-y,z
loop_
_atom_site_type_symbol
_atom_site_label
_atom_site_fract_x
_atom_site_fract_y
_atom_site_fract_z
Si Si1 0.928844 0.341701 0.193130
Si Si2 0.931792 0.249991 0.896558
Si Si3 0.431793 0.842245 0.373670
Si Si4 0.567880 0.000000 0.050605
Si Si5 0.568342 0.653779 0.450794
Si Si6 0.569984 0.344000 0.710853
Si Si7 0.567566 0.500000 0.050298
O O1 0.750000 0.309807 0.185912
O O2 0.966523 0.500000 0.184911
O O3 0.027646 0.253292 0.157348
O O4 0.977411 0.299155 0.244137
O O5 0.750000 0.247778 0.903547
O O6 0.008283 0.374269 0.921683
O O7 0.009271 0.124378 0.920379
O O8 0.250000 0.833741 0.379966
O O9 0.508795 0.768105 0.416392
O O10 0.483893 0.760013 0.328469
O O11 0.486369 0.000000 0.370456
O O12 0.750000 0.000000 0.046354
O O13 0.500000 0.000000 0.000000
O O14 0.500000 0.690036 0.500000
O O15 0.750000 0.663513 0.453836
O O16 0.517445 0.500000 0.435842
O O17 0.750000 0.329911 0.721353
O O18 0.529559 0.500000 0.696540
O O19 0.750000 0.500000 0.047444
O O20 0.500000 0.500000 0.000000
#
# Coordination Sequence:
#
# PCOD8212602 Si02
#       7
#     8   8   8   4   8   8   4
#     4  10  20  36  60  89 120 153 195 247 301 353
#     4  12  24  41  64  91 121 158 201 246 297 357
#     4  10  21  37  57  84 119 158 198 243 295 353
#     4  12  26  46  66  88 122 160 200 244 295 358
#     4  10  21  37  59  86 115 151 197 247 297 353
#     4   9  18  34  57  82 111 151 197 243 293 349
#     4  12  24  40  62  92 124 158 198 246 299 352
#
# _framework density 19.320546
#
# number of rings (size 3 to 8) (size 9 to 14) (size 15 to 20)
#    0.000    1.500    0.833    5.000    0.000    3.667 
#    1.500    1.667    0.000    0.000    0.000    0.000 
#    0.000    0.000    0.000    0.000    0.000    0.000 
#
# Total GULP energy -595278.338882 kJ/mol
# GULP energy per Si atom -12401.632060 kJ/mol
# Density = 1.927657 g / cm^3
# Si number density = 19.320546 Si / 1000 Ang^3
#
#
#
# Elastic Constant Matrix: (Units=GPa)
#
#
# Indices 1 2 3 4 5 6 
#
# 1 112.6601 55.1054 61.0871 0.0000 0.0000 0.0000
# 2 55.1054 148.9622 88.9136 0.0000 0.0000 0.0000
# 3 61.0871 88.9136 154.4526 0.0000 0.0000 0.0000
# 4 0.0000 0.0000 0.0000 33.1196 0.0000 0.0000
# 5 0.0000 0.0000 0.0000 0.0000 39.0312 0.0000
# 6 0.0000 0.0000 0.0000 0.0000 0.0000 29.4808
#
#
#
# Elastic Compliance Matrix: (Units=1/GPa)
#
#
# Indices 1 2 3 4 5 6 
#
# 1 0.011844 -0.002415 -0.003294 0.000000 0.000000 0.000000
# 2 -0.002415 0.010720 -0.005216 0.000000 0.000000 0.000000
# 3 -0.003294 -0.005216 0.010780 0.000000 0.000000 0.000000
# 4 0.000000 0.000000 0.000000 0.030194 0.000000 0.000000
# 5 0.000000 0.000000 0.000000 0.000000 0.025621 0.000000
# 6 0.000000 0.000000 0.000000 0.000000 0.000000 0.033920
#
#
# Mechanical properties :
#
#
# Convention : Reuss Voigt Hill
#
# Bulk Modulus (GPa) = 87.00631 91.80969 89.40800
# Shear Modulus (GPa) = 33.61144 34.39090 34.00117
#
# Velocity S-wave (km/s) = 4.17546 4.22360 4.19960
# Velocity P-wave (km/s) = 8.26903 8.45029 8.36015
#
# Compressibility (1/GPa) = 0.01149342
#
# Stress axis : x y z
#
# Youngs Moduli (GPa) = 84.43350 93.28496 92.76587
#
# Poissons Ratio (x) = 0.22531 0.30556
# Poissons Ratio (y) = 0.20393 0.48385
# Poissons Ratio (z) = 0.27811 0.48656
#
# Static dielectric constant tensor:
#      x y z
#    x 3.632900 0.000000 0.000000 
#    y 0.000000 3.636840 0.000000 
#    z 0.000000 0.000000 3.743250 
# 
# 
# High freq. dielectric constant tensor:
#      x y z
#    x 1.760240 0.000000 0.000000 
#    y 0.000000 1.748830 0.000000 
#    z 0.000000 0.000000 1.766400 
# 
# From -- ./inp_files/37208.got.cif
#   From: 2010.03.12/outbox.cif.g09.slc.cpg/sg51_19_cif.got.tgz:37208.got - 2010.04.16 13:43:02.
