data_PCOD8212414
_publ_section_title
;
Structure prediction by ZEFSAII (Michael W. Deem and Ramdas Pophale) SiO2 
 PCOD8212414
Probable space group: P M M A
;
_chemical_formula_sum "Si O2"
_cell_formula_units_Z 48
_cell_length_a 8.892482
_cell_length_b 29.852655
_cell_length_c 9.484490
_cell_angle_alpha 90.000000
_cell_angle_beta 90.000000
_cell_angle_gamma 90.000000
_cell_volume 2517.792524
_symmetry_space_group_name_H-M "P M M A"
_symmetry_group_IT_number 51
_symmetry_cell_setting 'orthorhombic'
loop_
_space_group_symop_operation_xyz
x,y,z
1/2-x,-y,z
1/2+x,-y,-z
-x,y,-z
-x,-y,-z
1/2+x,y,-z
1/2-x,y,z
x,-y,z
loop_
_atom_site_type_symbol
_atom_site_label
_atom_site_fract_x
_atom_site_fract_y
_atom_site_fract_z
Si Si1 0.425931 0.381077 0.150555
Si Si2 0.425778 0.124289 0.855440
Si Si3 0.074224 0.950489 0.648818
Si Si4 0.427244 0.773507 0.850611
Si Si5 0.423673 0.552681 0.644899
Si Si6 0.073574 0.703009 0.348714
O O1 0.250000 0.389240 0.128944
O O2 0.497616 0.424962 0.220916
O O3 0.460274 0.339458 0.251287
O O4 0.500000 0.371597 0.000000
O O5 0.250000 0.117911 0.873100
O O6 0.493205 0.088984 0.744685
O O7 0.465169 0.175121 0.812663
O O8 0.500000 0.110773 0.000000
O O9 0.250000 0.943805 0.628820
O O10 0.000000 0.944520 0.500000
O O11 0.038335 0.000000 0.712046
O O12 0.250000 0.764320 0.860895
O O13 0.498598 0.745864 0.723556
O O14 0.500000 0.759586 0.000000
O O15 0.500000 0.569255 0.500000
O O16 0.250000 0.566823 0.638716
O O17 0.444597 0.500000 0.664403
O O18 0.250000 0.711641 0.367524
O O19 0.000000 0.694357 0.500000
#
# Coordination Sequence:
#
# PCOD8212414 Si02
#       6
#     8   8   8   8   8   8
#     4  11  24  40  60  85 114 149 187 229 276 326
#     4   9  19  34  52  77 106 137 174 216 263 316
#     4   9  18  33  51  72 101 136 174 217 264 314
#     4  10  20  36  57  80 109 143 179 221 270 324
#     4  10  21  38  61  88 118 152 189 230 276 326
#     4  11  24  40  59  84 112 144 183 226 273 325
#
# _framework density 19.064319999999999
#
# number of rings (size 3 to 8) (size 9 to 14) (size 15 to 20)
#    0.000    2.000    0.000    3.000    0.000    9.000 
#    0.000    1.667    0.000    0.000    0.000    0.000 
#    0.000    0.000    0.000    0.000    0.000    0.000 
#
# Total GULP energy -595320.998919 kJ/mol
# GULP energy per Si atom -12402.520811 kJ/mol
# Density = 1.902093 g / cm^3
# Si number density = 19.064320 Si / 1000 Ang^3
#
#
#
# Elastic Constant Matrix: (Units=GPa)
#
#
# Indices 1 2 3 4 5 6 
#
# 1 99.0066 57.6630 76.0727 0.0000 0.0000 0.0000
# 2 57.6630 92.5319 71.5133 0.0000 0.0000 0.0000
# 3 76.0727 71.5133 141.1945 0.0000 0.0000 0.0000
# 4 0.0000 0.0000 0.0000 40.7164 0.0000 0.0000
# 5 0.0000 0.0000 0.0000 0.0000 39.3802 0.0000
# 6 0.0000 0.0000 0.0000 0.0000 0.0000 26.3997
#
#
#
# Elastic Compliance Matrix: (Units=1/GPa)
#
#
# Indices 1 2 3 4 5 6 
#
# 1 0.019410 -0.006595 -0.007117 0.000000 0.000000 0.000000
# 2 -0.006595 0.019999 -0.006576 0.000000 0.000000 0.000000
# 3 -0.007117 -0.006576 0.014248 0.000000 0.000000 0.000000
# 4 0.000000 0.000000 0.000000 0.024560 0.000000 0.000000
# 5 0.000000 0.000000 0.000000 0.000000 0.025393 0.000000
# 6 0.000000 0.000000 0.000000 0.000000 0.000000 0.037879
#
#
# Mechanical properties :
#
#
# Convention : Reuss Voigt Hill
#
# Bulk Modulus (GPa) = 76.45232 82.58120 79.51676
# Shear Modulus (GPa) = 26.82007 29.79819 28.30913
#
# Velocity S-wave (km/s) = 3.75483 3.95781 3.85766
# Velocity P-wave (km/s) = 7.68034 8.01853 7.85126
#
# Compressibility (1/GPa) = 0.01308005
#
# Stress axis : x y z
#
# Youngs Moduli (GPa) = 51.51926 50.00180 70.18574
#
# Poissons Ratio (x) = 0.32977 0.49955
# Poissons Ratio (y) = 0.33977 0.46155
# Poissons Ratio (z) = 0.36669 0.32882
#
# Static dielectric constant tensor:
#      x y z
#    x 3.572170 0.000000 0.000000 
#    y 0.000000 3.704720 0.000000 
#    z 0.000000 0.000000 3.516410 
# 
# 
# High freq. dielectric constant tensor:
#      x y z
#    x 1.750130 0.000000 0.000000 
#    y 0.000000 1.751950 0.000000 
#    z 0.000000 0.000000 1.742030 
# 
# From -- ./inp_files/5940.got.cif
#   From: 2010.03.12/outbox.cif.g09.slc.cpg/sg51_3_cif.got.tgz:5940.got - 2010.04.16 13:43:02.
