data_PCOD8212574
_publ_section_title
;
Structure prediction by ZEFSAII (Michael W. Deem and Ramdas Pophale) SiO2 
 PCOD8212574
Probable space group: P M M A
;
_chemical_formula_sum "Si O2"
_cell_formula_units_Z 56
_cell_length_a 15.406491
_cell_length_b 7.916761
_cell_length_c 21.767062
_cell_angle_alpha 90.000000
_cell_angle_beta 90.000000
_cell_angle_gamma 90.000000
_cell_volume 2654.917823
_symmetry_space_group_name_H-M "P M M A"
_symmetry_group_IT_number 51
_symmetry_cell_setting 'orthorhombic'
loop_
_space_group_symop_operation_xyz
x,y,z
1/2-x,-y,z
1/2+x,-y,-z
-x,y,-z
-x,-y,-z
1/2+x,y,-z
1/2-x,y,z
x,-y,z
loop_
_atom_site_type_symbol
_atom_site_label
_atom_site_fract_x
_atom_site_fract_y
_atom_site_fract_z
Si Si1 0.652267 0.301795 0.852784
Si Si2 0.649575 0.000000 0.638804
Si Si3 0.346169 0.698700 0.716280
Si Si4 0.148116 0.687367 0.583969
Si Si5 0.505319 0.804681 0.067572
Si Si6 0.101165 0.000000 0.501225
Si Si7 0.147372 0.686655 0.286482
Si Si8 0.652206 0.196208 0.154979
O O1 0.750000 0.234615 0.865602
O O2 0.648522 0.500000 0.864124
O O3 0.586497 0.211750 0.898532
O O4 0.624677 0.259748 0.782944
O O5 0.607750 0.170736 0.667846
O O6 0.750000 0.000000 0.656951
O O7 0.639944 0.000000 0.566191
O O8 0.250000 0.778152 0.715666
O O9 0.343221 0.500000 0.723614
O O10 0.392462 0.742516 0.650629
O O11 0.390952 0.774564 0.777249
O O12 0.250000 0.670213 0.594537
O O13 0.112940 0.500000 0.563740
O O14 0.130635 0.828380 0.533578
O O15 0.585037 0.720600 0.106103
O O16 0.527170 0.000000 0.059755
O O17 0.500000 0.719131 0.000000
O O18 0.000000 0.000000 0.500000
O O19 0.250000 0.672636 0.294401
O O20 0.107395 0.500000 0.301830
O O21 0.750000 0.276818 0.149495
O O22 0.659183 0.000000 0.141972
#
# Coordination Sequence:
#
# PCOD8212574 Si02
#       8
#     8   4   8   8   8   4   8   8
#     4   9  19  37  59  83 111 145 189 240 292 343
#     4  10  20  36  60  84 105 144 200 240 279 345
#     4   8  15  30  54  83 107 132 180 239 288 335
#     4   9  19  38  63  85 108 147 199 247 288 341
#     4  10  22  37  53  81 117 154 195 234 278 342
#     4  12  26  40  52  82 126 162 191 230 288 357
#     4   8  16  33  57  85 113 139 182 246 300 341
#     4   9  18  33  53  79 112 149 187 236 291 341
#
# _framework density 21.092931
#
# number of rings (size 3 to 8) (size 9 to 14) (size 15 to 20)
#    0.000    2.857    0.000    2.357    2.000    2.571 
#    2.571    2.857    0.000    1.714    0.000    0.000 
#    0.000    0.000    0.000    0.000    0.000    0.000 
#
# Total GULP energy -693794.006262 kJ/mol
# GULP energy per Si atom -12389.178683 kJ/mol
# Density = 2.104492 g / cm^3
# Si number density = 21.092931 Si / 1000 Ang^3
#
#
#
# Elastic Constant Matrix: (Units=GPa)
#
#
# Indices 1 2 3 4 5 6 
#
# 1 62.9268 19.9800 46.8059 0.0000 0.0000 0.0000
# 2 19.9800 84.4136 70.2908 0.0000 0.0000 0.0000
# 3 46.8059 70.2908 184.8524 0.0000 0.0000 0.0000
# 4 0.0000 0.0000 0.0000 -13.2735 0.0000 0.0000
# 5 0.0000 0.0000 0.0000 0.0000 4.1473 0.0000
# 6 0.0000 0.0000 0.0000 0.0000 0.0000 9.9305
#
#
#
# Elastic Compliance Matrix: (Units=1/GPa)
#
#
# Indices 1 2 3 4 5 6 
#
# 1 0.019611 -0.000742 -0.004684 0.000000 0.000000 0.000000
# 2 -0.000742 0.017364 -0.006415 0.000000 0.000000 0.000000
# 3 -0.004684 -0.006415 0.009035 0.000000 0.000000 0.000000
# 4 0.000000 0.000000 0.000000 -0.075338 0.000000 0.000000
# 5 0.000000 0.000000 0.000000 0.000000 0.241120 0.000000
# 6 0.000000 0.000000 0.000000 0.000000 0.000000 0.100700
#
#
# Mechanical properties :
#
#
# Convention : Reuss Voigt Hill
#
# Bulk Modulus (GPa) = 44.78466 67.37179 56.07823
# Shear Modulus (GPa) = 14.55122 13.16859 13.85991
#
# Velocity S-wave (km/s) = 2.62937 2.50134 2.56615
# Velocity P-wave (km/s) = 5.52235 6.35233 5.95182
#
# Compressibility (1/GPa) = 0.02232908
#
# Stress axis : x y z
#
# Youngs Moduli (GPa) = 50.99265 57.59200 110.68254
#
# Poissons Ratio (x) = 0.04272 0.51838
# Poissons Ratio (y) = 0.03782 0.71000
# Poissons Ratio (z) = 0.23882 0.36944
#
# Static dielectric constant tensor:
#      x y z
#    x 3.696230 0.000000 0.000000 
#    y 0.000000 3.772220 0.000000 
#    z 0.000000 0.000000 4.001900 
# 
# 
# High freq. dielectric constant tensor:
#      x y z
#    x 1.796420 0.000000 0.000000 
#    y 0.000000 1.818180 0.000000 
#    z 0.000000 0.000000 1.828950 
# 
# From -- ./inp_files/33580.got.cif
#   From: 2010.03.12/outbox.cif.g09.slc.cpg/sg51_17_cif.got.tgz:33580.got - 2010.04.16 13:43:02.
