data_PCOD8212424
_publ_section_title
;
Structure prediction by ZEFSAII (Michael W. Deem and Ramdas Pophale) SiO2 
 PCOD8212424
Probable space group: P M M A
;
_chemical_formula_sum "Si O2"
_cell_formula_units_Z 64
_cell_length_a 26.081613
_cell_length_b 18.290671
_cell_length_c 7.009968
_cell_angle_alpha 90.000000
_cell_angle_beta 90.000000
_cell_angle_gamma 90.000000
_cell_volume 3344.106654
_symmetry_space_group_name_H-M "P M M A"
_symmetry_group_IT_number 51
_symmetry_cell_setting 'orthorhombic'
loop_
_space_group_symop_operation_xyz
x,y,z
1/2-x,-y,z
1/2+x,-y,-z
-x,y,-z
-x,-y,-z
1/2+x,y,-z
1/2-x,y,z
x,-y,z
loop_
_atom_site_type_symbol
_atom_site_label
_atom_site_fract_x
_atom_site_fract_y
_atom_site_fract_z
Si Si1 0.190627 0.416164 0.207155
Si Si2 0.444186 0.805417 0.455094
Si Si3 0.147684 0.304198 0.467131
Si Si4 0.192325 0.801975 0.192940
Si Si5 0.192062 0.082630 0.468379
Si Si6 0.553008 0.917898 0.886905
Si Si7 0.897240 0.082911 0.265786
Si Si8 0.309837 0.696495 0.880360
O O1 0.250000 0.408106 0.272298
O O2 0.175403 0.500000 0.176853
O O3 0.152145 0.384286 0.370280
O O4 0.181688 0.376014 0.005446
O O5 0.500000 0.772199 0.500000
O O6 0.406509 0.736255 0.431195
O O7 0.442149 0.854526 0.266521
O O8 0.432956 0.858533 0.631764
O O9 0.192178 0.258604 0.360986
O O10 0.156727 0.309738 0.691785
O O11 0.250000 0.823730 0.143177
O O12 0.165579 0.873146 0.290792
O O13 0.168343 0.767013 0.000614
O O14 0.250000 0.109631 0.508130
O O15 0.161226 0.095976 0.663920
O O16 0.190476 0.000000 0.400110
O O17 0.556824 0.000000 0.796380
O O18 0.500000 0.910365 0.000000
O O19 0.599390 0.906069 0.038629
O O20 0.914864 0.000000 0.319042
O O21 0.250000 0.706309 0.831396
#
# Coordination Sequence:
#
# PCOD8212424 Si02
#       8
#     8   8   8   8   8   8   8   8
#     4   9  19  37  62  94 125 149 182 226 271 330
#     4  12  24  38  55  82 115 150 193 249 300 345
#     4  11  21  35  56  82 117 155 184 221 283 344
#     4   9  17  32  52  78 109 144 187 234 278 328
#     4   9  17  32  53  76 107 149 194 238 285 342
#     4  10  21  38  61  83 107 143 195 257 315 358
#     4  10  20  36  57  81 108 147 195 247 305 352
#     4   9  18  33  56  85 116 149 187 224 270 334
#
# _framework density 19.138147
#
# number of rings (size 3 to 8) (size 9 to 14) (size 15 to 20)
#    0.000    2.125    2.500    2.250    0.000    3.000 
#    0.000    1.250    0.000    3.375    0.000    7.875 
#    0.000    0.000    0.000    0.000    0.000    0.000 
#
# Total GULP energy -793067.169062 kJ/mol
# GULP energy per Si atom -12391.674517 kJ/mol
# Density = 1.909459 g / cm^3
# Si number density = 19.138147 Si / 1000 Ang^3
#
#
#
# Elastic Constant Matrix: (Units=GPa)
#
#
# Indices 1 2 3 4 5 6 
#
# 1 72.6070 42.1133 40.2210 0.0000 0.0000 0.0000
# 2 42.1133 92.8392 48.5298 0.0000 0.0000 0.0000
# 3 40.2210 48.5298 122.7418 0.0000 0.0000 0.0000
# 4 0.0000 0.0000 0.0000 17.5571 0.0000 0.0000
# 5 0.0000 0.0000 0.0000 0.0000 23.3977 0.0000
# 6 0.0000 0.0000 0.0000 0.0000 0.0000 23.8502
#
#
#
# Elastic Compliance Matrix: (Units=1/GPa)
#
#
# Indices 1 2 3 4 5 6 
#
# 1 0.019960 -0.007103 -0.003732 0.000000 0.000000 0.000000
# 2 -0.007103 0.016105 -0.004040 0.000000 0.000000 0.000000
# 3 -0.003732 -0.004040 0.010968 0.000000 0.000000 0.000000
# 4 0.000000 0.000000 0.000000 0.056957 0.000000 0.000000
# 5 0.000000 0.000000 0.000000 0.000000 0.042739 0.000000
# 6 0.000000 0.000000 0.000000 0.000000 0.000000 0.041928
#
#
# Mechanical properties :
#
#
# Convention : Reuss Voigt Hill
#
# Bulk Modulus (GPa) = 57.86388 61.10180 59.48284
# Shear Modulus (GPa) = 22.30452 23.44927 22.87690
#
# Velocity S-wave (km/s) = 3.41757 3.50417 3.46114
# Velocity P-wave (km/s) = 6.77300 6.95473 6.86447
#
# Compressibility (1/GPa) = 0.01728194
#
# Stress axis : x y z
#
# Youngs Moduli (GPa) = 50.09937 62.09101 91.17799
#
# Poissons Ratio (x) = 0.44106 0.34030
# Poissons Ratio (y) = 0.35587 0.36837
# Poissons Ratio (z) = 0.18698 0.25085
#
# Static dielectric constant tensor:
#      x y z
#    x 3.480940 0.000000 0.000000 
#    y 0.000000 3.519280 0.000000 
#    z 0.000000 0.000000 3.527440 
# 
# 
# High freq. dielectric constant tensor:
#      x y z
#    x 1.722750 0.000000 0.000000 
#    y 0.000000 1.726150 0.000000 
#    z 0.000000 0.000000 1.747070 
# 
# From -- ./inp_files/4110.got.cif
#   From: 2010.03.12/outbox.cif.g09.slc.cpg/sg51_3_cif.got.tgz:4110.got - 2010.04.16 13:43:02.
