data_PCOD8212325
_publ_section_title
;
Structure prediction by ZEFSAII (Michael W. Deem and Ramdas Pophale) SiO2 
 PCOD8212325
Probable space group: P M M A
;
_chemical_formula_sum "Si O2"
_cell_formula_units_Z 40
_cell_length_a 15.578379
_cell_length_b 8.669482
_cell_length_c 14.353606
_cell_angle_alpha 90.000000
_cell_angle_beta 90.000000
_cell_angle_gamma 90.000000
_cell_volume 1938.547449
_symmetry_space_group_name_H-M "P M M A"
_symmetry_group_IT_number 51
_symmetry_cell_setting 'orthorhombic'
loop_
_space_group_symop_operation_xyz
x,y,z
1/2-x,-y,z
1/2+x,-y,-z
-x,y,-z
-x,-y,-z
1/2+x,y,-z
1/2-x,y,z
x,-y,z
loop_
_atom_site_type_symbol
_atom_site_label
_atom_site_fract_x
_atom_site_fract_y
_atom_site_fract_z
Si Si1 0.348699 0.319969 0.590694
Si Si2 0.649596 0.821330 0.601703
Si Si3 0.414353 0.318511 0.214666
Si Si4 0.910494 0.818881 0.223412
Si Si5 0.250000 0.681978 0.103369
Si Si6 0.250000 0.819015 0.901040
O O1 0.250000 0.276505 0.610869
O O2 0.360871 0.500000 0.572592
O O3 0.382614 0.229383 0.500176
O O4 0.404119 0.267644 0.678358
O O5 0.750000 0.785254 0.611527
O O6 0.599594 0.720518 0.677195
O O7 0.628351 0.000000 0.617702
O O8 0.426079 0.500000 0.201630
O O9 0.499731 0.232903 0.177257
O O10 0.334779 0.252544 0.154423
O O11 0.833876 0.767097 0.155738
O O12 0.907367 0.000000 0.241457
O O13 0.250000 0.500000 0.113056
O O14 0.250000 0.728899 0.996886
O O15 0.250000 0.000000 0.921516
#
# Coordination Sequence:
#
# PCOD8212325 Si02
#       6
#     8   8   8   8   4   4
#     4  10  20  35  59  90 124 165 206 249 299 357
#     4  10  20  35  59  90 124 165 206 249 299 357
#     4  11  23  41  63  92 125 161 204 252 303 361
#     4  11  23  41  63  92 125 161 204 252 303 361
#     4  10  24  44  67  90 121 158 199 252 310 366
#     4  10  24  44  67  90 121 158 199 252 310 366
#
# _framework density 20.634004999999998
#
# number of rings (size 3 to 8) (size 9 to 14) (size 15 to 20)
#    0.000    1.600    2.000    2.400    0.000    6.400 
#    0.000    8.000    0.000    0.000    0.000    0.000 
#    0.000    0.000    0.000    0.000    0.000    0.000 
#
# Total GULP energy -496248.963278 kJ/mol
# GULP energy per Si atom -12406.224082 kJ/mol
# Density = 2.058704 g / cm^3
# Si number density = 20.634005 Si / 1000 Ang^3
#
#
#
# Elastic Constant Matrix: (Units=GPa)
#
#
# Indices 1 2 3 4 5 6 
#
# 1 138.3308 22.6631 54.8891 0.0000 0.0000 0.0000
# 2 22.6631 46.3351 12.2917 0.0000 0.0000 0.0000
# 3 54.8891 12.2917 105.2965 0.0000 0.0000 0.0000
# 4 0.0000 0.0000 0.0000 34.5590 0.0000 0.0000
# 5 0.0000 0.0000 0.0000 0.0000 12.1377 0.0000
# 6 0.0000 0.0000 0.0000 0.0000 0.0000 33.2818
#
#
#
# Elastic Compliance Matrix: (Units=1/GPa)
#
#
# Indices 1 2 3 4 5 6 
#
# 1 0.009631 -0.003487 -0.004613 0.000000 0.000000 0.000000
# 2 -0.003487 0.023534 -0.000930 0.000000 0.000000 0.000000
# 3 -0.004613 -0.000930 0.012010 0.000000 0.000000 0.000000
# 4 0.000000 0.000000 0.000000 0.028936 0.000000 0.000000
# 5 0.000000 0.000000 0.000000 0.000000 0.082388 0.000000
# 6 0.000000 0.000000 0.000000 0.000000 0.000000 0.030046
#
#
# Mechanical properties :
#
#
# Convention : Reuss Voigt Hill
#
# Bulk Modulus (GPa) = 36.87902 52.18333 44.53118
# Shear Modulus (GPa) = 23.40347 29.33692 26.37019
#
# Velocity S-wave (km/s) = 3.37147 3.77473 3.57879
# Velocity P-wave (km/s) = 5.75043 6.65906 6.22135
#
# Compressibility (1/GPa) = 0.02711569
#
# Stress axis : x y z
#
# Youngs Moduli (GPa) = 103.83291 42.49179 83.26135
#
# Poissons Ratio (x) = 0.14816 0.38411
# Poissons Ratio (y) = 0.36204 0.07740
# Poissons Ratio (z) = 0.47902 0.03950
#
# Static dielectric constant tensor:
#      x y z
#    x 3.962920 0.000000 0.000000 
#    y 0.000000 3.621970 0.000000 
#    z 0.000000 0.000000 3.598240 
# 
# 
# High freq. dielectric constant tensor:
#      x y z
#    x 1.815580 0.000000 0.000000 
#    y 0.000000 1.807750 0.000000 
#    z 0.000000 0.000000 1.800100 
# 
# From -- ./inp_files/23743.got.cif
#   From: 2010.03.12/outbox.cif.g09.slc.cpg/sg51_12_cif.got.tgz:23743.got - 2010.04.16 13:43:02.
