data_PCOD8212547
_publ_section_title
;
Structure prediction by ZEFSAII (Michael W. Deem and Ramdas Pophale) SiO2 
 PCOD8212547
Probable space group: P M M A
;
_chemical_formula_sum "Si O2"
_cell_formula_units_Z 48
_cell_length_a 16.103896
_cell_length_b 8.753859
_cell_length_c 17.991275
_cell_angle_alpha 90.000000
_cell_angle_beta 90.000000
_cell_angle_gamma 90.000000
_cell_volume 2536.252255
_symmetry_space_group_name_H-M "P M M A"
_symmetry_group_IT_number 51
_symmetry_cell_setting 'orthorhombic'
loop_
_space_group_symop_operation_xyz
x,y,z
1/2-x,-y,z
1/2+x,-y,-z
-x,y,-z
-x,-y,-z
1/2+x,y,-z
1/2-x,y,z
x,-y,z
loop_
_atom_site_type_symbol
_atom_site_label
_atom_site_fract_x
_atom_site_fract_y
_atom_site_fract_z
Si Si1 0.411784 0.320036 0.222660
Si Si2 0.156721 0.175726 0.836533
Si Si3 0.250000 0.820430 0.285326
Si Si4 0.444755 0.825027 0.693190
Si Si5 0.750000 0.680662 0.551990
Si Si6 0.409517 0.821141 0.527616
Si Si7 0.513769 0.679498 0.081536
O O1 0.393684 0.500000 0.222803
O O2 0.328652 0.226837 0.236412
O O3 0.477047 0.282208 0.288105
O O4 0.447969 0.261170 0.143209
O O5 0.250000 0.234055 0.842104
O O6 0.127708 0.201453 0.752366
O O7 0.105921 0.277113 0.894090
O O8 0.147172 0.000000 0.859724
O O9 0.250000 0.734984 0.363463
O O10 0.250000 0.000000 0.300095
O O11 0.404862 0.781013 0.614588
O O12 0.476675 0.000000 0.692516
O O13 0.750000 0.500000 0.550641
O O14 0.666008 0.736914 0.512609
O O15 0.500000 0.764722 0.500000
O O16 0.398578 0.000000 0.511347
O O17 0.505407 0.500000 0.076810
O O18 0.500000 0.752967 0.000000
#
# Coordination Sequence:
#
# PCOD8212547 Si02
#       7
#     8   8   4   8   4   8   8
#     4  10  20  36  59  85 113 146 186 232 281 329
#     4   9  18  32  52  80 110 144 185 227 269 317
#     4  12  24  40  60  80 109 146 193 236 277 338
#     4   9  18  33  56  80 111 151 190 228 274 331
#     4  12  26  40  58  86 119 152 189 242 297 340
#     4  10  21  37  58  84 114 152 195 236 283 342
#     4   9  19  37  58  81 112 148 182 218 270 334
#
# _framework density 18.925561999999999
#
# number of rings (size 3 to 8) (size 9 to 14) (size 15 to 20)
#    0.000    2.167    0.000    3.000    1.167    3.667 
#    1.500    0.000    0.000    0.000    0.000    0.000 
#    0.000    0.000    0.000    0.000    0.000    0.000 
#
# Total GULP energy -595226.225842 kJ/mol
# GULP energy per Si atom -12400.546372 kJ/mol
# Density = 1.888249 g / cm^3
# Si number density = 18.925562 Si / 1000 Ang^3
#
#
#
# Elastic Constant Matrix: (Units=GPa)
#
#
# Indices 1 2 3 4 5 6 
#
# 1 151.4365 39.0930 72.9887 0.0000 0.0000 0.0000
# 2 39.0930 54.2673 33.5571 0.0000 0.0000 0.0000
# 3 72.9887 33.5571 138.0130 0.0000 0.0000 0.0000
# 4 0.0000 0.0000 0.0000 22.7360 0.0000 0.0000
# 5 0.0000 0.0000 0.0000 0.0000 18.3188 0.0000
# 6 0.0000 0.0000 0.0000 0.0000 0.0000-1771.6282
#
#
#
# Elastic Compliance Matrix: (Units=1/GPa)
#
#
# Indices 1 2 3 4 5 6 
#
# 1 0.009713 -0.004497 -0.004043 0.000000 0.000000 0.000000
# 2 -0.004497 0.023770 -0.003401 0.000000 0.000000 0.000000
# 3 -0.004043 -0.003401 0.010211 0.000000 0.000000 0.000000
# 4 0.000000 0.000000 0.000000 0.043983 0.000000 0.000000
# 5 0.000000 0.000000 0.000000 0.000000 0.054589 0.000000
# 6 0.000000 0.000000 0.000000 0.000000 0.000000 -0.000564
#
#
# Mechanical properties :
#
#
# Convention : Reuss Voigt Hill
#
# Bulk Modulus (GPa) = 50.47708 70.55493 60.51600
# Shear Modulus (GPa) = 29.03791 -332.90949 -151.93579
#
# Velocity S-wave (km/s) = 3.92129 -13.27729 -8.96967
# Velocity P-wave (km/s) = 6.87250 14.06014 8.67341
#
# Compressibility (1/GPa) = 0.01981097
#
# Stress axis : x y z
#
# Youngs Moduli (GPa) = 102.95375 42.06977 97.93246
#
# Poissons Ratio (x) = 0.18918 0.39598
# Poissons Ratio (y) = 0.46296 0.33311
# Poissons Ratio (z) = 0.41629 0.14310
#
# Static dielectric constant tensor:
#      x y z
#    x 3.537600 0.000000 0.000000 
#    y 0.000000 3.373810 0.000000 
#    z 0.000000 0.000000 3.749020 
# 
# 
# High freq. dielectric constant tensor:
#      x y z
#    x 1.739950 0.000000 0.000000 
#    y 0.000000 1.726500 0.000000 
#    z 0.000000 0.000000 1.741270 
# 
# From -- ./inp_files/29616.got.cif
#   From: 2010.03.12/outbox.cif.g09.slc.cpg/sg51_15_cif.got.tgz:29616.got - 2010.04.16 13:43:02.
