data_PCOD8212985
_publ_section_title
;
Structure prediction by ZEFSAII (Michael W. Deem and Ramdas Pophale) SiO2 
 PCOD8212985
Probable space group: P M M A
;
_chemical_formula_sum "Si O2"
_cell_formula_units_Z 48
_cell_length_a 34.876093
_cell_length_b 8.481924
_cell_length_c 7.987957
_cell_angle_alpha 90.000000
_cell_angle_beta 90.000000
_cell_angle_gamma 90.000000
_cell_volume 2362.968445
_symmetry_space_group_name_H-M "P M M A"
_symmetry_group_IT_number 51
_symmetry_cell_setting 'orthorhombic'
loop_
_space_group_symop_operation_xyz
x,y,z
1/2-x,-y,z
1/2+x,-y,-z
-x,y,-z
-x,-y,-z
1/2+x,y,-z
1/2-x,y,z
x,-y,z
loop_
_atom_site_type_symbol
_atom_site_label
_atom_site_fract_x
_atom_site_fract_y
_atom_site_fract_z
Si Si1 0.793050 0.812610 0.993588
Si Si2 0.655541 0.187808 0.688550
Si Si3 0.157055 0.186630 0.693872
Si Si4 0.071564 0.818608 0.328020
Si Si5 0.922108 0.318969 0.322520
Si Si6 0.005866 0.827224 0.810349
O O1 0.750000 0.744929 0.985201
O O2 0.815849 0.744771 0.830898
O O3 0.792953 0.000000 0.983267
O O4 0.810767 0.759360 0.172374
O O5 0.667372 0.240584 0.497962
O O6 0.612621 0.251775 0.734403
O O7 0.655368 0.000000 0.692630
O O8 0.118327 0.270524 0.759732
O O9 0.151014 0.000000 0.700115
O O10 0.070786 0.798915 0.525500
O O11 0.032728 0.738746 0.257527
O O12 0.069851 0.000000 0.275011
O O13 0.921085 0.500000 0.379544
O O14 0.957822 0.288758 0.201062
O O15 0.012419 0.000000 0.722153
O O16 0.000000 0.863282 0.000000
#
# Coordination Sequence:
#
# PCOD8212985 Si02
#       6
#     8   8   8   8   8   8
#     4   9  17  28  49  82 111 133 164 215 274 323
#     4   8  15  28  47  73 103 135 169 211 258 311
#     4   9  18  33  54  76 105 141 178 217 263 319
#     4   9  18  34  54  75 100 137 181 218 261 314
#     4  11  22  35  52  74 104 141 180 221 267 308
#     4  10  21  34  53  79 105 137 178 219 263 317
#
# _framework density 20.313431999999999
#
# number of rings (size 3 to 8) (size 9 to 14) (size 15 to 20)
#    0.000    2.667    0.000    3.000    2.333    3.667 
#    0.000    3.333    0.000    0.500    0.000    0.000 
#    0.000    0.000    0.000    0.000    0.000    0.000 
#
# Total GULP energy -594630.505431 kJ/mol
# GULP energy per Si atom -12388.135530 kJ/mol
# Density = 2.026720 g / cm^3
# Si number density = 20.313432 Si / 1000 Ang^3
#
#
#
# Elastic Constant Matrix: (Units=GPa)
#
#
# Indices 1 2 3 4 5 6 
#
# 1 176.5891 29.3401 79.7627 0.0000 0.0000 0.0000
# 2 29.3401 19.3704 12.0879 0.0000 0.0000 0.0000
# 3 79.7627 12.0879 102.4983 0.0000 0.0000 0.0000
# 4 0.0000 0.0000 0.0000 9.3897 0.0000 0.0000
# 5 0.0000 0.0000 0.0000 0.0000 38.4104 0.0000
# 6 0.0000 0.0000 0.0000 0.0000 0.0000 7.2151
#
#
#
# Elastic Compliance Matrix: (Units=1/GPa)
#
#
# Indices 1 2 3 4 5 6 
#
# 1 0.010825 -0.012025 -0.007006 0.000000 0.000000 0.000000
# 2 -0.012025 0.069084 0.001210 0.000000 0.000000 0.000000
# 3 -0.007006 0.001210 0.015065 0.000000 0.000000 0.000000
# 4 0.000000 0.000000 0.000000 0.106500 0.000000 0.000000
# 5 0.000000 0.000000 0.000000 0.000000 0.026035 0.000000
# 6 0.000000 0.000000 0.000000 0.000000 0.000000 0.138598
#
#
# Mechanical properties :
#
#
# Convention : Reuss Voigt Hill
#
# Bulk Modulus (GPa) = 16.85381 60.09324 38.47353
# Shear Modulus (GPa) = 11.86166 22.82085 17.34126
#
# Velocity S-wave (km/s) = 2.41909 3.35541 2.92496
# Velocity P-wave (km/s) = 4.01467 6.68273 5.51255
#
# Compressibility (1/GPa) = 0.05933377
#
# Stress axis : x y z
#
# Youngs Moduli (GPa) = 92.37635 14.47511 66.37713
#
# Poissons Ratio (x) = 0.17406 0.46503
# Poissons Ratio (y) = 1.11082 -0.08034
# Poissons Ratio (z) = 0.64718 -0.01752
#
# Static dielectric constant tensor:
#      x y z
#    x 4.444370 0.000000 0.000000 
#    y 0.000000 3.061920 0.000000 
#    z 0.000000 0.000000 3.713010 
# 
# 
# High freq. dielectric constant tensor:
#      x y z
#    x 1.802740 0.000000 0.000000 
#    y 0.000000 1.733920 0.000000 
#    z 0.000000 0.000000 1.788290 
# 
# From -- ./inp_files/12780.got.cif
#   From: 2010.03.12/outbox.cif.g09.slc.cpg/sg51_7_cif.got.tgz:12780.got - 2010.04.16 13:43:02.
