data_PCOD8212194
_publ_section_title
;
Structure prediction by ZEFSAII (Michael W. Deem and Ramdas Pophale) SiO2 
 PCOD8212194
Probable space group: P M M A
;
_chemical_formula_sum "Si O2"
_cell_formula_units_Z 48
_cell_length_a 9.338688
_cell_length_b 9.001151
_cell_length_c 30.964162
_cell_angle_alpha 90.000000
_cell_angle_beta 90.000000
_cell_angle_gamma 90.000000
_cell_volume 2602.814661
_symmetry_space_group_name_H-M "P M M A"
_symmetry_group_IT_number 51
_symmetry_cell_setting 'orthorhombic'
loop_
_space_group_symop_operation_xyz
x,y,z
1/2-x,-y,z
1/2+x,-y,-z
-x,y,-z
-x,-y,-z
1/2+x,y,-z
1/2-x,y,z
x,-y,z
loop_
_atom_site_type_symbol
_atom_site_label
_atom_site_fract_x
_atom_site_fract_y
_atom_site_fract_z
Si Si1 0.581277 0.671651 0.364992
Si Si2 0.584717 0.675140 0.213547
Si Si3 0.917251 0.826515 0.709759
Si Si4 0.407143 0.675674 0.538582
Si Si5 0.416151 0.326739 0.958123
Si Si6 0.920149 0.167175 0.127162
O O1 0.750000 0.702193 0.359121
O O2 0.548188 0.500000 0.353813
O O3 0.490214 0.778478 0.334764
O O4 0.531091 0.710415 0.413803
O O5 0.750000 0.720115 0.221940
O O6 0.567449 0.500000 0.210712
O O7 0.488315 0.736203 0.251704
O O8 0.525869 0.743566 0.168933
O O9 0.750000 0.787895 0.707750
O O10 0.944133 0.000000 0.717332
O O11 0.500000 0.747256 0.500000
O O12 0.250000 0.746297 0.534417
O O13 0.397268 0.500000 0.532713
O O14 0.250000 0.290636 0.965306
O O15 0.442967 0.500000 0.950480
O O16 0.479384 0.242949 0.916344
O O17 0.500000 0.268297 0.000000
O O18 0.750000 0.171229 0.125875
O O19 0.979391 0.000000 0.129872
#
# Coordination Sequence:
#
# PCOD8212194 Si02
#       6
#     8   8   8   8   8   8
#     4   9  18  33  53  77 103 132 170 212 250 295
#     4  10  20  35  57  81 101 126 165 209 251 300
#     4  11  24  38  51  72 103 135 167 206 253 303
#     4   8  14  25  43  70 102 131 161 201 247 293
#     4   9  17  30  48  70  97 129 166 207 248 291
#     4   9  17  30  50  75 101 130 165 204 246 294
#
# _framework density 18.441573999999999
#
# number of rings (size 3 to 8) (size 9 to 14) (size 15 to 20)
#    0.000    2.667    0.000    3.000    0.000    7.667 
#    0.000    2.500    0.000    3.500    0.000    0.000 
#    0.000    0.000    0.000    0.000    0.000    0.000 
#
# Total GULP energy -595143.247959 kJ/mol
# GULP energy per Si atom -12398.817666 kJ/mol
# Density = 1.839960 g / cm^3
# Si number density = 18.441574 Si / 1000 Ang^3
#
#
#
# Elastic Constant Matrix: (Units=GPa)
#
#
# Indices 1 2 3 4 5 6 
#
# 1 60.4169 33.3646 56.0108 0.0000 0.0000 0.0000
# 2 33.3646 69.3250 51.9819 0.0000 0.0000 0.0000
# 3 56.0108 51.9819 163.8416 0.0000 0.0000 0.0000
# 4 0.0000 0.0000 0.0000 7.8911 0.0000 0.0000
# 5 0.0000 0.0000 0.0000 0.0000 32.6417 0.0000
# 6 0.0000 0.0000 0.0000 0.0000 0.0000 21.3792
#
#
#
# Elastic Compliance Matrix: (Units=1/GPa)
#
#
# Indices 1 2 3 4 5 6 
#
# 1 0.027273 -0.008050 -0.006770 0.000000 0.000000 0.000000
# 2 -0.008050 0.021304 -0.004007 0.000000 0.000000 0.000000
# 3 -0.006770 -0.004007 0.009689 0.000000 0.000000 0.000000
# 4 0.000000 0.000000 0.000000 0.126724 0.000000 0.000000
# 5 0.000000 0.000000 0.000000 0.000000 0.030636 0.000000
# 6 0.000000 0.000000 0.000000 0.000000 0.000000 0.046774
#
#
# Mechanical properties :
#
#
# Convention : Reuss Voigt Hill
#
# Bulk Modulus (GPa) = 48.51387 64.03312 56.27350
# Shear Modulus (GPa) = 16.29069 22.53083 19.41076
#
# Velocity S-wave (km/s) = 2.97537 3.49913 3.24783
# Velocity P-wave (km/s) = 6.17800 7.15002 6.68171
#
# Compressibility (1/GPa) = 0.02061266
#
# Stress axis : x y z
#
# Youngs Moduli (GPa) = 36.66636 46.94033 103.20974
#
# Poissons Ratio (x) = 0.37786 0.69868
# Poissons Ratio (y) = 0.29516 0.41357
# Poissons Ratio (z) = 0.24821 0.18809
#
# Static dielectric constant tensor:
#      x y z
#    x 3.294550 0.000000 0.000000 
#    y 0.000000 3.259570 0.000000 
#    z 0.000000 0.000000 3.665140 
# 
# 
# High freq. dielectric constant tensor:
#      x y z
#    x 1.689250 0.000000 0.000000 
#    y 0.000000 1.699520 0.000000 
#    z 0.000000 0.000000 1.734240 
# 
# From -- ./inp_files/37028.got.cif
#   From: 2010.03.12/outbox.cif.g09.slc.cpg/sg51_19_cif.got.tgz:37028.got - 2010.04.16 13:43:02.
