data_PCOD8212020
_publ_section_title
;
Structure prediction by ZEFSAII (Michael W. Deem and Ramdas Pophale) SiO2 
 PCOD8212020
Probable space group: P M M A
;
_chemical_formula_sum "Si O2"
_cell_formula_units_Z 64
_cell_length_a 19.224339
_cell_length_b 9.122528
_cell_length_c 20.156050
_cell_angle_alpha 90.000000
_cell_angle_beta 90.000000
_cell_angle_gamma 90.000000
_cell_volume 3534.858618
_symmetry_space_group_name_H-M "P M M A"
_symmetry_group_IT_number 51
_symmetry_cell_setting 'orthorhombic'
loop_
_space_group_symop_operation_xyz
x,y,z
1/2-x,-y,z
1/2+x,-y,-z
-x,y,-z
-x,-y,-z
1/2+x,y,-z
1/2-x,y,z
x,-y,z
loop_
_atom_site_type_symbol
_atom_site_label
_atom_site_fract_x
_atom_site_fract_y
_atom_site_fract_z
Si Si1 0.169993 0.332021 0.576597
Si Si2 0.168799 0.169858 0.071304
Si Si3 0.920700 0.170353 0.318395
Si Si4 0.582873 0.328062 0.815977
Si Si5 0.922090 0.329427 0.185922
Si Si6 0.581291 0.829172 0.682405
Si Si7 0.830262 0.330622 0.062726
Si Si8 0.669526 0.332955 0.576646
O O1 0.250000 0.300871 0.594175
O O2 0.151166 0.500000 0.592349
O O3 0.122204 0.226896 0.619370
O O4 0.155498 0.296657 0.499959
O O5 0.250000 0.194042 0.085249
O O6 0.126783 0.257550 0.125854
O O7 0.148084 0.000000 0.073669
O O8 0.148092 0.233194 0.999825
O O9 0.895031 0.246516 0.250973
O O10 0.001076 0.206708 0.331952
O O11 0.906956 0.000000 0.309974
O O12 0.597808 0.500000 0.813546
O O13 0.502183 0.292333 0.829307
O O14 0.607591 0.258492 0.746726
O O15 0.910753 0.500000 0.199415
O O16 0.876546 0.275472 0.123981
O O17 0.624503 0.779069 0.619010
O O18 0.593887 0.000000 0.695406
O O19 0.750000 0.307197 0.081936
O O20 0.845764 0.500000 0.045599
O O21 0.750000 0.309449 0.594161
O O22 0.647512 0.500000 0.592405
#
# Coordination Sequence:
#
# PCOD8212020 Si02
#       8
#     8   8   8   8   8   8   8   8
#     4   9  19  36  56  77 103 136 174 215 257 304
#     4  10  21  36  53  75 104 135 168 209 256 306
#     4  10  21  35  52  77 108 139 172 212 257 307
#     4  10  20  35  55  76 101 135 174 214 253 299
#     4   9  19  35  54  77 104 135 173 214 254 299
#     4  10  21  36  53  76 107 139 171 210 258 310
#     4   9  18  34  55  77 102 133 169 208 250 299
#     4   9  19  36  56  78 103 133 173 217 258 304
#
# _framework density 18.105391999999998
#
# number of rings (size 3 to 8) (size 9 to 14) (size 15 to 20)
#    0.000    2.500    0.000    2.250    0.000    6.250 
#    0.000    7.500    0.000    0.000    0.000    0.000 
#    0.000    0.000    0.000    0.000    0.000    0.000 
#
# Total GULP energy -793839.445524 kJ/mol
# GULP energy per Si atom -12403.741336 kJ/mol
# Density = 1.806418 g / cm^3
# Si number density = 18.105392 Si / 1000 Ang^3
#
#
#
# Elastic Constant Matrix: (Units=GPa)
#
#
# Indices 1 2 3 4 5 6 
#
# 1 66.5142 48.0579 68.0410 0.0000 0.0000 0.0000
# 2 48.0579 91.4078 68.4692 0.0000 0.0000 0.0000
# 3 68.0410 68.4692 129.3274 0.0000 0.0000 0.0000
# 4 0.0000 0.0000 0.0000 6.0852 0.0000 0.0000
# 5 0.0000 0.0000 0.0000 0.0000 41.4352 0.0000
# 6 0.0000 0.0000 0.0000 0.0000 0.0000 29.7727
#
#
#
# Elastic Compliance Matrix: (Units=1/GPa)
#
#
# Indices 1 2 3 4 5 6 
#
# 1 0.035599 -0.007768 -0.014617 0.000000 0.000000 0.000000
# 2 -0.007768 0.019824 -0.006409 0.000000 0.000000 0.000000
# 3 -0.014617 -0.006409 0.018815 0.000000 0.000000 0.000000
# 4 0.000000 0.000000 0.000000 0.164333 0.000000 0.000000
# 5 0.000000 0.000000 0.000000 0.000000 0.024134 0.000000
# 6 0.000000 0.000000 0.000000 0.000000 0.000000 0.033588
#
#
# Mechanical properties :
#
#
# Convention : Reuss Voigt Hill
#
# Bulk Modulus (GPa) = 60.05173 72.93173 66.49173
# Shear Modulus (GPa) = 13.91088 22.30403 18.10746
#
# Velocity S-wave (km/s) = 2.77488 3.51365 3.16589
# Velocity P-wave (km/s) = 6.59594 7.53858 7.08296
#
# Compressibility (1/GPa) = 0.01665231
#
# Stress axis : x y z
#
# Youngs Moduli (GPa) = 28.09081 50.44289 53.14787
#
# Poissons Ratio (x) = 0.39182 0.77685
# Poissons Ratio (y) = 0.21820 0.34062
# Poissons Ratio (z) = 0.41060 0.32329
#
# Static dielectric constant tensor:
#      x y z
#    x 3.300180 0.000000 0.000000 
#    y 0.000000 3.356090 0.000000 
#    z 0.000000 0.000000 3.379670 
# 
# 
# High freq. dielectric constant tensor:
#      x y z
#    x 1.696930 0.000000 0.000000 
#    y 0.000000 1.706100 0.000000 
#    z 0.000000 0.000000 1.708250 
# 
# From -- ./inp_files/30556.got.cif
#   From: 2010.03.12/outbox.cif.g09.slc.cpg/sg51_16_cif.got.tgz:30556.got - 2010.04.16 13:43:02.
