data_PCOD8212569
_publ_section_title
;
Structure prediction by ZEFSAII (Michael W. Deem and Ramdas Pophale) SiO2 
 PCOD8212569
Probable space group: P M M A
;
_chemical_formula_sum "Si O2"
_cell_formula_units_Z 48
_cell_length_a 16.275361
_cell_length_b 8.700026
_cell_length_c 16.478953
_cell_angle_alpha 90.000000
_cell_angle_beta 90.000000
_cell_angle_gamma 90.000000
_cell_volume 2333.354881
_symmetry_space_group_name_H-M "P M M A"
_symmetry_group_IT_number 51
_symmetry_cell_setting 'orthorhombic'
loop_
_space_group_symop_operation_xyz
x,y,z
1/2-x,-y,z
1/2+x,-y,-z
-x,y,-z
-x,-y,-z
1/2+x,y,-z
1/2-x,y,z
x,-y,z
loop_
_atom_site_type_symbol
_atom_site_label
_atom_site_fract_x
_atom_site_fract_y
_atom_site_fract_z
Si Si1 0.917673 0.180068 0.953613
Si Si2 0.346553 0.328422 0.362712
Si Si3 0.655183 0.820183 0.472801
Si Si4 0.750000 0.317503 0.022740
Si Si5 0.750000 0.317515 0.205112
Si Si6 0.399419 0.679519 0.688703
Si Si7 0.053794 0.177766 0.232858
O O1 0.833886 0.260880 0.981352
O O2 0.927913 0.220368 0.859537
O O3 0.906945 0.000000 0.969473
O O4 0.000000 0.240311 0.000000
O O5 0.250000 0.333150 0.369029
O O6 0.382658 0.500000 0.349709
O O7 0.381349 0.261393 0.447180
O O8 0.367398 0.217187 0.287542
O O9 0.750000 0.773968 0.457341
O O10 0.601543 0.766751 0.396663
O O11 0.644955 0.000000 0.485826
O O12 0.750000 0.500000 0.019699
O O13 0.750000 0.251575 0.114183
O O14 0.750000 0.500000 0.201480
O O15 0.828924 0.254575 0.252587
O O16 0.387511 0.500000 0.672084
O O17 0.483503 0.711588 0.734147
O O18 0.029021 0.000000 0.241624
#
# Coordination Sequence:
#
# PCOD8212569 Si02
#       7
#     8   8   8   4   4   8   8
#     4  10  23  44  66  91 127 168 211 260 317 380
#     4  10  22  40  62  87 118 158 204 250 301 361
#     4  10  20  36  59  89 123 159 201 247 299 356
#     4  11  23  39  65  96 125 162 209 259 318 379
#     4   9  20  37  59  90 123 156 195 245 302 363
#     4  11  21  37  61  88 123 161 201 247 302 361
#     4  11  24  40  60  88 121 158 203 254 306 359
#
# _framework density 20.571237
#
# number of rings (size 3 to 8) (size 9 to 14) (size 15 to 20)
#    0.000    1.667    0.833    3.250    1.167    4.000 
#    0.000    5.833    0.000    0.000    0.000    0.000 
#    0.000    0.000    0.000    0.000    0.000    0.000 
#
# Total GULP energy -595314.174611 kJ/mol
# GULP energy per Si atom -12402.378638 kJ/mol
# Density = 2.052442 g / cm^3
# Si number density = 20.571237 Si / 1000 Ang^3
#
#
#
# Elastic Constant Matrix: (Units=GPa)
#
#
# Indices 1 2 3 4 5 6 
#
# 1 95.7651 32.4226 57.2320 0.0000 0.0000 0.0000
# 2 32.4226 62.1181 45.1026 0.0000 0.0000 0.0000
# 3 57.2320 45.1026 178.0719 0.0000 0.0000 0.0000
# 4 0.0000 0.0000 0.0000 32.6107 0.0000 0.0000
# 5 0.0000 0.0000 0.0000 0.0000 35.5873 0.0000
# 6 0.0000 0.0000 0.0000 0.0000 0.0000 27.5208
#
#
#
# Elastic Compliance Matrix: (Units=1/GPa)
#
#
# Indices 1 2 3 4 5 6 
#
# 1 0.014078 -0.004978 -0.003264 0.000000 0.000000 0.000000
# 2 -0.004978 0.021487 -0.003842 0.000000 0.000000 0.000000
# 3 -0.003264 -0.003842 0.007638 0.000000 0.000000 0.000000
# 4 0.000000 0.000000 0.000000 0.030665 0.000000 0.000000
# 5 0.000000 0.000000 0.000000 0.000000 0.028100 0.000000
# 6 0.000000 0.000000 0.000000 0.000000 0.000000 0.036336
#
#
# Mechanical properties :
#
#
# Convention : Reuss Voigt Hill
#
# Bulk Modulus (GPa) = 52.53756 67.27439 59.90598
# Shear Modulus (GPa) = 29.61790 32.55694 31.08742
#
# Velocity S-wave (km/s) = 3.79855 3.98256 3.89164
# Velocity P-wave (km/s) = 6.69578 7.34315 7.02692
#
# Compressibility (1/GPa) = 0.01903400
#
# Stress axis : x y z
#
# Youngs Moduli (GPa) = 71.03152 46.54072 130.92722
#
# Poissons Ratio (x) = 0.23170 0.42732
# Poissons Ratio (y) = 0.35362 0.50304
# Poissons Ratio (z) = 0.23183 0.17882
#
# Static dielectric constant tensor:
#      x y z
#    x 3.700260 0.000000 0.000000 
#    y 0.000000 3.710110 0.000000 
#    z 0.000000 0.000000 3.934210 
# 
# 
# High freq. dielectric constant tensor:
#      x y z
#    x 1.804840 0.000000 0.000000 
#    y 0.000000 1.801570 0.000000 
#    z 0.000000 0.000000 1.819840 
# 
# From -- ./inp_files/24928.got.cif
#   From: 2010.03.12/outbox.cif.g09.slc.cpg/sg51_13_cif.got.tgz:24928.got - 2010.04.16 13:43:02.
