data_PCOD8212970
_publ_section_title
;
Structure prediction by ZEFSAII (Michael W. Deem and Ramdas Pophale) SiO2 
 PCOD8212970
Probable space group: P M M A
;
_chemical_formula_sum "Si O2"
_cell_formula_units_Z 64
_cell_length_a 14.689896
_cell_length_b 9.105985
_cell_length_c 26.252989
_cell_angle_alpha 90.000000
_cell_angle_beta 90.000000
_cell_angle_gamma 90.000000
_cell_volume 3511.756608
_symmetry_space_group_name_H-M "P M M A"
_symmetry_group_IT_number 51
_symmetry_cell_setting 'orthorhombic'
loop_
_space_group_symop_operation_xyz
x,y,z
1/2-x,-y,z
1/2+x,-y,-z
-x,y,-z
-x,-y,-z
1/2+x,y,-z
1/2-x,y,z
x,-y,z
loop_
_atom_site_type_symbol
_atom_site_label
_atom_site_fract_x
_atom_site_fract_y
_atom_site_fract_z
Si Si1 0.352468 0.174741 0.500835
Si Si2 0.356198 0.670205 0.762364
Si Si3 0.644291 0.333251 0.875028
Si Si4 0.645980 0.829796 0.135288
Si Si5 0.004711 0.172737 0.056800
Si Si6 0.998499 0.174240 0.578677
Si Si7 0.497457 0.825444 0.693844
Si Si8 0.644678 0.330549 0.758999
O O1 0.250000 0.241973 0.501329
O O2 0.407799 0.229818 0.450862
O O3 0.409276 0.228936 0.550385
O O4 0.346305 0.000000 0.500690
O O5 0.250000 0.696437 0.753043
O O6 0.383020 0.500000 0.761401
O O7 0.386598 0.734440 0.816762
O O8 0.407778 0.755000 0.717955
O O9 0.750000 0.316081 0.887095
O O10 0.612425 0.500000 0.882990
O O11 0.592410 0.231170 0.914242
O O12 0.623887 0.284699 0.817111
O O13 0.750000 0.795601 0.120984
O O14 0.586771 0.782334 0.086724
O O15 0.631687 0.000000 0.149484
O O16 0.015927 0.000000 0.053591
O O17 0.000000 0.240362 0.000000
O O18 0.996904 0.233760 0.636083
O O19 0.998075 0.000000 0.578210
O O20 0.587793 0.774518 0.722635
O O21 0.489718 0.000000 0.696611
O O22 0.750000 0.306126 0.746015
O O23 0.617315 0.500000 0.750242
#
# Coordination Sequence:
#
# PCOD8212970 Si02
#       8
#     8   8   8   8   8   8   8   8
#     4   8  13  25  44  61  86 128 168 200 239 288
#     4  10  21  36  53  73  98 132 173 210 247 297
#     4   9  19  36  55  73  95 127 168 210 247 285
#     4   9  18  34  54  74  99 131 166 205 248 294
#     4  10  21  34  50  76 105 131 160 196 245 302
#     4   8  16  27  39  65  99 127 160 199 243 294
#     4  11  21  31  48  77 111 137 160 203 256 301
#     4   9  19  36  55  74 100 136 173 206 245 296
#
# _framework density 18.224498000000001
#
# number of rings (size 3 to 8) (size 9 to 14) (size 15 to 20)
#    0.000    2.750    0.000    3.000    0.000    6.000 
#    0.000    5.000    0.000    1.500    0.000    7.000 
#    0.000   12.000    0.000    0.000    0.000    0.000 
#
# Total GULP energy -793526.589374 kJ/mol
# GULP energy per Si atom -12398.852959 kJ/mol
# Density = 1.818302 g / cm^3
# Si number density = 18.224498 Si / 1000 Ang^3
#
#
#
# Elastic Constant Matrix: (Units=GPa)
#
#
# Indices 1 2 3 4 5 6 
#
# 1 117.4198 30.9386 76.6036 0.0000 0.0000 0.0000
# 2 30.9386 43.2770 42.4838 0.0000 0.0000 0.0000
# 3 76.6036 42.4838 160.6101 0.0000 0.0000 0.0000
# 4 0.0000 0.0000 0.0000 6.3315 0.0000 0.0000
# 5 0.0000 0.0000 0.0000 0.0000 10.4871 0.0000
# 6 0.0000 0.0000 0.0000 0.0000 0.0000 27.4103
#
#
#
# Elastic Compliance Matrix: (Units=1/GPa)
#
#
# Indices 1 2 3 4 5 6 
#
# 1 0.012932 -0.004309 -0.005028 0.000000 0.000000 0.000000
# 2 -0.004309 0.032647 -0.006580 0.000000 0.000000 0.000000
# 3 -0.005028 -0.006580 0.010365 0.000000 0.000000 0.000000
# 4 0.000000 0.000000 0.000000 0.157941 0.000000 0.000000
# 5 0.000000 0.000000 0.000000 0.000000 0.095355 0.000000
# 6 0.000000 0.000000 0.000000 0.000000 0.000000 0.036483
#
#
# Mechanical properties :
#
#
# Convention : Reuss Voigt Hill
#
# Bulk Modulus (GPa) = 41.47819 69.03987 55.25903
# Shear Modulus (GPa) = 12.96696 20.26452 16.61574
#
# Velocity S-wave (km/s) = 2.67031 3.33819 3.02276
# Velocity P-wave (km/s) = 5.68475 7.26796 6.52456
#
# Compressibility (1/GPa) = 0.02410905
#
# Stress axis : x y z
#
# Youngs Moduli (GPa) = 77.32620 30.63035 96.47729
#
# Poissons Ratio (x) = 0.13199 0.48511
# Poissons Ratio (y) = 0.33321 0.63487
# Poissons Ratio (z) = 0.38882 0.20156
#
# Static dielectric constant tensor:
#      x y z
#    x 3.477130 0.000000 0.000000 
#    y 0.000000 3.083130 0.000000 
#    z 0.000000 0.000000 3.551510 
# 
# 
# High freq. dielectric constant tensor:
#      x y z
#    x 1.717590 0.000000 0.000000 
#    y 0.000000 1.676710 0.000000 
#    z 0.000000 0.000000 1.706570 
# 
# From -- ./inp_files/35624.got.cif
#   From: 2010.03.12/outbox.cif.g09.slc.cpg/sg51_18_cif.got.tgz:35624.got - 2010.04.16 13:43:02.
