data_PCOD8212925
_publ_section_title
;
Structure prediction by ZEFSAII (Michael W. Deem and Ramdas Pophale) SiO2 
 PCOD8212925
Probable space group: P M M A
;
_chemical_formula_sum "Si O2"
_cell_formula_units_Z 56
_cell_length_a 13.866685
_cell_length_b 14.359157
_cell_length_c 16.240889
_cell_angle_alpha 90.000000
_cell_angle_beta 90.000000
_cell_angle_gamma 90.000000
_cell_volume 3233.786862
_symmetry_space_group_name_H-M "P M M A"
_symmetry_group_IT_number 51
_symmetry_cell_setting 'orthorhombic'
loop_
_space_group_symop_operation_xyz
x,y,z
1/2-x,-y,z
1/2+x,-y,-z
-x,y,-z
-x,-y,-z
1/2+x,y,-z
1/2-x,y,z
x,-y,z
loop_
_atom_site_type_symbol
_atom_site_label
_atom_site_fract_x
_atom_site_fract_y
_atom_site_fract_z
Si Si1 0.362665 0.213431 0.391164
Si Si2 0.863539 0.394394 0.338782
Si Si3 0.043589 0.787962 0.704172
Si Si4 0.863203 0.399893 0.523157
Si Si5 0.538509 0.889933 0.129738
Si Si6 0.363984 0.895269 0.553974
Si Si7 0.355967 0.889518 0.033171
O O1 0.250000 0.201447 0.368255
O O2 0.428864 0.195539 0.311326
O O3 0.391737 0.318203 0.415795
O O4 0.394849 0.144970 0.464942
O O5 0.750000 0.370283 0.333852
O O6 0.881418 0.500000 0.306461
O O7 0.924194 0.319843 0.285202
O O8 0.905733 0.384555 0.431788
O O9 0.071843 0.839848 0.787504
O O10 0.099706 0.830901 0.627120
O O11 0.750000 0.401360 0.509958
O O12 0.898565 0.500000 0.558927
O O13 0.611278 0.858102 0.057830
O O14 0.542224 0.000000 0.144699
O O15 0.431174 0.856420 0.102892
O O16 0.250000 0.894316 0.558867
O O17 0.405024 0.000000 0.562128
O O18 0.250000 0.847760 0.052216
O O19 0.354095 0.000000 0.033900
#
# Coordination Sequence:
#
# PCOD8212925 Si02
#       7
#     8   8   8   8   8   8   8
#     4  10  21  34  44  62  94 131 172 208 238 279
#     4   9  18  32  49  70  96 124 159 208 258 294
#     4  12  21  30  49  73  97 127 161 200 244 288
#     4   8  14  28  48  64  83 116 161 211 251 281
#     4   9  19  32  47  75 105 123 152 194 232 285
#     4  10  21  35  47  61  89 130 171 207 239 275
#     4   8  15  32  55  73  95 126 153 186 237 288
#
# _framework density 17.317159
#
# number of rings (size 3 to 8) (size 9 to 14) (size 15 to 20)
#    0.000    2.571    1.429    3.000    0.000    4.000 
#    0.000    2.857    0.000    0.000    0.000    2.000 
#    0.000    1.143    0.000    0.000    0.000    0.000 
#
# Total GULP energy -694076.658971 kJ/mol
# GULP energy per Si atom -12394.226053 kJ/mol
# Density = 1.727774 g / cm^3
# Si number density = 17.317159 Si / 1000 Ang^3
#
#
#
# Elastic Constant Matrix: (Units=GPa)
#
#
# Indices 1 2 3 4 5 6 
#
# 1 34.1209 1.4210 7.6442 0.0000 0.0000 0.0000
# 2 1.4210 76.3283 17.9263 0.0000 0.0000 0.0000
# 3 7.6442 17.9263 44.8805 0.0000 0.0000 0.0000
# 4 0.0000 0.0000 0.0000 -65.4725 0.0000 0.0000
# 5 0.0000 0.0000 0.0000 0.0000 12.4611 0.0000
# 6 0.0000 0.0000 0.0000 0.0000 0.0000 16.0676
#
#
#
# Elastic Compliance Matrix: (Units=1/GPa)
#
#
# Indices 1 2 3 4 5 6 
#
# 1 0.030506 0.000720 -0.005483 0.000000 0.000000 0.000000
# 2 0.000720 0.014475 -0.005904 0.000000 0.000000 0.000000
# 3 -0.005483 -0.005904 0.025574 0.000000 0.000000 0.000000
# 4 0.000000 0.000000 0.000000 -0.015274 0.000000 0.000000
# 5 0.000000 0.000000 0.000000 0.000000 0.080250 0.000000
# 6 0.000000 0.000000 0.000000 0.000000 0.000000 0.062237
#
#
# Mechanical properties :
#
#
# Convention : Reuss Voigt Hill
#
# Bulk Modulus (GPa) = 20.31739 23.25697 21.78718
# Shear Modulus (GPa) = 21.23061 1.16711 11.19886
#
# Velocity S-wave (km/s) = 3.50521 0.82184 2.54577
# Velocity P-wave (km/s) = 5.30471 3.78942 4.60976
#
# Compressibility (1/GPa) = 0.04921892
#
# Stress axis : x y z
#
# Youngs Moduli (GPa) = 32.78036 69.08693 39.10290
#
# Poissons Ratio (x) = -0.04973 0.21442
# Poissons Ratio (y) = -0.02360 0.23087
# Poissons Ratio (z) = 0.17975 0.40789
#
# Static dielectric constant tensor:
#      x y z
#    x 3.456220 0.000000 0.000000 
#    y 0.000000 2.338810 0.000000 
#    z 0.000000 0.000000 2.848820 
# 
# 
# High freq. dielectric constant tensor:
#      x y z
#    x 1.684100 0.000000 0.000000 
#    y 0.000000 1.655990 0.000000 
#    z 0.000000 0.000000 1.622040 
# 
# From -- ./inp_files/24271.got.cif
#   From: 2010.03.12/outbox.cif.g09.slc.cpg/sg51_13_cif.got.tgz:24271.got - 2010.04.16 13:43:02.
