data_PCOD8212429
_publ_section_title
;
Structure prediction by ZEFSAII (Michael W. Deem and Ramdas Pophale) SiO2 
 PCOD8212429
Probable space group: P M M A
;
_chemical_formula_sum "Si O2"
_cell_formula_units_Z 64
_cell_length_a 8.850704
_cell_length_b 19.068028
_cell_length_c 19.626394
_cell_angle_alpha 90.000000
_cell_angle_beta 90.000000
_cell_angle_gamma 90.000000
_cell_volume 3312.257641
_symmetry_space_group_name_H-M "P M M A"
_symmetry_group_IT_number 51
_symmetry_cell_setting 'orthorhombic'
loop_
_space_group_symop_operation_xyz
x,y,z
1/2-x,-y,z
1/2+x,-y,-z
-x,y,-z
-x,-y,-z
1/2+x,y,-z
1/2-x,y,z
x,-y,z
loop_
_atom_site_type_symbol
_atom_site_label
_atom_site_fract_x
_atom_site_fract_y
_atom_site_fract_z
Si Si1 0.928195 0.081282 0.072693
Si Si2 0.427997 0.078250 0.432179
Si Si3 0.571497 0.805156 0.666888
Si Si4 0.929920 0.676215 0.574668
Si Si5 0.429052 0.188805 0.179761
Si Si6 0.925631 0.331467 0.190287
Si Si7 0.428487 0.580794 0.678586
Si Si8 0.924495 0.577621 0.063776
O O1 0.750000 0.093575 0.067636
O O2 0.994105 0.130130 0.132443
O O3 0.966417 0.000000 0.089837
O O4 0.000000 0.102516 0.000000
O O5 0.500000 0.110522 0.500000
O O6 0.250000 0.080531 0.440916
O O7 0.483104 0.124255 0.369468
O O8 0.488510 0.000000 0.419203
O O9 0.750000 0.798518 0.671004
O O10 0.510280 0.738862 0.623996
O O11 0.506630 0.814119 0.742784
O O12 0.750000 0.675947 0.567756
O O13 0.000000 0.685346 0.500000
O O14 0.987417 0.604099 0.609180
O O15 0.250000 0.177815 0.174819
O O16 0.476194 0.267318 0.160379
O O17 0.750000 0.309676 0.193829
O O18 0.980770 0.365508 0.261595
O O19 0.959923 0.390558 0.136139
O O20 0.250000 0.586358 0.667799
O O21 0.473181 0.500000 0.695285
O O22 0.750000 0.577071 0.048235
O O23 0.993950 0.500000 0.067782
O O24 0.000000 0.618645 0.000000
#
# Coordination Sequence:
#
# PCOD8212429 Si02
#       8
#     8   8   8   8   8   8   8   8
#     4  10  22  42  66  92 122 157 199 245 292 343
#     4   9  17  31  51  75 104 139 179 222 269 324
#     4   9  19  35  54  79 112 149 188 232 279 337
#     4  11  22  38  58  82 112 147 191 240 296 357
#     4  11  22  37  59  87 119 153 192 236 284 339
#     4  10  20  36  57  81 113 151 191 237 290 345
#     4  10  21  38  60  84 109 144 192 244 302 362
#     4   9  18  33  53  78 108 143 183 227 275 332
#
# _framework density 19.322168999999999
#
# number of rings (size 3 to 8) (size 9 to 14) (size 15 to 20)
#    0.000    2.125    1.250    1.875    0.000    4.250 
#    0.000    4.375    0.000    3.750    0.000    0.000 
#    0.000    0.000    0.000    0.000    0.000    0.000 
#
# Total GULP energy -793260.823248 kJ/mol
# GULP energy per Si atom -12394.700363 kJ/mol
# Density = 1.927819 g / cm^3
# Si number density = 19.322169 Si / 1000 Ang^3
#
#
#
# Elastic Constant Matrix: (Units=GPa)
#
#
# Indices 1 2 3 4 5 6 
#
# 1 55.0108 43.8139 52.0111 0.0000 0.0000 0.0000
# 2 43.8139 101.9278 59.2204 0.0000 0.0000 0.0000
# 3 52.0111 59.2204 139.9508 0.0000 0.0000 0.0000
# 4 0.0000 0.0000 0.0000 -38.1267 0.0000 0.0000
# 5 0.0000 0.0000 0.0000 0.0000 32.4244 0.0000
# 6 0.0000 0.0000 0.0000 0.0000 0.0000 22.7741
#
#
#
# Elastic Compliance Matrix: (Units=1/GPa)
#
#
# Indices 1 2 3 4 5 6 
#
# 1 0.033903 -0.009617 -0.008530 0.000000 0.000000 0.000000
# 2 -0.009617 0.015737 -0.003085 0.000000 0.000000 0.000000
# 3 -0.008530 -0.003085 0.011621 0.000000 0.000000 0.000000
# 4 0.000000 0.000000 0.000000 -0.026228 0.000000 0.000000
# 5 0.000000 0.000000 0.000000 0.000000 0.030841 0.000000
# 6 0.000000 0.000000 0.000000 0.000000 0.000000 0.043910
#
#
# Mechanical properties :
#
#
# Convention : Reuss Voigt Hill
#
# Bulk Modulus (GPa) = 53.20195 67.44223 60.32209
# Shear Modulus (GPa) = 31.54297 12.87061 22.20679
#
# Velocity S-wave (km/s) = 4.04477 2.58370 3.39380
# Velocity P-wave (km/s) = 7.02905 6.62424 6.82964
#
# Compressibility (1/GPa) = 0.01879631
#
# Stress axis : x y z
#
# Youngs Moduli (GPa) = 29.49593 63.54314 86.05141
#
# Poissons Ratio (x) = 0.61111 0.73403
# Poissons Ratio (y) = 0.28367 0.26548
# Poissons Ratio (z) = 0.25160 0.19604
#
# Static dielectric constant tensor:
#      x y z
#    x 3.572760 0.000000 0.000000 
#    y 0.000000 4.052970 0.000000 
#    z 0.000000 0.000000 3.800790 
# 
# 
# High freq. dielectric constant tensor:
#      x y z
#    x 1.738160 0.000000 0.000000 
#    y 0.000000 1.753890 0.000000 
#    z 0.000000 0.000000 1.762250 
# 
# From -- ./inp_files/28446.got.cif
#   From: 2010.03.12/outbox.cif.g09.slc.cpg/sg51_15_cif.got.tgz:28446.got - 2010.04.16 13:43:02.
