data_PCOD8212282
_publ_section_title
;
Structure prediction by ZEFSAII (Michael W. Deem and Ramdas Pophale) SiO2 
 PCOD8212282
Probable space group: P M M A
;
_chemical_formula_sum "Si O2"
_cell_formula_units_Z 32
_cell_length_a 10.226785
_cell_length_b 8.593997
_cell_length_c 18.948012
_cell_angle_alpha 90.000000
_cell_angle_beta 90.000000
_cell_angle_gamma 90.000000
_cell_volume 1665.321061
_symmetry_space_group_name_H-M "P M M A"
_symmetry_group_IT_number 51
_symmetry_cell_setting 'orthorhombic'
loop_
_space_group_symop_operation_xyz
x,y,z
1/2-x,-y,z
1/2+x,-y,-z
-x,y,-z
-x,-y,-z
1/2+x,y,-z
1/2-x,y,z
x,-y,z
loop_
_atom_site_type_symbol
_atom_site_label
_atom_site_fract_x
_atom_site_fract_y
_atom_site_fract_z
Si Si1 0.250000 0.682828 0.072566
Si Si2 0.399673 0.318067 0.439728
Si Si3 0.401228 0.819521 0.291123
Si Si4 0.496899 0.682643 0.845775
Si Si5 0.250000 0.819721 0.919119
O O1 0.250000 0.500000 0.081598
O O2 0.378657 0.748533 0.111018
O O3 0.250000 0.724029 0.991005
O O4 0.500000 0.263363 0.500000
O O5 0.250000 0.277834 0.461844
O O6 0.414402 0.500000 0.424027
O O7 0.442269 0.225464 0.370095
O O8 0.250000 0.778045 0.279111
O O9 0.485299 0.717182 0.236940
O O10 0.430443 0.000000 0.278294
O O11 0.473620 0.500000 0.857854
O O12 0.374770 0.778295 0.873080
O O13 0.250000 0.000000 0.938488
#
# Coordination Sequence:
#
# PCOD8212282 Si02
#       5
#     4   8   8   8   4
#     4  10  22  40  64  88 111 148 199 242 284 344
#     4   9  18  34  56  81 110 146 190 234 278 334
#     4  10  20  35  58  86 116 150 190 237 288 343
#     4  11  22  40  63  86 114 153 198 241 285 342
#     4  12  26  40  56  86 123 154 187 238 300 348
#
# _framework density 19.215512
#
# number of rings (size 3 to 8) (size 9 to 14) (size 15 to 20)
#    0.000    1.750    1.250    3.375    0.000    6.500 
#    2.250    0.000    0.000    0.000    0.000    0.000 
#    0.000    0.000    0.000    0.000    0.000    0.000 
#
# Total GULP energy -396951.774398 kJ/mol
# GULP energy per Si atom -12404.742950 kJ/mol
# Density = 1.917178 g / cm^3
# Si number density = 19.215512 Si / 1000 Ang^3
#
#
#
# Elastic Constant Matrix: (Units=GPa)
#
#
# Indices 1 2 3 4 5 6 
#
# 1 118.1719 14.9643 55.9316 0.0000 0.0000 0.0000
# 2 14.9643 24.3499 4.3125 0.0000 0.0000 0.0000
# 3 55.9316 4.3125 116.6590 0.0000 0.0000 0.0000
# 4 0.0000 0.0000 0.0000 19.4576 0.0000 0.0000
# 5 0.0000 0.0000 0.0000 0.0000 36.9486 0.0000
# 6 0.0000 0.0000 0.0000 0.0000 0.0000 9.3328
#
#
#
# Elastic Compliance Matrix: (Units=1/GPa)
#
#
# Indices 1 2 3 4 5 6 
#
# 1 0.011837 -0.006311 -0.005442 0.000000 0.000000 0.000000
# 2 -0.006311 0.044703 0.001373 0.000000 0.000000 0.000000
# 3 -0.005442 0.001373 0.011130 0.000000 0.000000 0.000000
# 4 0.000000 0.000000 0.000000 0.051394 0.000000 0.000000
# 5 0.000000 0.000000 0.000000 0.000000 0.027065 0.000000
# 6 0.000000 0.000000 0.000000 0.000000 0.000000 0.107150
#
#
# Mechanical properties :
#
#
# Convention : Reuss Voigt Hill
#
# Bulk Modulus (GPa) = 21.31681 45.51085 33.41383
# Shear Modulus (GPa) = 17.26075 25.41262 21.33668
#
# Velocity S-wave (km/s) = 3.00037 3.64057 3.33586
# Velocity P-wave (km/s) = 4.80839 6.43487 5.68015
#
# Compressibility (1/GPa) = 0.04691134
#
# Stress axis : x y z
#
# Youngs Moduli (GPa) = 84.48010 22.36987 89.84435
#
# Poissons Ratio (x) = 0.14117 0.48893
# Poissons Ratio (y) = 0.53313 -0.12337
# Poissons Ratio (z) = 0.45974 -0.03072
#
# Static dielectric constant tensor:
#      x y z
#    x 3.620170 0.000000 0.000000 
#    y 0.000000 3.434560 0.000000 
#    z 0.000000 0.000000 3.507170 
# 
# 
# High freq. dielectric constant tensor:
#      x y z
#    x 1.742570 0.000000 0.000000 
#    y 0.000000 1.746160 0.000000 
#    z 0.000000 0.000000 1.755470 
# 
# From -- ./inp_files/22878.got.cif
#   From: 2010.03.12/outbox.cif.g09.slc.cpg/sg51_12_cif.got.tgz:22878.got - 2010.04.16 13:43:02.
