data_PCOD8212027
_publ_section_title
;
Structure prediction by ZEFSAII (Michael W. Deem and Ramdas Pophale) SiO2 
 PCOD8212027
Probable space group: P M M A
;
_chemical_formula_sum "Si O2"
_cell_formula_units_Z 56
_cell_length_a 8.999987
_cell_length_b 14.552550
_cell_length_c 23.392751
_cell_angle_alpha 90.000000
_cell_angle_beta 90.000000
_cell_angle_gamma 90.000000
_cell_volume 3063.813182
_symmetry_space_group_name_H-M "P M M A"
_symmetry_group_IT_number 51
_symmetry_cell_setting 'orthorhombic'
loop_
_space_group_symop_operation_xyz
x,y,z
1/2-x,-y,z
1/2+x,-y,-z
-x,y,-z
-x,-y,-z
1/2+x,y,-z
1/2-x,y,z
x,-y,z
loop_
_atom_site_type_symbol
_atom_site_label
_atom_site_fract_x
_atom_site_fract_y
_atom_site_fract_z
Si Si1 0.424888 0.000000 0.562473
Si Si2 0.425434 0.395562 0.940463
Si Si3 0.581844 0.500000 0.442273
Si Si4 0.077347 0.105023 0.223397
Si Si5 0.918344 0.397542 0.758691
Si Si6 0.575591 0.264463 0.161099
Si Si7 0.578523 0.855487 0.343516
Si Si8 0.420376 0.355757 0.649147
O O1 0.500000 0.000000 0.500000
O O2 0.474735 0.912856 0.601081
O O3 0.250000 0.000000 0.551134
O O4 0.250000 0.389694 0.947668
O O5 0.471020 0.500000 0.921758
O O6 0.481400 0.318491 0.895453
O O7 0.500000 0.369285 0.000000
O O8 0.750000 0.500000 0.459493
O O9 0.500000 0.500000 0.500000
O O10 0.541564 0.407087 0.409010
O O11 0.250000 0.129844 0.226725
O O12 0.004358 0.167408 0.173244
O O13 0.010586 0.120963 0.286131
O O14 0.051090 0.000000 0.204687
O O15 0.750000 0.360710 0.766794
O O16 0.931368 0.500000 0.784314
O O17 0.038340 0.330980 0.786730
O O18 0.962377 0.398593 0.692893
O O19 0.750000 0.246175 0.158537
O O20 0.750000 0.877497 0.329829
O O21 0.551222 0.751102 0.360540
O O22 0.250000 0.375493 0.668648
#
# Coordination Sequence:
#
# PCOD8212027 Si02
#       8
#     4   8   4   8   8   8   8   8
#     4  10  22  38  56  80 108 138 181 228 281 346
#     4   9  19  36  58  86 120 159 199 236 278 328
#     4  10  22  38  54  74 102 140 187 228 273 332
#     4  11  23  37  56  85 117 147 185 236 293 344
#     4  11  22  33  50  81 116 146 181 227 280 330
#     4  11  22  36  57  85 117 154 195 234 278 338
#     4  10  20  36  58  81 105 139 181 225 280 343
#     4  10  20  35  55  77 102 138 180 223 275 332
#
# _framework density 18.277875999999999
#
# number of rings (size 3 to 8) (size 9 to 14) (size 15 to 20)
#    0.000    1.714    2.857    1.714    0.000    5.143 
#    0.000    1.429    0.000    0.429    0.000    0.000 
#    0.000    0.000    0.000    0.000    0.000    0.000 
#
# Total GULP energy -694227.017886 kJ/mol
# GULP energy per Si atom -12396.911034 kJ/mol
# Density = 1.823627 g / cm^3
# Si number density = 18.277876 Si / 1000 Ang^3
#
#
#
# Elastic Constant Matrix: (Units=GPa)
#
#
# Indices 1 2 3 4 5 6 
#
# 1 63.3375 48.2109 47.9275 0.0000 0.0000 0.0000
# 2 48.2109 138.0077 62.0329 0.0000 0.0000 0.0000
# 3 47.9275 62.0329 121.2603 0.0000 0.0000 0.0000
# 4 0.0000 0.0000 0.0000 26.0954 0.0000 0.0000
# 5 0.0000 0.0000 0.0000 0.0000 33.3486 0.0000
# 6 0.0000 0.0000 0.0000 0.0000 0.0000 25.2929
#
#
#
# Elastic Compliance Matrix: (Units=1/GPa)
#
#
# Indices 1 2 3 4 5 6 
#
# 1 0.025567 -0.005700 -0.007189 0.000000 0.000000 0.000000
# 2 -0.005700 0.010680 -0.003211 0.000000 0.000000 0.000000
# 3 -0.007189 -0.003211 0.012731 0.000000 0.000000 0.000000
# 4 0.000000 0.000000 0.000000 0.038321 0.000000 0.000000
# 5 0.000000 0.000000 0.000000 0.000000 0.029986 0.000000
# 6 0.000000 0.000000 0.000000 0.000000 0.000000 0.039537
#
#
# Mechanical properties :
#
#
# Convention : Reuss Voigt Hill
#
# Bulk Modulus (GPa) = 59.60157 70.99423 65.29790
# Shear Modulus (GPa) = 25.69161 27.90965 26.80063
#
# Velocity S-wave (km/s) = 3.75322 3.91188 3.83337
# Velocity P-wave (km/s) = 7.17367 7.70257 7.44282
#
# Compressibility (1/GPa) = 0.01677808
#
# Stress axis : x y z
#
# Youngs Moduli (GPa) = 39.11232 93.62913 78.54910
#
# Poissons Ratio (x) = 0.53369 0.56472
# Poissons Ratio (y) = 0.22294 0.25221
# Poissons Ratio (z) = 0.28120 0.30063
#
# Static dielectric constant tensor:
#      x y z
#    x 3.354170 0.000000 0.000000 
#    y 0.000000 3.544940 0.000000 
#    z 0.000000 0.000000 3.260910 
# 
# 
# High freq. dielectric constant tensor:
#      x y z
#    x 1.709090 0.000000 0.000000 
#    y 0.000000 1.718920 0.000000 
#    z 0.000000 0.000000 1.691320 
# 
# From -- ./inp_files/32054.got.cif
#   From: 2010.03.12/outbox.cif.g09.slc.cpg/sg51_17_cif.got.tgz:32054.got - 2010.04.16 13:43:02.
