data_PCOD8212299
_publ_section_title
;
Structure prediction by ZEFSAII (Michael W. Deem and Ramdas Pophale) SiO2 
 PCOD8212299
Probable space group: P M M A
;
_chemical_formula_sum "Si O2"
_cell_formula_units_Z 64
_cell_length_a 8.875852
_cell_length_b 23.806589
_cell_length_c 14.576301
_cell_angle_alpha 90.000000
_cell_angle_beta 90.000000
_cell_angle_gamma 90.000000
_cell_volume 3080.027217
_symmetry_space_group_name_H-M "P M M A"
_symmetry_group_IT_number 51
_symmetry_cell_setting 'orthorhombic'
loop_
_space_group_symop_operation_xyz
x,y,z
1/2-x,-y,z
1/2+x,-y,-z
-x,y,-z
-x,-y,-z
1/2+x,y,-z
1/2-x,y,z
x,-y,z
loop_
_atom_site_type_symbol
_atom_site_label
_atom_site_fract_x
_atom_site_fract_y
_atom_site_fract_z
Si Si1 0.427989 0.167139 0.098726
Si Si2 0.927434 0.264896 0.762176
Si Si3 0.925459 0.436318 0.661909
Si Si4 0.084600 0.066615 0.412235
Si Si5 0.419291 0.325177 0.913424
Si Si6 0.929723 0.062385 0.788197
Si Si7 0.929452 0.676993 0.404965
Si Si8 0.583688 0.439724 0.152885
O O1 0.250000 0.169974 0.085976
O O2 0.479292 0.210115 0.179157
O O3 0.482981 0.105835 0.133779
O O4 0.500000 0.180596 0.000000
O O5 0.750000 0.265051 0.744251
O O6 0.979878 0.316741 0.823945
O O7 0.012396 0.275496 0.666736
O O8 0.750000 0.424203 0.644874
O O9 0.967869 0.500000 0.627226
O O10 0.018780 0.387390 0.611738
O O11 0.957871 0.431998 0.769747
O O12 0.250000 0.093702 0.414837
O O13 0.007931 0.080482 0.313170
O O14 0.000000 0.093075 0.500000
O O15 0.094200 0.000000 0.422487
O O16 0.250000 0.300819 0.904163
O O17 0.422298 0.392384 0.925725
O O18 0.500000 0.295837 0.000000
O O19 0.750000 0.061663 0.780089
O O20 0.988899 0.000000 0.814858
O O21 0.750000 0.678604 0.406902
O O22 0.000000 0.697468 0.500000
O O23 0.750000 0.436042 0.200493
O O24 0.562341 0.500000 0.103833
#
# Coordination Sequence:
#
# PCOD8212299 Si02
#       8
#     8   8   8   8   8   8   8   8
#     4  10  22  39  61  88 117 153 196 243 296 354
#     4  11  23  41  62  84 114 149 191 244 295 352
#     4  10  20  35  58  88 121 157 196 239 292 353
#     4   8  13  23  43  71 104 144 186 225 266 317
#     4  11  22  35  55  82 110 147 192 240 292 349
#     4   8  15  31  55  83 118 159 198 237 289 354
#     4  12  25  42  65  91 119 155 197 244 297 355
#     4   9  18  33  52  76 109 149 191 236 288 346
#
# _framework density 20.779038
#
# number of rings (size 3 to 8) (size 9 to 14) (size 15 to 20)
#    0.000    2.125    1.250    3.375    0.000    4.000 
#    0.000    1.250    0.000    2.250    0.000    0.000 
#    0.000    0.000    0.000    0.000    0.000    0.000 
#
# Total GULP energy -792878.559343 kJ/mol
# GULP energy per Si atom -12388.727490 kJ/mol
# Density = 2.073174 g / cm^3
# Si number density = 20.779038 Si / 1000 Ang^3
#
#
#
# Elastic Constant Matrix: (Units=GPa)
#
#
# Indices 1 2 3 4 5 6 
#
# 1 93.9322 38.6065 51.8623 0.0000 0.0000 0.0000
# 2 38.6065 102.9519 53.6580 0.0000 0.0000 0.0000
# 3 51.8623 53.6580 131.2948 0.0000 0.0000 0.0000
# 4 0.0000 0.0000 0.0000 16.8104 0.0000 0.0000
# 5 0.0000 0.0000 0.0000 0.0000 32.7727 0.0000
# 6 0.0000 0.0000 0.0000 0.0000 0.0000 17.2052
#
#
#
# Elastic Compliance Matrix: (Units=1/GPa)
#
#
# Indices 1 2 3 4 5 6 
#
# 1 0.014346 -0.003083 -0.004407 0.000000 0.000000 0.000000
# 2 -0.003083 0.013005 -0.004097 0.000000 0.000000 0.000000
# 3 -0.004407 -0.004097 0.011032 0.000000 0.000000 0.000000
# 4 0.000000 0.000000 0.000000 0.059487 0.000000 0.000000
# 5 0.000000 0.000000 0.000000 0.000000 0.030513 0.000000
# 6 0.000000 0.000000 0.000000 0.000000 0.000000 0.058122
#
#
# Mechanical properties :
#
#
# Convention : Reuss Voigt Hill
#
# Bulk Modulus (GPa) = 65.75139 68.49250 67.12195
# Shear Modulus (GPa) = 23.28308 25.62778 24.45543
#
# Velocity S-wave (km/s) = 3.35103 3.51571 3.43436
# Velocity P-wave (km/s) = 6.83260 7.03663 6.93536
#
# Compressibility (1/GPa) = 0.01520880
#
# Stress axis : x y z
#
# Youngs Moduli (GPa) = 69.70464 76.89517 90.64863
#
# Poissons Ratio (x) = 0.23706 0.39948
# Poissons Ratio (y) = 0.21489 0.37139
# Poissons Ratio (z) = 0.30718 0.31504
#
# Static dielectric constant tensor:
#      x y z
#    x 3.702370 0.000000 0.000000 
#    y 0.000000 3.840100 0.000000 
#    z 0.000000 0.000000 3.770190 
# 
# 
# High freq. dielectric constant tensor:
#      x y z
#    x 1.797660 0.000000 0.000000 
#    y 0.000000 1.801960 0.000000 
#    z 0.000000 0.000000 1.805940 
# 
# From -- ./inp_files/22200.got.cif
#   From: 2010.03.12/outbox.cif.g09.slc.cpg/sg51_12_cif.got.tgz:22200.got - 2010.04.16 13:43:02.
