data_PCOD8212136
_publ_section_title
;
Structure prediction by ZEFSAII (Michael W. Deem and Ramdas Pophale) SiO2 
 PCOD8212136
Probable space group: P M M A
;
_chemical_formula_sum "Si O2"
_cell_formula_units_Z 56
_cell_length_a 15.624815
_cell_length_b 9.461041
_cell_length_c 19.372841
_cell_angle_alpha 90.000000
_cell_angle_beta 90.000000
_cell_angle_gamma 90.000000
_cell_volume 2863.829264
_symmetry_space_group_name_H-M "P M M A"
_symmetry_group_IT_number 51
_symmetry_cell_setting 'orthorhombic'
loop_
_space_group_symop_operation_xyz
x,y,z
1/2-x,-y,z
1/2+x,-y,-z
-x,y,-z
-x,-y,-z
1/2+x,y,-z
1/2-x,y,z
x,-y,z
loop_
_atom_site_type_symbol
_atom_site_label
_atom_site_fract_x
_atom_site_fract_y
_atom_site_fract_z
Si Si1 0.154739 0.837121 0.330744
Si Si2 0.648499 0.839659 0.071917
Si Si3 0.505198 0.166841 0.420989
Si Si4 0.900836 0.660510 0.794266
Si Si5 0.846196 0.337214 0.348798
Si Si6 0.148586 0.659852 0.055975
Si Si7 0.903267 0.658567 0.200469
O O1 0.250000 0.816250 0.363077
O O2 0.152324 0.753093 0.259176
O O3 0.082703 0.782366 0.384140
O O4 0.137673 0.000000 0.313038
O O5 0.750000 0.831946 0.072641
O O6 0.613889 0.769938 0.141086
O O7 0.615408 0.000000 0.068633
O O8 0.611862 0.756956 0.005436
O O9 0.500000 0.214876 0.500000
O O10 0.588103 0.238319 0.388436
O O11 0.517527 0.000000 0.413999
O O12 0.866250 0.500000 0.790512
O O13 0.887827 0.718979 0.871836
O O14 0.999611 0.669695 0.773967
O O15 0.750000 0.306606 0.375709
O O16 0.872154 0.500000 0.361647
O O17 0.846571 0.304371 0.267016
O O18 0.250000 0.666608 0.058558
O O19 0.116388 0.500000 0.042914
O O20 0.882714 0.500000 0.173125
#
# Coordination Sequence:
#
# PCOD8212136 Si02
#       7
#     8   8   8   8   8   8   8
#     4  10  21  37  58  85 118 154 191 235 288 342
#     4  10  21  35  51  74 105 143 189 237 284 339
#     4  10  22  40  62  89 121 157 195 235 282 342
#     4  10  20  35  57  83 109 143 190 239 284 339
#     4  10  21  38  61  89 120 155 196 241 292 346
#     4   9  18  33  52  74 103 140 183 232 284 338
#     4  10  20  35  56  80 110 147 187 236 291 342
#
# _framework density 19.554238999999999
#
# number of rings (size 3 to 8) (size 9 to 14) (size 15 to 20)
#    0.000    2.143    1.429    1.286    0.000    5.714 
#    0.000    5.714    0.000    0.000    0.000    0.000 
#    0.000    0.000    0.000    0.000    0.000    0.000 
#
# Total GULP energy -694491.457979 kJ/mol
# GULP energy per Si atom -12401.633178 kJ/mol
# Density = 1.950973 g / cm^3
# Si number density = 19.554239 Si / 1000 Ang^3
#
#
#
# Elastic Constant Matrix: (Units=GPa)
#
#
# Indices 1 2 3 4 5 6 
#
# 1 83.0870 40.8472 50.9891 0.0000 0.0000 0.0000
# 2 40.8472 79.7061 59.4601 0.0000 0.0000 0.0000
# 3 50.9891 59.4601 120.7644 0.0000 0.0000 0.0000
# 4 0.0000 0.0000 0.0000 33.4980 0.0000 0.0000
# 5 0.0000 0.0000 0.0000 0.0000 23.6157 0.0000
# 6 0.0000 0.0000 0.0000 0.0000 0.0000 27.7826
#
#
#
# Elastic Compliance Matrix: (Units=1/GPa)
#
#
# Indices 1 2 3 4 5 6 
#
# 1 0.017654 -0.005511 -0.004741 0.000000 0.000000 0.000000
# 2 -0.005511 0.021550 -0.008284 0.000000 0.000000 0.000000
# 3 -0.004741 -0.008284 0.014361 0.000000 0.000000 0.000000
# 4 0.000000 0.000000 0.000000 0.029853 0.000000 0.000000
# 5 0.000000 0.000000 0.000000 0.000000 0.042345 0.000000
# 6 0.000000 0.000000 0.000000 0.000000 0.000000 0.035994
#
#
# Mechanical properties :
#
#
# Convention : Reuss Voigt Hill
#
# Bulk Modulus (GPa) = 60.62593 65.12780 62.87687
# Shear Modulus (GPa) = 24.47105 25.79668 25.13387
#
# Velocity S-wave (km/s) = 3.54141 3.63607 3.58905
# Velocity P-wave (km/s) = 6.91328 7.14189 7.02851
#
# Compressibility (1/GPa) = 0.01649459
#
# Stress axis : x y z
#
# Youngs Moduli (GPa) = 56.64448 46.40449 69.63470
#
# Poissons Ratio (x) = 0.25572 0.33011
# Poissons Ratio (y) = 0.31215 0.57682
# Poissons Ratio (z) = 0.26853 0.38439
#
# Static dielectric constant tensor:
#      x y z
#    x 3.591140 0.000000 0.000000 
#    y 0.000000 3.582960 0.000000 
#    z 0.000000 0.000000 3.504130 
# 
# 
# High freq. dielectric constant tensor:
#      x y z
#    x 1.765960 0.000000 0.000000 
#    y 0.000000 1.752750 0.000000 
#    z 0.000000 0.000000 1.757470 
# 
# From -- ./inp_files/33332.got.cif
#   From: 2010.03.12/outbox.cif.g09.slc.cpg/sg51_17_cif.got.tgz:33332.got - 2010.04.16 13:43:02.
