data_PCOD8212123
_publ_section_title
;
Structure prediction by ZEFSAII (Michael W. Deem and Ramdas Pophale) SiO2 
 PCOD8212123
Probable space group: P M M A
;
_chemical_formula_sum "Si O2"
_cell_formula_units_Z 48
_cell_length_a 17.931240
_cell_length_b 8.911127
_cell_length_c 15.647945
_cell_angle_alpha 90.000000
_cell_angle_beta 90.000000
_cell_angle_gamma 90.000000
_cell_volume 2500.346902
_symmetry_space_group_name_H-M "P M M A"
_symmetry_group_IT_number 51
_symmetry_cell_setting 'orthorhombic'
loop_
_space_group_symop_operation_xyz
x,y,z
1/2-x,-y,z
1/2+x,-y,-z
-x,y,-z
-x,-y,-z
1/2+x,y,-z
1/2-x,y,z
x,-y,z
loop_
_atom_site_type_symbol
_atom_site_label
_atom_site_fract_x
_atom_site_fract_y
_atom_site_fract_z
Si Si1 0.338790 0.173373 0.323987
Si Si2 0.930713 0.177958 0.150440
Si Si3 0.164566 0.172210 0.012054
Si Si4 0.667784 0.177563 0.491233
Si Si5 0.334865 0.821764 0.692975
Si Si6 0.410431 0.676213 0.165058
O O1 0.250000 0.197349 0.318645
O O2 0.370093 0.224242 0.418474
O O3 0.381123 0.277464 0.257714
O O4 0.358654 0.000000 0.305054
O O5 0.887683 0.244624 0.233219
O O6 0.011566 0.247880 0.143755
O O7 0.938189 0.000000 0.156393
O O8 0.885586 0.227007 0.066614
O O9 0.250000 0.191908 0.984215
O O10 0.149213 0.272955 0.094606
O O11 0.146941 0.000000 0.035802
O O12 0.750000 0.248599 0.489651
O O13 0.630229 0.225991 0.400554
O O14 0.675034 0.000000 0.493374
O O15 0.250000 0.761424 0.703499
O O16 0.333166 0.000000 0.701243
O O17 0.420492 0.500000 0.162122
#
# Coordination Sequence:
#
# PCOD8212123 Si02
#       6
#     8   8   8   8   8   8
#     4   9  17  32  55  79 102 132 172 216 259 302
#     4  10  20  35  56  80 106 136 167 203 252 307
#     4  10  21  38  60  83 103 126 163 211 259 307
#     4   7  11  22  45  78 108 129 157 206 261 303
#     4   8  13  25  50  83 110 129 160 210 260 304
#     4  12  25  37  50  72 105 143 177 210 251 298
#
# _framework density 19.197336
#
# number of rings (size 3 to 8) (size 9 to 14) (size 15 to 20)
#    0.000    2.667    0.000    5.000    0.000    7.333 
#    0.000    0.833    0.000    7.500    0.000    2.333 
#    0.000    0.000    0.000    0.000    0.000    0.000 
#
# Total GULP energy -594775.060766 kJ/mol
# GULP energy per Si atom -12391.147099 kJ/mol
# Density = 1.915364 g / cm^3
# Si number density = 19.197336 Si / 1000 Ang^3
#
#
#
# Elastic Constant Matrix: (Units=GPa)
#
#
# Indices 1 2 3 4 5 6 
#
# 1 61.2719 11.4933 27.1443 0.0000 0.0000 0.0000
# 2 11.4933 27.1975 25.8629 0.0000 0.0000 0.0000
# 3 27.1443 25.8629 136.9445 0.0000 0.0000 0.0000
# 4 0.0000 0.0000 0.0000 -0.2430 0.0000 0.0000
# 5 0.0000 0.0000 0.0000 0.0000 14.0870 0.0000
# 6 0.0000 0.0000 0.0000 0.0000 0.0000 -3.1659
#
#
#
# Elastic Compliance Matrix: (Units=1/GPa)
#
#
# Indices 1 2 3 4 5 6 
#
# 1 0.018493 -0.005277 -0.002669 0.000000 0.000000 0.000000
# 2 -0.005277 0.046322 -0.007702 0.000000 0.000000 0.000000
# 3 -0.002669 -0.007702 0.009286 0.000000 0.000000 0.000000
# 4 0.000000 0.000000 0.000000 -4.114875 0.000000 0.000000
# 5 0.000000 0.000000 0.000000 0.000000 0.070987 0.000000
# 6 0.000000 0.000000 0.000000 0.000000 0.000000 -0.315864
#
#
# Mechanical properties :
#
#
# Convention : Reuss Voigt Hill
#
# Bulk Modulus (GPa) = 23.36185 39.37943 31.37064
# Shear Modulus (GPa) = -1.17922 12.86317 5.84198
#
# Velocity S-wave (km/s) = -0.78460 2.59134 1.74635
# Velocity P-wave (km/s) = 3.37268 5.43239 4.52138
#
# Compressibility (1/GPa) = 0.04280484
#
# Stress axis : x y z
#
# Youngs Moduli (GPa) = 54.07475 21.58785 107.69017
#
# Poissons Ratio (x) = 0.11392 0.28742
# Poissons Ratio (y) = 0.28534 0.82947
# Poissons Ratio (z) = 0.14432 0.16628
#
# Static dielectric constant tensor:
#      x y z
#    x 3.347510 0.000000 0.000000 
#    y 0.000000 3.012100 0.000000 
#    z 0.000000 0.000000 4.082880 
# 
# 
# High freq. dielectric constant tensor:
#      x y z
#    x 1.726700 0.000000 0.000000 
#    y 0.000000 1.690960 0.000000 
#    z 0.000000 0.000000 1.776290 
# 
# From -- ./inp_files/24746.got.cif
#   From: 2010.03.12/outbox.cif.g09.slc.cpg/sg51_13_cif.got.tgz:24746.got - 2010.04.16 13:43:02.
