data_PCOD8212464
_publ_section_title
;
Structure prediction by ZEFSAII (Michael W. Deem and Ramdas Pophale) SiO2 
 PCOD8212464
Probable space group: P M M A
;
_chemical_formula_sum "Si O2"
_cell_formula_units_Z 32
_cell_length_a 8.761942
_cell_length_b 12.753738
_cell_length_c 14.213280
_cell_angle_alpha 90.000000
_cell_angle_beta 90.000000
_cell_angle_gamma 90.000000
_cell_volume 1588.298686
_symmetry_space_group_name_H-M "P M M A"
_symmetry_group_IT_number 51
_symmetry_cell_setting 'orthorhombic'
loop_
_space_group_symop_operation_xyz
x,y,z
1/2-x,-y,z
1/2+x,-y,-z
-x,y,-z
-x,-y,-z
1/2+x,y,-z
1/2-x,y,z
x,-y,z
loop_
_atom_site_type_symbol
_atom_site_label
_atom_site_fract_x
_atom_site_fract_y
_atom_site_fract_z
Si Si1 0.568996 0.500000 0.896280
Si Si2 0.073518 0.000000 0.400486
Si Si3 0.569272 0.771862 0.603491
Si Si4 0.929910 0.311746 0.219755
Si Si5 0.428793 0.883530 0.902160
O O1 0.750000 0.500000 0.904637
O O2 0.514710 0.601343 0.840319
O O3 0.500000 0.500000 0.000000
O O4 0.028171 0.888576 0.353182
O O5 0.000000 0.000000 0.500000
O O6 0.250000 0.000000 0.420110
O O7 0.500000 0.755903 0.500000
O O8 0.750000 0.752874 0.598937
O O9 0.491962 0.687750 0.673276
O O10 0.750000 0.333971 0.218667
O O11 0.975074 0.199186 0.176954
O O12 0.250000 0.885582 0.917478
O O13 0.488624 0.000000 0.873063
O O14 0.500000 0.846410 0.000000
#
# Coordination Sequence:
#
# PCOD8212464 Si02
#       5
#     4   4   8   8   8
#     4  12  26  46  69  92 121 156 202 256 308 364
#     4   8  16  30  50  78 115 158 203 246 292 348
#     4  10  20  36  57  86 123 164 208 253 303 357
#     4  11  23  39  62  90 121 158 205 252 304 364
#     4   9  19  35  55  83 118 154 191 237 295 358
#
# _framework density 20.147344
#
# number of rings (size 3 to 8) (size 9 to 14) (size 15 to 20)
#    0.000    2.000    0.000    3.375    1.750    5.000 
#    0.000    0.625    0.000    0.000    0.000    0.000 
#    0.000    0.000    0.000    0.000    0.000    0.000 
#
# Total GULP energy -396586.952325 kJ/mol
# GULP energy per Si atom -12393.342260 kJ/mol
# Density = 2.010149 g / cm^3
# Si number density = 20.147344 Si / 1000 Ang^3
#
#
#
# Elastic Constant Matrix: (Units=GPa)
#
#
# Indices 1 2 3 4 5 6 
#
# 1 96.0269 62.4289 62.8691 0.0000 0.0000 0.0000
# 2 62.4289 91.3330 72.4830 0.0000 0.0000 0.0000
# 3 62.8691 72.4830 137.8730 0.0000 0.0000 0.0000
# 4 0.0000 0.0000 0.0000 33.1887 0.0000 0.0000
# 5 0.0000 0.0000 0.0000 0.0000 36.0593 0.0000
# 6 0.0000 0.0000 0.0000 0.0000 0.0000 28.5885
#
#
#
# Elastic Compliance Matrix: (Units=1/GPa)
#
#
# Indices 1 2 3 4 5 6 
#
# 1 0.019552 -0.010791 -0.003242 0.000000 0.000000 0.000000
# 2 -0.010791 0.024743 -0.008087 0.000000 0.000000 0.000000
# 3 -0.003242 -0.008087 0.012983 0.000000 0.000000 0.000000
# 4 0.000000 0.000000 0.000000 0.030131 0.000000 0.000000
# 5 0.000000 0.000000 0.000000 0.000000 0.027732 0.000000
# 6 0.000000 0.000000 0.000000 0.000000 0.000000 0.034979
#
#
# Mechanical properties :
#
#
# Convention : Reuss Voigt Hill
#
# Bulk Modulus (GPa) = 76.70696 80.08833 78.39765
# Shear Modulus (GPa) = 25.16246 28.06410 26.61328
#
# Velocity S-wave (km/s) = 3.53784 3.73626 3.63841
# Velocity P-wave (km/s) = 7.40568 7.64529 7.52644
#
# Compressibility (1/GPa) = 0.01303663
#
# Stress axis : x y z
#
# Youngs Moduli (GPa) = 51.14505 40.41482 77.02198
#
# Poissons Ratio (x) = 0.43613 0.24974
# Poissons Ratio (y) = 0.55192 0.62291
# Poissons Ratio (z) = 0.16583 0.32685
#
# Static dielectric constant tensor:
#      x y z
#    x 0.000000 0.000000 0.000000 
#    y 0.000000 0.000000 0.000000 
#    z 0.000000 0.000000 0.000000 
# 
# 
# High freq. dielectric constant tensor:
#      x y z
#    x 1.792710 0.000000 0.000000 
#    y 0.000000 1.782560 0.000000 
#    z 0.000000 0.000000 1.785670 
# 
# From -- ./inp_files/20113.got.cif
#   From: 2010.03.12/outbox.cif.g09.slc.cpg/sg51_11_cif.got.tgz:20113.got - 2010.04.16 13:43:02.
