data_PCOD8212800
_publ_section_title
;
Structure prediction by ZEFSAII (Michael W. Deem and Ramdas Pophale) SiO2 
 PCOD8212800
Probable space group: P M M A
;
_chemical_formula_sum "Si O2"
_cell_formula_units_Z 52
_cell_length_a 9.910604
_cell_length_b 10.562656
_cell_length_c 28.419876
_cell_angle_alpha 90.000000
_cell_angle_beta 90.000000
_cell_angle_gamma 90.000000
_cell_volume 2975.058008
_symmetry_space_group_name_H-M "P M M A"
_symmetry_group_IT_number 51
_symmetry_cell_setting 'orthorhombic'
loop_
_space_group_symop_operation_xyz
x,y,z
1/2-x,-y,z
1/2+x,-y,-z
-x,y,-z
-x,-y,-z
1/2+x,y,-z
1/2-x,y,z
x,-y,z
loop_
_atom_site_type_symbol
_atom_site_label
_atom_site_fract_x
_atom_site_fract_y
_atom_site_fract_z
Si Si1 0.410111 0.141370 0.143431
Si Si2 0.473310 0.250295 0.599026
Si Si3 0.407937 0.354779 0.216288
Si Si4 0.600269 0.850866 0.961262
Si Si5 0.250000 0.861329 0.538679
Si Si6 0.250000 0.151200 0.434894
Si Si7 0.593079 0.500000 0.455198
Si Si8 0.596355 0.644841 0.303963
O O1 0.250000 0.135911 0.142786
O O2 0.459888 0.253552 0.177698
O O3 0.459465 0.176423 0.090804
O O4 0.463936 0.000000 0.158279
O O5 0.381151 0.152894 0.570592
O O6 0.625316 0.206557 0.593776
O O7 0.441855 0.383305 0.576646
O O8 0.435967 0.258214 0.653885
O O9 0.250000 0.335235 0.227743
O O10 0.434184 0.500000 0.199266
O O11 0.493356 0.323545 0.262448
O O12 0.750000 0.790779 0.967262
O O13 0.611470 0.000000 0.969108
O O14 0.500000 0.789998 0.000000
O O15 0.250000 0.787539 0.488237
O O16 0.250000 0.000000 0.518112
O O17 0.250000 0.000000 0.432184
O O18 0.750000 0.500000 0.469826
O O19 0.500000 0.500000 0.500000
O O20 0.750000 0.666269 0.286729
O O21 0.576246 0.500000 0.320906
#
# Coordination Sequence:
#
# PCOD8212800 Si02
#       8
#     8   8   8   8   4   4   4   8
#     4   8  14  27  47  71 101 134 166 209 262 306
#     4  12  23  39  61  83 111 139 174 218 262 315
#     4   9  18  32  54  78  98 128 175 219 257 308
#     4   8  13  22  39  64  94 130 168 204 248 300
#     4  11  22  41  63  79 105 150 183 207 248 311
#     4  11  26  43  59  83 111 144 183 215 250 307
#     4  12  24  38  58  90 118 138 168 214 273 320
#     4  10  20  38  57  78 105 137 167 207 266 324
#
# _framework density 17.478652
#
# number of rings (size 3 to 8) (size 9 to 14) (size 15 to 20)
#    0.000    2.154    2.308    2.769    2.154    1.231 
#    0.000    2.308    0.000    1.385    0.000    0.000 
#    0.000    0.000    0.000    0.000    0.000    0.000 
#
# Total GULP energy -644454.459120 kJ/mol
# GULP energy per Si atom -12393.354983 kJ/mol
# Density = 1.743887 g / cm^3
# Si number density = 17.478652 Si / 1000 Ang^3
#
#
#
# Elastic Constant Matrix: (Units=GPa)
#
#
# Indices 1 2 3 4 5 6 
#
# 1 102.4359 32.5615 45.9825 0.0000 0.0000 0.0000
# 2 32.5615 69.6709 50.3003 0.0000 0.0000 0.0000
# 3 45.9825 50.3003 120.1737 0.0000 0.0000 0.0000
# 4 0.0000 0.0000 0.0000 26.1410 0.0000 0.0000
# 5 0.0000 0.0000 0.0000 0.0000 30.2516 0.0000
# 6 0.0000 0.0000 0.0000 0.0000 0.0000 19.1780
#
#
#
# Elastic Compliance Matrix: (Units=1/GPa)
#
#
# Indices 1 2 3 4 5 6 
#
# 1 0.012316 -0.003373 -0.003301 0.000000 0.000000 0.000000
# 2 -0.003373 0.021493 -0.007705 0.000000 0.000000 0.000000
# 3 -0.003301 -0.007705 0.012809 0.000000 0.000000 0.000000
# 4 0.000000 0.000000 0.000000 0.038254 0.000000 0.000000
# 5 0.000000 0.000000 0.000000 0.000000 0.033056 0.000000
# 6 0.000000 0.000000 0.000000 0.000000 0.000000 0.052143
#
#
# Mechanical properties :
#
#
# Convention : Reuss Voigt Hill
#
# Bulk Modulus (GPa) = 55.99138 61.10766 58.54952
# Shear Modulus (GPa) = 24.41606 26.00986 25.21296
#
# Velocity S-wave (km/s) = 3.74158 3.86177 3.80215
# Velocity P-wave (km/s) = 7.12528 7.41091 7.26949
#
# Compressibility (1/GPa) = 0.01785989
#
# Stress axis : x y z
#
# Youngs Moduli (GPa) = 81.19478 46.52742 78.06731
#
# Poissons Ratio (x) = 0.15694 0.25768
# Poissons Ratio (y) = 0.27387 0.60154
# Poissons Ratio (z) = 0.26800 0.35851
#
# Static dielectric constant tensor:
#      x y z
#    x 3.298780 0.000000 0.000000 
#    y 0.000000 3.254970 0.000000 
#    z 0.000000 0.000000 3.933650 
# 
# 
# High freq. dielectric constant tensor:
#      x y z
#    x 1.668610 0.000000 0.000000 
#    y 0.000000 1.657390 0.000000 
#    z 0.000000 0.000000 1.671360 
# 
# From -- ./inp_files/36288.got.cif
#   From: 2010.03.12/outbox.cif.g09.slc.cpg/sg51_19_cif.got.tgz:36288.got - 2010.04.16 13:43:02.
