data_PCOD8212135
_publ_section_title
;
Structure prediction by ZEFSAII (Michael W. Deem and Ramdas Pophale) SiO2 
 PCOD8212135
Probable space group: P M M A
;
_chemical_formula_sum "Si O2"
_cell_formula_units_Z 48
_cell_length_a 19.533507
_cell_length_b 13.947981
_cell_length_c 8.951530
_cell_angle_alpha 90.000000
_cell_angle_beta 90.000000
_cell_angle_gamma 90.000000
_cell_volume 2438.871064
_symmetry_space_group_name_H-M "P M M A"
_symmetry_group_IT_number 51
_symmetry_cell_setting 'orthorhombic'
loop_
_space_group_symop_operation_xyz
x,y,z
1/2-x,-y,z
1/2+x,-y,-z
-x,y,-z
-x,-y,-z
1/2+x,y,-z
1/2-x,y,z
x,-y,z
loop_
_atom_site_type_symbol
_atom_site_label
_atom_site_fract_x
_atom_site_fract_y
_atom_site_fract_z
Si Si1 0.074535 0.392974 0.434263
Si Si2 0.543582 0.894502 0.200781
Si Si3 0.622554 0.108570 0.487518
Si Si4 0.829584 0.805459 0.059959
Si Si5 0.085577 0.217599 0.223542
Si Si6 0.823947 0.707728 0.354595
O O1 0.094386 0.500000 0.381305
O O2 0.080428 0.322823 0.294035
O O3 0.121572 0.361712 0.571995
O O4 0.000000 0.389654 0.500000
O O5 0.556319 0.883564 0.378916
O O6 0.616466 0.885687 0.115025
O O7 0.486946 0.815663 0.150091
O O8 0.514579 0.000000 0.164136
O O9 0.602074 0.135798 0.655397
O O10 0.677350 0.185232 0.426500
O O11 0.652378 0.000000 0.485856
O O12 0.750000 0.841690 0.055375
O O13 0.836813 0.716718 0.176255
O O14 0.853212 0.773432 0.895537
O O15 0.750000 0.661734 0.384658
#
# Coordination Sequence:
#
# PCOD8212135 Si02
#       6
#     8   8   8   8   8   8
#     4  10  21  38  61  87 110 135 174 227 284 336
#     4  10  20  35  56  80 109 150 194 227 261 316
#     4   9  18  32  53  81 110 140 180 229 275 320
#     4  10  22  37  52  75 112 152 184 220 269 320
#     4  11  20  33  57  85 112 142 179 230 282 329
#     4   9  19  37  57  76 104 145 187 221 260 321
#
# _framework density 19.681239000000001
#
# number of rings (size 3 to 8) (size 9 to 14) (size 15 to 20)
#    0.000    2.167    0.000    4.500    0.000    7.000 
#    0.000    4.167    0.000    5.000    0.000    0.000 
#    0.000    0.000    0.000    0.000    0.000    0.000 
#
# Total GULP energy -594867.018538 kJ/mol
# GULP energy per Si atom -12393.062886 kJ/mol
# Density = 1.963644 g / cm^3
# Si number density = 19.681239 Si / 1000 Ang^3
#
#
#
# Elastic Constant Matrix: (Units=GPa)
#
#
# Indices 1 2 3 4 5 6 
#
# 1 123.5762 43.7484 53.8799 0.0000 0.0000 0.0000
# 2 43.7484 115.7456 47.6719 0.0000 0.0000 0.0000
# 3 53.8799 47.6719 105.8695 0.0000 0.0000 0.0000
# 4 0.0000 0.0000 0.0000 8.4661 0.0000 0.0000
# 5 0.0000 0.0000 0.0000 0.0000 26.4919 0.0000
# 6 0.0000 0.0000 0.0000 0.0000 0.0000 19.8465
#
#
#
# Elastic Compliance Matrix: (Units=1/GPa)
#
#
# Indices 1 2 3 4 5 6 
#
# 1 0.010855 -0.002244 -0.004514 0.000000 0.000000 0.000000
# 2 -0.002244 0.011070 -0.003843 0.000000 0.000000 0.000000
# 3 -0.004514 -0.003843 0.013473 0.000000 0.000000 0.000000
# 4 0.000000 0.000000 0.000000 0.118118 0.000000 0.000000
# 5 0.000000 0.000000 0.000000 0.000000 0.037747 0.000000
# 6 0.000000 0.000000 0.000000 0.000000 0.000000 0.050387
#
#
# Mechanical properties :
#
#
# Convention : Reuss Voigt Hill
#
# Bulk Modulus (GPa) = 70.43639 70.64350 70.53995
# Shear Modulus (GPa) = 18.68573 24.28698 21.48635
#
# Velocity S-wave (km/s) = 3.08461 3.51667 3.30770
# Velocity P-wave (km/s) = 6.96798 7.24300 7.10682
#
# Compressibility (1/GPa) = 0.01419721
#
# Stress axis : x y z
#
# Youngs Moduli (GPa) = 92.12748 90.33023 74.22051
#
# Poissons Ratio (x) = 0.20266 0.33503
# Poissons Ratio (y) = 0.20669 0.28524
# Poissons Ratio (z) = 0.41586 0.34715
#
# Static dielectric constant tensor:
#      x y z
#    x 3.587410 0.000000 0.000000 
#    y 0.000000 3.501570 0.000000 
#    z 0.000000 0.000000 3.661620 
# 
# 
# High freq. dielectric constant tensor:
#      x y z
#    x 1.767560 0.000000 0.000000 
#    y 0.000000 1.736600 0.000000 
#    z 0.000000 0.000000 1.770380 
# 
# From -- ./inp_files/10784.got.cif
#   From: 2010.03.12/outbox.cif.g09.slc.cpg/sg51_6_cif.got.tgz:10784.got - 2010.04.16 13:43:02.
