data_PCOD8212524
_publ_section_title
;
Structure prediction by ZEFSAII (Michael W. Deem and Ramdas Pophale) SiO2 
 PCOD8212524
Probable space group: P M M A
;
_chemical_formula_sum "Si O2"
_cell_formula_units_Z 48
_cell_length_a 30.556031
_cell_length_b 8.863233
_cell_length_c 9.170642
_cell_angle_alpha 90.000000
_cell_angle_beta 90.000000
_cell_angle_gamma 90.000000
_cell_volume 2483.641158
_symmetry_space_group_name_H-M "P M M A"
_symmetry_group_IT_number 51
_symmetry_cell_setting 'orthorhombic'
loop_
_space_group_symop_operation_xyz
x,y,z
1/2-x,-y,z
1/2+x,-y,-z
-x,y,-z
-x,-y,-z
1/2+x,y,-z
1/2-x,y,z
x,-y,z
loop_
_atom_site_type_symbol
_atom_site_label
_atom_site_fract_x
_atom_site_fract_y
_atom_site_fract_z
Si Si1 0.458327 0.678956 0.586014
Si Si2 0.300584 0.174145 0.578040
Si Si3 0.201787 0.820635 0.905405
Si Si4 0.875523 0.678154 0.594381
Si Si5 0.878689 0.178270 0.906474
Si Si6 0.045206 0.325292 0.917767
O O1 0.500000 0.747464 0.500000
O O2 0.460303 0.500000 0.578485
O O3 0.413722 0.738311 0.512288
O O4 0.460192 0.733005 0.752726
O O5 0.250000 0.195825 0.535750
O O6 0.309331 0.235311 0.741731
O O7 0.328746 0.270339 0.465232
O O8 0.314296 0.000000 0.563675
O O9 0.250000 0.761025 0.952434
O O10 0.202360 0.000000 0.901360
O O11 0.165898 0.760000 0.018567
O O12 0.876477 0.500000 0.607186
O O13 0.884631 0.744112 0.752401
O O14 0.876735 0.000000 0.885688
O O15 0.918823 0.220858 0.008772
O O16 0.059962 0.500000 0.924043
O O17 0.000000 0.300888 0.000000
#
# Coordination Sequence:
#
# PCOD8212524 Si02
#       6
#     8   8   8   8   8   8
#     4   9  18  34  56  80 105 137 177 218 266 325
#     4   9  18  35  58  80 104 137 176 218 267 321
#     4   8  16  33  56  79 103 136 178 220 264 316
#     4  11  22  35  53  78 110 144 179 220 264 316
#     4  11  22  35  54  80 110 143 182 226 269 317
#     4  10  20  36  59  82 106 139 178 221 272 328
#
# _framework density 19.326464000000001
#
# number of rings (size 3 to 8) (size 9 to 14) (size 15 to 20)
#    0.000    2.333    0.000    4.000    0.000    4.000 
#    0.000    3.333    0.000    7.000    0.000    0.000 
#    0.000    0.000    0.000    0.000    0.000    0.000 
#
# Total GULP energy -595256.879600 kJ/mol
# GULP energy per Si atom -12401.184992 kJ/mol
# Density = 1.928248 g / cm^3
# Si number density = 19.326464 Si / 1000 Ang^3
#
#
#
# Elastic Constant Matrix: (Units=GPa)
#
#
# Indices 1 2 3 4 5 6 
#
# 1 120.2451 35.6573 73.4837 0.0000 0.0000 0.0000
# 2 35.6573 46.7800 32.8787 0.0000 0.0000 0.0000
# 3 73.4837 32.8787 157.2645 0.0000 0.0000 0.0000
# 4 0.0000 0.0000 0.0000 28.3818 0.0000 0.0000
# 5 0.0000 0.0000 0.0000 0.0000 40.5184 0.0000
# 6 0.0000 0.0000 0.0000 0.0000 0.0000 27.0951
#
#
#
# Elastic Compliance Matrix: (Units=1/GPa)
#
#
# Indices 1 2 3 4 5 6 
#
# 1 0.013230 -0.006728 -0.004775 0.000000 0.000000 0.000000
# 2 -0.006728 0.028480 -0.002811 0.000000 0.000000 0.000000
# 3 -0.004775 -0.002811 0.009178 0.000000 0.000000 0.000000
# 4 0.000000 0.000000 0.000000 0.035234 0.000000 0.000000
# 5 0.000000 0.000000 0.000000 0.000000 0.024680 0.000000
# 6 0.000000 0.000000 0.000000 0.000000 0.000000 0.036907
#
#
# Mechanical properties :
#
#
# Convention : Reuss Voigt Hill
#
# Bulk Modulus (GPa) = 44.92317 67.59213 56.25765
# Shear Modulus (GPa) = 27.21003 31.35038 29.28021
#
# Velocity S-wave (km/s) = 3.75629 4.03196 3.89656
# Velocity P-wave (km/s) = 6.48905 7.53163 7.02969
#
# Compressibility (1/GPa) = 0.02226023
#
# Stress axis : x y z
#
# Youngs Moduli (GPa) = 75.58825 35.11198 108.96181
#
# Poissons Ratio (x) = 0.23623 0.52030
# Poissons Ratio (y) = 0.50855 0.30624
# Poissons Ratio (z) = 0.36094 0.09868
#
# Static dielectric constant tensor:
#      x y z
#    x 4.007500 0.000000 0.000000 
#    y 0.000000 3.164040 0.000000 
#    z 0.000000 0.000000 3.681500 
# 
# 
# High freq. dielectric constant tensor:
#      x y z
#    x 1.766470 0.000000 0.000000 
#    y 0.000000 1.716850 0.000000 
#    z 0.000000 0.000000 1.763210 
# 
# From -- ./inp_files/12761.got.cif
#   From: 2010.03.12/outbox.cif.g09.slc.cpg/sg51_7_cif.got.tgz:12761.got - 2010.04.16 13:43:02.
