data_PCOD8212743
_publ_section_title
;
Structure prediction by ZEFSAII (Michael W. Deem and Ramdas Pophale) SiO2 
 PCOD8212743
Probable space group: P M M A
;
_chemical_formula_sum "Si O2"
_cell_formula_units_Z 64
_cell_length_a 14.918995
_cell_length_b 9.200814
_cell_length_c 23.574064
_cell_angle_alpha 90.000000
_cell_angle_beta 90.000000
_cell_angle_gamma 90.000000
_cell_volume 3235.938640
_symmetry_space_group_name_H-M "P M M A"
_symmetry_group_IT_number 51
_symmetry_cell_setting 'orthorhombic'
loop_
_space_group_symop_operation_xyz
x,y,z
1/2-x,-y,z
1/2+x,-y,-z
-x,y,-z
-x,-y,-z
1/2+x,y,-z
1/2-x,y,z
x,-y,z
loop_
_atom_site_type_symbol
_atom_site_label
_atom_site_fract_x
_atom_site_fract_y
_atom_site_fract_z
Si Si1 0.350490 0.168090 0.216509
Si Si2 0.150158 0.833043 0.758812
Si Si3 0.149256 0.661596 0.994585
Si Si4 0.089209 0.160710 0.097147
Si Si5 0.985081 0.172235 0.588005
Si Si6 0.010685 0.673078 0.294988
Si Si7 0.148181 0.828801 0.511222
Si Si8 0.384717 0.161514 0.884227
O O1 0.250000 0.188113 0.240024
O O2 0.349913 0.213021 0.149784
O O3 0.415335 0.273360 0.250654
O O4 0.382021 0.000000 0.222566
O O5 0.250000 0.818926 0.733318
O O6 0.153260 0.782776 0.824377
O O7 0.087149 0.728411 0.722782
O O8 0.115883 0.000000 0.754616
O O9 0.250000 0.661702 0.018138
O O10 0.111177 0.500000 0.987346
O O11 0.148561 0.735186 0.933642
O O12 0.089453 0.739250 0.041815
O O13 0.990542 0.161126 0.122133
O O14 0.118845 0.000000 0.077005
O O15 0.965394 0.262245 0.644120
O O16 0.903223 0.215728 0.546382
O O17 0.082702 0.219342 0.562905
O O18 0.984277 0.000000 0.600324
O O19 0.011267 0.500000 0.297107
O O20 0.250000 0.760821 0.514910
O O21 0.157867 0.000000 0.513048
O O22 0.348437 0.000000 0.897582
#
# Coordination Sequence:
#
# PCOD8212743 Si02
#       8
#     8   8   8   8   8   8   8   8
#     4  10  21  40  65  87 110 148 200 253 299 348
#     4  10  21  40  65  87 110 148 200 253 299 348
#     4  11  24  37  50  76 114 149 182 224 281 355
#     4  10  20  37  61  84 106 136 183 240 294 349
#     4   9  18  34  58  86 117 153 199 246 283 335
#     4  12  25  39  57  85 127 166 197 240 292 352
#     4   8  15  31  58  90 118 148 192 247 296 329
#     4  10  20  37  61  84 106 136 183 240 294 349
#
# _framework density 19.777878000000001
#
# number of rings (size 3 to 8) (size 9 to 14) (size 15 to 20)
#    0.000    2.000    1.250    3.375    0.000    6.500 
#    0.000    3.750    0.000    0.750    0.000    0.000 
#    0.000    0.000    0.000    0.000    0.000    0.000 
#
# Total GULP energy -793462.614143 kJ/mol
# GULP energy per Si atom -12397.853346 kJ/mol
# Density = 1.973286 g / cm^3
# Si number density = 19.777878 Si / 1000 Ang^3
#
#
#
# Elastic Constant Matrix: (Units=GPa)
#
#
# Indices 1 2 3 4 5 6 
#
# 1 88.7988 15.6537 6.8618 0.0000 0.0000 0.0000
# 2 15.6537 92.1920 42.5698 0.0000 0.0000 0.0000
# 3 6.8618 42.5698 78.1453 0.0000 0.0000 0.0000
# 4 0.0000 0.0000 0.0000 -5.6171 0.0000 0.0000
# 5 0.0000 0.0000 0.0000 0.0000 -122.3790 0.0000
# 6 0.0000 0.0000 0.0000 0.0000 0.0000 18.2865
#
#
#
# Elastic Compliance Matrix: (Units=1/GPa)
#
#
# Indices 1 2 3 4 5 6 
#
# 1 0.011609 -0.002005 0.000073 0.000000 0.000000 0.000000
# 2 -0.002005 0.014839 -0.007907 0.000000 0.000000 0.000000
# 3 0.000073 -0.007907 0.017098 0.000000 0.000000 0.000000
# 4 0.000000 0.000000 0.000000 -0.178029 0.000000 0.000000
# 5 0.000000 0.000000 0.000000 0.000000 -0.008171 0.000000
# 6 0.000000 0.000000 0.000000 0.000000 0.000000 0.054685
#
#
# Mechanical properties :
#
#
# Convention : Reuss Voigt Hill
#
# Bulk Modulus (GPa) = 41.89908 43.25630 42.57769
# Shear Modulus (GPa) = -82.86980 -9.00519 -45.93749
#
# Velocity S-wave (km/s) = -6.48006 -2.13613 -4.82464
# Velocity P-wave (km/s) = 5.89555 3.97926 3.07595
#
# Compressibility (1/GPa) = 0.02386688
#
# Stress axis : x y z
#
# Youngs Moduli (GPa) = 86.13856 67.39214 58.48706
#
# Poissons Ratio (x) = 0.13510 -0.00425
# Poissons Ratio (y) = 0.17269 0.46247
# Poissons Ratio (z) = -0.00626 0.53289
#
# Static dielectric constant tensor:
#      x y z
#    x 3.879090 0.000000 0.000000 
#    y 0.000000 3.366520 0.000000 
#    z 0.000000 0.000000 3.478220 
# 
# 
# High freq. dielectric constant tensor:
#      x y z
#    x 1.785380 0.000000 0.000000 
#    y 0.000000 1.739120 0.000000 
#    z 0.000000 0.000000 1.767420 
# 
# From -- ./inp_files/35834.got.cif
#   From: 2010.03.12/outbox.cif.g09.slc.cpg/sg51_18_cif.got.tgz:35834.got - 2010.04.16 13:43:02.
