data_PCOD8212120
_publ_section_title
;
Structure prediction by ZEFSAII (Michael W. Deem and Ramdas Pophale) SiO2 
 PCOD8212120
Probable space group: P M M A
;
_chemical_formula_sum "Si O2"
_cell_formula_units_Z 40
_cell_length_a 17.540615
_cell_length_b 12.714593
_cell_length_c 9.544329
_cell_angle_alpha 90.000000
_cell_angle_beta 90.000000
_cell_angle_gamma 90.000000
_cell_volume 2128.593249
_symmetry_space_group_name_H-M "P M M A"
_symmetry_group_IT_number 51
_symmetry_cell_setting 'orthorhombic'
loop_
_space_group_symop_operation_xyz
x,y,z
1/2-x,-y,z
1/2+x,-y,-z
-x,y,-z
-x,-y,-z
1/2+x,y,-z
1/2-x,y,z
x,-y,z
loop_
_atom_site_type_symbol
_atom_site_label
_atom_site_fract_x
_atom_site_fract_y
_atom_site_fract_z
Si Si1 0.421327 0.000000 0.073861
Si Si2 0.661910 0.619621 0.163312
Si Si3 0.415189 0.379312 0.546183
Si Si4 0.574856 0.000000 0.594352
Si Si5 0.839443 0.789738 0.937797
Si Si6 0.161799 0.206713 0.377120
O O1 0.437660 0.000000 0.239271
O O2 0.375924 0.899489 0.016909
O O3 0.500000 0.000000 0.000000
O O4 0.750000 0.643525 0.208314
O O5 0.656010 0.500000 0.108690
O O6 0.602371 0.637361 0.289786
O O7 0.633716 0.695392 0.038695
O O8 0.500000 0.342833 0.500000
O O9 0.402165 0.500000 0.502815
O O10 0.353587 0.310199 0.466105
O O11 0.500000 0.000000 0.500000
O O12 0.620367 0.894230 0.555567
O O13 0.750000 0.803727 0.947859
O O14 0.865920 0.765575 0.779643
O O15 0.250000 0.178208 0.378671
#
# Coordination Sequence:
#
# PCOD8212120 Si02
#       6
#     4   8   8   4   8   8
#     4  10  21  35  53  77 105 138 173 211 256 307
#     4   9  18  34  55  78 105 137 173 217 268 317
#     4  10  21  36  53  76 108 143 177 216 264 315
#     4  10  21  37  55  77 109 142 172 213 264 313
#     4   9  19  35  55  78 105 136 171 215 264 313
#     4  10  20  35  56  80 105 137 178 220 263 313
#
# _framework density 18.791754000000001
#
# number of rings (size 3 to 8) (size 9 to 14) (size 15 to 20)
#    0.000    2.400    0.000    1.800    0.000    9.200 
#    0.000    2.000    0.000    7.800    0.000    0.000 
#    0.000    0.000    0.000    0.000    0.000    0.000 
#
# Total GULP energy -495926.987525 kJ/mol
# GULP energy per Si atom -12398.174688 kJ/mol
# Density = 1.874898 g / cm^3
# Si number density = 18.791754 Si / 1000 Ang^3
#
#
#
# Elastic Constant Matrix: (Units=GPa)
#
#
# Indices 1 2 3 4 5 6 
#
# 1 51.2175 43.3064 39.3117 0.0000 0.0000 0.0000
# 2 43.3064 132.2529 71.5222 0.0000 0.0000 0.0000
# 3 39.3117 71.5222 78.6102 0.0000 0.0000 0.0000
# 4 0.0000 0.0000 0.0000 16.9570 0.0000 0.0000
# 5 0.0000 0.0000 0.0000 0.0000 33.1682 0.0000
# 6 0.0000 0.0000 0.0000 0.0000 0.0000 16.2090
#
#
#
# Elastic Compliance Matrix: (Units=1/GPa)
#
#
# Indices 1 2 3 4 5 6 
#
# 1 0.032560 -0.003654 -0.012958 0.000000 0.000000 0.000000
# 2 -0.003654 0.015296 -0.012089 0.000000 0.000000 0.000000
# 3 -0.012958 -0.012089 0.030200 0.000000 0.000000 0.000000
# 4 0.000000 0.000000 0.000000 0.058973 0.000000 0.000000
# 5 0.000000 0.000000 0.000000 0.000000 0.030149 0.000000
# 6 0.000000 0.000000 0.000000 0.000000 0.000000 0.061694
#
#
# Mechanical properties :
#
#
# Convention : Reuss Voigt Hill
#
# Bulk Modulus (GPa) = 48.41847 63.37347 55.89597
# Shear Modulus (GPa) = 17.05557 20.46287 18.75922
#
# Velocity S-wave (km/s) = 3.01592 3.30347 3.16297
# Velocity P-wave (km/s) = 6.16031 6.95326 6.56876
#
# Compressibility (1/GPa) = 0.02065328
#
# Stress axis : x y z
#
# Youngs Moduli (GPa) = 30.71226 65.37851 33.11239
#
# Poissons Ratio (x) = 0.23890 0.42908
# Poissons Ratio (y) = 0.11223 0.40030
# Poissons Ratio (z) = 0.39798 0.79036
#
# Static dielectric constant tensor:
#      x y z
#    x 3.027820 0.000000 0.000000 
#    y 0.000000 3.551950 0.000000 
#    z 0.000000 0.000000 3.009880 
# 
# 
# High freq. dielectric constant tensor:
#      x y z
#    x 1.726700 0.000000 0.000000 
#    y 0.000000 1.742600 0.000000 
#    z 0.000000 0.000000 1.721280 
# 
# From -- ./inp_files/7986.got.cif
#   From: 2010.03.12/outbox.cif.g09.slc.cpg/sg51_4_cif.got.tgz:7986.got - 2010.04.16 13:43:02.
