data_PCOD8212841
_publ_section_title
;
Structure prediction by ZEFSAII (Michael W. Deem and Ramdas Pophale) SiO2 
 PCOD8212841
Probable space group: P M M A
;
_chemical_formula_sum "Si O2"
_cell_formula_units_Z 48
_cell_length_a 8.956423
_cell_length_b 16.617817
_cell_length_c 15.766468
_cell_angle_alpha 90.000000
_cell_angle_beta 90.000000
_cell_angle_gamma 90.000000
_cell_volume 2346.621159
_symmetry_space_group_name_H-M "P M M A"
_symmetry_group_IT_number 51
_symmetry_cell_setting 'orthorhombic'
loop_
_space_group_symop_operation_xyz
x,y,z
1/2-x,-y,z
1/2+x,-y,-z
-x,y,-z
-x,-y,-z
1/2+x,y,-z
1/2-x,y,z
x,-y,z
loop_
_atom_site_type_symbol
_atom_site_label
_atom_site_fract_x
_atom_site_fract_y
_atom_site_fract_z
Si Si1 0.073247 0.322102 0.413134
Si Si2 0.420937 0.829386 0.653329
Si Si3 0.080958 0.153562 0.845208
Si Si4 0.923589 0.677948 0.085212
Si Si5 0.575236 0.000000 0.909382
Si Si6 0.421759 0.594854 0.744349
Si Si7 0.075200 0.000000 0.589533
O O1 0.250000 0.328652 0.420457
O O2 0.000000 0.355040 0.500000
O O3 0.025725 0.229268 0.400542
O O4 0.017518 0.375556 0.335064
O O5 0.250000 0.817416 0.623100
O O6 0.438357 0.808789 0.752021
O O7 0.475226 0.921063 0.640850
O O8 0.250000 0.121743 0.857844
O O9 0.044428 0.226365 0.908833
O O10 0.970030 0.079669 0.858485
O O11 0.750000 0.659155 0.077312
O O12 0.986428 0.632534 0.168398
O O13 0.000000 0.644575 0.000000
O O14 0.750000 0.000000 0.922392
O O15 0.500000 0.000000 0.000000
O O16 0.250000 0.622218 0.730520
O O17 0.436514 0.500000 0.751532
O O18 0.000000 0.000000 0.500000
O O19 0.250000 0.000000 0.575792
#
# Coordination Sequence:
#
# PCOD8212841 Si02
#       7
#     8   8   8   8   4   8   4
#     4  12  25  41  65  95 129 167 209 256 311 372
#     4  10  20  39  63  87 119 162 210 255 309 367
#     4  10  20  38  62  85 117 160 208 258 313 367
#     4  10  21  38  63  94 126 164 205 251 307 371
#     4  12  25  38  54  82 120 160 213 263 310 367
#     4  10  22  44  70  94 124 163 207 256 312 373
#     4  10  21  34  54  82 116 158 203 253 301 355
#
# _framework density 20.454943
#
# number of rings (size 3 to 8) (size 9 to 14) (size 15 to 20)
#    0.000    1.500    1.667    3.750    0.000    7.667 
#    0.000    0.833    0.000    0.000    0.000    0.000 
#    0.000    0.000    0.000    0.000    0.000    0.000 
#
# Total GULP energy -595379.653678 kJ/mol
# GULP energy per Si atom -12403.742785 kJ/mol
# Density = 2.040839 g / cm^3
# Si number density = 20.454943 Si / 1000 Ang^3
#
#
#
# Elastic Constant Matrix: (Units=GPa)
#
#
# Indices 1 2 3 4 5 6 
#
# 1 109.8904 42.4857 60.2544 0.0000 0.0000 0.0000
# 2 42.4857 83.5098 42.0445 0.0000 0.0000 0.0000
# 3 60.2544 42.0445 147.7639 0.0000 0.0000 0.0000
# 4 0.0000 0.0000 0.0000 19.4927 0.0000 0.0000
# 5 0.0000 0.0000 0.0000 0.0000 37.2193 0.0000
# 6 0.0000 0.0000 0.0000 0.0000 0.0000 25.2340
#
#
#
# Elastic Compliance Matrix: (Units=1/GPa)
#
#
# Indices 1 2 3 4 5 6 
#
# 1 0.013098 -0.004639 -0.004021 0.000000 0.000000 0.000000
# 2 -0.004639 0.015620 -0.002553 0.000000 0.000000 0.000000
# 3 -0.004021 -0.002553 0.009134 0.000000 0.000000 0.000000
# 4 0.000000 0.000000 0.000000 0.051301 0.000000 0.000000
# 5 0.000000 0.000000 0.000000 0.000000 0.026868 0.000000
# 6 0.000000 0.000000 0.000000 0.000000 0.000000 0.039629
#
#
# Mechanical properties :
#
#
# Convention : Reuss Voigt Hill
#
# Bulk Modulus (GPa) = 64.82647 70.08147 67.45397
# Shear Modulus (GPa) = 27.28977 29.48115 28.38546
#
# Velocity S-wave (km/s) = 3.65655 3.80053 3.72923
# Velocity P-wave (km/s) = 7.04189 7.32082 7.18271
#
# Compressibility (1/GPa) = 0.01542580
#
# Stress axis : x y z
#
# Youngs Moduli (GPa) = 76.34467 64.01991 109.48551
#
# Poissons Ratio (x) = 0.29701 0.44026
# Poissons Ratio (y) = 0.35419 0.27949
# Poissons Ratio (z) = 0.30699 0.16343
#
# Static dielectric constant tensor:
#      x y z
#    x 3.604770 0.000000 0.000000 
#    y 0.000000 3.800170 0.000000 
#    z 0.000000 0.000000 3.782180 
# 
# 
# High freq. dielectric constant tensor:
#      x y z
#    x 1.782000 0.000000 0.000000 
#    y 0.000000 1.802380 0.000000 
#    z 0.000000 0.000000 1.812330 
# 
# From -- ./inp_files/21157.got.cif
#   From: 2010.03.12/outbox.cif.g09.slc.cpg/sg51_11_cif.got.tgz:21157.got - 2010.04.16 13:43:02.
