data_PCOD8212761
_publ_section_title
;
Structure prediction by ZEFSAII (Michael W. Deem and Ramdas Pophale) SiO2 
 PCOD8212761
Probable space group: P M M A
;
_chemical_formula_sum "Si O2"
_cell_formula_units_Z 48
_cell_length_a 16.176918
_cell_length_b 8.533279
_cell_length_c 17.029918
_cell_angle_alpha 90.000000
_cell_angle_beta 90.000000
_cell_angle_gamma 90.000000
_cell_volume 2350.846574
_symmetry_space_group_name_H-M "P M M A"
_symmetry_group_IT_number 51
_symmetry_cell_setting 'orthorhombic'
loop_
_space_group_symop_operation_xyz
x,y,z
1/2-x,-y,z
1/2+x,-y,-z
-x,y,-z
-x,-y,-z
1/2+x,y,-z
1/2-x,y,z
x,-y,z
loop_
_atom_site_type_symbol
_atom_site_label
_atom_site_fract_x
_atom_site_fract_y
_atom_site_fract_z
Si Si1 0.940773 0.314772 0.161305
Si Si2 0.909242 0.685812 0.475770
Si Si3 0.250000 0.319835 0.267012
Si Si4 0.250000 0.182374 0.435923
Si Si5 0.382122 0.179868 0.156373
Si Si6 0.844053 0.322743 0.006721
Si Si7 0.658310 0.314257 0.311770
O O1 0.957969 0.500000 0.166001
O O2 0.900400 0.267634 0.078695
O O3 0.882500 0.255691 0.231455
O O4 0.023270 0.217316 0.170956
O O5 0.908226 0.500000 0.483672
O O6 0.834393 0.746950 0.529199
O O7 0.894940 0.742131 0.386376
O O8 0.000000 0.751473 0.500000
O O9 0.250000 0.500000 0.293672
O O10 0.250000 0.211612 0.343195
O O11 0.330193 0.287970 0.214540
O O12 0.250000 0.000000 0.453755
O O13 0.362923 0.000000 0.175638
O O14 0.358385 0.210233 0.066356
O O15 0.750000 0.313860 0.035862
O O16 0.867248 0.500000 0.981390
O O17 0.750000 0.241349 0.318008
O O18 0.664296 0.500000 0.311475
#
# Coordination Sequence:
#
# PCOD8212761 Si02
#       7
#     8   8   4   4   8   8   8
#     4  10  21  36  60  92 122 162 214 258 299 358
#     4  10  21  39  66  98 128 169 220 264 312 377
#     4  12  26  46  70  89 114 157 208 259 310 371
#     4  12  26  44  66  97 134 169 206 261 330 389
#     4  12  25  41  60  89 125 160 197 252 322 379
#     4  10  20  37  61  88 120 164 216 260 301 356
#     4   9  17  34  61  92 124 157 207 267 306 344
#
# _framework density 20.418177
#
# number of rings (size 3 to 8) (size 9 to 14) (size 15 to 20)
#    0.000    1.500    1.667    4.000    2.333    5.000 
#    0.000    0.833    0.000    1.000    0.000    0.000 
#    0.000    0.000    0.000    0.000    0.000    0.000 
#
# Total GULP energy -595326.171313 kJ/mol
# GULP energy per Si atom -12402.628569 kJ/mol
# Density = 2.037170 g / cm^3
# Si number density = 20.418177 Si / 1000 Ang^3
#
#
#
# Elastic Constant Matrix: (Units=GPa)
#
#
# Indices 1 2 3 4 5 6 
#
# 1 150.6329 19.2925 49.3998 0.0000 0.0000 0.0000
# 2 19.2925 48.3970 11.5684 0.0000 0.0000 0.0000
# 3 49.3998 11.5684 125.0170 0.0000 0.0000 0.0000
# 4 0.0000 0.0000 0.0000 15.5502 0.0000 0.0000
# 5 0.0000 0.0000 0.0000 0.0000 48.0487 0.0000
# 6 0.0000 0.0000 0.0000 0.0000 0.0000 1.6535
#
#
#
# Elastic Compliance Matrix: (Units=1/GPa)
#
#
# Indices 1 2 3 4 5 6 
#
# 1 0.007903 -0.002458 -0.002895 0.000000 0.000000 0.000000
# 2 -0.002458 0.021894 -0.001055 0.000000 0.000000 0.000000
# 3 -0.002895 -0.001055 0.009241 0.000000 0.000000 0.000000
# 4 0.000000 0.000000 0.000000 0.064308 0.000000 0.000000
# 5 0.000000 0.000000 0.000000 0.000000 0.020812 0.000000
# 6 0.000000 0.000000 0.000000 0.000000 0.000000 0.604775
#
#
# Mechanical properties :
#
#
# Convention : Reuss Voigt Hill
#
# Bulk Modulus (GPa) = 38.13657 53.84091 45.98874
# Shear Modulus (GPa) = 6.66231 29.30291 17.98261
#
# Velocity S-wave (km/s) = 1.80832 3.79243 2.97091
# Velocity P-wave (km/s) = 4.80399 6.75300 5.86009
#
# Compressibility (1/GPa) = 0.02622155
#
# Stress axis : x y z
#
# Youngs Moduli (GPa) = 126.53372 45.67364 108.21826
#
# Poissons Ratio (x) = 0.11228 0.31333
# Poissons Ratio (y) = 0.31106 0.11413
# Poissons Ratio (z) = 0.36636 0.04817
#
# Static dielectric constant tensor:
#      x y z
#    x 3.930400 0.000000 0.000000 
#    y 0.000000 3.380310 0.000000 
#    z 0.000000 0.000000 3.843740 
# 
# 
# High freq. dielectric constant tensor:
#      x y z
#    x 1.815650 0.000000 0.000000 
#    y 0.000000 1.767810 0.000000 
#    z 0.000000 0.000000 1.809350 
# 
# From -- ./inp_files/29595.got.cif
#   From: 2010.03.12/outbox.cif.g09.slc.cpg/sg51_15_cif.got.tgz:29595.got - 2010.04.16 13:43:02.
