data_PCOD8212248
_publ_section_title
;
Structure prediction by ZEFSAII (Michael W. Deem and Ramdas Pophale) SiO2 
 PCOD8212248
Probable space group: P M M A
;
_chemical_formula_sum "Si O2"
_cell_formula_units_Z 48
_cell_length_a 27.861093
_cell_length_b 8.954703
_cell_length_c 10.219365
_cell_angle_alpha 90.000000
_cell_angle_beta 90.000000
_cell_angle_gamma 90.000000
_cell_volume 2549.607025
_symmetry_space_group_name_H-M "P M M A"
_symmetry_group_IT_number 51
_symmetry_cell_setting 'orthorhombic'
loop_
_space_group_symop_operation_xyz
x,y,z
1/2-x,-y,z
1/2+x,-y,-z
-x,y,-z
-x,-y,-z
1/2+x,y,-z
1/2-x,y,z
x,-y,z
loop_
_atom_site_type_symbol
_atom_site_label
_atom_site_fract_x
_atom_site_fract_y
_atom_site_fract_z
Si Si1 0.195189 0.674216 0.639722
Si Si2 0.555744 0.172021 0.502914
Si Si3 0.891609 0.325675 0.737168
Si Si4 0.555539 0.325688 0.002767
Si Si5 0.804225 0.824914 0.635691
Si Si6 0.390201 0.174286 0.762444
O O1 0.250000 0.705085 0.682273
O O2 0.185254 0.500000 0.620869
O O3 0.182891 0.755222 0.504192
O O4 0.160712 0.740627 0.751325
O O5 0.500000 0.209624 0.500000
O O6 0.579524 0.276893 0.609782
O O7 0.577031 0.211962 0.361980
O O8 0.565457 0.000000 0.540379
O O9 0.881505 0.500000 0.730284
O O10 0.840103 0.242669 0.743519
O O11 0.921991 0.281812 0.863855
O O12 0.561811 0.500000 0.035095
O O13 0.582300 0.229707 0.110654
O O14 0.500000 0.279580 0.000000
O O15 0.750000 0.785399 0.678097
O O16 0.812385 0.000000 0.623259
O O17 0.379661 0.000000 0.776097
#
# Coordination Sequence:
#
# PCOD8212248 Si02
#       6
#     8   8   8   8   8   8
#     4  10  20  35  58  87 118 152 189 234 288 344
#     4  10  21  36  55  82 115 148 188 240 291 343
#     4  11  22  36  58  86 113 150 194 238 292 345
#     4  10  23  42  60  81 115 158 200 242 290 346
#     4  10  20  35  57  85 117 151 187 233 289 346
#     4  11  22  36  58  87 116 153 194 237 291 345
#
# _framework density 18.826430999999999
#
# number of rings (size 3 to 8) (size 9 to 14) (size 15 to 20)
#    0.000    1.667    1.667    3.000    0.000    4.667 
#    0.000    0.833    0.000    1.000    0.000    0.000 
#    0.000    0.000    0.000    0.000    0.000    0.000 
#
# Total GULP energy -595438.849898 kJ/mol
# GULP energy per Si atom -12404.976040 kJ/mol
# Density = 1.878358 g / cm^3
# Si number density = 18.826431 Si / 1000 Ang^3
#
#
#
# Elastic Constant Matrix: (Units=GPa)
#
#
# Indices 1 2 3 4 5 6 
#
# 1 139.3923 55.0569 53.5531 0.0000 0.0000 0.0000
# 2 55.0569 88.5385 52.2601 0.0000 0.0000 0.0000
# 3 53.5531 52.2601 89.8705 0.0000 0.0000 0.0000
# 4 0.0000 0.0000 0.0000 28.8640 0.0000 0.0000
# 5 0.0000 0.0000 0.0000 0.0000 31.8613 0.0000
# 6 0.0000 0.0000 0.0000 0.0000 0.0000 32.8380
#
#
#
# Elastic Compliance Matrix: (Units=1/GPa)
#
#
# Indices 1 2 3 4 5 6 
#
# 1 0.010241 -0.004212 -0.003653 0.000000 0.000000 0.000000
# 2 -0.004212 0.018930 -0.008498 0.000000 0.000000 0.000000
# 3 -0.003653 -0.008498 0.018246 0.000000 0.000000 0.000000
# 4 0.000000 0.000000 0.000000 0.034645 0.000000 0.000000
# 5 0.000000 0.000000 0.000000 0.000000 0.031386 0.000000
# 6 0.000000 0.000000 0.000000 0.000000 0.000000 0.030453
#
#
# Mechanical properties :
#
#
# Convention : Reuss Voigt Hill
#
# Bulk Modulus (GPa) = 68.07265 71.06017 69.56641
# Shear Modulus (GPa) = 27.54472 29.17474 28.35973
#
# Velocity S-wave (km/s) = 3.82918 3.94085 3.88542
# Velocity P-wave (km/s) = 7.46905 7.65075 7.56044
#
# Compressibility (1/GPa) = 0.01469019
#
# Stress axis : x y z
#
# Youngs Moduli (GPa) = 97.64435 52.82753 54.80783
#
# Poissons Ratio (x) = 0.22251 0.20023
# Poissons Ratio (y) = 0.41128 0.46574
# Poissons Ratio (z) = 0.35673 0.44891
#
# Static dielectric constant tensor:
#      x y z
#    x 3.822210 0.000000 0.000000 
#    y 0.000000 3.493840 0.000000 
#    z 0.000000 0.000000 3.313520 
# 
# 
# High freq. dielectric constant tensor:
#      x y z
#    x 1.751900 0.000000 0.000000 
#    y 0.000000 1.740900 0.000000 
#    z 0.000000 0.000000 1.711200 
# 
# From -- ./inp_files/12759.got.cif
#   From: 2010.03.12/outbox.cif.g09.slc.cpg/sg51_7_cif.got.tgz:12759.got - 2010.04.16 13:43:02.
