data_PCOD8212618
_publ_section_title
;
Structure prediction by ZEFSAII (Michael W. Deem and Ramdas Pophale) SiO2 
 PCOD8212618
Probable space group: P M M A
;
_chemical_formula_sum "Si O2"
_cell_formula_units_Z 40
_cell_length_a 20.308503
_cell_length_b 11.644673
_cell_length_c 8.858899
_cell_angle_alpha 90.000000
_cell_angle_beta 90.000000
_cell_angle_gamma 90.000000
_cell_volume 2095.004495
_symmetry_space_group_name_H-M "P M M A"
_symmetry_group_IT_number 51
_symmetry_cell_setting 'orthorhombic'
loop_
_space_group_symop_operation_xyz
x,y,z
1/2-x,-y,z
1/2+x,-y,-z
-x,y,-z
-x,-y,-z
1/2+x,y,-z
1/2-x,y,z
x,-y,z
loop_
_atom_site_type_symbol
_atom_site_label
_atom_site_fract_x
_atom_site_fract_y
_atom_site_fract_z
Si Si1 0.004443 0.723173 0.176999
Si Si2 0.750000 0.125458 0.327999
Si Si3 0.626256 0.259751 0.352485
Si Si4 0.672243 0.500000 0.467995
Si Si5 0.390778 0.862196 0.335911
Si Si6 0.750000 0.874702 0.688297
Si Si7 0.546517 0.500000 0.648788
O O1 0.931467 0.745012 0.233104
O O2 0.051387 0.830362 0.220480
O O3 0.033524 0.610325 0.251879
O O4 0.000000 0.707755 0.000000
O O5 0.684403 0.188701 0.273901
O O6 0.750000 0.120146 0.507847
O O7 0.750000 0.000000 0.254290
O O8 0.653987 0.387920 0.372247
O O9 0.598203 0.203578 0.506260
O O10 0.750000 0.500000 0.513535
O O11 0.624465 0.500000 0.613135
O O12 0.319927 0.816889 0.266733
O O13 0.389158 0.000000 0.363405
O O14 0.750000 0.000000 0.762027
O O15 0.500000 0.500000 0.500000
#
# Coordination Sequence:
#
# PCOD8212618 Si02
#       7
#     8   4   8   4   8   4   4
#     4  12  25  39  58  86 124 164 199 243 296 356
#     4   9  18  33  58  90 119 152 196 249 304 348
#     4  11  20  37  62  90 119 152 198 250 297 356
#     4  12  22  36  68 100 114 136 192 262 304 348
#     4  10  20  36  61  89 119 158 205 250 294 350
#     4   7  14  30  54  82 109 141 189 249 294 330
#     4  12  21  42  67  88 115 154 199 242 303 359
#
# _framework density 19.093036999999999
#
# number of rings (size 3 to 8) (size 9 to 14) (size 15 to 20)
#    0.000    1.400    5.000    2.700    0.000    2.800 
#    0.000    1.000    0.000    1.200    0.000    0.000 
#    0.000    0.000    0.000    0.000    0.000    0.000 
#
# Total GULP energy -495739.195741 kJ/mol
# GULP energy per Si atom -12393.479894 kJ/mol
# Density = 1.904958 g / cm^3
# Si number density = 19.093037 Si / 1000 Ang^3
#
#
#
# Elastic Constant Matrix: (Units=GPa)
#
#
# Indices 1 2 3 4 5 6 
#
# 1 197.2255 61.7853 67.7316 0.0000 0.0000 0.0000
# 2 61.7853 124.6023 37.6153 0.0000 0.0000 0.0000
# 3 67.7316 37.6153 94.8608 0.0000 0.0000 0.0000
# 4 0.0000 0.0000 0.0000 15.1066 0.0000 0.0000
# 5 0.0000 0.0000 0.0000 0.0000 0.0482 0.0000
# 6 0.0000 0.0000 0.0000 0.0000 0.0000 46.3745
#
#
#
# Elastic Compliance Matrix: (Units=1/GPa)
#
#
# Indices 1 2 3 4 5 6 
#
# 1 0.007260 -0.002312 -0.004267 0.000000 0.000000 0.000000
# 2 -0.002312 0.009853 -0.002256 0.000000 0.000000 0.000000
# 3 -0.004267 -0.002256 0.014483 0.000000 0.000000 0.000000
# 4 0.000000 0.000000 0.000000 0.066196 0.000000 0.000000
# 5 0.000000 0.000000 0.000000 0.000000 20.747369 0.000000
# 6 0.000000 0.000000 0.000000 0.000000 0.000000 0.021564
#
#
# Mechanical properties :
#
#
# Convention : Reuss Voigt Hill
#
# Bulk Modulus (GPa) = 71.80916 83.43924 77.62420
# Shear Modulus (GPa) = 0.23936 28.94294 14.59115
#
# Velocity S-wave (km/s) = 0.35445 3.89767 2.76744
# Velocity P-wave (km/s) = 6.15299 8.00325 7.13832
#
# Compressibility (1/GPa) = 0.01392580
#
# Stress axis : x y z
#
# Youngs Moduli (GPa) = 137.74240 101.49170 69.04577
#
# Poissons Ratio (x) = 0.23463 0.29462
# Poissons Ratio (y) = 0.31843 0.15579
# Poissons Ratio (z) = 0.58774 0.22901
#
# Static dielectric constant tensor:
#      x y z
#    x 4.018350 0.000000 0.000000 
#    y 0.000000 3.738850 0.000000 
#    z 0.000000 0.000000 2.981270 
# 
# 
# High freq. dielectric constant tensor:
#      x y z
#    x 1.771650 0.000000 0.000000 
#    y 0.000000 1.754080 0.000000 
#    z 0.000000 0.000000 1.684940 
# 
# From -- ./inp_files/10738.got.cif
#   From: 2010.03.12/outbox.cif.g09.slc.cpg/sg51_6_cif.got.tgz:10738.got - 2010.04.16 13:43:02.
