data_PCOD8212440
_publ_section_title
;
Structure prediction by ZEFSAII (Michael W. Deem and Ramdas Pophale) SiO2 
 PCOD8212440
Probable space group: P M M A
;
_chemical_formula_sum "Si O2"
_cell_formula_units_Z 48
_cell_length_a 8.997808
_cell_length_b 30.386116
_cell_length_c 9.148406
_cell_angle_alpha 90.000000
_cell_angle_beta 90.000000
_cell_angle_gamma 90.000000
_cell_volume 2501.251391
_symmetry_space_group_name_H-M "P M M A"
_symmetry_group_IT_number 51
_symmetry_cell_setting 'orthorhombic'
loop_
_space_group_symop_operation_xyz
x,y,z
1/2-x,-y,z
1/2+x,-y,-z
-x,y,-z
-x,-y,-z
1/2+x,y,-z
1/2-x,y,z
x,-y,z
loop_
_atom_site_type_symbol
_atom_site_label
_atom_site_fract_x
_atom_site_fract_y
_atom_site_fract_z
Si Si1 0.425016 0.083425 0.656054
Si Si2 0.426624 0.416467 0.154420
Si Si3 0.425229 0.000000 0.843462
Si Si4 0.924678 0.833969 0.154064
Si Si5 0.574330 0.654664 0.347404
Si Si6 0.076923 0.500000 0.345512
Si Si7 0.922705 0.244534 0.351644
O O1 0.500000 0.080142 0.500000
O O2 0.250000 0.082353 0.631718
O O3 0.478430 0.042738 0.754698
O O4 0.476696 0.128060 0.735350
O O5 0.250000 0.410861 0.138445
O O6 0.498592 0.372302 0.217980
O O7 0.471566 0.456871 0.257533
O O8 0.500000 0.426548 0.000000
O O9 0.250000 0.000000 0.867295
O O10 0.500000 0.000000 0.000000
O O11 0.750000 0.835829 0.128589
O O12 0.975668 0.786946 0.220245
O O13 0.000000 0.841546 0.000000
O O14 0.500000 0.640441 0.500000
O O15 0.750000 0.645316 0.355626
O O16 0.537937 0.705344 0.311100
O O17 0.250000 0.500000 0.374913
O O18 0.000000 0.500000 0.500000
O O19 0.750000 0.238504 0.380857
O O20 0.000000 0.229392 0.500000
#
# Coordination Sequence:
#
# PCOD8212440 Si02
#       7
#     8   8   4   8   8   4   8
#     4  10  21  36  55  79 107 138 178 221 264 316
#     4  11  23  39  58  83 113 146 182 223 271 321
#     4  10  21  36  54  80 110 140 175 218 264 316
#     4  10  21  36  53  77 107 140 178 221 267 319
#     4  10  20  36  57  82 111 144 182 225 269 320
#     4  10  23  40  60  84 110 142 181 222 267 318
#     4   9  19  35  55  79 107 139 179 222 266 316
#
# _framework density 19.190394999999999
#
# number of rings (size 3 to 8) (size 9 to 14) (size 15 to 20)
#    0.000    2.000    0.000    3.000    0.000    6.000 
#    0.000    1.667    0.000    0.000    0.000    0.000 
#    0.000    0.000    0.000    0.000    0.000    0.000 
#
# Total GULP energy -595397.669465 kJ/mol
# GULP energy per Si atom -12404.118114 kJ/mol
# Density = 1.914672 g / cm^3
# Si number density = 19.190395 Si / 1000 Ang^3
#
#
#
# Elastic Constant Matrix: (Units=GPa)
#
#
# Indices 1 2 3 4 5 6 
#
# 1 60.9948 47.1181 62.1714 0.0000 0.0000 0.0000
# 2 47.1181 125.5308 83.1207 0.0000 0.0000 0.0000
# 3 62.1714 83.1207 179.0288 0.0000 0.0000 0.0000
# 4 0.0000 0.0000 0.0000 18.7602 0.0000 0.0000
# 5 0.0000 0.0000 0.0000 0.0000 42.8351 0.0000
# 6 0.0000 0.0000 0.0000 0.0000 0.0000 22.5371
#
#
#
# Elastic Compliance Matrix: (Units=1/GPa)
#
#
# Indices 1 2 3 4 5 6 
#
# 1 0.028112 -0.005902 -0.007022 0.000000 0.000000 0.000000
# 2 -0.005902 0.012741 -0.003866 0.000000 0.000000 0.000000
# 3 -0.007022 -0.003866 0.009819 0.000000 0.000000 0.000000
# 4 0.000000 0.000000 0.000000 0.053304 0.000000 0.000000
# 5 0.000000 0.000000 0.000000 0.000000 0.023345 0.000000
# 6 0.000000 0.000000 0.000000 0.000000 0.000000 0.044371
#
#
# Mechanical properties :
#
#
# Convention : Reuss Voigt Hill
#
# Bulk Modulus (GPa) = 58.50723 83.37499 70.94111
# Shear Modulus (GPa) = 23.69995 28.36944 26.03469
#
# Velocity S-wave (km/s) = 3.51806 3.84906 3.68727
# Velocity P-wave (km/s) = 6.85975 7.95576 7.42800
#
# Compressibility (1/GPa) = 0.01709190
#
# Stress axis : x y z
#
# Youngs Moduli (GPa) = 35.57242 78.48404 101.84082
#
# Poissons Ratio (x) = 0.46321 0.71514
# Poissons Ratio (y) = 0.20995 0.39373
# Poissons Ratio (z) = 0.24979 0.30343
#
# Static dielectric constant tensor:
#      x y z
#    x 3.454570 0.000000 0.000000 
#    y 0.000000 3.819750 0.000000 
#    z 0.000000 0.000000 3.467510 
# 
# 
# High freq. dielectric constant tensor:
#      x y z
#    x 1.743810 0.000000 0.000000 
#    y 0.000000 1.763650 0.000000 
#    z 0.000000 0.000000 1.752140 
# 
# From -- ./inp_files/6131.got.cif
#   From: 2010.03.12/outbox.cif.g09.slc.cpg/sg51_4_cif.got.tgz:6131.got - 2010.04.16 13:43:02.
