data_PCOD8212052
_publ_section_title
;
Structure prediction by ZEFSAII (Michael W. Deem and Ramdas Pophale) SiO2 
 PCOD8212052
Probable space group: P M M A
;
_chemical_formula_sum "Si O2"
_cell_formula_units_Z 48
_cell_length_a 8.845769
_cell_length_b 16.214596
_cell_length_c 18.518766
_cell_angle_alpha 90.000000
_cell_angle_beta 90.000000
_cell_angle_gamma 90.000000
_cell_volume 2656.157175
_symmetry_space_group_name_H-M "P M M A"
_symmetry_group_IT_number 51
_symmetry_cell_setting 'orthorhombic'
loop_
_space_group_symop_operation_xyz
x,y,z
1/2-x,-y,z
1/2+x,-y,-z
-x,y,-z
-x,-y,-z
1/2+x,y,-z
1/2-x,y,z
x,-y,z
loop_
_atom_site_type_symbol
_atom_site_label
_atom_site_fract_x
_atom_site_fract_y
_atom_site_fract_z
Si Si1 0.572290 0.732814 0.299016
Si Si2 0.571573 0.674883 0.076654
Si Si3 0.075923 0.404475 0.210996
Si Si4 0.927574 0.000000 0.812840
Si Si5 0.575869 0.836252 0.159182
Si Si6 0.570419 0.832088 0.577573
Si Si7 0.929469 0.000000 0.650286
O O1 0.750000 0.725121 0.313035
O O2 0.509005 0.644535 0.274399
O O3 0.535094 0.799853 0.237527
O O4 0.487498 0.758836 0.371587
O O5 0.750000 0.660229 0.074930
O O6 0.500997 0.612136 0.133962
O O7 0.533017 0.768985 0.098669
O O8 0.500000 0.654561 0.000000
O O9 0.250000 0.376295 0.207233
O O10 0.060501 0.500000 0.230179
O O11 0.981083 0.918747 0.855306
O O12 0.750000 0.000000 0.810749
O O13 0.995912 0.000000 0.731551
O O14 0.750000 0.860315 0.154632
O O15 0.500000 0.817149 0.500000
O O16 0.750000 0.829562 0.572795
O O17 0.511075 0.919595 0.608244
O O18 0.750000 0.000000 0.653758
#
# Coordination Sequence:
#
# PCOD8212052 Si02
#       7
#     8   8   8   4   8   8   4
#     4  10  20  35  55  79 106 141 181 221 268 317
#     4  10  21  37  57  81 110 143 178 217 267 320
#     4  10  21  37  59  86 112 140 174 214 263 318
#     4  11  19  30  51  77 101 135 183 228 269 312
#     4   9  19  34  51  74 103 137 178 223 267 314
#     4  11  21  35  52  76 111 147 185 226 270 320
#     4   9  19  32  48  75 108 142 181 227 272 313
#
# _framework density 18.071221000000001
#
# number of rings (size 3 to 8) (size 9 to 14) (size 15 to 20)
#    0.000    2.000    1.667    3.500    0.000    5.000 
#    0.000    1.667    0.000    0.500    0.000    0.000 
#    0.000    0.000    0.000    0.000    0.000    0.000 
#
# Total GULP energy -595372.393195 kJ/mol
# GULP energy per Si atom -12403.591525 kJ/mol
# Density = 1.803009 g / cm^3
# Si number density = 18.071221 Si / 1000 Ang^3
#
#
#
# Elastic Constant Matrix: (Units=GPa)
#
#
# Indices 1 2 3 4 5 6 
#
# 1 87.5531 41.4393 28.0954 0.0000 0.0000 0.0000
# 2 41.4393 95.0652 31.5629 0.0000 0.0000 0.0000
# 3 28.0954 31.5629 86.2682 0.0000 0.0000 0.0000
# 4 0.0000 0.0000 0.0000 23.9433 0.0000 0.0000
# 5 0.0000 0.0000 0.0000 0.0000 30.9164 0.0000
# 6 0.0000 0.0000 0.0000 0.0000 0.0000 30.3841
#
#
#
# Elastic Compliance Matrix: (Units=1/GPa)
#
#
# Indices 1 2 3 4 5 6 
#
# 1 0.014975 -0.005587 -0.002833 0.000000 0.000000 0.000000
# 2 -0.005587 0.014058 -0.003324 0.000000 0.000000 0.000000
# 3 -0.002833 -0.003324 0.013730 0.000000 0.000000 0.000000
# 4 0.000000 0.000000 0.000000 0.041765 0.000000 0.000000
# 5 0.000000 0.000000 0.000000 0.000000 0.032345 0.000000
# 6 0.000000 0.000000 0.000000 0.000000 0.000000 0.032912
#
#
# Mechanical properties :
#
#
# Convention : Reuss Voigt Hill
#
# Bulk Modulus (GPa) = 51.87806 52.34240 52.11023
# Shear Modulus (GPa) = 27.82425 28.23468 28.02947
#
# Velocity S-wave (km/s) = 3.92816 3.95702 3.94262
# Velocity P-wave (km/s) = 7.02451 7.06433 7.04445
#
# Compressibility (1/GPa) = 0.01927597
#
# Stress axis : x y z
#
# Youngs Moduli (GPa) = 66.77740 71.13323 72.83096
#
# Poissons Ratio (x) = 0.39743 0.20632
# Poissons Ratio (y) = 0.37310 0.24208
# Poissons Ratio (z) = 0.18917 0.23643
#
# Static dielectric constant tensor:
#      x y z
#    x 3.339700 0.000000 0.000000 
#    y 0.000000 3.263600 0.000000 
#    z 0.000000 0.000000 3.241580 
# 
# 
# High freq. dielectric constant tensor:
#      x y z
#    x 1.708090 0.000000 0.000000 
#    y 0.000000 1.694460 0.000000 
#    z 0.000000 0.000000 1.685300 
# 
# From -- ./inp_files/27657.got.cif
#   From: 2010.03.12/outbox.cif.g09.slc.cpg/sg51_14_cif.got.tgz:27657.got - 2010.04.16 13:43:02.
