data_PCOD8212953
_publ_section_title
;
Structure prediction by ZEFSAII (Michael W. Deem and Ramdas Pophale) SiO2 
 PCOD8212953
Probable space group: P M M A
;
_chemical_formula_sum "Si O2"
_cell_formula_units_Z 48
_cell_length_a 9.599433
_cell_length_b 30.421688
_cell_length_c 9.329351
_cell_angle_alpha 90.000000
_cell_angle_beta 90.000000
_cell_angle_gamma 90.000000
_cell_volume 2724.459289
_symmetry_space_group_name_H-M "P M M A"
_symmetry_group_IT_number 51
_symmetry_cell_setting 'orthorhombic'
loop_
_space_group_symop_operation_xyz
x,y,z
1/2-x,-y,z
1/2+x,-y,-z
-x,y,-z
-x,-y,-z
1/2+x,y,-z
1/2-x,y,z
x,-y,z
loop_
_atom_site_type_symbol
_atom_site_label
_atom_site_fract_x
_atom_site_fract_y
_atom_site_fract_z
Si Si1 0.410376 0.754647 0.864832
Si Si2 0.089998 0.174343 0.636258
Si Si3 0.589483 0.924876 0.360676
Si Si4 0.412635 0.420138 0.645278
Si Si5 0.410961 0.654809 0.860603
Si Si6 0.912806 0.500000 0.146685
Si Si7 0.087436 0.000000 0.856802
O O1 0.250000 0.760798 0.905747
O O2 0.459158 0.789578 0.748589
O O3 0.440631 0.704929 0.813230
O O4 0.500000 0.767004 0.000000
O O5 0.250000 0.180751 0.594155
O O6 0.062356 0.124914 0.693149
O O7 0.000000 0.184726 0.500000
O O8 0.500000 0.936367 0.500000
O O9 0.750000 0.932345 0.403307
O O10 0.545424 0.956806 0.232455
O O11 0.500000 0.425166 0.500000
O O12 0.250000 0.422473 0.603889
O O13 0.451746 0.374478 0.723463
O O14 0.452448 0.457988 0.757778
O O15 0.250000 0.647239 0.902469
O O16 0.500000 0.641478 0.000000
O O17 0.750000 0.500000 0.105303
O O18 0.000000 0.500000 0.000000
O O19 0.250000 0.000000 0.895964
O O20 0.000000 0.000000 0.000000
#
# Coordination Sequence:
#
# PCOD8212953 Si02
#       7
#     8   8   8   8   8   4   4
#     4   9  18  32  49  70  97 127 159 197 238 280
#     4   9  18  32  49  70  96 124 156 195 236 279
#     4   9  18  33  51  70  93 123 158 194 233 279
#     4  10  21  35  51  74 102 129 160 199 241 284
#     4   9  18  33  51  71  96 127 163 199 236 282
#     4  10  21  36  54  76 100 128 163 200 238 284
#     4  10  21  34  48  70  98 124 153 192 236 280
#
# _framework density 17.618174
#
# number of rings (size 3 to 8) (size 9 to 14) (size 15 to 20)
#    0.000    2.667    0.000    1.000    0.000    4.000 
#    0.000    0.000    0.000    0.000    0.000    0.000 
#    0.000    0.000    0.000    0.000    0.000    0.000 
#
# Total GULP energy -595191.231249 kJ/mol
# GULP energy per Si atom -12399.817318 kJ/mol
# Density = 1.757807 g / cm^3
# Si number density = 17.618174 Si / 1000 Ang^3
#
#
#
# Elastic Constant Matrix: (Units=GPa)
#
#
# Indices 1 2 3 4 5 6 
#
# 1 64.1665 59.0404 76.5820 0.0000 0.0000 0.0000
# 2 59.0404 131.4701 101.0540 0.0000 0.0000 0.0000
# 3 76.5820 101.0540 154.8371 0.0000 0.0000 0.0000
# 4 0.0000 0.0000 0.0000 44.0322 0.0000 0.0000
# 5 0.0000 0.0000 0.0000 0.0000 40.3454 0.0000
# 6 0.0000 0.0000 0.0000 0.0000 0.0000 21.8921
#
#
#
# Elastic Compliance Matrix: (Units=1/GPa)
#
#
# Indices 1 2 3 4 5 6 
#
# 1 0.039942 -0.005523 -0.016150 0.000000 0.000000 0.000000
# 2 -0.005523 0.016027 -0.007728 0.000000 0.000000 0.000000
# 3 -0.016150 -0.007728 0.019490 0.000000 0.000000 0.000000
# 4 0.000000 0.000000 0.000000 0.022711 0.000000 0.000000
# 5 0.000000 0.000000 0.000000 0.000000 0.024786 0.000000
# 6 0.000000 0.000000 0.000000 0.000000 0.000000 0.045679
#
#
# Mechanical properties :
#
#
# Convention : Reuss Voigt Hill
#
# Bulk Modulus (GPa) = 60.04087 91.53626 75.78856
# Shear Modulus (GPa) = 21.46029 28.84044 25.15036
#
# Velocity S-wave (km/s) = 3.49388 4.05034 3.78236
# Velocity P-wave (km/s) = 7.10135 8.59896 7.88579
#
# Compressibility (1/GPa) = 0.01665532
#
# Stress axis : x y z
#
# Youngs Moduli (GPa) = 25.03662 62.39566 51.30790
#
# Poissons Ratio (x) = 0.34460 0.82865
# Poissons Ratio (y) = 0.13827 0.39652
# Poissons Ratio (z) = 0.40435 0.48221
#
# Static dielectric constant tensor:
#      x y z
#    x 3.262990 0.000000 0.000000 
#    y 0.000000 3.575120 0.000000 
#    z 0.000000 0.000000 3.121780 
# 
# 
# High freq. dielectric constant tensor:
#      x y z
#    x 1.679930 0.000000 0.000000 
#    y 0.000000 1.699790 0.000000 
#    z 0.000000 0.000000 1.669180 
# 
# From -- ./inp_files/6273.got.cif
#   From: 2010.03.12/outbox.cif.g09.slc.cpg/sg51_4_cif.got.tgz:6273.got - 2010.04.16 13:43:02.
