data_PCOD8212258
_publ_section_title
;
Structure prediction by ZEFSAII (Michael W. Deem and Ramdas Pophale) SiO2 
 PCOD8212258
Probable space group: P M M A
;
_chemical_formula_sum "Si O2"
_cell_formula_units_Z 40
_cell_length_a 16.904668
_cell_length_b 14.468343
_cell_length_c 7.684299
_cell_angle_alpha 90.000000
_cell_angle_beta 90.000000
_cell_angle_gamma 90.000000
_cell_volume 1879.445329
_symmetry_space_group_name_H-M "P M M A"
_symmetry_group_IT_number 51
_symmetry_cell_setting 'orthorhombic'
loop_
_space_group_symop_operation_xyz
x,y,z
1/2-x,-y,z
1/2+x,-y,-z
-x,y,-z
-x,-y,-z
1/2+x,y,-z
1/2-x,y,z
x,-y,z
loop_
_atom_site_type_symbol
_atom_site_label
_atom_site_fract_x
_atom_site_fract_y
_atom_site_fract_z
Si Si1 0.657058 0.205099 0.373063
Si Si2 0.417181 0.396886 0.089107
Si Si3 0.840905 0.598969 0.264340
Si Si4 0.909959 0.107284 0.048484
Si Si5 0.340674 0.769918 0.244981
O O1 0.750000 0.198475 0.323808
O O2 0.623846 0.310433 0.356766
O O3 0.607488 0.139144 0.245755
O O4 0.640971 0.176680 0.573446
O O5 0.420449 0.500000 0.171765
O O6 0.349670 0.389771 0.942846
O O7 0.500000 0.370752 0.000000
O O8 0.395651 0.321501 0.234927
O O9 0.750000 0.593109 0.313560
O O10 0.881349 0.500000 0.321027
O O11 0.889843 0.000000 0.032801
O O12 0.854262 0.161270 0.914865
O O13 0.000000 0.129001 0.000000
O O14 0.250000 0.737146 0.245099
#
# Coordination Sequence:
#
# PCOD8212258 Si02
#       5
#     8   8   8   8   8
#     4  10  22  39  62  93 126 160 202 254 306 361
#     4  10  20  35  57  88 127 169 211 250 295 355
#     4   9  17  32  55  82 117 161 202 240 287 346
#     4  11  25  45  66  88 119 158 199 251 316 378
#     4  11  23  39  63  94 123 159 208 255 308 369
#
# _framework density 21.282874
#
# number of rings (size 3 to 8) (size 9 to 14) (size 15 to 20)
#    0.000    1.800    2.000    1.800    0.000    5.200 
#    0.000    6.000    0.000    3.600    0.000    0.000 
#    0.000    0.000    0.000    0.000    0.000    0.000 
#
# Total GULP energy -495821.343440 kJ/mol
# GULP energy per Si atom -12395.533586 kJ/mol
# Density = 2.123443 g / cm^3
# Si number density = 21.282874 Si / 1000 Ang^3
#
#
#
# Elastic Constant Matrix: (Units=GPa)
#
#
# Indices 1 2 3 4 5 6 
#
# 1 74.4601 43.7094 40.5336 0.0000 0.0000 0.0000
# 2 43.7094 113.1440 43.7149 0.0000 0.0000 0.0000
# 3 40.5336 43.7149 119.8534 0.0000 0.0000 0.0000
# 4 0.0000 0.0000 0.0000 13.5225 0.0000 0.0000
# 5 0.0000 0.0000 0.0000 0.0000 26.6017 0.0000
# 6 0.0000 0.0000 0.0000 0.0000 0.0000 25.9254
#
#
#
# Elastic Compliance Matrix: (Units=1/GPa)
#
#
# Indices 1 2 3 4 5 6 
#
# 1 0.019178 -0.005707 -0.004404 0.000000 0.000000 0.000000
# 2 -0.005707 0.011986 -0.002442 0.000000 0.000000 0.000000
# 3 -0.004404 -0.002442 0.010724 0.000000 0.000000 0.000000
# 4 0.000000 0.000000 0.000000 0.073951 0.000000 0.000000
# 5 0.000000 0.000000 0.000000 0.000000 0.037592 0.000000
# 6 0.000000 0.000000 0.000000 0.000000 0.000000 0.038572
#
#
# Mechanical properties :
#
#
# Convention : Reuss Voigt Hill
#
# Bulk Modulus (GPa) = 59.58891 62.59703 61.09297
# Shear Modulus (GPa) = 22.45149 25.17655 23.81402
#
# Velocity S-wave (km/s) = 3.25146 3.44313 3.34867
# Velocity P-wave (km/s) = 6.49271 6.72924 6.61203
#
# Compressibility (1/GPa) = 0.01678165
#
# Stress axis : x y z
#
# Youngs Moduli (GPa) = 52.14415 83.42762 93.25212
#
# Poissons Ratio (x) = 0.47612 0.41070
# Poissons Ratio (y) = 0.29759 0.22771
# Poissons Ratio (z) = 0.22965 0.20372
#
# Static dielectric constant tensor:
#      x y z
#    x 3.696730 0.000000 0.000000 
#    y 0.000000 4.030070 0.000000 
#    z 0.000000 0.000000 3.739680 
# 
# 
# High freq. dielectric constant tensor:
#      x y z
#    x 1.824000 0.000000 0.000000 
#    y 0.000000 1.836470 0.000000 
#    z 0.000000 0.000000 1.819920 
# 
# From -- ./inp_files/7945.got.cif
#   From: 2010.03.12/outbox.cif.g09.slc.cpg/sg51_4_cif.got.tgz:7945.got - 2010.04.16 13:43:02.
