data_PCOD8212607
_publ_section_title
;
Structure prediction by ZEFSAII (Michael W. Deem and Ramdas Pophale) SiO2 
 PCOD8212607
Probable space group: P M M A
;
_chemical_formula_sum "Si O2"
_cell_formula_units_Z 56
_cell_length_a 13.699670
_cell_length_b 8.604393
_cell_length_c 23.497468
_cell_angle_alpha 90.000000
_cell_angle_beta 90.000000
_cell_angle_gamma 90.000000
_cell_volume 2769.819134
_symmetry_space_group_name_H-M "P M M A"
_symmetry_group_IT_number 51
_symmetry_cell_setting 'orthorhombic'
loop_
_space_group_symop_operation_xyz
x,y,z
1/2-x,-y,z
1/2+x,-y,-z
-x,y,-z
-x,-y,-z
1/2+x,y,-z
1/2-x,y,z
x,-y,z
loop_
_atom_site_type_symbol
_atom_site_label
_atom_site_fract_x
_atom_site_fract_y
_atom_site_fract_z
Si Si1 0.138647 0.819597 0.650885
Si Si2 0.045264 0.318614 0.080272
Si Si3 0.133974 0.326956 0.534790
Si Si4 0.537916 0.318011 0.701201
Si Si5 0.357615 0.315724 0.411788
Si Si6 0.863050 0.181326 0.810023
Si Si7 0.861026 0.182562 0.028599
O O1 0.250000 0.764886 0.658546
O O2 0.103181 0.784869 0.586285
O O3 0.076778 0.724066 0.697775
O O4 0.125774 0.000000 0.663293
O O5 0.057134 0.500000 0.068197
O O6 0.078515 0.279718 0.143558
O O7 0.931956 0.271355 0.072355
O O8 0.112971 0.225656 0.036192
O O9 0.250000 0.331778 0.526660
O O10 0.094855 0.500000 0.550014
O O11 0.092292 0.270216 0.472891
O O12 0.553911 0.500000 0.712245
O O13 0.579523 0.256077 0.641122
O O14 0.591826 0.221246 0.749372
O O15 0.250000 0.240811 0.406102
O O16 0.348989 0.500000 0.409338
O O17 0.750000 0.230514 0.810826
O O18 0.875903 0.000000 0.822917
O O19 0.750000 0.232436 0.041657
O O20 0.875695 0.000000 0.036621
#
# Coordination Sequence:
#
# PCOD8212607 Si02
#       7
#     8   8   8   8   8   8   8
#     4  10  21  37  54  73 102 139 178 224 279 338
#     4  11  22  36  59  90 123 159 200 244 284 328
#     4   8  14  28  51  75  99 131 172 216 266 329
#     4  11  22  36  57  82 107 138 182 233 278 327
#     4   8  15  29  50  77 107 136 168 213 271 331
#     4  11  24  42  62  84 115 153 189 227 274 331
#     4  10  20  36  60  90 126 165 200 238 286 336
#
# _framework density 20.217928000000001
#
# number of rings (size 3 to 8) (size 9 to 14) (size 15 to 20)
#    0.000    2.143    0.000    5.571    0.000    6.000 
#    0.000    5.000    0.000    7.714    0.000    0.000 
#    0.000    0.000    0.000    0.000    0.000    0.000 
#
# Total GULP energy -694377.616647 kJ/mol
# GULP energy per Si atom -12399.600297 kJ/mol
# Density = 2.017191 g / cm^3
# Si number density = 20.217928 Si / 1000 Ang^3
#
#
#
# Elastic Constant Matrix: (Units=GPa)
#
#
# Indices 1 2 3 4 5 6 
#
# 1 105.4382 27.1643 56.0784 0.0000 0.0000 0.0000
# 2 27.1643 46.3912 16.4062 0.0000 0.0000 0.0000
# 3 56.0784 16.4062 90.4597 0.0000 0.0000 0.0000
# 4 0.0000 0.0000 0.0000 31.0652 0.0000 0.0000
# 5 0.0000 0.0000 0.0000 0.0000 29.0250 0.0000
# 6 0.0000 0.0000 0.0000 0.0000 0.0000 19.6525
#
#
#
# Elastic Compliance Matrix: (Units=1/GPa)
#
#
# Indices 1 2 3 4 5 6 
#
# 1 0.015620 -0.006114 -0.008574 0.000000 0.000000 0.000000
# 2 -0.006114 0.025426 -0.000821 0.000000 0.000000 0.000000
# 3 -0.008574 -0.000821 0.016519 0.000000 0.000000 0.000000
# 4 0.000000 0.000000 0.000000 0.032190 0.000000 0.000000
# 5 0.000000 0.000000 0.000000 0.000000 0.034453 0.000000
# 6 0.000000 0.000000 0.000000 0.000000 0.000000 0.050884
#
#
# Mechanical properties :
#
#
# Convention : Reuss Voigt Hill
#
# Bulk Modulus (GPa) = 37.67017 49.06519 43.36768
# Shear Modulus (GPa) = 23.26017 25.45787 24.35902
#
# Velocity S-wave (km/s) = 3.39554 3.55233 3.47482
# Velocity P-wave (km/s) = 5.83485 6.41454 6.13155
#
# Compressibility (1/GPa) = 0.02654621
#
# Stress axis : x y z
#
# Youngs Moduli (GPa) = 64.02209 39.32949 60.53644
#
# Poissons Ratio (x) = 0.24045 0.51905
# Poissons Ratio (y) = 0.39142 0.04972
# Poissons Ratio (z) = 0.54894 0.03230
#
# Static dielectric constant tensor:
#      x y z
#    x 3.866250 0.000000 0.000000 
#    y 0.000000 3.454000 0.000000 
#    z 0.000000 0.000000 3.591230 
# 
# 
# High freq. dielectric constant tensor:
#      x y z
#    x 1.800970 0.000000 0.000000 
#    y 0.000000 1.774150 0.000000 
#    z 0.000000 0.000000 1.776590 
# 
# From -- ./inp_files/33444.got.cif
#   From: 2010.03.12/outbox.cif.g09.slc.cpg/sg51_17_cif.got.tgz:33444.got - 2010.04.16 13:43:02.
