data_PCOD8212303
_publ_section_title
;
Structure prediction by ZEFSAII (Michael W. Deem and Ramdas Pophale) SiO2 
 PCOD8212303
Probable space group: P M M A
;
_chemical_formula_sum "Si O2"
_cell_formula_units_Z 64
_cell_length_a 8.795671
_cell_length_b 14.449164
_cell_length_c 25.151959
_cell_angle_alpha 90.000000
_cell_angle_beta 90.000000
_cell_angle_gamma 90.000000
_cell_volume 3196.564803
_symmetry_space_group_name_H-M "P M M A"
_symmetry_group_IT_number 51
_symmetry_cell_setting 'orthorhombic'
loop_
_space_group_symop_operation_xyz
x,y,z
1/2-x,-y,z
1/2+x,-y,-z
-x,y,-z
-x,-y,-z
1/2+x,y,-z
1/2-x,y,z
x,-y,z
loop_
_atom_site_type_symbol
_atom_site_label
_atom_site_fract_x
_atom_site_fract_y
_atom_site_fract_z
Si Si1 0.074653 0.396011 0.424966
Si Si2 0.073610 0.220573 0.746898
Si Si3 0.428577 0.209438 0.552920
Si Si4 0.080403 0.398815 0.682618
Si Si5 0.427994 0.102845 0.947408
Si Si6 0.929284 0.253339 0.134894
Si Si7 0.427597 0.392551 0.055427
Si Si8 0.429137 0.892401 0.345787
O O1 0.250000 0.372220 0.436560
O O2 0.033124 0.500000 0.445628
O O3 0.967741 0.318863 0.451498
O O4 0.047177 0.390931 0.362148
O O5 0.250000 0.191148 0.745800
O O6 0.046040 0.323876 0.726681
O O7 0.008998 0.227739 0.806556
O O8 0.983561 0.146545 0.711108
O O9 0.500000 0.161570 0.500000
O O10 0.250000 0.194082 0.552570
O O11 0.493974 0.164358 0.606391
O O12 0.250000 0.382870 0.657799
O O13 0.071942 0.500000 0.709771
O O14 0.250000 0.101358 0.955471
O O15 0.476303 0.163061 0.897609
O O16 0.493420 0.000000 0.937965
O O17 0.500000 0.147673 0.000000
O O18 0.750000 0.272518 0.136563
O O19 0.006522 0.341656 0.107426
O O20 0.250000 0.373254 0.051684
O O21 0.466364 0.500000 0.063389
O O22 0.500000 0.356329 0.000000
O O23 0.250000 0.879132 0.350655
O O24 0.475729 0.000000 0.349894
#
# Coordination Sequence:
#
# PCOD8212303 Si02
#       8
#     8   8   8   8   8   8   8   8
#     4  10  20  35  58  89 124 161 198 237 284 339
#     4  10  21  37  59  88 119 156 197 241 294 352
#     4  12  25  42  66  94 125 160 198 246 299 355
#     4   9  17  31  53  81 113 151 193 234 279 336
#     4   9  18  33  52  75 105 141 181 229 284 341
#     4  10  21  35  55  85 118 151 192 240 292 350
#     4  10  21  37  57  82 115 158 205 252 303 356
#     4  11  25  45  67  90 119 156 199 249 304 361
#
# _framework density 20.021491999999999
#
# number of rings (size 3 to 8) (size 9 to 14) (size 15 to 20)
#    0.000    1.875    1.250    2.625    0.000    6.000 
#    0.000    2.500    0.000    3.000    0.000    0.000 
#    0.000    0.000    0.000    0.000    0.000    0.000 
#
# Total GULP energy -793458.088089 kJ/mol
# GULP energy per Si atom -12397.782626 kJ/mol
# Density = 1.997592 g / cm^3
# Si number density = 20.021492 Si / 1000 Ang^3
#
#
#
# Elastic Constant Matrix: (Units=GPa)
#
#
# Indices 1 2 3 4 5 6 
#
# 1 80.0918 45.1470 49.4146 0.0000 0.0000 0.0000
# 2 45.1470 102.1492 55.7011 0.0000 0.0000 0.0000
# 3 49.4146 55.7011 152.5584 0.0000 0.0000 0.0000
# 4 0.0000 0.0000 0.0000 10.3855 0.0000 0.0000
# 5 0.0000 0.0000 0.0000 0.0000 32.2098 0.0000
# 6 0.0000 0.0000 0.0000 0.0000 0.0000 27.2633
#
#
#
# Elastic Compliance Matrix: (Units=1/GPa)
#
#
# Indices 1 2 3 4 5 6 
#
# 1 0.018147 -0.006012 -0.003683 0.000000 0.000000 0.000000
# 2 -0.006012 0.014215 -0.003243 0.000000 0.000000 0.000000
# 3 -0.003683 -0.003243 0.008932 0.000000 0.000000 0.000000
# 4 0.000000 0.000000 0.000000 0.096288 0.000000 0.000000
# 5 0.000000 0.000000 0.000000 0.000000 0.031046 0.000000
# 6 0.000000 0.000000 0.000000 0.000000 0.000000 0.036679
#
#
# Mechanical properties :
#
#
# Convention : Reuss Voigt Hill
#
# Bulk Modulus (GPa) = 64.85816 70.59163 67.72490
# Shear Modulus (GPa) = 21.15753 26.27418 23.71586
#
# Velocity S-wave (km/s) = 3.25428 3.62650 3.44542
# Velocity P-wave (km/s) = 6.82533 7.27116 7.05177
#
# Compressibility (1/GPa) = 0.01541826
#
# Stress axis : x y z
#
# Youngs Moduli (GPa) = 55.10601 70.34802 111.96107
#
# Poissons Ratio (x) = 0.42295 0.41232
# Poissons Ratio (y) = 0.33131 0.36306
# Poissons Ratio (z) = 0.20294 0.22812
#
# Static dielectric constant tensor:
#      x y z
#    x 3.619920 0.000000 0.000000 
#    y 0.000000 3.900240 0.000000 
#    z 0.000000 0.000000 3.648090 
# 
# 
# High freq. dielectric constant tensor:
#      x y z
#    x 1.776440 0.000000 0.000000 
#    y 0.000000 1.786480 0.000000 
#    z 0.000000 0.000000 1.780330 
# 
# From -- ./inp_files/34994.got.cif
#   From: 2010.03.12/outbox.cif.g09.slc.cpg/sg51_18_cif.got.tgz:34994.got - 2010.04.16 13:43:02.
