data_PCOD8212981
_publ_section_title
;
Structure prediction by ZEFSAII (Michael W. Deem and Ramdas Pophale) SiO2 
 PCOD8212981
Probable space group: P M M A
;
_chemical_formula_sum "Si O2"
_cell_formula_units_Z 64
_cell_length_a 18.156297
_cell_length_b 9.386047
_cell_length_c 21.473133
_cell_angle_alpha 90.000000
_cell_angle_beta 90.000000
_cell_angle_gamma 90.000000
_cell_volume 3659.362362
_symmetry_space_group_name_H-M "P M M A"
_symmetry_group_IT_number 51
_symmetry_cell_setting 'orthorhombic'
loop_
_space_group_symop_operation_xyz
x,y,z
1/2-x,-y,z
1/2+x,-y,-z
-x,y,-z
-x,-y,-z
1/2+x,y,-z
1/2-x,y,z
x,-y,z
loop_
_atom_site_type_symbol
_atom_site_label
_atom_site_fract_x
_atom_site_fract_y
_atom_site_fract_z
Si Si1 0.831478 0.663542 0.867607
Si Si2 0.666847 0.830990 0.624310
Si Si3 0.834192 0.163786 0.270836
Si Si4 0.586974 0.163922 0.500254
Si Si5 0.835599 0.334372 0.392710
Si Si6 0.978886 0.332734 0.931927
Si Si7 0.889550 0.165983 0.756111
Si Si8 0.460589 0.163876 0.820801
O O1 0.750000 0.688341 0.896672
O O2 0.843056 0.500000 0.848287
O O3 0.893484 0.707552 0.918109
O O4 0.837681 0.755321 0.805280
O O5 0.750000 0.770538 0.619406
O O6 0.619328 0.778303 0.565520
O O7 0.628205 0.774151 0.687301
O O8 0.668047 0.000000 0.625587
O O9 0.750000 0.191444 0.251327
O O10 0.858220 0.262857 0.327760
O O11 0.883541 0.203408 0.211385
O O12 0.847275 0.000000 0.290951
O O13 0.500000 0.179901 0.500000
O O14 0.618266 0.262082 0.446577
O O15 0.610599 0.000000 0.488659
O O16 0.750000 0.308591 0.406834
O O17 0.855528 0.500000 0.389040
O O18 0.993313 0.500000 0.927369
O O19 0.032124 0.258721 0.882185
O O20 0.000000 0.274618 0.000000
O O21 0.974824 0.196946 0.771251
O O22 0.870408 0.000000 0.760709
O O23 0.463361 0.000000 0.841763
#
# Coordination Sequence:
#
# PCOD8212981 Si02
#       8
#     8   8   8   8   8   8   8   8
#     4   9  17  30  48  70  97 127 161 199 237 281
#     4   9  17  29  46  69  95 122 155 198 245 292
#     4   9  18  33  54  77 100 129 166 207 253 304
#     4  10  21  34  52  73  95 129 171 213 253 302
#     4  10  21  36  53  73  99 132 169 211 258 306
#     4   9  18  33  51  71  99 135 170 201 237 286
#     4   9  17  29  48  72  96 123 156 196 242 291
#     4   9  18  31  51  76 101 127 159 203 246 288
#
# _framework density 17.489384999999999
#
# number of rings (size 3 to 8) (size 9 to 14) (size 15 to 20)
#    0.000    2.750    0.000    1.125    1.750    3.000 
#    0.000    1.250    0.000    3.000    0.000    0.000 
#    0.000    0.000    0.000    0.000    0.000    0.000 
#
# Total GULP energy -793620.073820 kJ/mol
# GULP energy per Si atom -12400.313653 kJ/mol
# Density = 1.744958 g / cm^3
# Si number density = 17.489385 Si / 1000 Ang^3
#
#
#
# Elastic Constant Matrix: (Units=GPa)
#
#
# Indices 1 2 3 4 5 6 
#
# 1 98.8313 39.9103 82.0242 0.0000 0.0000 0.0000
# 2 39.9103 59.4659 54.7989 0.0000 0.0000 0.0000
# 3 82.0242 54.7989 150.2371 0.0000 0.0000 0.0000
# 4 0.0000 0.0000 0.0000 16.6258 0.0000 0.0000
# 5 0.0000 0.0000 0.0000 0.0000 25.1817 0.0000
# 6 0.0000 0.0000 0.0000 0.0000 0.0000 17.3206
#
#
#
# Elastic Compliance Matrix: (Units=1/GPa)
#
#
# Indices 1 2 3 4 5 6 
#
# 1 0.019410 -0.004913 -0.008805 0.000000 0.000000 0.000000
# 2 -0.004913 0.026574 -0.007011 0.000000 0.000000 0.000000
# 3 -0.008805 -0.007011 0.014021 0.000000 0.000000 0.000000
# 4 0.000000 0.000000 0.000000 0.060147 0.000000 0.000000
# 5 0.000000 0.000000 0.000000 0.000000 0.039711 0.000000
# 6 0.000000 0.000000 0.000000 0.000000 0.000000 0.057735
#
#
# Mechanical properties :
#
#
# Convention : Reuss Voigt Hill
#
# Bulk Modulus (GPa) = 53.91620 73.55569 63.73594
# Shear Modulus (GPa) = 18.85100 20.61235 19.73167
#
# Velocity S-wave (km/s) = 3.28663 3.43675 3.36253
# Velocity P-wave (km/s) = 6.73034 7.60900 7.18312
#
# Compressibility (1/GPa) = 0.01854730
#
# Stress axis : x y z
#
# Youngs Moduli (GPa) = 51.51987 37.63081 71.32333
#
# Poissons Ratio (x) = 0.18487 0.62802
# Poissons Ratio (y) = 0.25310 0.50002
# Poissons Ratio (z) = 0.45365 0.26382
#
# Static dielectric constant tensor:
#      x y z
#    x 3.302890 0.000000 0.000000 
#    y 0.000000 3.133040 0.000000 
#    z 0.000000 0.000000 3.269430 
# 
# 
# High freq. dielectric constant tensor:
#      x y z
#    x 1.681660 0.000000 0.000000 
#    y 0.000000 1.659430 0.000000 
#    z 0.000000 0.000000 1.667940 
# 
# From -- ./inp_files/33847.got.cif
#   From: 2010.03.12/outbox.cif.g09.slc.cpg/sg51_17_cif.got.tgz:33847.got - 2010.04.16 13:43:02.
