data_PCOD8212382
_publ_section_title
;
Structure prediction by ZEFSAII (Michael W. Deem and Ramdas Pophale) SiO2 
 PCOD8212382
Probable space group: P M M A
;
_chemical_formula_sum "Si O2"
_cell_formula_units_Z 36
_cell_length_a 9.877346
_cell_length_b 7.753104
_cell_length_c 24.921564
_cell_angle_alpha 90.000000
_cell_angle_beta 90.000000
_cell_angle_gamma 90.000000
_cell_volume 1908.495634
_symmetry_space_group_name_H-M "P M M A"
_symmetry_group_IT_number 51
_symmetry_cell_setting 'orthorhombic'
loop_
_space_group_symop_operation_xyz
x,y,z
1/2-x,-y,z
1/2+x,-y,-z
-x,y,-z
-x,-y,-z
1/2+x,y,-z
1/2-x,y,z
x,-y,z
loop_
_atom_site_type_symbol
_atom_site_label
_atom_site_fract_x
_atom_site_fract_y
_atom_site_fract_z
Si Si1 0.598302 0.205085 0.335960
Si Si2 0.587981 0.000000 0.946871
Si Si3 0.098596 0.794747 0.544911
Si Si4 0.590153 0.308419 0.871283
Si Si5 0.597082 0.795032 0.755728
O O1 0.750000 0.271803 0.323295
O O2 0.553853 0.266923 0.395544
O O3 0.494559 0.281523 0.292248
O O4 0.596253 0.000000 0.333646
O O5 0.539467 0.168588 0.914112
O O6 0.750000 0.000000 0.958525
O O7 0.500000 0.000000 0.000000
O O8 0.250000 0.728932 0.532714
O O9 0.000000 0.713577 0.500000
O O10 0.094292 0.000000 0.542474
O O11 0.750000 0.291273 0.867135
O O12 0.545026 0.500000 0.890026
O O13 0.533166 0.270839 0.811790
O O14 0.750000 0.726163 0.747394
O O15 0.595846 0.000000 0.756341
#
# Coordination Sequence:
#
# PCOD8212382 Si02
#       5
#     8   4   8   8   8
#     4   8  14  23  34  52  80 115 150 187 239 293
#     4  10  20  36  56  78 104 134 167 200 237 282
#     4   8  13  20  29  43  69 106 147 188 231 280
#     4   9  17  31  52  75 100 131 164 200 242 284
#     4   9  15  25  43  65  86 112 153 197 231 275
#
# _framework density 18.863023999999999
#
# number of rings (size 3 to 8) (size 9 to 14) (size 15 to 20)
#    0.000    3.333    1.111    1.333    0.000    1.333 
#    0.000    5.556    0.000    2.000    0.000    0.000 
#    0.000    0.889    0.000    2.000    0.000    4.000 
#
# Total GULP energy -446126.924380 kJ/mol
# GULP energy per Si atom -12392.414566 kJ/mol
# Density = 1.882009 g / cm^3
# Si number density = 18.863024 Si / 1000 Ang^3
#
#
#
# Elastic Constant Matrix: (Units=GPa)
#
#
# Indices 1 2 3 4 5 6 
#
# 1 80.4553 22.9762 86.9732 0.0000 0.0000 0.0000
# 2 22.9762 62.5154 47.7857 0.0000 0.0000 0.0000
# 3 86.9732 47.7857 191.2747 0.0000 0.0000 0.0000
# 4 0.0000 0.0000 0.0000 -0.0724 0.0000 0.0000
# 5 0.0000 0.0000 0.0000 0.0000 40.3877 0.0000
# 6 0.0000 0.0000 0.0000 0.0000 0.0000 1.8353
#
#
#
# Elastic Compliance Matrix: (Units=1/GPa)
#
#
# Indices 1 2 3 4 5 6 
#
# 1 0.024463 -0.000604 -0.010973 0.000000 0.000000 0.000000
# 2 -0.000604 0.019787 -0.004669 0.000000 0.000000 0.000000
# 3 -0.010973 -0.004669 0.011384 0.000000 0.000000 0.000000
# 4 0.000000 0.000000 0.000000-13.805138 0.000000 0.000000
# 5 0.000000 0.000000 0.000000 0.000000 0.024760 0.000000
# 6 0.000000 0.000000 0.000000 0.000000 0.000000 0.544860
#
#
# Mechanical properties :
#
#
# Convention : Reuss Voigt Hill
#
# Bulk Modulus (GPa) = 43.20868 72.19062 57.69965
# Shear Modulus (GPa) = -0.38053 20.19746 9.90847
#
# Velocity S-wave (km/s) = -0.44963 3.27577 2.29440
# Velocity P-wave (km/s) = 4.76306 7.25683 6.13793
#
# Compressibility (1/GPa) = 0.02314350
#
# Stress axis : x y z
#
# Youngs Moduli (GPa) = 40.87756 50.53911 87.84408
#
# Poissons Ratio (x) = 0.03051 0.96389
# Poissons Ratio (y) = 0.02467 0.41013
# Poissons Ratio (z) = 0.44854 0.23596
#
# Static dielectric constant tensor:
#      x y z
#    x 3.426300 0.000000 0.000000 
#    y 0.000000 3.203130 0.000000 
#    z 0.000000 0.000000 3.688490 
# 
# 
# High freq. dielectric constant tensor:
#      x y z
#    x 1.699730 0.000000 0.000000 
#    y 0.000000 1.708030 0.000000 
#    z 0.000000 0.000000 1.736810 
# 
# From -- ./inp_files/32768.got.cif
#   From: 2010.03.12/outbox.cif.g09.slc.cpg/sg51_17_cif.got.tgz:32768.got - 2010.04.16 13:43:02.
