data_PCOD8212824
_publ_section_title
;
Structure prediction by ZEFSAII (Michael W. Deem and Ramdas Pophale) SiO2 
 PCOD8212824
Probable space group: P M M A
;
_chemical_formula_sum "Si O2"
_cell_formula_units_Z 40
_cell_length_a 15.547334
_cell_length_b 9.104821
_cell_length_c 13.878976
_cell_angle_alpha 90.000000
_cell_angle_beta 90.000000
_cell_angle_gamma 90.000000
_cell_volume 1964.648067
_symmetry_space_group_name_H-M "P M M A"
_symmetry_group_IT_number 51
_symmetry_cell_setting 'orthorhombic'
loop_
_space_group_symop_operation_xyz
x,y,z
1/2-x,-y,z
1/2+x,-y,-z
-x,y,-z
-x,-y,-z
1/2+x,y,-z
1/2-x,y,z
x,-y,z
loop_
_atom_site_type_symbol
_atom_site_label
_atom_site_fract_x
_atom_site_fract_y
_atom_site_fract_z
Si Si1 0.250000 0.172426 0.902161
Si Si2 0.846621 0.163715 0.386462
Si Si3 0.906323 0.669272 0.773993
Si Si4 0.090086 0.667982 0.447305
Si Si5 0.401674 0.329626 0.792297
Si Si6 0.250000 0.828624 0.126333
O O1 0.337294 0.240215 0.859788
O O2 0.250000 0.000000 0.880115
O O3 0.250000 0.209267 0.014233
O O4 0.750000 0.155966 0.346354
O O5 0.844184 0.228595 0.494602
O O6 0.899032 0.272051 0.317134
O O7 0.887237 0.000000 0.385922
O O8 0.878357 0.500000 0.780068
O O9 0.912377 0.720067 0.662984
O O10 0.836091 0.764436 0.828011
O O11 0.999256 0.691406 0.825610
O O12 0.120721 0.500000 0.454069
O O13 0.000000 0.691876 0.500000
O O14 0.375040 0.500000 0.793306
O O15 0.250000 0.000000 0.146185
#
# Coordination Sequence:
#
# PCOD8212824 Si02
#       6
#     4   8   8   8   8   4
#     4  11  25  45  66  95 128 159 201 258 322 381
#     4  11  23  36  54  89 131 167 205 253 307 370
#     4  10  23  43  66  93 126 165 212 262 307 363
#     4  10  20  38  60  86 123 165 210 255 302 363
#     4  11  22  40  68  97 124 161 208 261 316 370
#     4  11  27  47  66  89 126 169 207 256 318 381
#
# _framework density 20.35988
#
# number of rings (size 3 to 8) (size 9 to 14) (size 15 to 20)
#    0.000    1.400    3.000    1.800    1.400    6.400 
#    0.000    4.000    0.000    0.000    0.000    0.000 
#    0.000    0.000    0.000    0.000    0.000    0.000 
#
# Total GULP energy -496028.376541 kJ/mol
# GULP energy per Si atom -12400.709414 kJ/mol
# Density = 2.031354 g / cm^3
# Si number density = 20.359880 Si / 1000 Ang^3
#
#
#
# Elastic Constant Matrix: (Units=GPa)
#
#
# Indices 1 2 3 4 5 6 
#
# 1 115.8977 63.0445 65.3039 0.0000 0.0000 0.0000
# 2 63.0445 118.1046 78.8253 0.0000 0.0000 0.0000
# 3 65.3039 78.8253 131.0581 0.0000 0.0000 0.0000
# 4 0.0000 0.0000 0.0000 35.1176 0.0000 0.0000
# 5 0.0000 0.0000 0.0000 0.0000 26.7336 0.0000
# 6 0.0000 0.0000 0.0000 0.0000 0.0000 13.9380
#
#
#
# Elastic Compliance Matrix: (Units=1/GPa)
#
#
# Indices 1 2 3 4 5 6 
#
# 1 0.013268 -0.004461 -0.003928 0.000000 0.000000 0.000000
# 2 -0.004461 0.015645 -0.007187 0.000000 0.000000 0.000000
# 3 -0.003928 -0.007187 0.013910 0.000000 0.000000 0.000000
# 4 0.000000 0.000000 0.000000 0.028476 0.000000 0.000000
# 5 0.000000 0.000000 0.000000 0.000000 0.037406 0.000000
# 6 0.000000 0.000000 0.000000 0.000000 0.000000 0.071746
#
#
# Mechanical properties :
#
#
# Convention : Reuss Voigt Hill
#
# Bulk Modulus (GPa) = 85.68072 86.60085 86.14079
# Shear Modulus (GPa) = 23.20247 25.68363 24.44305
#
# Velocity S-wave (km/s) = 3.37948 3.55559 3.46865
# Velocity P-wave (km/s) = 7.57643 7.71257 7.64480
#
# Compressibility (1/GPa) = 0.01167124
#
# Stress axis : x y z
#
# Youngs Moduli (GPa) = 75.36754 63.91833 71.88916
#
# Poissons Ratio (x) = 0.28512 0.28241
# Poissons Ratio (y) = 0.33620 0.51667
# Poissons Ratio (z) = 0.29608 0.45938
#
# Static dielectric constant tensor:
#      x y z
#    x 3.668610 0.000000 0.000000 
#    y 0.000000 3.715680 0.000000 
#    z 0.000000 0.000000 3.687370 
# 
# 
# High freq. dielectric constant tensor:
#      x y z
#    x 1.800760 0.000000 0.000000 
#    y 0.000000 1.800010 0.000000 
#    z 0.000000 0.000000 1.790170 
# 
# From -- ./inp_files/23811.got.cif
#   From: 2010.03.12/outbox.cif.g09.slc.cpg/sg51_12_cif.got.tgz:23811.got - 2010.04.16 13:43:02.
