data_PCOD8212735
_publ_section_title
;
Structure prediction by ZEFSAII (Michael W. Deem and Ramdas Pophale) SiO2 
 PCOD8212735
Probable space group: P M M A
;
_chemical_formula_sum "Si O2"
_cell_formula_units_Z 48
_cell_length_a 18.013348
_cell_length_b 10.052297
_cell_length_c 13.710715
_cell_angle_alpha 90.000000
_cell_angle_beta 90.000000
_cell_angle_gamma 90.000000
_cell_volume 2482.674904
_symmetry_space_group_name_H-M "P M M A"
_symmetry_group_IT_number 51
_symmetry_cell_setting 'orthorhombic'
loop_
_space_group_symop_operation_xyz
x,y,z
1/2-x,-y,z
1/2+x,-y,-z
-x,y,-z
-x,-y,-z
1/2+x,y,-z
1/2-x,y,z
x,-y,z
loop_
_atom_site_type_symbol
_atom_site_label
_atom_site_fract_x
_atom_site_fract_y
_atom_site_fract_z
Si Si1 0.837316 0.282801 0.372650
Si Si2 0.162328 0.000000 0.554967
Si Si3 0.087861 0.500000 0.497807
Si Si4 0.836154 0.651830 0.152962
Si Si5 0.662054 0.000000 0.661975
Si Si6 0.663677 0.225833 0.805878
Si Si7 0.587338 0.848367 0.005495
Si Si8 0.335253 0.500000 0.293769
O O1 0.750000 0.301912 0.392411
O O2 0.863058 0.130114 0.385674
O O3 0.881169 0.368642 0.451100
O O4 0.859082 0.330292 0.265198
O O5 0.126720 0.000000 0.446265
O O6 0.250000 0.000000 0.544296
O O7 0.111889 0.500000 0.386014
O O8 0.000000 0.500000 0.500000
O O9 0.750000 0.686472 0.137867
O O10 0.852728 0.500000 0.121310
O O11 0.883644 0.752721 0.089787
O O12 0.634764 0.869707 0.719615
O O13 0.750000 0.000000 0.653103
O O14 0.750000 0.200547 0.827457
O O15 0.619648 0.196063 0.903028
O O16 0.647197 0.375173 0.774184
O O17 0.611010 0.000000 0.029202
O O18 0.500000 0.833828 0.000000
O O19 0.250000 0.500000 0.330007
#
# Coordination Sequence:
#
# PCOD8212735 Si02
#       8
#     8   4   4   8   4   8   8   4
#     4  10  20  39  63  89 122 156 201 259 302 347
#     4   9  18  32  60  93 116 148 197 249 306 355
#     4  12  24  38  59  88 127 168 203 238 294 362
#     4  10  22  40  65  92 117 154 203 255 304 350
#     4   9  16  30  54  83 113 146 185 237 296 343
#     4  10  20  37  60  86 116 149 195 252 298 342
#     4  11  25  42  60  86 123 164 198 239 302 370
#     4  10  22  38  62  90 114 150 198 246 296 352
#
# _framework density 19.333984999999998
#
# number of rings (size 3 to 8) (size 9 to 14) (size 15 to 20)
#    0.000    1.833    1.667    2.250    2.333    5.333 
#    0.000    0.417    0.000    0.000    0.000    0.000 
#    0.000    0.000    0.000    0.000    0.000    0.000 
#
# Total GULP energy -595346.003003 kJ/mol
# GULP energy per Si atom -12403.041729 kJ/mol
# Density = 1.928998 g / cm^3
# Si number density = 19.333985 Si / 1000 Ang^3
#
#
#
# Elastic Constant Matrix: (Units=GPa)
#
#
# Indices 1 2 3 4 5 6 
#
# 1 71.8686 49.3448 50.7248 0.0000 0.0000 0.0000
# 2 49.3448 162.0096 53.4790 0.0000 0.0000 0.0000
# 3 50.7248 53.4790 101.6701 0.0000 0.0000 0.0000
# 4 0.0000 0.0000 0.0000 31.2976 0.0000 0.0000
# 5 0.0000 0.0000 0.0000 0.0000 5.5090 0.0000
# 6 0.0000 0.0000 0.0000 0.0000 0.0000 23.3842
#
#
#
# Elastic Compliance Matrix: (Units=1/GPa)
#
#
# Indices 1 2 3 4 5 6 
#
# 1 0.023406 -0.003962 -0.009593 0.000000 0.000000 0.000000
# 2 -0.003962 0.008140 -0.002305 0.000000 0.000000 0.000000
# 3 -0.009593 -0.002305 0.015834 0.000000 0.000000 0.000000
# 4 0.000000 0.000000 0.000000 0.031951 0.000000 0.000000
# 5 0.000000 0.000000 0.000000 0.000000 0.181522 0.000000
# 6 0.000000 0.000000 0.000000 0.000000 0.000000 0.042764
#
#
# Mechanical properties :
#
#
# Convention : Reuss Voigt Hill
#
# Bulk Modulus (GPa) = 63.85982 71.40505 67.63243
# Shear Modulus (GPa) = 14.68179 24.17147 19.42663
#
# Velocity S-wave (km/s) = 2.75867 3.53966 3.17328
# Velocity P-wave (km/s) = 6.57636 7.32927 6.96300
#
# Compressibility (1/GPa) = 0.01565930
#
# Stress axis : x y z
#
# Youngs Moduli (GPa) = 42.72476 122.84813 63.15362
#
# Poissons Ratio (x) = 0.48674 0.60585
# Poissons Ratio (y) = 0.16928 0.14557
# Poissons Ratio (z) = 0.40987 0.28316
#
# Static dielectric constant tensor:
#      x y z
#    x 3.281640 0.000000 0.000000 
#    y 0.000000 3.815350 0.000000 
#    z 0.000000 0.000000 3.609210 
# 
# 
# High freq. dielectric constant tensor:
#      x y z
#    x 1.721270 0.000000 0.000000 
#    y 0.000000 1.774000 0.000000 
#    z 0.000000 0.000000 1.762470 
# 
# From -- ./inp_files/25044.got.cif
#   From: 2010.03.12/outbox.cif.g09.slc.cpg/sg51_13_cif.got.tgz:25044.got - 2010.04.16 13:43:02.
