data_PCOD8212405
_publ_section_title
;
Structure prediction by ZEFSAII (Michael W. Deem and Ramdas Pophale) SiO2 
 PCOD8212405
Probable space group: P M M A
;
_chemical_formula_sum "Si O2"
_cell_formula_units_Z 64
_cell_length_a 9.032786
_cell_length_b 23.649413
_cell_length_c 15.323826
_cell_angle_alpha 90.000000
_cell_angle_beta 90.000000
_cell_angle_gamma 90.000000
_cell_volume 3273.477038
_symmetry_space_group_name_H-M "P M M A"
_symmetry_group_IT_number 51
_symmetry_cell_setting 'orthorhombic'
loop_
_space_group_symop_operation_xyz
x,y,z
1/2-x,-y,z
1/2+x,-y,-z
-x,y,-z
-x,-y,-z
1/2+x,y,-z
1/2-x,y,z
x,-y,z
loop_
_atom_site_type_symbol
_atom_site_label
_atom_site_fract_x
_atom_site_fract_y
_atom_site_fract_z
Si Si1 0.908307 0.064093 0.075426
Si Si2 0.424461 0.601306 0.590593
Si Si3 0.079849 0.435506 0.237998
Si Si4 0.577634 0.732077 0.412162
Si Si5 0.073566 0.939519 0.732945
Si Si6 0.922919 0.232311 0.088394
Si Si7 0.574069 0.182830 0.269723
Si Si8 0.924903 0.362795 0.090073
O O1 0.750000 0.095953 0.082914
O O2 0.988873 0.064819 0.168641
O O3 0.881034 0.000000 0.045127
O O4 0.000000 0.096157 0.000000
O O5 0.500000 0.582513 0.500000
O O6 0.250000 0.587770 0.586520
O O7 0.501132 0.567253 0.668066
O O8 0.455333 0.667165 0.609141
O O9 0.250000 0.414857 0.245586
O O10 0.073349 0.500000 0.205603
O O11 0.991786 0.397691 0.169580
O O12 0.500000 0.752199 0.500000
O O13 0.750000 0.743488 0.424184
O O14 0.509322 0.769613 0.333924
O O15 0.250000 0.943454 0.735337
O O16 0.023400 0.879407 0.691727
O O17 0.014992 0.000000 0.690941
O O18 0.750000 0.225689 0.074212
O O19 0.980409 0.194438 0.170415
O O20 0.962642 0.297445 0.108331
O O21 0.000000 0.211110 0.000000
O O22 0.750000 0.187181 0.269646
O O23 0.750000 0.373980 0.084640
O O24 0.000000 0.382991 0.000000
#
# Coordination Sequence:
#
# PCOD8212405 Si02
#       8
#     8   8   8   8   8   8   8   8
#     4   8  13  21  33  50  73 103 142 185 223 260
#     4  10  20  36  58  82 108 138 172 211 260 316
#     4  11  24  39  55  79 110 143 180 218 256 304
#     4   9  18  33  54  79 102 126 160 205 257 308
#     4   8  14  24  39  61  88 121 162 201 236 282
#     4   9  18  32  50  74 102 132 167 208 255 305
#     4   9  16  28  47  69  97 131 164 203 250 299
#     4  10  20  36  57  78 103 138 180 225 272 317
#
# _framework density 19.551075000000001
#
# number of rings (size 3 to 8) (size 9 to 14) (size 15 to 20)
#    0.000    2.750    0.000    2.625    0.000    5.000 
#    0.000    0.625    0.000    1.125    0.000    0.000 
#    0.000    0.000    0.000    0.000    0.000    0.000 
#
# Total GULP energy -792940.801172 kJ/mol
# GULP energy per Si atom -12389.700018 kJ/mol
# Density = 1.950658 g / cm^3
# Si number density = 19.551075 Si / 1000 Ang^3
#
#
#
# Elastic Constant Matrix: (Units=GPa)
#
#
# Indices 1 2 3 4 5 6 
#
# 1 61.5814 21.8445 26.4183 0.0000 0.0000 0.0000
# 2 21.8445 89.1571 33.0973 0.0000 0.0000 0.0000
# 3 26.4183 33.0973 83.4207 0.0000 0.0000 0.0000
# 4 0.0000 0.0000 0.0000 9.3020 0.0000 0.0000
# 5 0.0000 0.0000 0.0000 0.0000 32.3171 0.0000
# 6 0.0000 0.0000 0.0000 0.0000 0.0000 7.3279
#
#
#
# Elastic Compliance Matrix: (Units=1/GPa)
#
#
# Indices 1 2 3 4 5 6 
#
# 1 0.019411 -0.002901 -0.004996 0.000000 0.000000 0.000000
# 2 -0.002901 0.013587 -0.004472 0.000000 0.000000 0.000000
# 3 -0.004996 -0.004472 0.015344 0.000000 0.000000 0.000000
# 4 0.000000 0.000000 0.000000 0.107504 0.000000 0.000000
# 5 0.000000 0.000000 0.000000 0.000000 0.030943 0.000000
# 6 0.000000 0.000000 0.000000 0.000000 0.000000 0.136465
#
#
# Mechanical properties :
#
#
# Convention : Reuss Voigt Hill
#
# Bulk Modulus (GPa) = 42.36670 44.09771 43.23220
# Shear Modulus (GPa) = 14.05044 19.97600 17.01322
#
# Velocity S-wave (km/s) = 2.68368 3.19993 2.95310
# Velocity P-wave (km/s) = 5.59639 6.02136 5.81276
#
# Compressibility (1/GPa) = 0.02360345
#
# Stress axis : x y z
#
# Youngs Moduli (GPa) = 51.51675 73.59929 65.17247
#
# Poissons Ratio (x) = 0.21353 0.32561
# Poissons Ratio (y) = 0.14946 0.29145
# Poissons Ratio (z) = 0.25739 0.32913
#
# Static dielectric constant tensor:
#      x y z
#    x 3.456840 0.000000 0.000000 
#    y 0.000000 3.786750 0.000000 
#    z 0.000000 0.000000 3.518210 
# 
# 
# High freq. dielectric constant tensor:
#      x y z
#    x 1.731540 0.000000 0.000000 
#    y 0.000000 1.771810 0.000000 
#    z 0.000000 0.000000 1.744290 
# 
# From -- ./inp_files/22385.got.cif
#   From: 2010.03.12/outbox.cif.g09.slc.cpg/sg51_12_cif.got.tgz:22385.got - 2010.04.16 13:43:02.
