data_PCOD8212698
_publ_section_title
;
Structure prediction by ZEFSAII (Michael W. Deem and Ramdas Pophale) SiO2 
 PCOD8212698
Probable space group: P M M A
;
_chemical_formula_sum "Si O2"
_cell_formula_units_Z 56
_cell_length_a 9.064589
_cell_length_b 13.409587
_cell_length_c 24.204315
_cell_angle_alpha 90.000000
_cell_angle_beta 90.000000
_cell_angle_gamma 90.000000
_cell_volume 2942.092453
_symmetry_space_group_name_H-M "P M M A"
_symmetry_group_IT_number 51
_symmetry_cell_setting 'orthorhombic'
loop_
_space_group_symop_operation_xyz
x,y,z
1/2-x,-y,z
1/2+x,-y,-z
-x,y,-z
-x,-y,-z
1/2+x,y,-z
1/2-x,y,z
x,-y,z
loop_
_atom_site_type_symbol
_atom_site_label
_atom_site_fract_x
_atom_site_fract_y
_atom_site_fract_z
Si Si1 0.423273 0.184816 0.672201
Si Si2 0.075869 0.000000 0.137473
Si Si3 0.084410 0.128652 0.946615
Si Si4 0.577935 0.113965 0.446020
Si Si5 0.590253 0.388339 0.837126
Si Si6 0.422174 0.614484 0.731450
Si Si7 0.924578 0.000000 0.733118
Si Si8 0.085305 0.361949 0.947206
O O1 0.250000 0.163231 0.680597
O O2 0.469305 0.175074 0.608187
O O3 0.463003 0.300306 0.686654
O O4 0.508916 0.101527 0.707619
O O5 0.003438 0.097119 0.108620
O O6 0.250000 0.000000 0.127370
O O7 0.037059 0.000000 0.201964
O O8 0.250000 0.084773 0.945070
O O9 0.091279 0.245116 0.950487
O O10 0.000000 0.084929 0.000000
O O11 0.500000 0.160427 0.500000
O O12 0.750000 0.121153 0.456754
O O13 0.526910 0.000000 0.436952
O O14 0.750000 0.333447 0.844602
O O15 0.621309 0.500000 0.818408
O O16 0.497922 0.341884 0.786930
O O17 0.500060 0.392482 0.893013
O O18 0.250000 0.613463 0.743742
O O19 0.470446 0.500000 0.714211
O O20 0.750000 0.000000 0.722715
O O21 0.250000 0.407068 0.945936
O O22 0.000000 0.406589 0.000000
#
# Coordination Sequence:
#
# PCOD8212698 Si02
#       8
#     8   4   8   8   8   8   4   8
#     4  10  20  37  59  82 116 154 188 231 279 330
#     4  11  24  38  51  72 103 136 171 215 264 323
#     4  10  21  37  56  75  96 128 170 215 265 322
#     4   9  17  31  52  80 113 151 192 230 272 323
#     4  10  21  36  54  76 103 135 171 215 270 329
#     4   9  19  36  59  85 110 144 190 234 276 327
#     4  11  25  38  51  82 117 150 188 229 282 335
#     4  10  21  36  54  76  99 128 166 212 268 327
#
# _framework density 19.034072999999999
#
# number of rings (size 3 to 8) (size 9 to 14) (size 15 to 20)
#    0.000    2.143    0.714    1.929    2.000    5.143 
#    0.000    0.000    0.000    0.429    0.000    0.000 
#    0.000    0.000    0.000    0.000    0.000    0.000 
#
# Total GULP energy -693911.450056 kJ/mol
# GULP energy per Si atom -12391.275894 kJ/mol
# Density = 1.899075 g / cm^3
# Si number density = 19.034073 Si / 1000 Ang^3
#
#
#
# Elastic Constant Matrix: (Units=GPa)
#
#
# Indices 1 2 3 4 5 6 
#
# 1 110.6076 36.9168 72.3682 0.0000 0.0000 0.0000
# 2 36.9168 99.4439 53.3608 0.0000 0.0000 0.0000
# 3 72.3682 53.3608 174.6172 0.0000 0.0000 0.0000
# 4 0.0000 0.0000 0.0000 33.3275 0.0000 0.0000
# 5 0.0000 0.0000 0.0000 0.0000 34.2042 0.0000
# 6 0.0000 0.0000 0.0000 0.0000 0.0000 14.2194
#
#
#
# Elastic Compliance Matrix: (Units=1/GPa)
#
#
# Indices 1 2 3 4 5 6 
#
# 1 0.012824 -0.002283 -0.004617 0.000000 0.000000 0.000000
# 2 -0.002283 0.012435 -0.002854 0.000000 0.000000 0.000000
# 3 -0.004617 -0.002854 0.008512 0.000000 0.000000 0.000000
# 4 0.000000 0.000000 0.000000 0.030005 0.000000 0.000000
# 5 0.000000 0.000000 0.000000 0.000000 0.029236 0.000000
# 6 0.000000 0.000000 0.000000 0.000000 0.000000 0.070327
#
#
# Mechanical properties :
#
#
# Convention : Reuss Voigt Hill
#
# Bulk Modulus (GPa) = 70.11033 78.88449 74.49741
# Shear Modulus (GPa) = 26.65232 31.15174 28.90203
#
# Velocity S-wave (km/s) = 3.74604 4.04992 3.90094
# Velocity P-wave (km/s) = 7.45818 7.96259 7.71451
#
# Compressibility (1/GPa) = 0.01426323
#
# Stress axis : x y z
#
# Youngs Moduli (GPa) = 77.97998 80.41963 117.47685
#
# Poissons Ratio (x) = 0.18361 0.54239
# Poissons Ratio (y) = 0.17804 0.33524
# Poissons Ratio (z) = 0.36003 0.22949
#
# Static dielectric constant tensor:
#      x y z
#    x 3.891500 0.000000 0.000000 
#    y 0.000000 3.412400 0.000000 
#    z 0.000000 0.000000 3.515430 
# 
# 
# High freq. dielectric constant tensor:
#      x y z
#    x 1.748330 0.000000 0.000000 
#    y 0.000000 1.737790 0.000000 
#    z 0.000000 0.000000 1.729700 
# 
# From -- ./inp_files/32078.got.cif
#   From: 2010.03.12/outbox.cif.g09.slc.cpg/sg51_17_cif.got.tgz:32078.got - 2010.04.16 13:43:02.
