data_PCOD8212050
_publ_section_title
;
Structure prediction by ZEFSAII (Michael W. Deem and Ramdas Pophale) SiO2 
 PCOD8212050
Probable space group: P M M A
;
_chemical_formula_sum "Si O2"
_cell_formula_units_Z 44
_cell_length_a 9.059308
_cell_length_b 27.924981
_cell_length_c 9.620332
_cell_angle_alpha 90.000000
_cell_angle_beta 90.000000
_cell_angle_gamma 90.000000
_cell_volume 2433.761246
_symmetry_space_group_name_H-M "P M M A"
_symmetry_group_IT_number 51
_symmetry_cell_setting 'orthorhombic'
loop_
_space_group_symop_operation_xyz
x,y,z
1/2-x,-y,z
1/2+x,-y,-z
-x,y,-z
-x,-y,-z
1/2+x,y,-z
1/2-x,y,z
x,-y,z
loop_
_atom_site_type_symbol
_atom_site_label
_atom_site_fract_x
_atom_site_fract_y
_atom_site_fract_z
Si Si1 0.078515 0.267633 0.859007
Si Si2 0.080227 0.000000 0.856918
Si Si3 0.075752 0.186978 0.648582
Si Si4 0.576613 0.103737 0.148976
Si Si5 0.919980 0.553832 0.645717
Si Si6 0.423664 0.377241 0.857570
O O1 0.250000 0.260728 0.888337
O O2 0.027576 0.235089 0.729864
O O3 0.039424 0.322237 0.820904
O O4 0.000000 0.250798 0.000000
O O5 0.040847 0.949209 0.783128
O O6 0.250000 0.000000 0.894499
O O7 0.000000 0.000000 0.000000
O O8 0.250000 0.184706 0.625334
O O9 0.018475 0.142044 0.739454
O O10 0.000000 0.186353 0.500000
O O11 0.750000 0.110928 0.123647
O O12 0.500000 0.111254 0.000000
O O13 0.750000 0.569955 0.630272
O O14 0.929386 0.500000 0.707092
O O15 0.000000 0.555899 0.500000
O O16 0.007235 0.590092 0.740991
O O17 0.250000 0.386493 0.869218
O O18 0.500000 0.392394 0.000000
#
# Coordination Sequence:
#
# PCOD8212050 Si02
#       6
#     8   4   8   8   8   8
#     4   9  19  35  54  76 100 128 165 206 249 297
#     4   8  14  26  45  70  96 122 156 200 245 288
#     4  10  21  35  49  70 100 132 166 203 245 294
#     4   9  17  30  50  73  97 126 162 203 246 293
#     4  10  21  37  56  78 105 138 174 210 250 298
#     4  10  20  35  55  79 106 134 167 209 254 301
#
# _framework density 18.079013
#
# number of rings (size 3 to 8) (size 9 to 14) (size 15 to 20)
#    0.000    2.545    0.000    1.636    0.000    4.364 
#    0.000    2.273    0.000    0.000    0.000    0.000 
#    0.000    0.000    0.000    0.000    0.000    0.000 
#
# Total GULP energy -545374.193556 kJ/mol
# GULP energy per Si atom -12394.868035 kJ/mol
# Density = 1.803786 g / cm^3
# Si number density = 18.079013 Si / 1000 Ang^3
#
#
#
# Elastic Constant Matrix: (Units=GPa)
#
#
# Indices 1 2 3 4 5 6 
#
# 1 66.7709 45.4207 46.6505 0.0000 0.0000 0.0000
# 2 45.4207 120.2953 78.0531 0.0000 0.0000 0.0000
# 3 46.6505 78.0531 121.7275 0.0000 0.0000 0.0000
# 4 0.0000 0.0000 0.0000 -73.4342 0.0000 0.0000
# 5 0.0000 0.0000 0.0000 0.0000 36.4426 0.0000
# 6 0.0000 0.0000 0.0000 0.0000 0.0000 24.4765
#
#
#
# Elastic Compliance Matrix: (Units=1/GPa)
#
#
# Indices 1 2 3 4 5 6 
#
# 1 0.021993 -0.004855 -0.005315 0.000000 0.000000 0.000000
# 2 -0.004855 0.015307 -0.007955 0.000000 0.000000 0.000000
# 3 -0.005315 -0.007955 0.015353 0.000000 0.000000 0.000000
# 4 0.000000 0.000000 0.000000 -0.013618 0.000000 0.000000
# 5 0.000000 0.000000 0.000000 0.000000 0.027440 0.000000
# 6 0.000000 0.000000 0.000000 0.000000 0.000000 0.040855
#
#
# Mechanical properties :
#
#
# Convention : Reuss Voigt Hill
#
# Bulk Modulus (GPa) = 60.96518 72.11582 66.54050
# Shear Modulus (GPa) = 33.54600 6.74159 20.14380
#
# Velocity S-wave (km/s) = 4.31225 1.93315 3.34160
# Velocity P-wave (km/s) = 7.65433 6.70512 7.19539
#
# Compressibility (1/GPa) = 0.01640281
#
# Stress axis : x y z
#
# Youngs Moduli (GPa) = 45.46918 65.32787 65.13524
#
# Poissons Ratio (x) = 0.31718 0.34621
# Poissons Ratio (y) = 0.22076 0.51812
# Poissons Ratio (z) = 0.24168 0.51966
#
# Static dielectric constant tensor:
#      x y z
#    x 3.326300 0.000000 0.000000 
#    y 0.000000 3.981160 0.000000 
#    z 0.000000 0.000000 3.132220 
# 
# 
# High freq. dielectric constant tensor:
#      x y z
#    x 1.703280 0.000000 0.000000 
#    y 0.000000 1.719590 0.000000 
#    z 0.000000 0.000000 1.680420 
# 
# From -- ./inp_files/5735.got.cif
#   From: 2010.03.12/outbox.cif.g09.slc.cpg/sg51_3_cif.got.tgz:5735.got - 2010.04.16 13:43:02.
