data_PCOD8212823
_publ_section_title
;
Structure prediction by ZEFSAII (Michael W. Deem and Ramdas Pophale) SiO2 
 PCOD8212823
Probable space group: P M M A
;
_chemical_formula_sum "Si O2"
_cell_formula_units_Z 64
_cell_length_a 28.499302
_cell_length_b 8.859686
_cell_length_c 12.434678
_cell_angle_alpha 90.000000
_cell_angle_beta 90.000000
_cell_angle_gamma 90.000000
_cell_volume 3139.692367
_symmetry_space_group_name_H-M "P M M A"
_symmetry_group_IT_number 51
_symmetry_cell_setting 'orthorhombic'
loop_
_space_group_symop_operation_xyz
x,y,z
1/2-x,-y,z
1/2+x,-y,-z
-x,y,-z
-x,-y,-z
1/2+x,y,-z
1/2-x,y,z
x,-y,z
loop_
_atom_site_type_symbol
_atom_site_label
_atom_site_fract_x
_atom_site_fract_y
_atom_site_fract_z
Si Si1 0.561644 0.175007 0.762118
Si Si2 0.519906 0.677150 0.116208
Si Si3 0.303297 0.175110 0.013724
Si Si4 0.364559 0.823115 0.621741
Si Si5 0.550548 0.824127 0.516744
Si Si6 0.195520 0.825832 0.419228
Si Si7 0.126538 0.678218 0.846438
Si Si8 0.155708 0.322277 0.212928
O O1 0.510897 0.236287 0.795685
O O2 0.568914 0.203282 0.636082
O O3 0.603485 0.266112 0.819764
O O4 0.565297 0.000000 0.792770
O O5 0.515448 0.500000 0.137369
O O6 0.573477 0.732826 0.128730
O O7 0.500000 0.722284 0.000000
O O8 0.250000 0.199284 0.973587
O O9 0.338804 0.255893 0.934278
O O10 0.316186 0.000000 0.019519
O O11 0.307528 0.245464 0.132420
O O12 0.412102 0.757891 0.567542
O O13 0.322121 0.790583 0.539563
O O14 0.355736 0.733425 0.730771
O O15 0.368167 0.000000 0.648347
O O16 0.500000 0.744771 0.500000
O O17 0.545775 0.000000 0.491964
O O18 0.250000 0.787381 0.415259
O O19 0.168549 0.722544 0.334175
O O20 0.184876 0.000000 0.390015
O O21 0.129678 0.500000 0.852207
O O22 0.157822 0.500000 0.198733
#
# Coordination Sequence:
#
# PCOD8212823 Si02
#       8
#     8   8   8   8   8   8   8   8
#     4  11  21  36  61  90 122 162 212 261 307 364
#     4  10  22  40  59  85 124 168 210 255 316 379
#     4  11  25  45  69  94 120 157 210 266 317 376
#     4  10  20  38  60  85 123 165 210 258 305 364
#     4   9  17  31  54  84 116 153 200 253 301 349
#     4  10  21  39  63  89 119 160 211 263 311 366
#     4  11  24  41  63  93 131 168 206 258 318 381
#     4  12  24  39  62  93 131 165 199 254 323 386
#
# _framework density 20.384162
#
# number of rings (size 3 to 8) (size 9 to 14) (size 15 to 20)
#    0.000    1.500    1.250    4.125    0.000    7.000 
#    0.000    1.250    0.000    2.625    0.000    0.000 
#    0.000    0.000    0.000    0.000    0.000    0.000 
#
# Total GULP energy -793851.841208 kJ/mol
# GULP energy per Si atom -12403.935019 kJ/mol
# Density = 2.033777 g / cm^3
# Si number density = 20.384162 Si / 1000 Ang^3
#
#
#
# Elastic Constant Matrix: (Units=GPa)
#
#
# Indices 1 2 3 4 5 6 
#
# 1 121.2795 43.0733 33.6429 0.0000 0.0000 0.0000
# 2 43.0733 77.6678 36.7268 0.0000 0.0000 0.0000
# 3 33.6429 36.7268 89.6799 0.0000 0.0000 0.0000
# 4 0.0000 0.0000 0.0000 26.3449 0.0000 0.0000
# 5 0.0000 0.0000 0.0000 0.0000 34.9126 0.0000
# 6 0.0000 0.0000 0.0000 0.0000 0.0000 27.8012
#
#
#
# Elastic Compliance Matrix: (Units=1/GPa)
#
#
# Indices 1 2 3 4 5 6 
#
# 1 0.010531 -0.004926 -0.001933 0.000000 0.000000 0.000000
# 2 -0.004926 0.018272 -0.005635 0.000000 0.000000 0.000000
# 3 -0.001933 -0.005635 0.014184 0.000000 0.000000 0.000000
# 4 0.000000 0.000000 0.000000 0.037958 0.000000 0.000000
# 5 0.000000 0.000000 0.000000 0.000000 0.028643 0.000000
# 6 0.000000 0.000000 0.000000 0.000000 0.000000 0.035970
#
#
# Mechanical properties :
#
#
# Convention : Reuss Voigt Hill
#
# Bulk Modulus (GPa) = 55.56159 57.27923 56.42041
# Shear Modulus (GPa) = 28.32124 29.49068 28.90596
#
# Velocity S-wave (km/s) = 3.73148 3.80774 3.76980
# Velocity P-wave (km/s) = 6.77360 6.89149 6.83280
#
# Compressibility (1/GPa) = 0.01799804
#
# Stress axis : x y z
#
# Youngs Moduli (GPa) = 94.95483 54.72865 70.50348
#
# Poissons Ratio (x) = 0.26961 0.13630
# Poissons Ratio (y) = 0.46778 0.39728
# Poissons Ratio (z) = 0.18357 0.30839
#
# Static dielectric constant tensor:
#      x y z
#    x 3.950510 0.000000 0.000000 
#    y 0.000000 3.500310 0.000000 
#    z 0.000000 0.000000 3.656080 
# 
# 
# High freq. dielectric constant tensor:
#      x y z
#    x 1.811940 0.000000 0.000000 
#    y 0.000000 1.779850 0.000000 
#    z 0.000000 0.000000 1.800330 
# 
# From -- ./inp_files/19495.got.cif
#   From: 2010.03.12/outbox.cif.g09.slc.cpg/sg51_10_cif.got.tgz:19495.got - 2010.04.16 13:43:02.
