data_PCOD8212983
_publ_section_title
;
Structure prediction by ZEFSAII (Michael W. Deem and Ramdas Pophale) SiO2 
 PCOD8212983
Probable space group: P M M A
;
_chemical_formula_sum "Si O2"
_cell_formula_units_Z 56
_cell_length_a 19.390654
_cell_length_b 13.760202
_cell_length_c 10.270026
_cell_angle_alpha 90.000000
_cell_angle_beta 90.000000
_cell_angle_gamma 90.000000
_cell_volume 2740.241312
_symmetry_space_group_name_H-M "P M M A"
_symmetry_group_IT_number 51
_symmetry_cell_setting 'orthorhombic'
loop_
_space_group_symop_operation_xyz
x,y,z
1/2-x,-y,z
1/2+x,-y,-z
-x,y,-z
-x,-y,-z
1/2+x,y,-z
1/2-x,y,z
x,-y,z
loop_
_atom_site_type_symbol
_atom_site_label
_atom_site_fract_x
_atom_site_fract_y
_atom_site_fract_z
Si Si1 0.078500 0.272012 0.499571
Si Si2 0.422249 0.614732 0.763192
Si Si3 0.674540 0.884920 0.117586
Si Si4 0.829401 0.614986 0.998793
Si Si5 0.433622 0.109366 0.089081
Si Si6 0.668848 0.110646 0.405953
Si Si7 0.070019 0.305236 0.216085
O O1 0.094616 0.340629 0.622094
O O2 0.128140 0.178918 0.495462
O O3 0.091409 0.329777 0.364727
O O4 0.000000 0.234890 0.500000
O O5 0.418541 0.500000 0.746976
O O6 0.497499 0.643690 0.817855
O O7 0.365272 0.652255 0.867326
O O8 0.750000 0.838542 0.096558
O O9 0.645367 0.858190 0.260191
O O10 0.679568 0.000000 0.111122
O O11 0.626589 0.846813 0.002511
O O12 0.750000 0.649945 0.996723
O O13 0.834483 0.500000 0.991786
O O14 0.869515 0.656568 0.874914
O O15 0.441072 0.187822 0.203928
O O16 0.417792 0.000000 0.143467
O O17 0.500000 0.103752 0.000000
O O18 0.750000 0.125721 0.423306
O O19 0.648335 0.000000 0.436133
#
# Coordination Sequence:
#
# PCOD8212983 Si02
#       7
#     8   8   8   8   8   8   8
#     4  10  24  38  57  91 122 158 204 246 293 357
#     4  10  22  43  66  87 116 157 202 249 302 365
#     4   8  16  32  54  79 105 144 200 247 285 335
#     4  10  22  40  64  93 118 146 193 250 305 360
#     4  10  21  34  52  82 121 157 194 241 292 346
#     4   9  19  37  60  84 115 158 203 245 291 346
#     4  11  23  38  59  89 123 158 198 240 303 361
#
# _framework density 20.436156
#
# number of rings (size 3 to 8) (size 9 to 14) (size 15 to 20)
#    0.000    2.286    0.000    2.571    6.000    6.857 
#    0.000    0.000    0.000    3.429    0.000    0.000 
#    0.000    0.000    0.000    0.000    0.000    0.000 
#
# Total GULP energy -694288.270240 kJ/mol
# GULP energy per Si atom -12398.004826 kJ/mol
# Density = 2.038964 g / cm^3
# Si number density = 20.436156 Si / 1000 Ang^3
#
#
#
# Elastic Constant Matrix: (Units=GPa)
#
#
# Indices 1 2 3 4 5 6 
#
# 1 115.2476 36.7285 68.2894 0.0000 0.0000 0.0000
# 2 36.7285 58.7491 40.6955 0.0000 0.0000 0.0000
# 3 68.2894 40.6955 124.2928 0.0000 0.0000 0.0000
# 4 0.0000 0.0000 0.0000 24.5184 0.0000 0.0000
# 5 0.0000 0.0000 0.0000 0.0000 25.7192 0.0000
# 6 0.0000 0.0000 0.0000 0.0000 0.0000 58.5631
#
#
#
# Elastic Compliance Matrix: (Units=1/GPa)
#
#
# Indices 1 2 3 4 5 6 
#
# 1 0.013665 -0.004323 -0.006092 0.000000 0.000000 0.000000
# 2 -0.004323 0.023382 -0.005281 0.000000 0.000000 0.000000
# 3 -0.006092 -0.005281 0.013122 0.000000 0.000000 0.000000
# 4 0.000000 0.000000 0.000000 0.040786 0.000000 0.000000
# 5 0.000000 0.000000 0.000000 0.000000 0.038881 0.000000
# 6 0.000000 0.000000 0.000000 0.000000 0.000000 0.017076
#
#
# Mechanical properties :
#
#
# Convention : Reuss Voigt Hill
#
# Bulk Modulus (GPa) = 53.25669 65.52402 59.39036
# Shear Modulus (GPa) = 27.09133 31.93189 29.51161
#
# Velocity S-wave (km/s) = 3.64491 3.95716 3.80424
# Velocity P-wave (km/s) = 6.62045 7.28088 6.95851
#
# Compressibility (1/GPa) = 0.01877698
#
# Stress axis : x y z
#
# Youngs Moduli (GPa) = 73.18222 42.76827 76.20924
#
# Poissons Ratio (x) = 0.18487 0.46429
# Poissons Ratio (y) = 0.31633 0.40244
# Poissons Ratio (z) = 0.44585 0.22585
#
# Static dielectric constant tensor:
#      x y z
#    x 3.872640 0.000000 0.000000 
#    y 0.000000 3.696410 0.000000 
#    z 0.000000 0.000000 3.744040 
# 
# 
# High freq. dielectric constant tensor:
#      x y z
#    x 1.798200 0.000000 0.000000 
#    y 0.000000 1.805750 0.000000 
#    z 0.000000 0.000000 1.788700 
# 
# From -- ./inp_files/11017.got.cif
#   From: 2010.03.12/outbox.cif.g09.slc.cpg/sg51_6_cif.got.tgz:11017.got - 2010.04.16 13:43:02.
