data_PCOD8212498
_publ_section_title
;
Structure prediction by ZEFSAII (Michael W. Deem and Ramdas Pophale) SiO2 
 PCOD8212498
Probable space group: P M M A
;
_chemical_formula_sum "Si O2"
_cell_formula_units_Z 48
_cell_length_a 33.971434
_cell_length_b 8.895991
_cell_length_c 7.821735
_cell_angle_alpha 90.000000
_cell_angle_beta 90.000000
_cell_angle_gamma 90.000000
_cell_volume 2363.803180
_symmetry_space_group_name_H-M "P M M A"
_symmetry_group_IT_number 51
_symmetry_cell_setting 'orthorhombic'
loop_
_space_group_symop_operation_xyz
x,y,z
1/2-x,-y,z
1/2+x,-y,-z
-x,y,-z
-x,-y,-z
1/2+x,y,-z
1/2-x,y,z
x,-y,z
loop_
_atom_site_type_symbol
_atom_site_label
_atom_site_fract_x
_atom_site_fract_y
_atom_site_fract_z
Si Si1 0.796253 0.672091 0.010380
Si Si2 0.654363 0.177921 0.715011
Si Si3 0.165393 0.829520 0.677347
Si Si4 0.925108 0.675320 0.674532
Si Si5 0.922319 0.829999 0.327989
Si Si6 0.007317 0.336135 0.807016
O O1 0.750000 0.690434 0.991259
O O2 0.809730 0.500000 0.994167
O O3 0.807895 0.729262 0.199332
O O4 0.814846 0.764606 0.854380
O O5 0.666565 0.227981 0.520983
O O6 0.611304 0.240935 0.765912
O O7 0.652147 0.000000 0.723025
O O8 0.121062 0.821986 0.754621
O O9 0.181238 0.000000 0.684221
O O10 0.921389 0.500000 0.716696
O O11 0.923182 0.707219 0.475330
O O12 0.967676 0.738336 0.731362
O O13 0.956568 0.780659 0.199674
O O14 0.929881 0.000000 0.394958
O O15 0.016188 0.500000 0.718539
O O16 0.000000 0.371458 0.000000
#
# Coordination Sequence:
#
# PCOD8212498 Si02
#       6
#     8   8   8   8   8   8
#     4  11  25  42  63  93 125 158 196 242 299 362
#     4  10  22  41  65  92 123 159 202 250 302 359
#     4   9  21  41  63  90 121 158 201 246 298 355
#     4  10  20  36  58  83 113 154 198 242 293 347
#     4  10  21  37  57  83 113 151 197 245 296 348
#     4  10  22  36  51  79 116 154 196 242 293 348
#
# _framework density 20.306258
#
# number of rings (size 3 to 8) (size 9 to 14) (size 15 to 20)
#    0.000    2.000    0.000    3.500    2.333    9.667 
#    0.000    3.333    0.000    0.000    0.000    0.000 
#    0.000    0.000    0.000    0.000    0.000    0.000 
#
# Total GULP energy -594948.061548 kJ/mol
# GULP energy per Si atom -12394.751282 kJ/mol
# Density = 2.026004 g / cm^3
# Si number density = 20.306258 Si / 1000 Ang^3
#
#
#
# Elastic Constant Matrix: (Units=GPa)
#
#
# Indices 1 2 3 4 5 6 
#
# 1 59.4151 30.9211 13.8218 0.0000 0.0000 0.0000
# 2 30.9211 79.0167 24.5812 0.0000 0.0000 0.0000
# 3 13.8218 24.5812 57.9552 0.0000 0.0000 0.0000
# 4 0.0000 0.0000 0.0000 29.4705 0.0000 0.0000
# 5 0.0000 0.0000 0.0000 0.0000 34.6307 0.0000
# 6 0.0000 0.0000 0.0000 0.0000 0.0000 34.5017
#
#
#
# Elastic Compliance Matrix: (Units=1/GPa)
#
#
# Indices 1 2 3 4 5 6 
#
# 1 0.021293 -0.007779 -0.001779 0.000000 0.000000 0.000000
# 2 -0.007779 0.017421 -0.005534 0.000000 0.000000 0.000000
# 3 -0.001779 -0.005534 0.020026 0.000000 0.000000 0.000000
# 4 0.000000 0.000000 0.000000 0.033932 0.000000 0.000000
# 5 0.000000 0.000000 0.000000 0.000000 0.028876 0.000000
# 6 0.000000 0.000000 0.000000 0.000000 0.000000 0.028984
#
#
# Mechanical properties :
#
#
# Convention : Reuss Voigt Hill
#
# Bulk Modulus (GPa) = 35.01778 37.22613 36.12195
# Shear Modulus (GPa) = 26.28331 28.19145 27.23738
#
# Velocity S-wave (km/s) = 3.60160 3.73005 3.66639
# Velocity P-wave (km/s) = 5.88028 6.07644 5.97917
#
# Compressibility (1/GPa) = 0.02855692
#
# Stress axis : x y z
#
# Youngs Moduli (GPa) = 46.96389 57.40137 49.93499
#
# Poissons Ratio (x) = 0.44653 0.08882
# Poissons Ratio (y) = 0.36534 0.27633
# Poissons Ratio (z) = 0.08354 0.31765
#
# Static dielectric constant tensor:
#      x y z
#    x 4.525860 0.000000 0.000000 
#    y 0.000000 3.765250 0.000000 
#    z 0.000000 0.000000 3.599440 
# 
# 
# High freq. dielectric constant tensor:
#      x y z
#    x 1.797020 0.000000 0.000000 
#    y 0.000000 1.796010 0.000000 
#    z 0.000000 0.000000 1.784450 
# 
# From -- ./inp_files/12779.got.cif
#   From: 2010.03.12/outbox.cif.g09.slc.cpg/sg51_7_cif.got.tgz:12779.got - 2010.04.16 13:43:02.
