data_PCOD8212825
_publ_section_title
;
Structure prediction by ZEFSAII (Michael W. Deem and Ramdas Pophale) SiO2 
 PCOD8212825
Probable space group: P M M A
;
_chemical_formula_sum "Si O2"
_cell_formula_units_Z 40
_cell_length_a 10.973872
_cell_length_b 8.966850
_cell_length_c 19.674063
_cell_angle_alpha 90.000000
_cell_angle_beta 90.000000
_cell_angle_gamma 90.000000
_cell_volume 1935.948735
_symmetry_space_group_name_H-M "P M M A"
_symmetry_group_IT_number 51
_symmetry_cell_setting 'orthorhombic'
loop_
_space_group_symop_operation_xyz
x,y,z
1/2-x,-y,z
1/2+x,-y,-z
-x,y,-z
-x,-y,-z
1/2+x,y,-z
1/2-x,y,z
x,-y,z
loop_
_atom_site_type_symbol
_atom_site_label
_atom_site_fract_x
_atom_site_fract_y
_atom_site_fract_z
Si Si1 0.250000 0.169950 0.154477
Si Si2 0.502783 0.172827 0.922821
Si Si3 0.250000 0.675866 0.297724
Si Si4 0.886005 0.824822 0.457044
Si Si5 0.491003 0.826155 0.319502
Si Si6 0.390027 0.668133 0.804555
O O1 0.364764 0.203418 0.107472
O O2 0.250000 0.277681 0.218873
O O3 0.250000 0.000000 0.181244
O O4 0.405439 0.268602 0.880422
O O5 0.464961 0.000000 0.919130
O O6 0.500000 0.230172 0.000000
O O7 0.250000 0.500000 0.303455
O O8 0.366672 0.740664 0.337187
O O9 0.750000 0.759201 0.475019
O O10 0.000000 0.755097 0.500000
O O11 0.910320 0.791013 0.377718
O O12 0.882736 0.000000 0.471511
O O13 0.537848 0.773779 0.246636
O O14 0.461632 0.000000 0.314837
O O15 0.250000 0.670786 0.784148
O O16 0.441928 0.500000 0.799752
#
# Coordination Sequence:
#
# PCOD8212825 Si02
#       6
#     4   8   4   8   8   8
#     4  10  20  38  60  88 120 149 194 249 302 361
#     4  10  22  38  60  87 116 152 196 251 307 365
#     4  12  24  38  60  90 124 161 202 251 312 371
#     4   9  19  35  59  94 131 162 198 252 313 365
#     4  11  22  38  63  92 121 158 207 255 304 361
#     4  11  24  40  58  84 118 158 201 249 305 366
#
# _framework density 20.661704
#
# number of rings (size 3 to 8) (size 9 to 14) (size 15 to 20)
#    0.000    1.600    2.000    2.700    2.800    2.800 
#    0.000    0.000    0.000    2.400    0.000    0.000 
#    0.000    0.000    0.000    0.000    0.000    0.000 
#
# Total GULP energy -496038.847528 kJ/mol
# GULP energy per Si atom -12400.971188 kJ/mol
# Density = 2.061468 g / cm^3
# Si number density = 20.661704 Si / 1000 Ang^3
#
#
#
# Elastic Constant Matrix: (Units=GPa)
#
#
# Indices 1 2 3 4 5 6 
#
# 1 133.6487 40.6783 38.3338 0.0000 0.0000 0.0000
# 2 40.6783 97.6880 30.9767 0.0000 0.0000 0.0000
# 3 38.3338 30.9767 89.8732 0.0000 0.0000 0.0000
# 4 0.0000 0.0000 0.0000 3.8631 0.0000 0.0000
# 5 0.0000 0.0000 0.0000 0.0000 29.2955 0.0000
# 6 0.0000 0.0000 0.0000 0.0000 0.0000 25.4557
#
#
#
# Elastic Compliance Matrix: (Units=1/GPa)
#
#
# Indices 1 2 3 4 5 6 
#
# 1 0.009206 -0.002906 -0.002925 0.000000 0.000000 0.000000
# 2 -0.002906 0.012410 -0.003038 0.000000 0.000000 0.000000
# 3 -0.002925 -0.003038 0.013421 0.000000 0.000000 0.000000
# 4 0.000000 0.000000 0.000000 0.258861 0.000000 0.000000
# 5 0.000000 0.000000 0.000000 0.000000 0.034135 0.000000
# 6 0.000000 0.000000 0.000000 0.000000 0.000000 0.039284
#
#
# Mechanical properties :
#
#
# Convention : Reuss Voigt Hill
#
# Bulk Modulus (GPa) = 57.80451 60.13194 58.96822
# Shear Modulus (GPa) = 12.79357 25.80426 19.29891
#
# Velocity S-wave (km/s) = 2.49106 3.53780 3.05953
# Velocity P-wave (km/s) = 6.02588 6.77158 6.40958
#
# Compressibility (1/GPa) = 0.01729969
#
# Stress axis : x y z
#
# Youngs Moduli (GPa) = 108.62835 80.58000 74.50751
#
# Poissons Ratio (x) = 0.23415 0.21793
# Poissons Ratio (y) = 0.31566 0.22635
# Poissons Ratio (z) = 0.31773 0.24480
#
# Static dielectric constant tensor:
#      x y z
#    x 4.091900 0.000000 0.000000 
#    y 0.000000 3.526790 0.000000 
#    z 0.000000 0.000000 3.730780 
# 
# 
# High freq. dielectric constant tensor:
#      x y z
#    x 1.823850 0.000000 0.000000 
#    y 0.000000 1.780870 0.000000 
#    z 0.000000 0.000000 1.809120 
# 
# From -- ./inp_files/32805.got.cif
#   From: 2010.03.12/outbox.cif.g09.slc.cpg/sg51_17_cif.got.tgz:32805.got - 2010.04.16 13:43:02.
