data_PCOD8212718
_publ_section_title
;
Structure prediction by ZEFSAII (Michael W. Deem and Ramdas Pophale) SiO2 
 PCOD8212718
Probable space group: P M M A
;
_chemical_formula_sum "Si O2"
_cell_formula_units_Z 56
_cell_length_a 18.965023
_cell_length_b 9.195284
_cell_length_c 16.658739
_cell_angle_alpha 90.000000
_cell_angle_beta 90.000000
_cell_angle_gamma 90.000000
_cell_volume 2905.097046
_symmetry_space_group_name_H-M "P M M A"
_symmetry_group_IT_number 51
_symmetry_cell_setting 'orthorhombic'
loop_
_space_group_symop_operation_xyz
x,y,z
1/2-x,-y,z
1/2+x,-y,-z
-x,y,-z
-x,-y,-z
1/2+x,y,-z
1/2-x,y,z
x,-y,z
loop_
_atom_site_type_symbol
_atom_site_label
_atom_site_fract_x
_atom_site_fract_y
_atom_site_fract_z
Si Si1 0.667998 0.170822 0.644429
Si Si2 0.047348 0.333285 0.070435
Si Si3 0.671108 0.665417 0.038688
Si Si4 0.913876 0.329456 0.327159
Si Si5 0.581984 0.168245 0.486802
Si Si6 0.939682 0.671299 0.751487
Si Si7 0.833721 0.835249 0.191318
O O1 0.750000 0.217233 0.639821
O O2 0.628619 0.217012 0.562647
O O3 0.630473 0.252013 0.718288
O O4 0.660036 0.000000 0.659092
O O5 0.022149 0.500000 0.077339
O O6 0.041491 0.264832 0.159580
O O7 0.128261 0.317064 0.043480
O O8 0.000000 0.258090 0.000000
O O9 0.750000 0.714355 0.017629
O O10 0.667955 0.500000 0.070362
O O11 0.638125 0.765379 0.108533
O O12 0.900201 0.500000 0.326804
O O13 0.892742 0.265854 0.413094
O O14 0.862168 0.257036 0.264352
O O15 0.994997 0.292259 0.306500
O O16 0.500000 0.199760 0.500000
O O17 0.595319 0.000000 0.465947
O O18 0.924291 0.500000 0.756696
O O19 0.750000 0.826916 0.193517
O O20 0.861341 0.000000 0.196972
#
# Coordination Sequence:
#
# PCOD8212718 Si02
#       7
#     8   8   8   8   8   8   8
#     4  10  22  40  60  83 113 150 191 234 282 337
#     4   9  17  31  52  78 109 142 182 228 276 328
#     4   9  17  31  52  75 101 137 181 228 277 328
#     4  11  22  35  57  86 115 145 184 231 281 335
#     4  10  20  37  60  82 109 149 190 228 276 335
#     4  10  21  36  57  85 114 148 186 230 280 334
#     4  10  21  36  54  78 110 147 186 229 280 339
#
# _framework density 19.276464000000001
#
# number of rings (size 3 to 8) (size 9 to 14) (size 15 to 20)
#    0.000    2.143    1.429    1.714    0.000    6.000 
#    0.000    3.571    0.000    3.429    0.000    0.000 
#    0.000    0.000    0.000    0.000    0.000    0.000 
#
# Total GULP energy -694388.442669 kJ/mol
# GULP energy per Si atom -12399.793619 kJ/mol
# Density = 1.923259 g / cm^3
# Si number density = 19.276464 Si / 1000 Ang^3
#
#
#
# Elastic Constant Matrix: (Units=GPa)
#
#
# Indices 1 2 3 4 5 6 
#
# 1 73.0328 21.5175 48.8176 0.0000 0.0000 0.0000
# 2 21.5175 51.3355 38.9658 0.0000 0.0000 0.0000
# 3 48.8176 38.9658 135.8146 0.0000 0.0000 0.0000
# 4 0.0000 0.0000 0.0000-1082.0077 0.0000 0.0000
# 5 0.0000 0.0000 0.0000 0.0000 32.0883 0.0000
# 6 0.0000 0.0000 0.0000 0.0000 0.0000 26.0978
#
#
#
# Elastic Compliance Matrix: (Units=1/GPa)
#
#
# Indices 1 2 3 4 5 6 
#
# 1 0.018491 -0.003459 -0.005654 0.000000 0.000000 0.000000
# 2 -0.003459 0.025550 -0.006087 0.000000 0.000000 0.000000
# 3 -0.005654 -0.006087 0.011142 0.000000 0.000000 0.000000
# 4 0.000000 0.000000 0.000000 -0.000924 0.000000 0.000000
# 5 0.000000 0.000000 0.000000 0.000000 0.031164 0.000000
# 6 0.000000 0.000000 0.000000 0.000000 0.000000 0.038317
#
#
# Mechanical properties :
#
#
# Convention : Reuss Voigt Hill
#
# Bulk Modulus (GPa) = 40.35118 53.19829 46.77474
# Shear Modulus (GPa) = 30.78806 -194.70551 -81.95873
#
# Velocity S-wave (km/s) = 4.00081 -10.06112 -6.52762
# Velocity P-wave (km/s) = 6.50541 10.35909 5.70046
#
# Compressibility (1/GPa) = 0.02478242
#
# Stress axis : x y z
#
# Youngs Moduli (GPa) = 54.08051 39.13913 89.75282
#
# Poissons Ratio (x) = 0.13538 0.50747
# Poissons Ratio (y) = 0.18706 0.54633
# Poissons Ratio (z) = 0.30578 0.23824
#
# Static dielectric constant tensor:
#      x y z
#    x 3.544180 0.000000 0.000000 
#    y 0.000000 3.382260 0.000000 
#    z 0.000000 0.000000 3.632790 
# 
# 
# High freq. dielectric constant tensor:
#      x y z
#    x 1.751490 0.000000 0.000000 
#    y 0.000000 1.728640 0.000000 
#    z 0.000000 0.000000 1.756590 
# 
# From -- ./inp_files/25730.got.cif
#   From: 2010.03.12/outbox.cif.g09.slc.cpg/sg51_13_cif.got.tgz:25730.got - 2010.04.16 13:43:02.
