data_PCOD8212387
_publ_section_title
;
Structure prediction by ZEFSAII (Michael W. Deem and Ramdas Pophale) SiO2 
 PCOD8212387
Probable space group: P M M A
;
_chemical_formula_sum "Si O2"
_cell_formula_units_Z 44
_cell_length_a 9.444036
_cell_length_b 7.981945
_cell_length_c 29.869687
_cell_angle_alpha 90.000000
_cell_angle_beta 90.000000
_cell_angle_gamma 90.000000
_cell_volume 2251.630053
_symmetry_space_group_name_H-M "P M M A"
_symmetry_group_IT_number 51
_symmetry_cell_setting 'orthorhombic'
loop_
_space_group_symop_operation_xyz
x,y,z
1/2-x,-y,z
1/2+x,-y,-z
-x,y,-z
-x,-y,-z
1/2+x,y,-z
1/2-x,y,z
x,-y,z
loop_
_atom_site_type_symbol
_atom_site_label
_atom_site_fract_x
_atom_site_fract_y
_atom_site_fract_z
Si Si1 0.419338 0.000000 0.453649
Si Si2 0.593141 0.193511 0.960266
Si Si3 0.917770 0.686474 0.605118
Si Si4 0.587976 0.803848 0.215775
Si Si5 0.089719 0.307497 0.880608
Si Si6 0.412314 0.197613 0.299795
O O1 0.500000 0.000000 0.500000
O O2 0.472378 0.167311 0.427780
O O3 0.250000 0.000000 0.460589
O O4 0.750000 0.277513 0.958564
O O5 0.515420 0.209196 0.912876
O O6 0.612507 0.000000 0.971476
O O7 0.500000 0.278315 0.000000
O O8 0.750000 0.699332 0.606776
O O9 0.966355 0.500000 0.588873
O O10 0.974776 0.717050 0.655398
O O11 0.750000 0.759932 0.226097
O O12 0.537029 0.714790 0.170303
O O13 0.497764 0.733233 0.257188
O O14 0.562944 0.000000 0.209479
O O15 0.250000 0.235795 0.885443
O O16 0.085330 0.500000 0.894310
O O17 0.250000 0.247578 0.292153
O O18 0.431034 0.000000 0.305636
#
# Coordination Sequence:
#
# PCOD8212387 Si02
#       6
#     4   8   8   8   8   8
#     4  10  20  36  56  78 106 140 178 222 269 318
#     4  10  21  37  58  81 102 128 167 214 263 315
#     4   9  17  31  53  78 104 138 178 219 266 319
#     4   9  18  32  50  73 103 140 175 210 258 309
#     4  10  21  36  53  74 104 141 176 211 255 309
#     4   9  16  29  50  74  99 130 172 217 257 304
#
# _framework density 19.541398999999998
#
# number of rings (size 3 to 8) (size 9 to 14) (size 15 to 20)
#    0.000    2.545    0.909    1.091    0.000    4.364 
#    0.000    2.727    0.000    1.091    0.000    0.000 
#    0.000    0.000    0.000    0.000    0.000    0.000 
#
# Total GULP energy -545504.157599 kJ/mol
# GULP energy per Si atom -12397.821764 kJ/mol
# Density = 1.949692 g / cm^3
# Si number density = 19.541399 Si / 1000 Ang^3
#
#
#
# Elastic Constant Matrix: (Units=GPa)
#
#
# Indices 1 2 3 4 5 6 
#
# 1 84.6974 26.1399 71.0595 0.0000 0.0000 0.0000
# 2 26.1399 70.5935 47.3610 0.0000 0.0000 0.0000
# 3 71.0595 47.3610 155.7884 0.0000 0.0000 0.0000
# 4 0.0000 0.0000 0.0000 8.7628 0.0000 0.0000
# 5 0.0000 0.0000 0.0000 0.0000 38.8350 0.0000
# 6 0.0000 0.0000 0.0000 0.0000 0.0000 10.4763
#
#
#
# Elastic Compliance Matrix: (Units=1/GPa)
#
#
# Indices 1 2 3 4 5 6 
#
# 1 0.019261 -0.001555 -0.008313 0.000000 0.000000 0.000000
# 2 -0.001555 0.017921 -0.004739 0.000000 0.000000 0.000000
# 3 -0.008313 -0.004739 0.011651 0.000000 0.000000 0.000000
# 4 0.000000 0.000000 0.000000 0.114118 0.000000 0.000000
# 5 0.000000 0.000000 0.000000 0.000000 0.025750 0.000000
# 6 0.000000 0.000000 0.000000 0.000000 0.000000 0.095453
#
#
# Mechanical properties :
#
#
# Convention : Reuss Voigt Hill
#
# Bulk Modulus (GPa) = 50.96903 66.68889 58.82896
# Shear Modulus (GPa) = 15.62954 22.71610 19.17282
#
# Velocity S-wave (km/s) = 2.83117 3.41319 3.13571
# Velocity P-wave (km/s) = 6.06849 7.05225 6.57878
#
# Compressibility (1/GPa) = 0.01961976
#
# Stress axis : x y z
#
# Youngs Moduli (GPa) = 51.91884 55.80166 85.82816
#
# Poissons Ratio (x) = 0.08678 0.71346
# Poissons Ratio (y) = 0.08074 0.40671
# Poissons Ratio (z) = 0.43158 0.26443
#
# Static dielectric constant tensor:
#      x y z
#    x 3.527040 0.000000 0.000000 
#    y 0.000000 3.526620 0.000000 
#    z 0.000000 0.000000 3.614730 
# 
# 
# High freq. dielectric constant tensor:
#      x y z
#    x 1.733740 0.000000 0.000000 
#    y 0.000000 1.753840 0.000000 
#    z 0.000000 0.000000 1.765440 
# 
# From -- ./inp_files/36821.got.cif
#   From: 2010.03.12/outbox.cif.g09.slc.cpg/sg51_19_cif.got.tgz:36821.got - 2010.04.16 13:43:02.
