data_PCOD8212515
_publ_section_title
;
Structure prediction by ZEFSAII (Michael W. Deem and Ramdas Pophale) SiO2 
 PCOD8212515
Probable space group: P M M A
;
_chemical_formula_sum "Si O2"
_cell_formula_units_Z 48
_cell_length_a 9.610165
_cell_length_b 18.938199
_cell_length_c 13.647888
_cell_angle_alpha 90.000000
_cell_angle_beta 90.000000
_cell_angle_gamma 90.000000
_cell_volume 2483.904932
_symmetry_space_group_name_H-M "P M M A"
_symmetry_group_IT_number 51
_symmetry_cell_setting 'orthorhombic'
loop_
_space_group_symop_operation_xyz
x,y,z
1/2-x,-y,z
1/2+x,-y,-z
-x,y,-z
-x,-y,-z
1/2+x,y,-z
1/2-x,y,z
x,-y,z
loop_
_atom_site_type_symbol
_atom_site_label
_atom_site_fract_x
_atom_site_fract_y
_atom_site_fract_z
Si Si1 0.750000 0.917641 0.145131
Si Si2 0.093492 0.420113 0.766564
Si Si3 0.985826 0.156555 0.795627
Si Si4 0.906482 0.202746 0.588038
Si Si5 0.414321 0.366119 0.406079
Si Si6 0.912065 0.708427 0.097584
Si Si7 0.250000 0.915063 0.079555
O O1 0.620416 0.891557 0.207036
O O2 0.750000 0.000000 0.141294
O O3 0.750000 0.889736 0.033237
O O4 0.250000 0.406236 0.724205
O O5 0.079677 0.500000 0.805286
O O6 0.067163 0.369299 0.858476
O O7 0.976106 0.407982 0.685447
O O8 0.923960 0.157465 0.686535
O O9 0.883866 0.119093 0.871501
O O10 0.024496 0.235677 0.826622
O O11 0.750000 0.196229 0.550060
O O12 0.944542 0.283657 0.610730
O O13 0.000000 0.172261 0.500000
O O14 0.500000 0.393257 0.500000
O O15 0.250000 0.382496 0.417435
O O16 0.750000 0.725315 0.076802
O O17 0.000000 0.713588 0.000000
O O18 0.250000 0.000000 0.090934
#
# Coordination Sequence:
#
# PCOD8212515 Si02
#       7
#     4   8   8   8   8   8   4
#     4  11  24  40  61  95 130 166 202 241 305 373
#     4  10  22  40  59  83 120 161 201 251 308 362
#     4  12  22  39  64  94 125 163 204 257 304 359
#     4  10  22  38  62  93 123 157 203 257 308 361
#     4  10  20  36  58  87 119 154 198 249 305 364
#     4  11  24  39  61  90 120 160 207 255 300 358
#     4  11  24  42  65  93 132 168 204 247 305 369
#
# _framework density 19.324411000000001
#
# number of rings (size 3 to 8) (size 9 to 14) (size 15 to 20)
#    0.000    1.333    3.333    2.500    2.333    3.667 
#    0.000    0.000    0.000    3.000    0.000    0.000 
#    0.000    0.000    0.000    0.000    0.000    0.000 
#
# Total GULP energy -595311.836206 kJ/mol
# GULP energy per Si atom -12402.329921 kJ/mol
# Density = 1.928043 g / cm^3
# Si number density = 19.324411 Si / 1000 Ang^3
#
#
#
# Elastic Constant Matrix: (Units=GPa)
#
#
# Indices 1 2 3 4 5 6 
#
# 1 109.2653 25.7091 29.9534 0.0000 0.0000 0.0000
# 2 25.7091 66.1726 24.3486 0.0000 0.0000 0.0000
# 3 29.9534 24.3486 82.7976 0.0000 0.0000 0.0000
# 4 0.0000 0.0000 0.0000 30.0063 0.0000 0.0000
# 5 0.0000 0.0000 0.0000 0.0000 37.7978 0.0000
# 6 0.0000 0.0000 0.0000 0.0000 0.0000 32.7344
#
#
#
# Elastic Compliance Matrix: (Units=1/GPa)
#
#
# Indices 1 2 3 4 5 6 
#
# 1 0.010685 -0.003060 -0.002966 0.000000 0.000000 0.000000
# 2 -0.003060 0.017822 -0.004134 0.000000 0.000000 0.000000
# 3 -0.002966 -0.004134 0.014366 0.000000 0.000000 0.000000
# 4 0.000000 0.000000 0.000000 0.033326 0.000000 0.000000
# 5 0.000000 0.000000 0.000000 0.000000 0.026457 0.000000
# 6 0.000000 0.000000 0.000000 0.000000 0.000000 0.030549
#
#
# Mechanical properties :
#
#
# Convention : Reuss Voigt Hill
#
# Bulk Modulus (GPa) = 44.33815 46.47309 45.40562
# Shear Modulus (GPa) = 31.04774 31.98931 31.51853
#
# Velocity S-wave (km/s) = 4.01266 4.07305 4.04297
# Velocity P-wave (km/s) = 6.66802 6.79859 6.73362
#
# Compressibility (1/GPa) = 0.02255394
#
# Stress axis : x y z
#
# Youngs Moduli (GPa) = 93.58890 56.11038 69.60794
#
# Poissons Ratio (x) = 0.17170 0.20643
# Poissons Ratio (y) = 0.28639 0.28776
# Poissons Ratio (z) = 0.27755 0.23196
#
# Static dielectric constant tensor:
#      x y z
#    x 3.785010 0.000000 0.000000 
#    y 0.000000 3.523830 0.000000 
#    z 0.000000 0.000000 3.432420 
# 
# 
# High freq. dielectric constant tensor:
#      x y z
#    x 1.769290 0.000000 0.000000 
#    y 0.000000 1.745600 0.000000 
#    z 0.000000 0.000000 1.744330 
# 
# From -- ./inp_files/21143.got.cif
#   From: 2010.03.12/outbox.cif.g09.slc.cpg/sg51_11_cif.got.tgz:21143.got - 2010.04.16 13:43:02.
