data_PCOD8212969
_publ_section_title
;
Structure prediction by ZEFSAII (Michael W. Deem and Ramdas Pophale) SiO2 
 PCOD8212969
Probable space group: P M M A
;
_chemical_formula_sum "Si O2"
_cell_formula_units_Z 56
_cell_length_a 15.309089
_cell_length_b 9.467402
_cell_length_c 21.182228
_cell_angle_alpha 90.000000
_cell_angle_beta 90.000000
_cell_angle_gamma 90.000000
_cell_volume 3070.094930
_symmetry_space_group_name_H-M "P M M A"
_symmetry_group_IT_number 51
_symmetry_cell_setting 'orthorhombic'
loop_
_space_group_symop_operation_xyz
x,y,z
1/2-x,-y,z
1/2+x,-y,-z
-x,y,-z
-x,-y,-z
1/2+x,y,-z
1/2-x,y,z
x,-y,z
loop_
_atom_site_type_symbol
_atom_site_label
_atom_site_fract_x
_atom_site_fract_y
_atom_site_fract_z
Si Si1 0.511770 0.835239 0.856036
Si Si2 0.853347 0.344709 0.488544
Si Si3 0.850760 0.666328 0.628938
Si Si4 0.910700 0.340547 0.961492
Si Si5 0.987451 0.834674 0.710771
Si Si6 0.345328 0.158582 0.933318
Si Si7 0.849230 0.835187 0.371013
O O1 0.580947 0.741929 0.895183
O O2 0.515714 0.790160 0.783567
O O3 0.414786 0.797040 0.880391
O O4 0.533885 0.000000 0.865327
O O5 0.750000 0.355107 0.489635
O O6 0.892614 0.500000 0.473734
O O7 0.883034 0.293734 0.558077
O O8 0.884928 0.237992 0.434681
O O9 0.750000 0.711417 0.639604
O O10 0.861568 0.500000 0.640440
O O11 0.910820 0.750517 0.677025
O O12 0.878997 0.500000 0.947888
O O13 0.842295 0.259816 0.005745
O O14 0.000000 0.338340 0.000000
O O15 0.083954 0.794599 0.684817
O O16 0.969669 0.000000 0.701372
O O17 0.250000 0.166287 0.901069
O O18 0.366509 0.000000 0.957303
O O19 0.750000 0.785886 0.353340
O O20 0.849948 0.000000 0.385031
#
# Coordination Sequence:
#
# PCOD8212969 Si02
#       7
#     8   8   8   8   8   8   8
#     4   9  18  33  50  69  98 133 165 197 236 286
#     4   8  15  30  51  72  94 124 165 212 260 306
#     4   9  19  36  55  73  95 126 167 216 265 309
#     4   9  17  30  49  71  94 121 153 191 234 276
#     4  10  21  34  50  75 104 136 172 207 247 296
#     4   9  17  30  51  77 100 125 160 199 238 283
#     4   9  18  32  49  72 104 137 167 203 249 301
#
# _framework density 18.240478
#
# number of rings (size 3 to 8) (size 9 to 14) (size 15 to 20)
#    0.000    3.000    0.000    1.286    0.000    5.143 
#    0.000    7.857    0.000    0.857    0.000    4.000 
#    0.000    0.000    0.000    0.000    0.000    0.000 
#
# Total GULP energy -694148.381489 kJ/mol
# GULP energy per Si atom -12395.506812 kJ/mol
# Density = 1.819896 g / cm^3
# Si number density = 18.240478 Si / 1000 Ang^3
#
#
#
# Elastic Constant Matrix: (Units=GPa)
#
#
# Indices 1 2 3 4 5 6 
#
# 1 54.3007 24.2773 30.7582 0.0000 0.0000 0.0000
# 2 24.2773 65.0479 52.5962 0.0000 0.0000 0.0000
# 3 30.7582 52.5962 131.1971 0.0000 0.0000 0.0000
# 4 0.0000 0.0000 0.0000 16.4367 0.0000 0.0000
# 5 0.0000 0.0000 0.0000 0.0000 22.5682 0.0000
# 6 0.0000 0.0000 0.0000 0.0000 0.0000 19.5059
#
#
#
# Elastic Compliance Matrix: (Units=1/GPa)
#
#
# Indices 1 2 3 4 5 6 
#
# 1 0.022809 -0.006198 -0.002863 0.000000 0.000000 0.000000
# 2 -0.006198 0.024431 -0.008341 0.000000 0.000000 0.000000
# 3 -0.002863 -0.008341 0.011637 0.000000 0.000000 0.000000
# 4 0.000000 0.000000 0.000000 0.060840 0.000000 0.000000
# 5 0.000000 0.000000 0.000000 0.000000 0.044310 0.000000
# 6 0.000000 0.000000 0.000000 0.000000 0.000000 0.051267
#
#
# Mechanical properties :
#
#
# Convention : Reuss Voigt Hill
#
# Bulk Modulus (GPa) = 41.54003 51.75657 46.64830
# Shear Modulus (GPa) = 19.37078 21.22976 20.30027
#
# Velocity S-wave (km/s) = 3.26232 3.41527 3.33967
# Velocity P-wave (km/s) = 6.08385 6.63237 6.36402
#
# Compressibility (1/GPa) = 0.02407316
#
# Stress axis : x y z
#
# Youngs Moduli (GPa) = 43.84328 40.93165 85.93179
#
# Poissons Ratio (x) = 0.25370 0.24598
# Poissons Ratio (y) = 0.27174 0.71677
# Poissons Ratio (z) = 0.12550 0.34142
#
# Static dielectric constant tensor:
#      x y z
#    x 3.238780 0.000000 0.000000 
#    y 0.000000 3.478830 0.000000 
#    z 0.000000 0.000000 3.360170 
# 
# 
# High freq. dielectric constant tensor:
#      x y z
#    x 1.696050 0.000000 0.000000 
#    y 0.000000 1.701790 0.000000 
#    z 0.000000 0.000000 1.697490 
# 
# From -- ./inp_files/33354.got.cif
#   From: 2010.03.12/outbox.cif.g09.slc.cpg/sg51_17_cif.got.tgz:33354.got - 2010.04.16 13:43:02.
