data_PCOD8212217
_publ_section_title
;
Structure prediction by ZEFSAII (Michael W. Deem and Ramdas Pophale) SiO2 
 PCOD8212217
Probable space group: P M M A
;
_chemical_formula_sum "Si O2"
_cell_formula_units_Z 48
_cell_length_a 9.642410
_cell_length_b 9.066955
_cell_length_c 28.820651
_cell_angle_alpha 90.000000
_cell_angle_beta 90.000000
_cell_angle_gamma 90.000000
_cell_volume 2519.711631
_symmetry_space_group_name_H-M "P M M A"
_symmetry_group_IT_number 51
_symmetry_cell_setting 'orthorhombic'
loop_
_space_group_symop_operation_xyz
x,y,z
1/2-x,-y,z
1/2+x,-y,-z
-x,y,-z
-x,-y,-z
1/2+x,y,-z
1/2-x,y,z
x,-y,z
loop_
_atom_site_type_symbol
_atom_site_label
_atom_site_fract_x
_atom_site_fract_y
_atom_site_fract_z
Si Si1 0.750000 0.832741 0.970849
Si Si2 0.908344 0.674270 0.636857
Si Si3 0.984582 0.171289 0.896984
Si Si4 0.750000 0.674141 0.066910
Si Si5 0.907298 0.675407 0.278398
Si Si6 0.094195 0.331311 0.193975
Si Si7 0.409591 0.171968 0.457078
O O1 0.614734 0.802595 0.940578
O O2 0.750000 0.000000 0.989989
O O3 0.750000 0.723249 0.013730
O O4 0.750000 0.721689 0.648016
O O5 0.920348 0.500000 0.632314
O O6 0.959677 0.744321 0.588856
O O7 0.008873 0.735846 0.677135
O O8 0.911571 0.227407 0.850624
O O9 0.119918 0.266253 0.905160
O O10 0.021890 0.000000 0.891556
O O11 0.750000 0.500000 0.068552
O O12 0.750000 0.737590 0.278546
O O13 0.907014 0.500000 0.279640
O O14 0.986171 0.729104 0.232126
O O15 0.250000 0.322775 0.214643
O O16 0.058711 0.500000 0.180090
O O17 0.500000 0.230905 0.500000
O O18 0.250000 0.207381 0.468270
O O19 0.435124 0.000000 0.448672
#
# Coordination Sequence:
#
# PCOD8212217 Si02
#       7
#     4   8   8   4   8   8   8
#     4  10  22  42  64  86 116 154 192 228 277 338
#     4   9  17  31  51  74 102 137 178 221 267 321
#     4  11  23  41  62  86 117 154 190 228 280 339
#     4  12  26  40  60  90 120 150 188 236 283 326
#     4   9  18  32  52  79 109 140 177 223 275 325
#     4  10  20  35  57  83 111 144 185 230 274 326
#     4   9  18  32  49  70  99 136 175 216 265 319
#
# _framework density 19.049799
#
# number of rings (size 3 to 8) (size 9 to 14) (size 15 to 20)
#    0.000    2.167    0.833    2.250    1.167    6.333 
#    0.000    0.833    0.000    3.000    0.000    0.000 
#    0.000    0.000    0.000    0.000    0.000    0.000 
#
# Total GULP energy -595313.886566 kJ/mol
# GULP energy per Si atom -12402.372637 kJ/mol
# Density = 1.900644 g / cm^3
# Si number density = 19.049799 Si / 1000 Ang^3
#
#
#
# Elastic Constant Matrix: (Units=GPa)
#
#
# Indices 1 2 3 4 5 6 
#
# 1 118.8165 37.0646 54.0703 0.0000 0.0000 0.0000
# 2 37.0646 64.8584 36.6585 0.0000 0.0000 0.0000
# 3 54.0703 36.6585 117.7983 0.0000 0.0000 0.0000
# 4 0.0000 0.0000 0.0000 3.7672 0.0000 0.0000
# 5 0.0000 0.0000 0.0000 0.0000 25.4432 0.0000
# 6 0.0000 0.0000 0.0000 0.0000 0.0000 20.1468
#
#
#
# Elastic Compliance Matrix: (Units=1/GPa)
#
#
# Indices 1 2 3 4 5 6 
#
# 1 0.011583 -0.004386 -0.003952 0.000000 0.000000 0.000000
# 2 -0.004386 0.020369 -0.004326 0.000000 0.000000 0.000000
# 3 -0.003952 -0.004326 0.011649 0.000000 0.000000 0.000000
# 4 0.000000 0.000000 0.000000 0.265452 0.000000 0.000000
# 5 0.000000 0.000000 0.000000 0.000000 0.039303 0.000000
# 6 0.000000 0.000000 0.000000 0.000000 0.000000 0.049636
#
#
# Mechanical properties :
#
#
# Convention : Reuss Voigt Hill
#
# Bulk Modulus (GPa) = 54.72002 61.89556 58.30779
# Shear Modulus (GPa) = 11.64387 21.45009 16.54698
#
# Velocity S-wave (km/s) = 2.47500 3.35923 2.95043
# Velocity P-wave (km/s) = 6.07903 6.89985 6.50240
#
# Compressibility (1/GPa) = 0.01827485
#
# Stress axis : x y z
#
# Youngs Moduli (GPa) = 86.33502 49.09305 85.84285
#
# Poissons Ratio (x) = 0.21530 0.33923
# Poissons Ratio (y) = 0.37863 0.37135
# Poissons Ratio (z) = 0.34118 0.21237
#
# Static dielectric constant tensor:
#      x y z
#    x 3.683470 0.000000 0.000000 
#    y 0.000000 3.249920 0.000000 
#    z 0.000000 0.000000 3.522090 
# 
# 
# High freq. dielectric constant tensor:
#      x y z
#    x 1.750730 0.000000 0.000000 
#    y 0.000000 1.716610 0.000000 
#    z 0.000000 0.000000 1.746300 
# 
# From -- ./inp_files/37131.got.cif
#   From: 2010.03.12/outbox.cif.g09.slc.cpg/sg51_19_cif.got.tgz:37131.got - 2010.04.16 13:43:02.
