data_PCOD8212296
_publ_section_title
;
Structure prediction by ZEFSAII (Michael W. Deem and Ramdas Pophale) SiO2 
 PCOD8212296
Probable space group: P M M A
;
_chemical_formula_sum "Si O2"
_cell_formula_units_Z 64
_cell_length_a 8.849330
_cell_length_b 23.400313
_cell_length_c 15.537660
_cell_angle_alpha 90.000000
_cell_angle_beta 90.000000
_cell_angle_gamma 90.000000
_cell_volume 3217.493447
_symmetry_space_group_name_H-M "P M M A"
_symmetry_group_IT_number 51
_symmetry_cell_setting 'orthorhombic'
loop_
_space_group_symop_operation_xyz
x,y,z
1/2-x,-y,z
1/2+x,-y,-z
-x,y,-z
-x,-y,-z
1/2+x,y,-z
1/2-x,y,z
x,-y,z
loop_
_atom_site_type_symbol
_atom_site_label
_atom_site_fract_x
_atom_site_fract_y
_atom_site_fract_z
Si Si1 0.427743 0.434723 0.412431
Si Si2 0.426219 0.369301 0.244181
Si Si3 0.571895 0.168509 0.585533
Si Si4 0.926851 0.064647 0.848292
Si Si5 0.424617 0.763885 0.243519
Si Si6 0.924835 0.064808 0.334252
Si Si7 0.072266 0.565161 0.911054
Si Si8 0.572215 0.173316 0.085852
O O1 0.500000 0.410332 0.500000
O O2 0.250000 0.429234 0.422282
O O3 0.478990 0.500000 0.397047
O O4 0.486552 0.397890 0.331989
O O5 0.250000 0.382647 0.230928
O O6 0.460462 0.302643 0.250022
O O7 0.516524 0.394669 0.164738
O O8 0.500000 0.196937 0.500000
O O9 0.750000 0.161277 0.574611
O O10 0.529424 0.208368 0.665871
O O11 0.493580 0.106542 0.594470
O O12 0.750000 0.078215 0.853350
O O13 0.979342 0.075209 0.751374
O O14 0.016324 0.107761 0.909434
O O15 0.963721 0.000000 0.877769
O O16 0.250000 0.775819 0.222081
O O17 0.524231 0.790892 0.168707
O O18 0.750000 0.079223 0.315368
O O19 0.943281 0.000000 0.367433
O O20 0.250000 0.570797 0.920078
O O21 0.022420 0.500000 0.891701
O O22 0.000000 0.586754 0.000000
O O23 0.750000 0.174752 0.076971
O O24 0.500000 0.201134 0.000000
#
# Coordination Sequence:
#
# PCOD8212296 Si02
#       8
#     8   8   8   8   8   8   8   8
#     4   9  18  33  55  85 120 156 193 235 286 341
#     4  10  21  38  61  86 116 156 200 245 293 346
#     4  11  23  39  61  85 116 155 198 247 299 356
#     4  10  20  36  60  89 121 154 188 233 292 354
#     4  10  23  43  62  84 116 154 199 249 297 347
#     4  10  20  35  58  88 119 151 191 239 294 356
#     4  10  21  37  59  89 123 157 194 238 290 347
#     4  12  25  41  64  88 116 154 197 244 295 353
#
# _framework density 19.891259999999999
#
# number of rings (size 3 to 8) (size 9 to 14) (size 15 to 20)
#    0.000    1.750    1.250    3.000    0.000    5.750 
#    0.000    1.250    0.000    0.000    0.000    0.000 
#    0.000    0.000    0.000    0.000    0.000    0.000 
#
# Total GULP energy -793872.180187 kJ/mol
# GULP energy per Si atom -12404.252815 kJ/mol
# Density = 1.984599 g / cm^3
# Si number density = 19.891260 Si / 1000 Ang^3
#
#
#
# Elastic Constant Matrix: (Units=GPa)
#
#
# Indices 1 2 3 4 5 6 
#
# 1 104.2645 48.8239 67.6180 0.0000 0.0000 0.0000
# 2 48.8239 97.9950 66.9833 0.0000 0.0000 0.0000
# 3 67.6180 66.9833 156.8742 0.0000 0.0000 0.0000
# 4 0.0000 0.0000 0.0000 -4.7377 0.0000 0.0000
# 5 0.0000 0.0000 0.0000 0.0000 39.5113 0.0000
# 6 0.0000 0.0000 0.0000 0.0000 0.0000 22.1185
#
#
#
# Elastic Compliance Matrix: (Units=1/GPa)
#
#
# Indices 1 2 3 4 5 6 
#
# 1 0.014413 -0.004144 -0.004443 0.000000 0.000000 0.000000
# 2 -0.004144 0.015602 -0.004876 0.000000 0.000000 0.000000
# 3 -0.004443 -0.004876 0.010371 0.000000 0.000000 0.000000
# 4 0.000000 0.000000 0.000000 -0.211071 0.000000 0.000000
# 5 0.000000 0.000000 0.000000 0.000000 0.025309 0.000000
# 6 0.000000 0.000000 0.000000 0.000000 0.000000 0.045211
#
#
# Mechanical properties :
#
#
# Convention : Reuss Voigt Hill
#
# Bulk Modulus (GPa) = 74.28840 80.66488 77.47664
# Shear Modulus (GPa) = -72.72458 23.09232 -24.81613
#
# Velocity S-wave (km/s) = -6.05313 3.41094 -3.53596
# Velocity P-wave (km/s) = 3.38018 7.49357 4.72906
#
# Compressibility (1/GPa) = 0.01346105
#
# Stress axis : x y z
#
# Youngs Moduli (GPa) = 69.38238 64.09470 96.41848
#
# Poissons Ratio (x) = 0.26560 0.42839
# Poissons Ratio (y) = 0.28752 0.47010
# Poissons Ratio (z) = 0.30827 0.31250
#
# Static dielectric constant tensor:
#      x y z
#    x 3.762830 0.000000 0.000000 
#    y 0.000000 3.659120 0.000000 
#    z 0.000000 0.000000 3.683470 
# 
# 
# High freq. dielectric constant tensor:
#      x y z
#    x 1.778810 0.000000 0.000000 
#    y 0.000000 1.770690 0.000000 
#    z 0.000000 0.000000 1.783420 
# 
# From -- ./inp_files/22358.got.cif
#   From: 2010.03.12/outbox.cif.g09.slc.cpg/sg51_12_cif.got.tgz:22358.got - 2010.04.16 13:43:02.
