data_PCOD8212483
_publ_section_title
;
Structure prediction by ZEFSAII (Michael W. Deem and Ramdas Pophale) SiO2 
 PCOD8212483
Probable space group: P M M A
;
_chemical_formula_sum "Si O2"
_cell_formula_units_Z 48
_cell_length_a 18.687049
_cell_length_b 14.006776
_cell_length_c 9.520176
_cell_angle_alpha 90.000000
_cell_angle_beta 90.000000
_cell_angle_gamma 90.000000
_cell_volume 2491.861413
_symmetry_space_group_name_H-M "P M M A"
_symmetry_group_IT_number 51
_symmetry_cell_setting 'orthorhombic'
loop_
_space_group_symop_operation_xyz
x,y,z
1/2-x,-y,z
1/2+x,-y,-z
-x,y,-z
-x,-y,-z
1/2+x,y,-z
1/2-x,y,z
x,-y,z
loop_
_atom_site_type_symbol
_atom_site_label
_atom_site_fract_x
_atom_site_fract_y
_atom_site_fract_z
Si Si1 0.464775 0.601821 0.353421
Si Si2 0.334624 0.779230 0.906910
Si Si3 0.165579 0.891352 0.627925
Si Si4 0.063241 0.391118 0.898039
Si Si5 0.431157 0.196408 0.400104
Si Si6 0.934356 0.888270 0.902510
O O1 0.500000 0.584459 0.500000
O O2 0.426672 0.500000 0.308096
O O3 0.532827 0.623068 0.256550
O O4 0.412213 0.693554 0.355999
O O5 0.250000 0.771516 0.917495
O O6 0.359458 0.831350 0.763353
O O7 0.366506 0.673006 0.914276
O O8 0.362422 0.838790 0.040461
O O9 0.250000 0.888304 0.611970
O O10 0.134953 0.847687 0.484108
O O11 0.138183 0.000000 0.647145
O O12 0.085714 0.500000 0.931157
O O13 0.000000 0.356124 0.000000
O O14 0.500000 0.193327 0.500000
O O15 0.447852 0.137315 0.259749
O O16 0.923271 0.000000 0.916008
O O17 0.000000 0.852882 0.000000
#
# Coordination Sequence:
#
# PCOD8212483 Si02
#       6
#     8   8   8   8   8   8
#     4   9  17  30  52  80 107 136 171 215 266 319
#     4  11  22  37  58  82 112 148 185 230 282 334
#     4  10  22  39  56  77 110 151 190 228 276 331
#     4  10  20  36  58  82 110 144 182 225 274 330
#     4  11  21  35  58  83 109 141 184 233 275 323
#     4  11  23  37  55  81 113 147 187 234 281 333
#
# _framework density 19.262709999999998
#
# number of rings (size 3 to 8) (size 9 to 14) (size 15 to 20)
#    0.000    1.667    0.000    6.500    0.000    4.667 
#    0.000    0.000    0.000    1.500    0.000    0.000 
#    0.000    0.000    0.000    0.000    0.000    0.000 
#
# Total GULP energy -595083.786247 kJ/mol
# GULP energy per Si atom -12397.578880 kJ/mol
# Density = 1.921887 g / cm^3
# Si number density = 19.262710 Si / 1000 Ang^3
#
#
#
# Elastic Constant Matrix: (Units=GPa)
#
#
# Indices 1 2 3 4 5 6 
#
# 1 72.7040 55.8453 43.3967 0.0000 0.0000 0.0000
# 2 55.8453 147.5871 35.5885 0.0000 0.0000 0.0000
# 3 43.3967 35.5885 120.7306 0.0000 0.0000 0.0000
# 4 0.0000 0.0000 0.0000 29.6972 0.0000 0.0000
# 5 0.0000 0.0000 0.0000 0.0000 31.4717 0.0000
# 6 0.0000 0.0000 0.0000 0.0000 0.0000 27.7878
#
#
#
# Elastic Compliance Matrix: (Units=1/GPa)
#
#
# Indices 1 2 3 4 5 6 
#
# 1 0.022944 -0.007205 -0.006123 0.000000 0.000000 0.000000
# 2 -0.007205 0.009557 -0.000227 0.000000 0.000000 0.000000
# 3 -0.006123 -0.000227 0.010551 0.000000 0.000000 0.000000
# 4 0.000000 0.000000 0.000000 0.033673 0.000000 0.000000
# 5 0.000000 0.000000 0.000000 0.000000 0.031775 0.000000
# 6 0.000000 0.000000 0.000000 0.000000 0.000000 0.035987
#
#
# Mechanical properties :
#
#
# Convention : Reuss Voigt Hill
#
# Bulk Modulus (GPa) = 62.73435 67.85362 65.29398
# Shear Modulus (GPa) = 28.26283 31.53742 29.90012
#
# Velocity S-wave (km/s) = 3.83460 4.05066 3.94411
# Velocity P-wave (km/s) = 7.22800 7.56167 7.39672
#
# Compressibility (1/GPa) = 0.01594023
#
# Stress axis : x y z
#
# Youngs Moduli (GPa) = 43.58493 104.63769 94.77876
#
# Poissons Ratio (x) = 0.75393 0.58035
# Poissons Ratio (y) = 0.31403 0.02154
# Poissons Ratio (z) = 0.26688 0.02378
#
# Static dielectric constant tensor:
#      x y z
#    x 3.131830 0.000000 0.000000 
#    y 0.000000 4.081310 0.000000 
#    z 0.000000 0.000000 3.695530 
# 
# 
# High freq. dielectric constant tensor:
#      x y z
#    x 1.708760 0.000000 0.000000 
#    y 0.000000 1.775000 0.000000 
#    z 0.000000 0.000000 1.766660 
# 
# From -- ./inp_files/9565.got.cif
#   From: 2010.03.12/outbox.cif.g09.slc.cpg/sg51_5_cif.got.tgz:9565.got - 2010.04.16 13:43:02.
