data_PCOD8212790
_publ_section_title
;
Structure prediction by ZEFSAII (Michael W. Deem and Ramdas Pophale) SiO2 
 PCOD8212790
Probable space group: P M M A
;
_chemical_formula_sum "Si O2"
_cell_formula_units_Z 64
_cell_length_a 23.818246
_cell_length_b 8.738732
_cell_length_c 14.998822
_cell_angle_alpha 90.000000
_cell_angle_beta 90.000000
_cell_angle_gamma 90.000000
_cell_volume 3121.873837
_symmetry_space_group_name_H-M "P M M A"
_symmetry_group_IT_number 51
_symmetry_cell_setting 'orthorhombic'
loop_
_space_group_symop_operation_xyz
x,y,z
1/2-x,-y,z
1/2+x,-y,-z
-x,y,-z
-x,-y,-z
1/2+x,y,-z
1/2-x,y,z
x,-y,z
loop_
_atom_site_type_symbol
_atom_site_label
_atom_site_fract_x
_atom_site_fract_y
_atom_site_fract_z
Si Si1 0.186975 0.818063 0.354005
Si Si2 0.001619 0.321043 0.217009
Si Si3 0.389922 0.820973 0.849107
Si Si4 0.349022 0.821543 0.546721
Si Si5 0.536676 0.324224 0.412906
Si Si6 0.687995 0.326722 0.287108
Si Si7 0.380285 0.181697 0.185076
Si Si8 0.313864 0.181994 0.011623
O O1 0.250000 0.753366 0.344300
O O2 0.160198 0.761087 0.446535
O O3 0.148811 0.752781 0.274355
O O4 0.188075 0.000000 0.349656
O O5 0.006386 0.500000 0.202854
O O6 0.949648 0.261860 0.157873
O O7 0.995947 0.279648 0.322104
O O8 0.057103 0.244822 0.177146
O O9 0.354464 0.787831 0.760600
O O10 0.401141 0.000000 0.858557
O O11 0.353232 0.756192 0.931613
O O12 0.411960 0.790748 0.578559
O O13 0.307682 0.726133 0.610335
O O14 0.334572 0.000000 0.553817
O O15 0.500000 0.296539 0.500000
O O16 0.557461 0.500000 0.407593
O O17 0.750000 0.315426 0.244671
O O18 0.664942 0.500000 0.280126
O O19 0.342266 0.239138 0.102909
O O20 0.383635 0.000000 0.186060
O O21 0.250000 0.247069 0.004161
O O22 0.311355 0.000000 0.007866
#
# Coordination Sequence:
#
# PCOD8212790 Si02
#       8
#     8   8   8   8   8   8   8   8
#     4   9  18  33  55  86 120 152 191 243 299 348
#     4  11  23  39  58  83 121 160 196 242 294 352
#     4  11  22  38  62  89 118 151 195 247 293 345
#     4  11  21  33  54  84 116 151 194 244 291 343
#     4  10  21  37  56  77 110 158 204 246 293 348
#     4  11  23  38  56  81 116 156 194 233 287 354
#     4  10  20  37  63  89 116 153 197 244 291 349
#     4   9  19  37  63  94 121 149 191 243 299 353
#
# _framework density 20.500509999999998
#
# number of rings (size 3 to 8) (size 9 to 14) (size 15 to 20)
#    0.000    1.750    1.250    3.375    0.000    4.750 
#    0.000    4.375    0.000    4.500    0.000    0.000 
#    0.000    0.000    0.000    0.000    0.000    0.000 
#
# Total GULP energy -793663.414889 kJ/mol
# GULP energy per Si atom -12400.990858 kJ/mol
# Density = 2.045385 g / cm^3
# Si number density = 20.500510 Si / 1000 Ang^3
#
#
#
# Elastic Constant Matrix: (Units=GPa)
#
#
# Indices 1 2 3 4 5 6 
#
# 1 142.8505 20.2861 62.8080 0.0000 0.0000 0.0000
# 2 20.2861 33.4442 21.1823 0.0000 0.0000 0.0000
# 3 62.8080 21.1823 132.5099 0.0000 0.0000 0.0000
# 4 0.0000 0.0000 0.0000 17.9123 0.0000 0.0000
# 5 0.0000 0.0000 0.0000 0.0000 40.2782 0.0000
# 6 0.0000 0.0000 0.0000 0.0000 0.0000 16.6874
#
#
#
# Elastic Compliance Matrix: (Units=1/GPa)
#
#
# Indices 1 2 3 4 5 6 
#
# 1 0.009125 -0.003111 -0.003828 0.000000 0.000000 0.000000
# 2 -0.003111 0.034329 -0.004013 0.000000 0.000000 0.000000
# 3 -0.003828 -0.004013 0.010003 0.000000 0.000000 0.000000
# 4 0.000000 0.000000 0.000000 0.055828 0.000000 0.000000
# 5 0.000000 0.000000 0.000000 0.000000 0.024827 0.000000
# 6 0.000000 0.000000 0.000000 0.000000 0.000000 0.059925
#
#
# Mechanical properties :
#
#
# Convention : Reuss Voigt Hill
#
# Bulk Modulus (GPa) = 31.69247 57.48417 44.58832
# Shear Modulus (GPa) = 22.07909 28.61078 25.34493
#
# Velocity S-wave (km/s) = 3.28533 3.73984 3.51993
# Velocity P-wave (km/s) = 5.46664 6.83738 6.19007
#
# Compressibility (1/GPa) = 0.03155323
#
# Stress axis : x y z
#
# Youngs Moduli (GPa) = 109.58768 29.12977 99.97439
#
# Poissons Ratio (x) = 0.09061 0.38270
# Poissons Ratio (y) = 0.34087 0.40123
# Poissons Ratio (z) = 0.41950 0.11691
#
# Static dielectric constant tensor:
#      x y z
#    x 3.862260 0.000000 0.000000 
#    y 0.000000 3.360080 0.000000 
#    z 0.000000 0.000000 3.945800 
# 
# 
# High freq. dielectric constant tensor:
#      x y z
#    x 1.813420 0.000000 0.000000 
#    y 0.000000 1.771170 0.000000 
#    z 0.000000 0.000000 1.808450 
# 
# From -- ./inp_files/26299.got.cif
#   From: 2010.03.12/outbox.cif.g09.slc.cpg/sg51_14_cif.got.tgz:26299.got - 2010.04.16 13:43:02.
