data_PCOD8212301
_publ_section_title
;
Structure prediction by ZEFSAII (Michael W. Deem and Ramdas Pophale) SiO2 
 PCOD8212301
Probable space group: P M M A
;
_chemical_formula_sum "Si O2"
_cell_formula_units_Z 56
_cell_length_a 14.430614
_cell_length_b 14.731641
_cell_length_c 12.371175
_cell_angle_alpha 90.000000
_cell_angle_beta 90.000000
_cell_angle_gamma 90.000000
_cell_volume 2629.946339
_symmetry_space_group_name_H-M "P M M A"
_symmetry_group_IT_number 51
_symmetry_cell_setting 'orthorhombic'
loop_
_space_group_symop_operation_xyz
x,y,z
1/2-x,-y,z
1/2+x,-y,-z
-x,y,-z
-x,-y,-z
1/2+x,y,-z
1/2-x,y,z
x,-y,z
loop_
_atom_site_type_symbol
_atom_site_label
_atom_site_fract_x
_atom_site_fract_y
_atom_site_fract_z
Si Si1 0.455745 0.602524 0.262009
Si Si2 0.072955 0.099967 0.406412
Si Si3 0.145936 0.331973 0.688003
Si Si4 0.647074 0.711571 0.557020
Si Si5 0.148077 0.802354 0.877901
Si Si6 0.644676 0.270341 0.899147
Si Si7 0.967950 0.899145 0.834574
O O1 0.417853 0.500000 0.258733
O O2 0.567897 0.599174 0.267662
O O3 0.421143 0.654184 0.368269
O O4 0.421514 0.654522 0.154585
O O5 0.146453 0.181456 0.413945
O O6 0.017872 0.105319 0.293954
O O7 0.000000 0.115763 0.500000
O O8 0.121037 0.000000 0.417729
O O9 0.250000 0.374954 0.693858
O O10 0.119240 0.303077 0.566965
O O11 0.140876 0.242280 0.760596
O O12 0.750000 0.675299 0.579085
O O13 0.250000 0.848577 0.891183
O O14 0.066051 0.875098 0.891104
O O15 0.136996 0.724451 0.970590
O O16 0.750000 0.286141 0.858884
O O17 0.613805 0.169022 0.866870
O O18 0.939439 0.000000 0.872478
#
# Coordination Sequence:
#
# PCOD8212301 Si02
#       7
#     8   8   8   8   8   8   8
#     4  12  25  42  67  93 122 163 210 262 324 383
#     4  10  20  35  58  88 126 171 212 251 304 369
#     4  10  22  41  66  94 124 162 207 257 318 380
#     4  11  22  38  63  93 129 166 207 259 310 371
#     4  10  21  40  65  90 126 170 208 252 306 366
#     4  11  24  42  63  89 127 168 210 261 312 370
#     4  11  22  37  63  95 128 166 210 257 306 366
#
# _framework density 21.293209000000001
#
# number of rings (size 3 to 8) (size 9 to 14) (size 15 to 20)
#    0.000    1.286    2.857    3.000    0.000    4.571 
#    0.000    5.714    0.000    7.714    0.000    0.000 
#    0.000    0.000    0.000    0.000    0.000    0.000 
#
# Total GULP energy -694237.355603 kJ/mol
# GULP energy per Si atom -12397.095636 kJ/mol
# Density = 2.124474 g / cm^3
# Si number density = 21.293209 Si / 1000 Ang^3
#
#
#
# Elastic Constant Matrix: (Units=GPa)
#
#
# Indices 1 2 3 4 5 6 
#
# 1 108.5735 32.6083 19.2747 0.0000 0.0000 0.0000
# 2 32.6083 115.3559 18.8401 0.0000 0.0000 0.0000
# 3 19.2747 18.8401 83.8359 0.0000 0.0000 0.0000
# 4 0.0000 0.0000 0.0000 12.2783 0.0000 0.0000
# 5 0.0000 0.0000 0.0000 0.0000 22.2274 0.0000
# 6 0.0000 0.0000 0.0000 0.0000 0.0000 11.8446
#
#
#
# Elastic Compliance Matrix: (Units=1/GPa)
#
#
# Indices 1 2 3 4 5 6 
#
# 1 0.010315 -0.002625 -0.001782 0.000000 0.000000 0.000000
# 2 -0.002625 0.009667 -0.001569 0.000000 0.000000 0.000000
# 3 -0.001782 -0.001569 0.012690 0.000000 0.000000 0.000000
# 4 0.000000 0.000000 0.000000 0.081444 0.000000 0.000000
# 5 0.000000 0.000000 0.000000 0.000000 0.044990 0.000000
# 6 0.000000 0.000000 0.000000 0.000000 0.000000 0.084427
#
#
# Mechanical properties :
#
#
# Convention : Reuss Voigt Hill
#
# Bulk Modulus (GPa) = 48.25921 49.91238 49.08580
# Shear Modulus (GPa) = 19.05552 25.07286 22.06419
#
# Velocity S-wave (km/s) = 2.99475 3.43520 3.22251
# Velocity P-wave (km/s) = 5.88824 6.26303 6.07853
#
# Compressibility (1/GPa) = 0.02072143
#
# Stress axis : x y z
#
# Youngs Moduli (GPa) = 96.94660 103.44425 78.80049
#
# Poissons Ratio (x) = 0.27152 0.14039
# Poissons Ratio (y) = 0.25447 0.12364
# Poissons Ratio (z) = 0.17272 0.16230
#
# Static dielectric constant tensor:
#      x y z
#    x 3.957380 0.000000 0.000000 
#    y 0.000000 3.595920 0.000000 
#    z 0.000000 0.000000 4.082140 
# 
# 
# High freq. dielectric constant tensor:
#      x y z
#    x 1.837800 0.000000 0.000000 
#    y 0.000000 1.804400 0.000000 
#    z 0.000000 0.000000 1.854840 
# 
# From -- ./inp_files/16568.got.cif
#   From: 2010.03.12/outbox.cif.g09.slc.cpg/sg51_9_cif.got.tgz:16568.got - 2010.04.16 13:43:02.
