data_PCOD8212486
_publ_section_title
;
Structure prediction by ZEFSAII (Michael W. Deem and Ramdas Pophale) SiO2 
 PCOD8212486
Probable space group: P M M A
;
_chemical_formula_sum "Si O2"
_cell_formula_units_Z 40
_cell_length_a 14.268431
_cell_length_b 8.581736
_cell_length_c 17.076403
_cell_angle_alpha 90.000000
_cell_angle_beta 90.000000
_cell_angle_gamma 90.000000
_cell_volume 2090.969823
_symmetry_space_group_name_H-M "P M M A"
_symmetry_group_IT_number 51
_symmetry_cell_setting 'orthorhombic'
loop_
_space_group_symop_operation_xyz
x,y,z
1/2-x,-y,z
1/2+x,-y,-z
-x,y,-z
-x,-y,-z
1/2+x,y,-z
1/2-x,y,z
x,-y,z
loop_
_atom_site_type_symbol
_atom_site_label
_atom_site_fract_x
_atom_site_fract_y
_atom_site_fract_z
Si Si1 0.750000 0.322072 0.484261
Si Si2 0.250000 0.182769 0.347117
Si Si3 0.051400 0.680162 0.579496
Si Si4 0.444751 0.817732 0.280426
Si Si5 0.007781 0.682167 0.116283
Si Si6 0.642669 0.183429 0.007132
O O1 0.750000 0.500000 0.513650
O O2 0.750000 0.218707 0.561376
O O3 0.661162 0.286245 0.430170
O O4 0.157294 0.249342 0.304919
O O5 0.250000 0.000000 0.337920
O O6 0.030396 0.500000 0.599600
O O7 0.000000 0.729551 0.500000
O O8 0.016153 0.789658 0.648778
O O9 0.480741 0.722052 0.206651
O O10 0.441439 0.000000 0.260069
O O11 0.992284 0.500000 0.104996
O O12 0.100332 0.734151 0.069454
O O13 0.915571 0.768850 0.083914
O O14 0.750000 0.236859 0.017712
O O15 0.635020 0.000000 0.994294
#
# Coordination Sequence:
#
# PCOD8212486 Si02
#       6
#     4   4   8   8   8   8
#     4  10  20  36  58  82 111 148 191 238 292 352
#     4  10  22  36  56  84 113 146 191 242 292 342
#     4  10  20  36  58  83 113 150 191 237 292 346
#     4  11  23  39  58  84 117 153 194 241 291 343
#     4  11  23  39  61  90 122 154 193 239 288 344
#     4  10  21  40  66  91 119 155 192 233 286 347
#
# _framework density 19.12988
#
# number of rings (size 3 to 8) (size 9 to 14) (size 15 to 20)
#    0.000    1.600    2.000    4.200    1.400    3.600 
#    1.800    0.000    0.000    0.000    0.000    0.000 
#    0.000    0.000    0.000    0.000    0.000    0.000 
#
# Total GULP energy -496181.199760 kJ/mol
# GULP energy per Si atom -12404.529994 kJ/mol
# Density = 1.908634 g / cm^3
# Si number density = 19.129880 Si / 1000 Ang^3
#
#
#
# Elastic Constant Matrix: (Units=GPa)
#
#
# Indices 1 2 3 4 5 6 
#
# 1 145.7035 15.6067 48.1018 0.0000 0.0000 0.0000
# 2 15.6067 44.5484 13.8699 0.0000 0.0000 0.0000
# 3 48.1018 13.8699 112.7751 0.0000 0.0000 0.0000
# 4 0.0000 0.0000 0.0000 34.9380 0.0000 0.0000
# 5 0.0000 0.0000 0.0000 0.0000 13.0390 0.0000
# 6 0.0000 0.0000 0.0000 0.0000 0.0000 16.0234
#
#
#
# Elastic Compliance Matrix: (Units=1/GPa)
#
#
# Indices 1 2 3 4 5 6 
#
# 1 0.008130 -0.001839 -0.003242 0.000000 0.000000 0.000000
# 2 -0.001839 0.023757 -0.002137 0.000000 0.000000 0.000000
# 3 -0.003242 -0.002137 0.010513 0.000000 0.000000 0.000000
# 4 0.000000 0.000000 0.000000 0.028622 0.000000 0.000000
# 5 0.000000 0.000000 0.000000 0.000000 0.076693 0.000000
# 6 0.000000 0.000000 0.000000 0.000000 0.000000 0.062409
#
#
# Mechanical properties :
#
#
# Convention : Reuss Voigt Hill
#
# Bulk Modulus (GPa) = 35.76015 50.90934 43.33474
# Shear Modulus (GPa) = 21.37832 27.82999 24.60416
#
# Velocity S-wave (km/s) = 3.34658 3.81831 3.59020
# Velocity P-wave (km/s) = 5.80231 6.79040 6.31571
#
# Compressibility (1/GPa) = 0.02796409
#
# Stress axis : x y z
#
# Youngs Moduli (GPa) = 122.99471 42.09238 95.12261
#
# Poissons Ratio (x) = 0.07741 0.30836
# Poissons Ratio (y) = 0.22620 0.20332
# Poissons Ratio (z) = 0.39871 0.08997
#
# Static dielectric constant tensor:
#      x y z
#    x 3.800970 0.000000 0.000000 
#    y 0.000000 3.485070 0.000000 
#    z 0.000000 0.000000 3.364900 
# 
# 
# High freq. dielectric constant tensor:
#      x y z
#    x 1.754370 0.000000 0.000000 
#    y 0.000000 1.745140 0.000000 
#    z 0.000000 0.000000 1.739980 
# 
# From -- ./inp_files/23739.got.cif
#   From: 2010.03.12/outbox.cif.g09.slc.cpg/sg51_12_cif.got.tgz:23739.got - 2010.04.16 13:43:02.
