data_PCOD8212713
_publ_section_title
;
Structure prediction by ZEFSAII (Michael W. Deem and Ramdas Pophale) SiO2 
 PCOD8212713
Probable space group: P M M A
;
_chemical_formula_sum "Si O2"
_cell_formula_units_Z 32
_cell_length_a 8.648444
_cell_length_b 12.642131
_cell_length_c 14.221311
_cell_angle_alpha 90.000000
_cell_angle_beta 90.000000
_cell_angle_gamma 90.000000
_cell_volume 1554.883653
_symmetry_space_group_name_H-M "P M M A"
_symmetry_group_IT_number 51
_symmetry_cell_setting 'orthorhombic'
loop_
_space_group_symop_operation_xyz
x,y,z
1/2-x,-y,z
1/2+x,-y,-z
-x,y,-z
-x,-y,-z
1/2+x,y,-z
1/2-x,y,z
x,-y,z
loop_
_atom_site_type_symbol
_atom_site_label
_atom_site_fract_x
_atom_site_fract_y
_atom_site_fract_z
Si Si1 0.932779 0.769897 0.895933
Si Si2 0.568586 0.306247 0.284186
Si Si3 0.570929 0.000000 0.899590
Si Si4 0.929330 0.878865 0.602290
Si Si5 0.067996 0.500000 0.396555
O O1 0.750000 0.750121 0.898733
O O2 0.012388 0.688016 0.824319
O O3 0.974294 0.887572 0.852627
O O4 0.000000 0.752900 0.000000
O O5 0.750000 0.325170 0.289122
O O6 0.523816 0.192881 0.326177
O O7 0.484616 0.396373 0.342265
O O8 0.750000 0.000000 0.916644
O O9 0.500000 0.000000 0.000000
O O10 0.750000 0.845032 0.601046
O O11 0.000000 0.862808 0.500000
O O12 0.946994 0.000000 0.636217
O O13 0.250000 0.500000 0.405136
O O14 0.000000 0.500000 0.500000
#
# Coordination Sequence:
#
# PCOD8212713 Si02
#       5
#     8   8   4   8   4
#     4  10  20  37  59  89 126 169 213 260 311 368
#     4  12  25  41  63  93 126 164 210 258 312 375
#     4   8  16  30  52  80 117 160 205 250 298 354
#     4  10  21  38  60  88 124 163 204 253 311 375
#     4  12  26  48  73  96 123 160 206 262 318 376
#
# _framework density 20.580317999999998
#
# number of rings (size 3 to 8) (size 9 to 14) (size 15 to 20)
#    0.000    1.500    0.000    5.625    1.750    2.500 
#    0.000    0.625    0.000    0.000    0.000    0.000 
#    0.000    0.000    0.000    0.000    0.000    0.000 
#
# Total GULP energy -396674.772855 kJ/mol
# GULP energy per Si atom -12396.086652 kJ/mol
# Density = 2.053348 g / cm^3
# Si number density = 20.580318 Si / 1000 Ang^3
#
#
#
# Elastic Constant Matrix: (Units=GPa)
#
#
# Indices 1 2 3 4 5 6 
#
# 1 144.7217 50.6175 63.0514 0.0000 0.0000 0.0000
# 2 50.6175 88.4163 70.9813 0.0000 0.0000 0.0000
# 3 63.0514 70.9813 128.7375 0.0000 0.0000 0.0000
# 4 0.0000 0.0000 0.0000 30.0015 0.0000 0.0000
# 5 0.0000 0.0000 0.0000 0.0000 38.7254 0.0000
# 6 0.0000 0.0000 0.0000 0.0000 0.0000 27.0328
#
#
#
# Elastic Compliance Matrix: (Units=1/GPa)
#
#
# Indices 1 2 3 4 5 6 
#
# 1 0.009196 -0.002958 -0.002873 0.000000 0.000000 0.000000
# 2 -0.002958 0.021244 -0.010264 0.000000 0.000000 0.000000
# 3 -0.002873 -0.010264 0.014834 0.000000 0.000000 0.000000
# 4 0.000000 0.000000 0.000000 0.033332 0.000000 0.000000
# 5 0.000000 0.000000 0.000000 0.000000 0.025823 0.000000
# 6 0.000000 0.000000 0.000000 0.000000 0.000000 0.036992
#
#
# Mechanical properties :
#
#
# Convention : Reuss Voigt Hill
#
# Bulk Modulus (GPa) = 76.43326 81.24177 78.83751
# Shear Modulus (GPa) = 28.09416 30.96696 29.53056
#
# Velocity S-wave (km/s) = 3.69873 3.88324 3.79211
# Velocity P-wave (km/s) = 7.44718 7.72446 7.58708
#
# Compressibility (1/GPa) = 0.01308331
#
# Stress axis : x y z
#
# Youngs Moduli (GPa) = 108.74121 47.07208 67.41218
#
# Poissons Ratio (x) = 0.13926 0.19366
# Poissons Ratio (y) = 0.32170 0.69194
# Poissons Ratio (z) = 0.31239 0.48316
#
# Static dielectric constant tensor:
#      x y z
#    x 3.819010 0.000000 0.000000 
#    y 0.000000 3.916540 0.000000 
#    z 0.000000 0.000000 3.658410 
# 
# 
# High freq. dielectric constant tensor:
#      x y z
#    x 1.817970 0.000000 0.000000 
#    y 0.000000 1.797070 0.000000 
#    z 0.000000 0.000000 1.813120 
# 
# From -- ./inp_files/20114.got.cif
#   From: 2010.03.12/outbox.cif.g09.slc.cpg/sg51_11_cif.got.tgz:20114.got - 2010.04.16 13:43:02.
