data_PCOD8212921
_publ_section_title
;
Structure prediction by ZEFSAII (Michael W. Deem and Ramdas Pophale) SiO2 
 PCOD8212921
Probable space group: P M M A
;
_chemical_formula_sum "Si O2"
_cell_formula_units_Z 64
_cell_length_a 17.041493
_cell_length_b 15.096125
_cell_length_c 13.630450
_cell_angle_alpha 90.000000
_cell_angle_beta 90.000000
_cell_angle_gamma 90.000000
_cell_volume 3506.576498
_symmetry_space_group_name_H-M "P M M A"
_symmetry_group_IT_number 51
_symmetry_cell_setting 'orthorhombic'
loop_
_space_group_symop_operation_xyz
x,y,z
1/2-x,-y,z
1/2+x,-y,-z
-x,y,-z
-x,-y,-z
1/2+x,y,-z
1/2-x,y,z
x,-y,z
loop_
_atom_site_type_symbol
_atom_site_label
_atom_site_fract_x
_atom_site_fract_y
_atom_site_fract_z
Si Si1 0.425910 0.397302 0.875881
Si Si2 0.599206 0.397343 0.906042
Si Si3 0.341857 0.395916 0.681842
Si Si4 0.454679 0.100549 0.100293
Si Si5 0.922169 0.751776 0.443103
Si Si6 0.159733 0.837958 0.381843
Si Si7 0.335225 0.234616 0.177283
Si Si8 0.498826 0.903051 0.683224
O O1 0.440932 0.500000 0.862798
O O2 0.513757 0.357609 0.875967
O O3 0.371432 0.362419 0.788350
O O4 0.383976 0.380010 0.979202
O O5 0.610679 0.500000 0.878577
O O6 0.660555 0.338535 0.847348
O O7 0.250000 0.376442 0.674866
O O8 0.359655 0.500000 0.663828
O O9 0.387945 0.337293 0.603516
O O10 0.387028 0.172868 0.107579
O O11 0.506517 0.111105 0.199187
O O12 0.421136 0.000000 0.095984
O O13 0.500000 0.122346 0.000000
O O14 0.855516 0.789916 0.515055
O O15 0.000000 0.722325 0.500000
O O16 0.945057 0.827675 0.365023
O O17 0.250000 0.877271 0.382693
O O18 0.148534 0.768442 0.293410
O O19 0.088982 0.906865 0.358930
O O20 0.250000 0.197795 0.153867
O O21 0.463603 0.000000 0.657414
#
# Coordination Sequence:
#
# PCOD8212921 Si02
#       8
#     8   8   8   8   8   8   8   8
#     4   8  17  32  51  75 100 135 176 211 254 306
#     4   9  18  32  51  76 108 140 171 210 256 312
#     4  10  21  36  54  77 105 137 177 222 264 311
#     4   9  19  35  56  79 104 139 174 207 255 313
#     4  10  21  34  55  78 105 137 174 220 270 311
#     4   9  19  35  51  73 106 139 174 216 263 310
#     4  10  21  33  51  78 105 137 176 218 262 307
#     4   9  19  35  55  81 107 132 170 217 260 308
#
# _framework density 18.251418999999999
#
# number of rings (size 3 to 8) (size 9 to 14) (size 15 to 20)
#    0.000    2.750    0.000    1.125    7.000    3.750 
#    0.000    4.375    0.000    2.625    0.000    3.500 
#    0.000    0.000    0.000    0.000    0.000    0.000 
#
# Total GULP energy -792911.051221 kJ/mol
# GULP energy per Si atom -12389.235175 kJ/mol
# Density = 1.820988 g / cm^3
# Si number density = 18.251419 Si / 1000 Ang^3
#
#
#
# Elastic Constant Matrix: (Units=GPa)
#
#
# Indices 1 2 3 4 5 6 
#
# 1 73.3990 41.9716 51.2830 0.0000 0.0000 0.0000
# 2 41.9716 98.0682 59.5493 0.0000 0.0000 0.0000
# 3 51.2830 59.5493 115.6675 0.0000 0.0000 0.0000
# 4 0.0000 0.0000 0.0000 21.9460 0.0000 0.0000
# 5 0.0000 0.0000 0.0000 0.0000 26.1251 0.0000
# 6 0.0000 0.0000 0.0000 0.0000 0.0000 14.7816
#
#
#
# Elastic Compliance Matrix: (Units=1/GPa)
#
#
# Indices 1 2 3 4 5 6 
#
# 1 0.021247 -0.004907 -0.006894 0.000000 0.000000 0.000000
# 2 -0.004907 0.015968 -0.006045 0.000000 0.000000 0.000000
# 3 -0.006894 -0.006045 0.014814 0.000000 0.000000 0.000000
# 4 0.000000 0.000000 0.000000 0.045566 0.000000 0.000000
# 5 0.000000 0.000000 0.000000 0.000000 0.038277 0.000000
# 6 0.000000 0.000000 0.000000 0.000000 0.000000 0.067652
#
#
# Mechanical properties :
#
#
# Convention : Reuss Voigt Hill
#
# Bulk Modulus (GPa) = 61.21166 65.86026 63.53596
# Shear Modulus (GPa) = 20.43635 21.52592 20.98113
#
# Velocity S-wave (km/s) = 3.34984 3.43798 3.39420
# Velocity P-wave (km/s) = 6.96942 7.20576 7.08857
#
# Compressibility (1/GPa) = 0.01633676
#
# Stress axis : x y z
#
# Youngs Moduli (GPa) = 47.06583 62.62555 67.50330
#
# Poissons Ratio (x) = 0.30732 0.46535
# Poissons Ratio (y) = 0.23097 0.40806
# Poissons Ratio (z) = 0.32446 0.37858
#
# Static dielectric constant tensor:
#      x y z
#    x 3.454310 0.000000 0.000000 
#    y 0.000000 3.241130 0.000000 
#    z 0.000000 0.000000 3.744710 
# 
# 
# High freq. dielectric constant tensor:
#      x y z
#    x 1.692320 0.000000 0.000000 
#    y 0.000000 1.698150 0.000000 
#    z 0.000000 0.000000 1.712520 
# 
# From -- ./inp_files/17555.got.cif
#   From: 2010.03.12/outbox.cif.g09.slc.cpg/sg51_9_cif.got.tgz:17555.got - 2010.04.16 13:43:02.
