data_PCOD8212877
_publ_section_title
;
Structure prediction by ZEFSAII (Michael W. Deem and Ramdas Pophale) SiO2 
 PCOD8212877
Probable space group: P M M A
;
_chemical_formula_sum "Si O2"
_cell_formula_units_Z 48
_cell_length_a 34.189702
_cell_length_b 7.754837
_cell_length_c 9.014339
_cell_angle_alpha 90.000000
_cell_angle_beta 90.000000
_cell_angle_gamma 90.000000
_cell_volume 2390.021874
_symmetry_space_group_name_H-M "P M M A"
_symmetry_group_IT_number 51
_symmetry_cell_setting 'orthorhombic'
loop_
_space_group_symop_operation_xyz
x,y,z
1/2-x,-y,z
1/2+x,-y,-z
-x,y,-z
-x,-y,-z
1/2+x,y,-z
1/2-x,y,z
x,-y,z
loop_
_atom_site_type_symbol
_atom_site_label
_atom_site_fract_x
_atom_site_fract_y
_atom_site_fract_z
Si Si1 0.541558 0.500000 0.575783
Si Si2 0.750000 0.296015 0.928744
Si Si3 0.825514 0.803132 0.107330
Si Si4 0.750000 0.295208 0.590219
Si Si5 0.827059 0.694919 0.432736
Si Si6 0.096662 0.808335 0.418962
Si Si7 0.541470 0.500000 0.923980
Si Si8 0.598775 0.199095 0.923165
O O1 0.500000 0.500000 0.500000
O O2 0.565061 0.329871 0.524015
O O3 0.534668 0.500000 0.749729
O O4 0.750000 0.500000 0.940160
O O5 0.712079 0.220537 0.006158
O O6 0.750000 0.231750 0.759329
O O7 0.822183 0.691421 0.255633
O O8 0.829447 0.000000 0.156578
O O9 0.863086 0.744713 0.013738
O O10 0.750000 0.500000 0.577118
O O11 0.711525 0.222035 0.507743
O O12 0.832934 0.500000 0.489415
O O13 0.864709 0.803115 0.480849
O O14 0.108601 0.769977 0.249385
O O15 0.078372 0.000000 0.434328
O O16 0.564099 0.326401 0.973890
O O17 0.500000 0.500000 0.000000
O O18 0.586690 0.000000 0.953856
#
# Coordination Sequence:
#
# PCOD8212877 Si02
#       8
#     4   4   8   4   8   8   4   8
#     4  10  22  40  60  89 120 151 194 238 287 354
#     4  11  22  37  58  82 110 155 200 245 291 341
#     4  11  23  38  55  84 119 154 193 244 296 345
#     4   9  21  37  56  82 114 152 201 244 289 343
#     4  11  21  36  58  87 119 154 195 245 293 346
#     4  10  20  39  62  87 117 156 196 241 292 347
#     4  10  22  38  62  89 116 153 192 234 293 352
#     4   9  21  39  61  86 118 154 197 241 287 348
#
# _framework density 20.083500000000001
#
# number of rings (size 3 to 8) (size 9 to 14) (size 15 to 20)
#    0.000    1.833    0.833    2.750    2.333    2.667 
#    0.000    3.750    0.000    0.000    0.000    0.000 
#    0.000    0.000    0.000    0.000    0.000    0.000 
#
# Total GULP energy -595380.325916 kJ/mol
# GULP energy per Si atom -12403.756790 kJ/mol
# Density = 2.003779 g / cm^3
# Si number density = 20.083500 Si / 1000 Ang^3
#
#
#
# Elastic Constant Matrix: (Units=GPa)
#
#
# Indices 1 2 3 4 5 6 
#
# 1 178.4497 58.3895 68.9188 0.0000 0.0000 0.0000
# 2 58.3895 96.9847 28.8044 0.0000 0.0000 0.0000
# 3 68.9188 28.8044 99.1508 0.0000 0.0000 0.0000
# 4 0.0000 0.0000 0.0000 23.0596 0.0000 0.0000
# 5 0.0000 0.0000 0.0000 0.0000 44.5805 0.0000
# 6 0.0000 0.0000 0.0000 0.0000 0.0000 23.3962
#
#
#
# Elastic Compliance Matrix: (Units=1/GPa)
#
#
# Indices 1 2 3 4 5 6 
#
# 1 0.008777 -0.003800 -0.004997 0.000000 0.000000 0.000000
# 2 -0.003800 0.012930 -0.001115 0.000000 0.000000 0.000000
# 3 -0.004997 -0.001115 0.013883 0.000000 0.000000 0.000000
# 4 0.000000 0.000000 0.000000 0.043366 0.000000 0.000000
# 5 0.000000 0.000000 0.000000 0.000000 0.022431 0.000000
# 6 0.000000 0.000000 0.000000 0.000000 0.000000 0.042742
#
#
# Mechanical properties :
#
#
# Convention : Reuss Voigt Hill
#
# Bulk Modulus (GPa) = 63.42741 76.31229 69.86985
# Shear Modulus (GPa) = 29.54941 32.77208 31.16075
#
# Velocity S-wave (km/s) = 3.83995 4.04393 3.94326
# Velocity P-wave (km/s) = 7.16315 7.73850 7.45638
#
# Compressibility (1/GPa) = 0.01576605
#
# Stress axis : x y z
#
# Youngs Moduli (GPa) = 113.93302 77.34018 72.03159
#
# Poissons Ratio (x) = 0.29391 0.35993
# Poissons Ratio (y) = 0.43296 0.08030
# Poissons Ratio (z) = 0.56931 0.08622
#
# Static dielectric constant tensor:
#      x y z
#    x 3.528170 0.000000 0.000000 
#    y 0.000000 3.755930 0.000000 
#    z 0.000000 0.000000 3.563980 
# 
# 
# High freq. dielectric constant tensor:
#      x y z
#    x 1.778440 0.000000 0.000000 
#    y 0.000000 1.791990 0.000000 
#    z 0.000000 0.000000 1.782430 
# 
# From -- ./inp_files/13009.got.cif
#   From: 2010.03.12/outbox.cif.g09.slc.cpg/sg51_7_cif.got.tgz:13009.got - 2010.04.16 13:43:02.
