data_PCOD8212098
_publ_section_title
;
Structure prediction by ZEFSAII (Michael W. Deem and Ramdas Pophale) SiO2 
 PCOD8212098
Probable space group: P M M A
;
_chemical_formula_sum "Si O2"
_cell_formula_units_Z 64
_cell_length_a 27.274335
_cell_length_b 13.258410
_cell_length_c 9.230006
_cell_angle_alpha 90.000000
_cell_angle_beta 90.000000
_cell_angle_gamma 90.000000
_cell_volume 3337.702306
_symmetry_space_group_name_H-M "P M M A"
_symmetry_group_IT_number 51
_symmetry_cell_setting 'orthorhombic'
loop_
_space_group_symop_operation_xyz
x,y,z
1/2-x,-y,z
1/2+x,-y,-z
-x,y,-z
-x,-y,-z
1/2+x,y,-z
1/2-x,y,z
x,-y,z
loop_
_atom_site_type_symbol
_atom_site_label
_atom_site_fract_x
_atom_site_fract_y
_atom_site_fract_z
Si Si1 0.135245 0.119669 0.166439
Si Si2 0.962848 0.383659 0.624535
Si Si3 0.133577 0.386140 0.557698
Si Si4 0.615848 0.382585 0.110307
Si Si5 0.546845 0.257105 0.914259
Si Si6 0.305427 0.220116 0.413706
Si Si7 0.692995 0.232613 0.055971
Si Si8 0.694732 0.893748 0.308361
O O1 0.082172 0.162205 0.120168
O O2 0.154295 0.188989 0.297366
O O3 0.132038 0.000000 0.200415
O O4 0.176090 0.139949 0.044645
O O5 0.974697 0.500000 0.666434
O O6 0.908813 0.373051 0.560095
O O7 0.968159 0.314245 0.766336
O O8 0.000000 0.345814 0.500000
O O9 0.153555 0.500000 0.560963
O O10 0.113693 0.358348 0.718004
O O11 0.178918 0.318942 0.503548
O O12 0.616432 0.500000 0.078279
O O13 0.664344 0.337059 0.031473
O O14 0.569722 0.335657 0.028197
O O15 0.500000 0.212618 0.000000
O O16 0.250000 0.236438 0.350667
O O17 0.305555 0.126486 0.522127
O O18 0.750000 0.255762 0.037697
O O19 0.673758 0.198451 0.215325
O O20 0.750000 0.905852 0.250714
O O21 0.666515 0.000000 0.281928
#
# Coordination Sequence:
#
# PCOD8212098 Si02
#       8
#     8   8   8   8   8   8   8   8
#     4  11  24  41  61  84 114 153 197 250 307 362
#     4  10  20  36  62  91 119 154 195 241 295 355
#     4  10  20  36  56  85 122 156 194 240 291 353
#     4  10  21  36  58  88 123 161 200 241 291 352
#     4  11  23  40  63  90 118 154 195 253 307 365
#     4  11  21  36  57  84 116 156 201 244 294 353
#     4  10  20  35  55  83 117 155 198 241 289 346
#     4   9  17  30  51  77 105 141 190 243 285 327
#
# _framework density 19.174868
#
# number of rings (size 3 to 8) (size 9 to 14) (size 15 to 20)
#    0.000    1.750    2.500    2.250    0.000    4.750 
#    0.000    1.250    0.000    1.875    0.000    0.000 
#    0.000    0.000    0.000    0.000    0.000    0.000 
#
# Total GULP energy -793067.371875 kJ/mol
# GULP energy per Si atom -12391.677686 kJ/mol
# Density = 1.913123 g / cm^3
# Si number density = 19.174868 Si / 1000 Ang^3
#
#
#
# Elastic Constant Matrix: (Units=GPa)
#
#
# Indices 1 2 3 4 5 6 
#
# 1 91.6635 38.2921 36.0653 0.0000 0.0000 0.0000
# 2 38.2921 93.8047 32.9287 0.0000 0.0000 0.0000
# 3 36.0653 32.9287 96.7738 0.0000 0.0000 0.0000
# 4 0.0000 0.0000 0.0000 207.2347 0.0000 0.0000
# 5 0.0000 0.0000 0.0000 0.0000 31.8684 0.0000
# 6 0.0000 0.0000 0.0000 0.0000 0.0000 20.1672
#
#
#
# Elastic Compliance Matrix: (Units=1/GPa)
#
#
# Indices 1 2 3 4 5 6 
#
# 1 0.014280 -0.004499 -0.003791 0.000000 0.000000 0.000000
# 2 -0.004499 0.013524 -0.002925 0.000000 0.000000 0.000000
# 3 -0.003791 -0.002925 0.012742 0.000000 0.000000 0.000000
# 4 0.000000 0.000000 0.000000 0.004825 0.000000 0.000000
# 5 0.000000 0.000000 0.000000 0.000000 0.031379 0.000000
# 6 0.000000 0.000000 0.000000 0.000000 0.000000 0.049585
#
#
# Mechanical properties :
#
#
# Convention : Reuss Voigt Hill
#
# Bulk Modulus (GPa) = 55.20051 55.20157 55.20104
# Shear Modulus (GPa) = 32.29891 63.51779 47.90835
#
# Velocity S-wave (km/s) = 4.10865 5.76172 5.00392
# Velocity P-wave (km/s) = 7.16648 8.55069 7.88900
#
# Compressibility (1/GPa) = 0.01811577
#
# Stress axis : x y z
#
# Youngs Moduli (GPa) = 70.02604 73.94473 78.48310
#
# Poissons Ratio (x) = 0.33264 0.29755
# Poissons Ratio (y) = 0.31502 0.22957
# Poissons Ratio (z) = 0.26549 0.21630
#
# Static dielectric constant tensor:
#      x y z
#    x 3.379720 0.000000 0.000000 
#    y 0.000000 3.808470 0.000000 
#    z 0.000000 0.000000 3.656320 
# 
# 
# High freq. dielectric constant tensor:
#      x y z
#    x 1.733320 0.000000 0.000000 
#    y 0.000000 1.739410 0.000000 
#    z 0.000000 0.000000 1.758480 
# 
# From -- ./inp_files/13169.got.cif
#   From: 2010.03.12/outbox.cif.g09.slc.cpg/sg51_7_cif.got.tgz:13169.got - 2010.04.16 13:43:02.
