data_PCOD8212563
_publ_section_title
;
Structure prediction by ZEFSAII (Michael W. Deem and Ramdas Pophale) SiO2 
 PCOD8212563
Probable space group: P M M A
;
_chemical_formula_sum "Si O2"
_cell_formula_units_Z 56
_cell_length_a 17.154144
_cell_length_b 14.254215
_cell_length_c 11.762730
_cell_angle_alpha 90.000000
_cell_angle_beta 90.000000
_cell_angle_gamma 90.000000
_cell_volume 2876.209291
_symmetry_space_group_name_H-M "P M M A"
_symmetry_group_IT_number 51
_symmetry_cell_setting 'orthorhombic'
loop_
_space_group_symop_operation_xyz
x,y,z
1/2-x,-y,z
1/2+x,-y,-z
-x,y,-z
-x,-y,-z
1/2+x,y,-z
1/2-x,y,z
x,-y,z
loop_
_atom_site_type_symbol
_atom_site_label
_atom_site_fract_x
_atom_site_fract_y
_atom_site_fract_z
Si Si1 0.413906 0.607018 0.025817
Si Si2 0.339603 0.762744 0.895438
Si Si3 0.577767 0.890129 0.668128
Si Si4 0.661603 0.107804 0.900795
Si Si5 0.577065 0.608837 0.714029
Si Si6 0.159907 0.738802 0.460639
Si Si7 0.942209 0.749552 0.321348
O O1 0.410596 0.500000 0.986272
O O2 0.391298 0.618966 0.157728
O O3 0.500000 0.647971 0.000000
O O4 0.351234 0.659732 0.947946
O O5 0.250000 0.778447 0.863302
O O6 0.389246 0.779921 0.783390
O O7 0.368788 0.836094 0.990246
O O8 0.604079 0.870696 0.797060
O O9 0.642023 0.843230 0.586163
O O10 0.495450 0.839142 0.646920
O O11 0.571104 0.000000 0.639672
O O12 0.750000 0.137592 0.867449
O O13 0.658705 0.000000 0.935121
O O14 0.568222 0.500000 0.679593
O O15 0.638258 0.659729 0.631848
O O16 0.492983 0.657934 0.706722
O O17 0.250000 0.730388 0.491400
O O18 0.110745 0.720166 0.573324
#
# Coordination Sequence:
#
# PCOD8212563 Si02
#       7
#     8   8   8   8   8   8   8
#     4  10  20  36  59  87 117 147 186 235 284 341
#     4  11  22  36  57  84 119 159 191 229 289 349
#     4  10  21  38  62  87 110 144 194 245 289 340
#     4   9  19  35  56  85 118 150 188 238 293 346
#     4  10  21  39  64  86 111 150 193 239 290 340
#     4  11  24  40  58  84 116 150 193 243 289 338
#     4  11  23  38  57  83 117 153 194 237 283 344
#
# _framework density 19.470071000000001
#
# number of rings (size 3 to 8) (size 9 to 14) (size 15 to 20)
#    0.000    1.714    1.429    4.286    0.000    6.000 
#    0.000    2.857    0.000    5.143    0.000    0.000 
#    0.000    0.000    0.000    0.000    0.000    0.000 
#
# Total GULP energy -694596.620260 kJ/mol
# GULP energy per Si atom -12403.511076 kJ/mol
# Density = 1.942576 g / cm^3
# Si number density = 19.470071 Si / 1000 Ang^3
#
#
#
# Elastic Constant Matrix: (Units=GPa)
#
#
# Indices 1 2 3 4 5 6 
#
# 1 76.5640 16.9638 11.3696 0.0000 0.0000 0.0000
# 2 16.9638 84.8400 9.5607 0.0000 0.0000 0.0000
# 3 11.3696 9.5607 60.4113 0.0000 0.0000 0.0000
# 4 0.0000 0.0000 0.0000 16.9559 0.0000 0.0000
# 5 0.0000 0.0000 0.0000 0.0000 33.0477 0.0000
# 6 0.0000 0.0000 0.0000 0.0000 0.0000 18.9427
#
#
#
# Elastic Compliance Matrix: (Units=1/GPa)
#
#
# Indices 1 2 3 4 5 6 
#
# 1 0.013954 -0.002539 -0.002224 0.000000 0.000000 0.000000
# 2 -0.002539 0.012463 -0.001494 0.000000 0.000000 0.000000
# 3 -0.002224 -0.001494 0.017208 0.000000 0.000000 0.000000
# 4 0.000000 0.000000 0.000000 0.058977 0.000000 0.000000
# 5 0.000000 0.000000 0.000000 0.000000 0.030259 0.000000
# 6 0.000000 0.000000 0.000000 0.000000 0.000000 0.052791
#
#
# Mechanical properties :
#
#
# Convention : Reuss Voigt Hill
#
# Bulk Modulus (GPa) = 32.14512 33.06706 32.60609
# Shear Modulus (GPa) = 23.97646 26.05067 25.01356
#
# Velocity S-wave (km/s) = 3.51301 3.66182 3.58819
# Velocity P-wave (km/s) = 5.74464 5.90753 5.82665
#
# Compressibility (1/GPa) = 0.03110892
#
# Stress axis : x y z
#
# Youngs Moduli (GPa) = 71.66443 80.23704 58.11139
#
# Poissons Ratio (x) = 0.20376 0.12926
# Poissons Ratio (y) = 0.18199 0.08685
# Poissons Ratio (z) = 0.15940 0.11991
#
# Static dielectric constant tensor:
#      x y z
#    x 3.496740 0.000000 0.000000 
#    y 0.000000 3.589140 0.000000 
#    z 0.000000 0.000000 3.578900 
# 
# 
# High freq. dielectric constant tensor:
#      x y z
#    x 1.751880 0.000000 0.000000 
#    y 0.000000 1.760310 0.000000 
#    z 0.000000 0.000000 1.763880 
# 
# From -- ./inp_files/16644.got.cif
#   From: 2010.03.12/outbox.cif.g09.slc.cpg/sg51_9_cif.got.tgz:16644.got - 2010.04.16 13:43:02.
