data_PCOD8212390
_publ_section_title
;
Structure prediction by ZEFSAII (Michael W. Deem and Ramdas Pophale) SiO2 
 PCOD8212390
Probable space group: P M M A
;
_chemical_formula_sum "Si O2"
_cell_formula_units_Z 48
_cell_length_a 8.954769
_cell_length_b 30.351804
_cell_length_c 9.496867
_cell_angle_alpha 90.000000
_cell_angle_beta 90.000000
_cell_angle_gamma 90.000000
_cell_volume 2581.185710
_symmetry_space_group_name_H-M "P M M A"
_symmetry_group_IT_number 51
_symmetry_cell_setting 'orthorhombic'
loop_
_space_group_symop_operation_xyz
x,y,z
1/2-x,-y,z
1/2+x,-y,-z
-x,y,-z
-x,-y,-z
1/2+x,y,-z
1/2-x,y,z
x,-y,z
loop_
_atom_site_type_symbol
_atom_site_label
_atom_site_fract_x
_atom_site_fract_y
_atom_site_fract_z
Si Si1 0.076291 0.748085 0.356928
Si Si2 0.073689 0.848865 0.350464
Si Si3 0.074956 0.576950 0.147346
Si Si4 0.075514 0.000000 0.652611
Si Si5 0.573581 0.500000 0.650628
Si Si6 0.072103 0.081921 0.847177
Si Si7 0.425279 0.324351 0.145524
O O1 0.250000 0.741067 0.377504
O O2 0.040475 0.798128 0.312782
O O3 0.010060 0.713093 0.247441
O O4 0.000000 0.735229 0.500000
O O5 0.250000 0.859156 0.358863
O O6 0.000000 0.862039 0.500000
O O7 0.996972 0.874632 0.222721
O O8 0.250000 0.571922 0.123054
O O9 0.018285 0.543317 0.266080
O O10 0.032171 0.626400 0.197529
O O11 0.000000 0.564799 0.000000
O O12 0.027101 0.042132 0.743842
O O13 0.000000 0.000000 0.500000
O O14 0.250000 0.000000 0.623511
O O15 0.750000 0.500000 0.631586
O O16 0.500000 0.500000 0.500000
O O17 0.250000 0.086484 0.863997
O O18 0.000000 0.073917 0.000000
O O19 0.250000 0.319550 0.127054
O O20 0.500000 0.313604 0.000000
#
# Coordination Sequence:
#
# PCOD8212390 Si02
#       7
#     8   8   8   4   4   8   8
#     4   9  19  34  52  75 104 136 172 212 256 303
#     4  10  20  36  56  79 107 141 179 219 261 311
#     4   9  18  33  52  72  97 129 167 207 250 300
#     4  10  23  40  60  84 110 142 179 216 259 310
#     4  10  21  34  48  72 102 130 161 204 252 300
#     4  11  23  39  58  83 112 143 178 219 265 311
#     4   9  18  33  51  73 100 131 167 209 253 301
#
# _framework density 18.596105000000001
#
# number of rings (size 3 to 8) (size 9 to 14) (size 15 to 20)
#    0.000    2.333    0.000    2.000    0.000    6.000 
#    0.000    1.667    0.000    0.000    0.000    0.000 
#    0.000    0.000    0.000    0.000    0.000    0.000 
#
# Total GULP energy -595178.007340 kJ/mol
# GULP energy per Si atom -12399.541820 kJ/mol
# Density = 1.855378 g / cm^3
# Si number density = 18.596105 Si / 1000 Ang^3
#
#
#
# Elastic Constant Matrix: (Units=GPa)
#
#
# Indices 1 2 3 4 5 6 
#
# 1 51.9483 46.6853 59.5082 0.0000 0.0000 0.0000
# 2 46.6853 137.5214 106.9984 0.0000 0.0000 0.0000
# 3 59.5082 106.9984 165.6984 0.0000 0.0000 0.0000
# 4 0.0000 0.0000 0.0000 41.0546 0.0000 0.0000
# 5 0.0000 0.0000 0.0000 0.0000 38.5580 0.0000
# 6 0.0000 0.0000 0.0000 0.0000 0.0000 23.3683
#
#
#
# Elastic Compliance Matrix: (Units=1/GPa)
#
#
# Indices 1 2 3 4 5 6 
#
# 1 0.033806 -0.004080 -0.009506 0.000000 0.000000 0.000000
# 2 -0.004080 0.015106 -0.008289 0.000000 0.000000 0.000000
# 3 -0.009506 -0.008289 0.014802 0.000000 0.000000 0.000000
# 4 0.000000 0.000000 0.000000 0.024358 0.000000 0.000000
# 5 0.000000 0.000000 0.000000 0.000000 0.025935 0.000000
# 6 0.000000 0.000000 0.000000 0.000000 0.000000 0.042793
#
#
# Mechanical properties :
#
#
# Convention : Reuss Voigt Hill
#
# Bulk Modulus (GPa) = 50.09302 86.83909 68.46606
# Shear Modulus (GPa) = 24.13048 30.06126 27.09587
#
# Velocity S-wave (km/s) = 3.60614 4.02498 3.82130
# Velocity P-wave (km/s) = 6.65844 8.27039 7.50781
#
# Compressibility (1/GPa) = 0.01996286
#
# Stress axis : x y z
#
# Youngs Moduli (GPa) = 29.58015 66.19759 67.55834
#
# Poissons Ratio (x) = 0.27009 0.64224
# Poissons Ratio (y) = 0.12069 0.56002
# Poissons Ratio (z) = 0.28120 0.54874
#
# Static dielectric constant tensor:
#      x y z
#    x 3.385910 0.000000 0.000000 
#    y 0.000000 3.762870 0.000000 
#    z 0.000000 0.000000 3.472030 
# 
# 
# High freq. dielectric constant tensor:
#      x y z
#    x 1.720340 0.000000 0.000000 
#    y 0.000000 1.737000 0.000000 
#    z 0.000000 0.000000 1.720750 
# 
# From -- ./inp_files/6140.got.cif
#   From: 2010.03.12/outbox.cif.g09.slc.cpg/sg51_4_cif.got.tgz:6140.got - 2010.04.16 13:43:02.
