data_PCOD8212766
_publ_section_title
;
Structure prediction by ZEFSAII (Michael W. Deem and Ramdas Pophale) SiO2 
 PCOD8212766
Probable space group: P M M A
;
_chemical_formula_sum "Si O2"
_cell_formula_units_Z 48
_cell_length_a 19.312289
_cell_length_b 7.648805
_cell_length_c 16.528403
_cell_angle_alpha 90.000000
_cell_angle_beta 90.000000
_cell_angle_gamma 90.000000
_cell_volume 2441.508465
_symmetry_space_group_name_H-M "P M M A"
_symmetry_group_IT_number 51
_symmetry_cell_setting 'orthorhombic'
loop_
_space_group_symop_operation_xyz
x,y,z
1/2-x,-y,z
1/2+x,-y,-z
-x,y,-z
-x,-y,-z
1/2+x,y,-z
1/2-x,y,z
x,-y,z
loop_
_atom_site_type_symbol
_atom_site_label
_atom_site_fract_x
_atom_site_fract_y
_atom_site_fract_z
Si Si1 0.828353 0.699470 0.136130
Si Si2 0.896357 0.500000 0.553146
Si Si3 0.943142 0.803151 0.253769
Si Si4 0.328707 0.206852 0.041309
Si Si5 0.451232 0.500000 0.622326
Si Si6 0.090280 0.794351 0.194031
Si Si7 0.668829 0.200136 0.647612
O O1 0.750000 0.773322 0.143293
O O2 0.831846 0.500000 0.164452
O O3 0.877402 0.809165 0.194804
O O4 0.854005 0.714312 0.043733
O O5 0.904669 0.500000 0.457223
O O6 0.854097 0.675560 0.574295
O O7 0.968440 0.500000 0.600529
O O8 0.931457 0.674197 0.328548
O O9 0.010084 0.739548 0.202550
O O10 0.955154 0.000000 0.287366
O O11 0.250000 0.264289 0.060038
O O12 0.377557 0.286329 0.111917
O O13 0.335062 0.000000 0.035566
O O14 0.132138 0.726255 0.271829
O O15 0.100092 0.000000 0.188879
O O16 0.750000 0.213313 0.661801
O O17 0.646677 0.000000 0.627923
#
# Coordination Sequence:
#
# PCOD8212766 Si02
#       7
#     8   4   8   8   4   8   8
#     4  10  21  38  57  81 117 157 202 255 300 344
#     4  11  23  40  64  89 120 156 196 237 299 364
#     4  11  22  40  64  88 118 155 199 247 299 355
#     4   9  17  32  54  81 116 158 202 243 288 344
#     4  11  24  42  62  90 120 150 194 250 296 357
#     4   9  18  33  56  86 119 156 198 241 287 347
#     4  10  20  37  61  90 125 161 197 240 294 355
#
# _framework density 19.659976
#
# number of rings (size 3 to 8) (size 9 to 14) (size 15 to 20)
#    0.000    2.000    2.500    1.250    0.000    4.333 
#    3.000    6.667    0.000    0.000    0.000    0.000 
#    0.000    0.000    0.000    0.000    0.000    0.000 
#
# Total GULP energy -595256.360676 kJ/mol
# GULP energy per Si atom -12401.174181 kJ/mol
# Density = 1.961523 g / cm^3
# Si number density = 19.659976 Si / 1000 Ang^3
#
#
#
# Elastic Constant Matrix: (Units=GPa)
#
#
# Indices 1 2 3 4 5 6 
#
# 1 103.7519 30.8973 69.3904 0.0000 0.0000 0.0000
# 2 30.8973 83.4505 48.2530 0.0000 0.0000 0.0000
# 3 69.3904 48.2530 125.6590 0.0000 0.0000 0.0000
# 4 0.0000 0.0000 0.0000 24.3159 0.0000 0.0000
# 5 0.0000 0.0000 0.0000 0.0000 34.5872 0.0000
# 6 0.0000 0.0000 0.0000 0.0000 0.0000 24.7661
#
#
#
# Elastic Compliance Matrix: (Units=1/GPa)
#
#
# Indices 1 2 3 4 5 6 
#
# 1 0.015348 -0.001005 -0.008089 0.000000 0.000000 0.000000
# 2 -0.001005 0.015469 -0.005385 0.000000 0.000000 0.000000
# 3 -0.008089 -0.005385 0.014493 0.000000 0.000000 0.000000
# 4 0.000000 0.000000 0.000000 0.041125 0.000000 0.000000
# 5 0.000000 0.000000 0.000000 0.000000 0.028912 0.000000
# 6 0.000000 0.000000 0.000000 0.000000 0.000000 0.040378
#
#
# Mechanical properties :
#
#
# Convention : Reuss Voigt Hill
#
# Bulk Modulus (GPa) = 61.15871 67.77141 64.46506
# Shear Modulus (GPa) = 26.29710 27.68854 26.99282
#
# Velocity S-wave (km/s) = 3.66128 3.75690 3.70940
# Velocity P-wave (km/s) = 7.00351 7.30518 7.15593
#
# Compressibility (1/GPa) = 0.01635090
#
# Stress axis : x y z
#
# Youngs Moduli (GPa) = 65.15525 64.64511 68.99890
#
# Poissons Ratio (x) = 0.06497 0.55816
# Poissons Ratio (y) = 0.06548 0.37157
# Poissons Ratio (z) = 0.52707 0.34812
#
# Static dielectric constant tensor:
#      x y z
#    x 3.609400 0.000000 0.000000 
#    y 0.000000 3.546690 0.000000 
#    z 0.000000 0.000000 3.504660 
# 
# 
# High freq. dielectric constant tensor:
#      x y z
#    x 1.764700 0.000000 0.000000 
#    y 0.000000 1.765380 0.000000 
#    z 0.000000 0.000000 1.752410 
# 
# From -- ./inp_files/24988.got.cif
#   From: 2010.03.12/outbox.cif.g09.slc.cpg/sg51_13_cif.got.tgz:24988.got - 2010.04.16 13:43:02.
