data_PCOD8212018
_publ_section_title
;
Structure prediction by ZEFSAII (Michael W. Deem and Ramdas Pophale) SiO2 
 PCOD8212018
Probable space group: P M M A
;
_chemical_formula_sum "Si O2"
_cell_formula_units_Z 56
_cell_length_a 18.399594
_cell_length_b 9.083250
_cell_length_c 18.937075
_cell_angle_alpha 90.000000
_cell_angle_beta 90.000000
_cell_angle_gamma 90.000000
_cell_volume 3164.917595
_symmetry_space_group_name_H-M "P M M A"
_symmetry_group_IT_number 51
_symmetry_cell_setting 'orthorhombic'
loop_
_space_group_symop_operation_xyz
x,y,z
1/2-x,-y,z
1/2+x,-y,-z
-x,y,-z
-x,-y,-z
1/2+x,y,-z
1/2-x,y,z
x,-y,z
loop_
_atom_site_type_symbol
_atom_site_label
_atom_site_fract_x
_atom_site_fract_y
_atom_site_fract_z
Si Si1 0.085527 0.665950 0.588300
Si Si2 0.110503 0.664059 0.738970
Si Si3 0.666178 0.173053 0.533977
Si Si4 0.925103 0.671694 0.647736
Si Si5 0.028269 0.173629 0.925870
Si Si6 0.828965 0.332894 0.117310
Si Si7 0.973829 0.829029 0.778731
O O1 0.088544 0.500000 0.557219
O O2 0.137101 0.680746 0.657949
O O3 0.115384 0.777144 0.530573
O O4 0.002728 0.705502 0.610522
O O5 0.072506 0.500000 0.744642
O O6 0.173785 0.675493 0.796775
O O7 0.055508 0.796296 0.754396
O O8 0.750000 0.217257 0.520201
O O9 0.639123 0.250328 0.605111
O O10 0.657296 0.000000 0.543213
O O11 0.908805 0.500000 0.650652
O O12 0.921109 0.734234 0.728217
O O13 0.108882 0.234205 0.915552
O O14 0.972370 0.217137 0.862210
O O15 0.036055 0.000000 0.928781
O O16 0.000000 0.238018 0.000000
O O17 0.750000 0.278230 0.090604
O O18 0.842981 0.500000 0.093110
O O19 0.955288 0.000000 0.768655
#
# Coordination Sequence:
#
# PCOD8212018 Si02
#       7
#     8   8   8   8   8   8   8
#     4   9  18  32  51  74  97 125 163 201 239 289
#     4   8  15  28  45  67  96 126 156 191 231 281
#     4  11  24  37  48  68  98 129 163 206 254 297
#     4  10  20  35  55  75  95 123 163 206 245 292
#     4   9  18  32  50  74 103 133 165 199 238 288
#     4   9  17  29  46  70 100 133 167 201 240 287
#     4   9  16  28  49  74  97 121 152 193 237 280
#
# _framework density 17.693982999999999
#
# number of rings (size 3 to 8) (size 9 to 14) (size 15 to 20)
#    0.000    2.714    0.000    2.571    0.000    7.429 
#    0.000    1.429    0.000    0.857    0.000    2.000 
#    0.000    0.000    0.000    0.000    0.000    0.000 
#
# Total GULP energy -693821.587380 kJ/mol
# GULP energy per Si atom -12389.671203 kJ/mol
# Density = 1.765371 g / cm^3
# Si number density = 17.693983 Si / 1000 Ang^3
#
#
#
# Elastic Constant Matrix: (Units=GPa)
#
#
# Indices 1 2 3 4 5 6 
#
# 1 51.7224 28.0018 38.1781 0.0000 0.0000 0.0000
# 2 28.0018 64.6777 48.3029 0.0000 0.0000 0.0000
# 3 38.1781 48.3029 126.8277 0.0000 0.0000 0.0000
# 4 0.0000 0.0000 0.0000 24.9007 0.0000 0.0000
# 5 0.0000 0.0000 0.0000 0.0000 15.0075 0.0000
# 6 0.0000 0.0000 0.0000 0.0000 0.0000 23.5786
#
#
#
# Elastic Compliance Matrix: (Units=1/GPa)
#
#
# Indices 1 2 3 4 5 6 
#
# 1 0.027537 -0.008010 -0.005239 0.000000 0.000000 0.000000
# 2 -0.008010 0.023937 -0.006705 0.000000 0.000000 0.000000
# 3 -0.005239 -0.006705 0.012015 0.000000 0.000000 0.000000
# 4 0.000000 0.000000 0.000000 0.040160 0.000000 0.000000
# 5 0.000000 0.000000 0.000000 0.000000 0.066633 0.000000
# 6 0.000000 0.000000 0.000000 0.000000 0.000000 0.042411
#
#
# Mechanical properties :
#
#
# Convention : Reuss Voigt Hill
#
# Bulk Modulus (GPa) = 42.40545 52.46596 47.43571
# Shear Modulus (GPa) = 19.19668 21.28035 20.23851
#
# Velocity S-wave (km/s) = 3.29740 3.47174 3.38569
# Velocity P-wave (km/s) = 6.20606 6.76660 6.49238
#
# Compressibility (1/GPa) = 0.02358188
#
# Stress axis : x y z
#
# Youngs Moduli (GPa) = 36.31445 41.77686 83.22585
#
# Poissons Ratio (x) = 0.33461 0.43601
# Poissons Ratio (y) = 0.29086 0.55806
# Poissons Ratio (z) = 0.19025 0.28013
#
# Static dielectric constant tensor:
#      x y z
#    x 3.023150 0.000000 0.000000 
#    y 0.000000 3.255470 0.000000 
#    z 0.000000 0.000000 3.608830 
# 
# 
# High freq. dielectric constant tensor:
#      x y z
#    x 1.644230 0.000000 0.000000 
#    y 0.000000 1.686720 0.000000 
#    z 0.000000 0.000000 1.686660 
# 
# From -- ./inp_files/30348.got.cif
#   From: 2010.03.12/outbox.cif.g09.slc.cpg/sg51_16_cif.got.tgz:30348.got - 2010.04.16 13:43:02.
