data_PCOD8212808
_publ_section_title
;
Structure prediction by ZEFSAII (Michael W. Deem and Ramdas Pophale) SiO2 
 PCOD8212808
Probable space group: P M M A
;
_chemical_formula_sum "Si O2"
_cell_formula_units_Z 32
_cell_length_a 9.510037
_cell_length_b 13.447186
_cell_length_c 12.573840
_cell_angle_alpha 90.000000
_cell_angle_beta 90.000000
_cell_angle_gamma 90.000000
_cell_volume 1607.983353
_symmetry_space_group_name_H-M "P M M A"
_symmetry_group_IT_number 51
_symmetry_cell_setting 'orthorhombic'
loop_
_space_group_symop_operation_xyz
x,y,z
1/2-x,-y,z
1/2+x,-y,-z
-x,y,-z
-x,-y,-z
1/2+x,y,-z
1/2-x,y,z
x,-y,z
loop_
_atom_site_type_symbol
_atom_site_label
_atom_site_fract_x
_atom_site_fract_y
_atom_site_fract_z
Si Si1 0.079756 0.500000 0.611311
Si Si2 0.590039 0.317328 0.681722
Si Si3 0.914320 0.000000 0.829795
Si Si4 0.102639 0.000000 0.632788
Si Si5 0.587198 0.787996 0.902710
Si Si6 0.500000 0.172110 0.500000
O O1 0.250000 0.500000 0.599154
O O2 0.000000 0.500000 0.500000
O O3 0.027238 0.597149 0.673385
O O4 0.750000 0.359864 0.683577
O O5 0.552388 0.264747 0.792166
O O6 0.581961 0.241086 0.583867
O O7 0.962227 0.902552 0.893254
O O8 0.750000 0.000000 0.810285
O O9 0.972839 0.000000 0.711079
O O10 0.106627 0.099330 0.560962
O O11 0.250000 0.000000 0.697150
O O12 0.750000 0.778562 0.931679
O O13 0.500000 0.739455 0.000000
#
# Coordination Sequence:
#
# PCOD8212808 Si02
#       6
#     4   8   4   4   8   4
#     4  12  26  42  65  96 129 160 201 253 307 371
#     4  11  23  42  66  91 123 163 207 255 313 369
#     4  10  20  38  58  83 124 167 206 252 306 359
#     4  11  23  34  54  92 128 166 210 250 294 364
#     4  10  22  40  63  89 122 164 207 256 306 361
#     4  11  22  37  60  88 130 165 206 245 312 360
#
# _framework density 19.900703
#
# number of rings (size 3 to 8) (size 9 to 14) (size 15 to 20)
#    0.000    1.250    3.750    2.250    0.000    5.000 
#    0.000    0.625    0.000    0.000    0.000    0.000 
#    0.000    0.000    0.000    0.000    0.000    0.000 
#
# Total GULP energy -396700.162255 kJ/mol
# GULP energy per Si atom -12396.880070 kJ/mol
# Density = 1.985541 g / cm^3
# Si number density = 19.900703 Si / 1000 Ang^3
#
#
#
# Elastic Constant Matrix: (Units=GPa)
#
#
# Indices 1 2 3 4 5 6 
#
# 1 105.8744 50.2752 55.9978 0.0000 0.0000 0.0000
# 2 50.2752 100.9380 39.5426 0.0000 0.0000 0.0000
# 3 55.9978 39.5426 142.9750 0.0000 0.0000 0.0000
# 4 0.0000 0.0000 0.0000 35.1092 0.0000 0.0000
# 5 0.0000 0.0000 0.0000 0.0000 32.6090 0.0000
# 6 0.0000 0.0000 0.0000 0.0000 0.0000 36.2719
#
#
#
# Elastic Compliance Matrix: (Units=1/GPa)
#
#
# Indices 1 2 3 4 5 6 
#
# 1 0.014185 -0.005483 -0.004039 0.000000 0.000000 0.000000
# 2 -0.005483 0.013230 -0.001512 0.000000 0.000000 0.000000
# 3 -0.004039 -0.001512 0.008994 0.000000 0.000000 0.000000
# 4 0.000000 0.000000 0.000000 0.028483 0.000000 0.000000
# 5 0.000000 0.000000 0.000000 0.000000 0.030666 0.000000
# 6 0.000000 0.000000 0.000000 0.000000 0.000000 0.027570
#
#
# Mechanical properties :
#
#
# Convention : Reuss Voigt Hill
#
# Bulk Modulus (GPa) = 69.72581 71.26875 70.49728
# Shear Modulus (GPa) = 33.33847 34.39613 33.86730
#
# Velocity S-wave (km/s) = 4.09741 4.16190 4.12978
# Velocity P-wave (km/s) = 7.58274 7.68018 7.63161
#
# Compressibility (1/GPa) = 0.01434189
#
# Stress axis : x y z
#
# Youngs Moduli (GPa) = 70.49583 75.58463 111.18061
#
# Poissons Ratio (x) = 0.41443 0.44910
# Poissons Ratio (y) = 0.38653 0.16806
# Poissons Ratio (z) = 0.28476 0.11426
#
# Static dielectric constant tensor:
#      x y z
#    x 3.492920 0.000000 0.000000 
#    y 0.000000 3.466070 0.000000 
#    z 0.000000 0.000000 3.527150 
# 
# 
# High freq. dielectric constant tensor:
#      x y z
#    x 1.775370 0.000000 0.000000 
#    y 0.000000 1.771360 0.000000 
#    z 0.000000 0.000000 1.776520 
# 
# From -- ./inp_files/13840.got.cif
#   From: 2010.03.12/outbox.cif.g09.slc.cpg/sg51_7_cif.got.tgz:13840.got - 2010.04.16 13:43:02.
