data_PCOD8212540
_publ_section_title
;
Structure prediction by ZEFSAII (Michael W. Deem and Ramdas Pophale) SiO2 
 PCOD8212540
Probable space group: P M M A
;
_chemical_formula_sum "Si O2"
_cell_formula_units_Z 48
_cell_length_a 8.725831
_cell_length_b 18.442276
_cell_length_c 15.248297
_cell_angle_alpha 90.000000
_cell_angle_beta 90.000000
_cell_angle_gamma 90.000000
_cell_volume 2453.819746
_symmetry_space_group_name_H-M "P M M A"
_symmetry_group_IT_number 51
_symmetry_cell_setting 'orthorhombic'
loop_
_space_group_symop_operation_xyz
x,y,z
1/2-x,-y,z
1/2+x,-y,-z
-x,y,-z
-x,-y,-z
1/2+x,y,-z
1/2-x,y,z
x,-y,z
loop_
_atom_site_type_symbol
_atom_site_label
_atom_site_fract_x
_atom_site_fract_y
_atom_site_fract_z
Si Si1 0.926490 0.416236 0.754525
Si Si2 0.929122 0.157193 0.090220
Si Si3 0.568478 0.810757 0.592350
Si Si4 0.431566 0.322394 0.908078
Si Si5 0.431827 0.343674 0.593149
Si Si6 0.572878 0.083167 0.746798
O O1 0.750000 0.393987 0.741910
O O2 0.944155 0.500000 0.779313
O O3 0.998968 0.370246 0.831844
O O4 0.017111 0.401994 0.664738
O O5 0.750000 0.153788 0.078752
O O6 0.983011 0.239495 0.109122
O O7 0.977780 0.105198 0.168454
O O8 0.000000 0.127746 0.000000
O O9 0.500000 0.836847 0.500000
O O10 0.750000 0.801733 0.583659
O O11 0.495657 0.734659 0.621508
O O12 0.519863 0.870073 0.663618
O O13 0.250000 0.331401 0.909388
O O14 0.500000 0.349980 0.000000
O O15 0.500000 0.368048 0.500000
O O16 0.250000 0.340169 0.586585
O O17 0.750000 0.097071 0.767940
O O18 0.539099 0.000000 0.723691
#
# Coordination Sequence:
#
# PCOD8212540 Si02
#       6
#     8   8   8   8   8   8
#     4  11  24  40  58  83 116 152 188 228 278 334
#     4  10  21  37  59  85 110 142 184 230 278 328
#     4  10  20  36  59  84 112 146 186 232 278 327
#     4  10  21  38  61  87 114 146 188 234 280 332
#     4  11  22  38  61  86 113 146 187 233 280 332
#     4  10  22  38  55  79 113 151 187 226 276 331
#
# _framework density 19.561337999999999
#
# number of rings (size 3 to 8) (size 9 to 14) (size 15 to 20)
#    0.000    1.667    0.000    5.500    0.000    9.000 
#    0.000    0.000    0.000    0.000    0.000    0.000 
#    0.000    0.000    0.000    0.000    0.000    0.000 
#
# Total GULP energy -595468.179191 kJ/mol
# GULP energy per Si atom -12405.587066 kJ/mol
# Density = 1.951682 g / cm^3
# Si number density = 19.561338 Si / 1000 Ang^3
#
#
#
# Elastic Constant Matrix: (Units=GPa)
#
#
# Indices 1 2 3 4 5 6 
#
# 1 97.2952 21.3223 34.8919 0.0000 0.0000 0.0000
# 2 21.3223 45.4167 26.3305 0.0000 0.0000 0.0000
# 3 34.8919 26.3305 100.5949 0.0000 0.0000 0.0000
# 4 0.0000 0.0000 0.0000 4.4390 0.0000 0.0000
# 5 0.0000 0.0000 0.0000 0.0000 39.8553 0.0000
# 6 0.0000 0.0000 0.0000 0.0000 0.0000 29.4620
#
#
#
# Elastic Compliance Matrix: (Units=1/GPa)
#
#
# Indices 1 2 3 4 5 6 
#
# 1 0.012295 -0.003890 -0.003246 0.000000 0.000000 0.000000
# 2 -0.003890 0.027188 -0.005767 0.000000 0.000000 0.000000
# 3 -0.003246 -0.005767 0.012576 0.000000 0.000000 0.000000
# 4 0.000000 0.000000 0.000000 0.225276 0.000000 0.000000
# 5 0.000000 0.000000 0.000000 0.000000 0.025091 0.000000
# 6 0.000000 0.000000 0.000000 0.000000 0.000000 0.033942
#
#
# Mechanical properties :
#
#
# Convention : Reuss Voigt Hill
#
# Bulk Modulus (GPa) = 38.09196 45.37736 41.73466
# Shear Modulus (GPa) = 13.47977 25.46871 19.47424
#
# Velocity S-wave (km/s) = 2.62792 3.61223 3.15865
# Velocity P-wave (km/s) = 5.35942 6.37538 5.88934
#
# Compressibility (1/GPa) = 0.02625226
#
# Stress axis : x y z
#
# Youngs Moduli (GPa) = 81.33591 36.78062 79.51404
#
# Poissons Ratio (x) = 0.14308 0.25812
# Poissons Ratio (y) = 0.31640 0.45857
# Poissons Ratio (z) = 0.26404 0.21212
#
# Static dielectric constant tensor:
#      x y z
#    x 3.620770 0.000000 0.000000 
#    y 0.000000 3.547430 0.000000 
#    z 0.000000 0.000000 3.719280 
# 
# 
# High freq. dielectric constant tensor:
#      x y z
#    x 1.775580 0.000000 0.000000 
#    y 0.000000 1.755410 0.000000 
#    z 0.000000 0.000000 1.774610 
# 
# From -- ./inp_files/21069.got.cif
#   From: 2010.03.12/outbox.cif.g09.slc.cpg/sg51_11_cif.got.tgz:21069.got - 2010.04.16 13:43:02.
