data_PCOD8212598
_publ_section_title
;
Structure prediction by ZEFSAII (Michael W. Deem and Ramdas Pophale) SiO2 
 PCOD8212598
Probable space group: P M M A
;
_chemical_formula_sum "Si O2"
_cell_formula_units_Z 64
_cell_length_a 15.180267
_cell_length_b 9.048293
_cell_length_c 23.822451
_cell_angle_alpha 90.000000
_cell_angle_beta 90.000000
_cell_angle_gamma 90.000000
_cell_volume 3272.144755
_symmetry_space_group_name_H-M "P M M A"
_symmetry_group_IT_number 51
_symmetry_cell_setting 'orthorhombic'
loop_
_space_group_symop_operation_xyz
x,y,z
1/2-x,-y,z
1/2+x,-y,-z
-x,y,-z
-x,-y,-z
1/2+x,y,-z
1/2-x,y,z
x,-y,z
loop_
_atom_site_type_symbol
_atom_site_label
_atom_site_fract_x
_atom_site_fract_y
_atom_site_fract_z
Si Si1 0.648796 0.670873 0.364422
Si Si2 0.995215 0.174171 0.436844
Si Si3 0.651125 0.830969 0.867695
Si Si4 0.650626 0.169159 0.132056
Si Si5 0.101927 0.669153 0.758946
Si Si6 0.349823 0.169830 0.355394
Si Si7 0.605222 0.669252 0.757943
Si Si8 0.999790 0.672311 0.934404
O O1 0.750000 0.695863 0.380822
O O2 0.621314 0.500000 0.367209
O O3 0.590591 0.759313 0.408141
O O4 0.630839 0.730247 0.301676
O O5 0.000000 0.236540 0.500000
O O6 0.084357 0.221213 0.404611
O O7 0.983120 0.000000 0.437093
O O8 0.750000 0.820463 0.892183
O O9 0.652522 0.764050 0.805500
O O10 0.587507 0.742525 0.908694
O O11 0.619124 0.000000 0.864301
O O12 0.750000 0.182351 0.108845
O O13 0.649090 0.230973 0.195041
O O14 0.588087 0.261147 0.091420
O O15 0.618735 0.000000 0.132844
O O16 0.133099 0.500000 0.766421
O O17 0.998274 0.684670 0.766645
O O18 0.250000 0.190293 0.377368
O O19 0.365607 0.271774 0.302076
O O20 0.368069 0.000000 0.338432
O O21 0.635724 0.500000 0.762806
O O22 0.998410 0.500000 0.920075
O O23 0.000000 0.705048 0.000000
#
# Coordination Sequence:
#
# PCOD8212598 Si02
#       8
#     8   8   8   8   8   8   8   8
#     4  10  21  38  60  86 117 153 191 235 290 348
#     4  10  22  39  59  83 112 151 197 244 292 342
#     4  11  24  41  63  91 123 159 196 240 297 354
#     4  11  24  40  62  93 125 158 197 241 292 352
#     4  10  20  36  60  88 120 157 194 237 293 352
#     4  10  21  37  57  82 115 154 194 239 293 351
#     4  11  21  35  60  91 120 153 193 239 292 351
#     4  11  25  44  65  89 118 157 204 250 295 344
#
# _framework density 19.559038000000001
#
# number of rings (size 3 to 8) (size 9 to 14) (size 15 to 20)
#    0.000    1.500    2.500    2.250    0.000    7.750 
#    0.000    3.750    0.000    0.000    0.000    0.000 
#    0.000    0.000    0.000    0.000    0.000    0.000 
#
# Total GULP energy -793916.623218 kJ/mol
# GULP energy per Si atom -12404.947238 kJ/mol
# Density = 1.951452 g / cm^3
# Si number density = 19.559038 Si / 1000 Ang^3
#
#
#
# Elastic Constant Matrix: (Units=GPa)
#
#
# Indices 1 2 3 4 5 6 
#
# 1 111.4479 52.2909 60.5199 0.0000 0.0000 0.0000
# 2 52.2909 92.3454 76.8802 0.0000 0.0000 0.0000
# 3 60.5199 76.8802 140.3269 0.0000 0.0000 0.0000
# 4 0.0000 0.0000 0.0000 21.0070 0.0000 0.0000
# 5 0.0000 0.0000 0.0000 0.0000 7.7459 0.0000
# 6 0.0000 0.0000 0.0000 0.0000 0.0000 68.4549
#
#
#
# Elastic Compliance Matrix: (Units=1/GPa)
#
#
# Indices 1 2 3 4 5 6 
#
# 1 0.012811 -0.004881 -0.002851 0.000000 0.000000 0.000000
# 2 -0.004881 0.021770 -0.009822 0.000000 0.000000 0.000000
# 3 -0.002851 -0.009822 0.013737 0.000000 0.000000 0.000000
# 4 0.000000 0.000000 0.000000 0.047603 0.000000 0.000000
# 5 0.000000 0.000000 0.000000 0.000000 0.129101 0.000000
# 6 0.000000 0.000000 0.000000 0.000000 0.000000 0.014608
#
#
# Mechanical properties :
#
#
# Convention : Reuss Voigt Hill
#
# Bulk Modulus (GPa) = 75.69918 80.38914 78.04416
# Shear Modulus (GPa) = 17.91213 29.73684 23.82449
#
# Velocity S-wave (km/s) = 3.02950 3.90341 3.49389
# Velocity P-wave (km/s) = 7.14311 7.84254 7.50099
#
# Compressibility (1/GPa) = 0.01321018
#
# Stress axis : x y z
#
# Youngs Moduli (GPa) = 78.05753 45.93567 72.79620
#
# Poissons Ratio (x) = 0.22419 0.20756
# Poissons Ratio (y) = 0.38096 0.71500
# Poissons Ratio (z) = 0.22256 0.45118
#
# Static dielectric constant tensor:
#      x y z
#    x 3.469150 0.000000 0.000000 
#    y 0.000000 3.622610 0.000000 
#    z 0.000000 0.000000 3.569990 
# 
# 
# High freq. dielectric constant tensor:
#      x y z
#    x 1.777270 0.000000 0.000000 
#    y 0.000000 1.764390 0.000000 
#    z 0.000000 0.000000 1.757720 
# 
# From -- ./inp_files/35717.got.cif
#   From: 2010.03.12/outbox.cif.g09.slc.cpg/sg51_18_cif.got.tgz:35717.got - 2010.04.16 13:43:02.
