data_PCOD8212366
_publ_section_title
;
Structure prediction by ZEFSAII (Michael W. Deem and Ramdas Pophale) SiO2 
 PCOD8212366
Probable space group: P M M A
;
_chemical_formula_sum "Si O2"
_cell_formula_units_Z 48
_cell_length_a 9.890507
_cell_length_b 14.282737
_cell_length_c 18.189877
_cell_angle_alpha 90.000000
_cell_angle_beta 90.000000
_cell_angle_gamma 90.000000
_cell_volume 2569.565877
_symmetry_space_group_name_H-M "P M M A"
_symmetry_group_IT_number 51
_symmetry_cell_setting 'orthorhombic'
loop_
_space_group_symop_operation_xyz
x,y,z
1/2-x,-y,z
1/2+x,-y,-z
-x,y,-z
-x,-y,-z
1/2+x,y,-z
1/2-x,y,z
x,-y,z
loop_
_atom_site_type_symbol
_atom_site_label
_atom_site_fract_x
_atom_site_fract_y
_atom_site_fract_z
Si Si1 0.402087 0.106313 0.939448
Si Si2 0.596164 0.245599 0.188419
Si Si3 0.006684 0.783206 0.653821
Si Si4 0.406835 0.394492 0.570685
Si Si5 0.906268 0.608310 0.068277
Si Si6 0.250000 0.890718 0.582953
Si Si7 0.750000 0.112284 0.590308
O O1 0.250000 0.115908 0.969662
O O2 0.417633 0.154783 0.861606
O O3 0.445439 0.000000 0.925951
O O4 0.500000 0.153161 0.000000
O O5 0.750000 0.260605 0.215892
O O6 0.502106 0.225551 0.258133
O O7 0.548360 0.335444 0.141015
O O8 0.028051 0.676584 0.628246
O O9 0.121883 0.848707 0.622490
O O10 0.874070 0.834270 0.626177
O O11 0.500000 0.386155 0.500000
O O12 0.250000 0.368424 0.552669
O O13 0.414197 0.500000 0.603004
O O14 0.750000 0.632666 0.048565
O O15 0.925231 0.500000 0.087199
O O16 0.000000 0.638067 0.000000
O O17 0.250000 0.868287 0.496535
O O18 0.250000 0.000000 0.597273
O O19 0.750000 0.000000 0.606594
#
# Coordination Sequence:
#
# PCOD8212366 Si02
#       7
#     8   8   8   8   8   4   4
#     4   9  18  33  53  76 103 139 182 226 271 328
#     4  10  20  36  55  83 114 150 192 233 288 347
#     4  12  23  40  60  89 121 157 197 250 308 360
#     4  10  21  37  61  90 118 153 195 240 291 351
#     4   9  18  34  58  86 117 154 196 239 283 341
#     4  11  22  40  67  87 108 151 205 251 303 372
#     4  11  26  44  61  87 120 155 201 257 315 368
#
# _framework density 18.680198000000001
#
# number of rings (size 3 to 8) (size 9 to 14) (size 15 to 20)
#    0.000    1.833    1.667    2.500    1.167    3.333 
#    3.000    1.667    0.000    0.000    0.000    0.000 
#    0.000    0.000    0.000    0.000    0.000    0.000 
#
# Total GULP energy -595065.410705 kJ/mol
# GULP energy per Si atom -12397.196056 kJ/mol
# Density = 1.863768 g / cm^3
# Si number density = 18.680198 Si / 1000 Ang^3
#
#
#
# Elastic Constant Matrix: (Units=GPa)
#
#
# Indices 1 2 3 4 5 6 
#
# 1 117.2117 53.5799 65.1581 0.0000 0.0000 0.0000
# 2 53.5799 116.0249 63.9828 0.0000 0.0000 0.0000
# 3 65.1581 63.9828 137.2179 0.0000 0.0000 0.0000
# 4 0.0000 0.0000 0.0000 10.6678 0.0000 0.0000
# 5 0.0000 0.0000 0.0000 0.0000 19.8847 0.0000
# 6 0.0000 0.0000 0.0000 0.0000 0.0000 19.5748
#
#
#
# Elastic Compliance Matrix: (Units=1/GPa)
#
#
# Indices 1 2 3 4 5 6 
#
# 1 0.012496 -0.003363 -0.004365 0.000000 0.000000 0.000000
# 2 -0.003363 0.012507 -0.004235 0.000000 0.000000 0.000000
# 3 -0.004365 -0.004235 0.011335 0.000000 0.000000 0.000000
# 4 0.000000 0.000000 0.000000 0.093740 0.000000 0.000000
# 5 0.000000 0.000000 0.000000 0.000000 0.050290 0.000000
# 6 0.000000 0.000000 0.000000 0.000000 0.000000 0.051086
#
#
# Mechanical properties :
#
#
# Convention : Reuss Voigt Hill
#
# Bulk Modulus (GPa) = 80.57205 81.76621 81.16913
# Shear Modulus (GPa) = 19.26644 22.54104 20.90374
#
# Velocity S-wave (km/s) = 3.21500 3.47750 3.34882
# Velocity P-wave (km/s) = 7.55034 7.74536 7.64847
#
# Compressibility (1/GPa) = 0.01241125
#
# Stress axis : x y z
#
# Youngs Moduli (GPa) = 80.02783 79.95305 88.21979
#
# Poissons Ratio (x) = 0.26889 0.38511
# Poissons Ratio (y) = 0.26914 0.37361
# Poissons Ratio (z) = 0.34935 0.33860
#
# Static dielectric constant tensor:
#      x y z
#    x 3.302320 0.000000 0.000000 
#    y 0.000000 3.743240 0.000000 
#    z 0.000000 0.000000 3.345540 
# 
# 
# High freq. dielectric constant tensor:
#      x y z
#    x 1.721440 0.000000 0.000000 
#    y 0.000000 1.747410 0.000000 
#    z 0.000000 0.000000 1.715400 
# 
# From -- ./inp_files/27623.got.cif
#   From: 2010.03.12/outbox.cif.g09.slc.cpg/sg51_14_cif.got.tgz:27623.got - 2010.04.16 13:43:02.
