data_PCOD8212457
_publ_section_title
;
Structure prediction by ZEFSAII (Michael W. Deem and Ramdas Pophale) SiO2 
 PCOD8212457
Probable space group: P M M A
;
_chemical_formula_sum "Si O2"
_cell_formula_units_Z 48
_cell_length_a 9.023788
_cell_length_b 16.621421
_cell_length_c 15.804580
_cell_angle_alpha 90.000000
_cell_angle_beta 90.000000
_cell_angle_gamma 90.000000
_cell_volume 2370.500180
_symmetry_space_group_name_H-M "P M M A"
_symmetry_group_IT_number 51
_symmetry_cell_setting 'orthorhombic'
loop_
_space_group_symop_operation_xyz
x,y,z
1/2-x,-y,z
1/2+x,-y,-z
-x,y,-z
-x,-y,-z
1/2+x,y,-z
1/2-x,y,z
x,-y,z
loop_
_atom_site_type_symbol
_atom_site_label
_atom_site_fract_x
_atom_site_fract_y
_atom_site_fract_z
Si Si1 0.580107 0.826742 0.585480
Si Si2 0.921867 0.905495 0.758020
Si Si3 0.420716 0.178570 0.914223
Si Si4 0.574217 0.500000 0.909580
Si Si5 0.579365 0.335056 0.671908
Si Si6 0.919960 0.346323 0.161648
Si Si7 0.576565 0.500000 0.588674
O O1 0.500000 0.854716 0.500000
O O2 0.750000 0.850231 0.573124
O O3 0.516922 0.873244 0.667854
O O4 0.558303 0.731018 0.598573
O O5 0.750000 0.881053 0.767427
O O6 0.009721 0.865698 0.834357
O O7 0.946642 0.000000 0.761814
O O8 0.250000 0.153136 0.919805
O O9 0.437136 0.275086 0.906282
O O10 0.500000 0.150120 0.000000
O O11 0.750000 0.500000 0.919108
O O12 0.524937 0.579146 0.860026
O O13 0.500000 0.500000 0.000000
O O14 0.750000 0.337293 0.702307
O O15 0.474337 0.310444 0.749293
O O16 0.525707 0.421592 0.639566
O O17 0.750000 0.375342 0.167091
O O18 0.750000 0.500000 0.572614
O O19 0.500000 0.500000 0.500000
#
# Coordination Sequence:
#
# PCOD8212457 Si02
#       7
#     8   8   8   4   8   8   4
#     4  10  21  37  60  89 123 163 207 255 310 369
#     4  10  22  42  66  91 123 163 206 255 313 376
#     4  11  24  41  65  95 126 163 205 253 310 372
#     4  12  25  40  59  85 121 163 207 255 304 357
#     4  10  20  36  57  83 117 160 204 251 306 366
#     4  11  23  39  61  90 121 159 207 254 306 364
#     4  10  21  34  51  79 113 153 201 245 300 357
#
# _framework density 20.248892000000001
#
# number of rings (size 3 to 8) (size 9 to 14) (size 15 to 20)
#    0.000    1.500    1.667    3.250    0.000    7.000 
#    0.000    0.000    0.000    0.000    0.000    0.000 
#    0.000    0.000    0.000    0.000    0.000    0.000 
#
# Total GULP energy -595374.445769 kJ/mol
# GULP energy per Si atom -12403.634287 kJ/mol
# Density = 2.020280 g / cm^3
# Si number density = 20.248892 Si / 1000 Ang^3
#
#
#
# Elastic Constant Matrix: (Units=GPa)
#
#
# Indices 1 2 3 4 5 6 
#
# 1 110.5884 43.0660 73.6756 0.0000 0.0000 0.0000
# 2 43.0660 88.7721 41.2056 0.0000 0.0000 0.0000
# 3 73.6756 41.2056 163.0182 0.0000 0.0000 0.0000
# 4 0.0000 0.0000 0.0000 19.0724 0.0000 0.0000
# 5 0.0000 0.0000 0.0000 0.0000 43.0466 0.0000
# 6 0.0000 0.0000 0.0000 0.0000 0.0000 24.9656
#
#
#
# Elastic Compliance Matrix: (Units=1/GPa)
#
#
# Indices 1 2 3 4 5 6 
#
# 1 0.014354 -0.004478 -0.005356 0.000000 0.000000 0.000000
# 2 -0.004478 0.014159 -0.001555 0.000000 0.000000 0.000000
# 3 -0.005356 -0.001555 0.008948 0.000000 0.000000 0.000000
# 4 0.000000 0.000000 0.000000 0.052432 0.000000 0.000000
# 5 0.000000 0.000000 0.000000 0.000000 0.023231 0.000000
# 6 0.000000 0.000000 0.000000 0.000000 0.000000 0.040055
#
#
# Mechanical properties :
#
#
# Convention : Reuss Voigt Hill
#
# Bulk Modulus (GPa) = 68.10127 75.36367 71.73247
# Shear Modulus (GPa) = 27.64719 31.04570 29.34645
#
# Velocity S-wave (km/s) = 3.69910 3.91986 3.81108
# Velocity P-wave (km/s) = 7.20760 7.60175 7.40730
#
# Compressibility (1/GPa) = 0.01468401
#
# Stress axis : x y z
#
# Youngs Moduli (GPa) = 69.66593 70.62653 111.75938
#
# Poissons Ratio (x) = 0.31625 0.59853
# Poissons Ratio (y) = 0.31195 0.17381
# Poissons Ratio (z) = 0.37310 0.10984
#
# Static dielectric constant tensor:
#      x y z
#    x 3.623850 0.000000 0.000000 
#    y 0.000000 4.154270 0.000000 
#    z 0.000000 0.000000 3.669170 
# 
# 
# High freq. dielectric constant tensor:
#      x y z
#    x 1.786440 0.000000 0.000000 
#    y 0.000000 1.794670 0.000000 
#    z 0.000000 0.000000 1.798040 
# 
# From -- ./inp_files/21209.got.cif
#   From: 2010.03.12/outbox.cif.g09.slc.cpg/sg51_11_cif.got.tgz:21209.got - 2010.04.16 13:43:02.
