data_PCOD8212262
_publ_section_title
;
Structure prediction by ZEFSAII (Michael W. Deem and Ramdas Pophale) SiO2 
 PCOD8212262
Probable space group: P M M A
;
_chemical_formula_sum "Si O2"
_cell_formula_units_Z 64
_cell_length_a 22.259055
_cell_length_b 8.744699
_cell_length_c 16.548924
_cell_angle_alpha 90.000000
_cell_angle_beta 90.000000
_cell_angle_gamma 90.000000
_cell_volume 3221.227139
_symmetry_space_group_name_H-M "P M M A"
_symmetry_group_IT_number 51
_symmetry_cell_setting 'orthorhombic'
loop_
_space_group_symop_operation_xyz
x,y,z
1/2-x,-y,z
1/2+x,-y,-z
-x,y,-z
-x,-y,-z
1/2+x,y,-z
1/2-x,y,z
x,-y,z
loop_
_atom_site_type_symbol
_atom_site_label
_atom_site_fract_x
_atom_site_fract_y
_atom_site_fract_z
Si Si1 0.679095 0.672377 0.866555
Si Si2 0.989206 0.674210 0.589290
Si Si3 0.317249 0.164056 0.288346
Si Si4 0.418893 0.179465 0.039102
Si Si5 0.030704 0.681668 0.881481
Si Si6 0.352676 0.672121 0.438292
Si Si7 0.075684 0.819795 0.716023
Si Si8 0.319965 0.680356 0.616777
O O1 0.750000 0.687199 0.877947
O O2 0.657393 0.500000 0.881734
O O3 0.655472 0.718057 0.776685
O O4 0.648144 0.784981 0.930733
O O5 0.014094 0.500000 0.596237
O O6 0.918243 0.680709 0.602067
O O7 0.000000 0.739324 0.500000
O O8 0.023145 0.779513 0.652910
O O9 0.250000 0.134971 0.259216
O O10 0.312922 0.227012 0.379151
O O11 0.351788 0.000000 0.286342
O O12 0.465811 0.239690 0.106501
O O13 0.428057 0.000000 0.025047
O O14 0.427054 0.268296 0.955268
O O15 0.022868 0.500000 0.880191
O O16 0.061678 0.735501 0.799311
O O17 0.327669 0.500000 0.437860
O O18 0.347062 0.732957 0.529933
O O19 0.141050 0.765982 0.684594
O O20 0.076894 0.000000 0.730250
O O21 0.250000 0.728629 0.623809
O O22 0.327707 0.500000 0.628996
#
# Coordination Sequence:
#
# PCOD8212262 Si02
#       8
#     8   8   8   8   8   8   8   8
#     4  10  21  38  60  86 119 161 205 243 287 352
#     4  10  20  38  60  82 114 153 196 242 291 347
#     4  10  21  35  51  77 116 156 194 242 295 344
#     4  11  22  40  65  95 127 153 189 240 302 358
#     4  11  23  42  67  91 120 157 200 242 289 354
#     4  10  20  35  58  83 110 150 200 248 293 349
#     4  12  25  40  60  89 125 157 195 245 302 354
#     4  10  21  40  64  86 113 155 205 252 299 353
#
# _framework density 19.868205
#
# number of rings (size 3 to 8) (size 9 to 14) (size 15 to 20)
#    0.000    1.500    1.250    5.250    1.750    3.500 
#    0.000    0.625    0.000    3.750    0.000    0.000 
#    0.000    0.000    0.000    0.000    0.000    0.000 
#
# Total GULP energy -793522.873735 kJ/mol
# GULP energy per Si atom -12398.794902 kJ/mol
# Density = 1.982298 g / cm^3
# Si number density = 19.868205 Si / 1000 Ang^3
#
#
#
# Elastic Constant Matrix: (Units=GPa)
#
#
# Indices 1 2 3 4 5 6 
#
# 1 75.1236 32.6713 43.3885 0.0000 0.0000 0.0000
# 2 32.6713 107.0307 35.1398 0.0000 0.0000 0.0000
# 3 43.3885 35.1398 109.3953 0.0000 0.0000 0.0000
# 4 0.0000 0.0000 0.0000 19.5802 0.0000 0.0000
# 5 0.0000 0.0000 0.0000 0.0000 29.5853 0.0000
# 6 0.0000 0.0000 0.0000 0.0000 0.0000 26.4532
#
#
#
# Elastic Compliance Matrix: (Units=1/GPa)
#
#
# Indices 1 2 3 4 5 6 
#
# 1 0.018433 -0.003607 -0.006153 0.000000 0.000000 0.000000
# 2 -0.003607 0.011150 -0.002151 0.000000 0.000000 0.000000
# 3 -0.006153 -0.002151 0.012272 0.000000 0.000000 0.000000
# 4 0.000000 0.000000 0.000000 0.051072 0.000000 0.000000
# 5 0.000000 0.000000 0.000000 0.000000 0.033801 0.000000
# 6 0.000000 0.000000 0.000000 0.000000 0.000000 0.037803
#
#
# Mechanical properties :
#
#
# Convention : Reuss Voigt Hill
#
# Bulk Modulus (GPa) = 55.44727 57.10540 56.27634
# Shear Modulus (GPa) = 25.72490 27.14708 26.43599
#
# Velocity S-wave (km/s) = 3.60221 3.70044 3.65165
# Velocity P-wave (km/s) = 6.72825 6.86019 6.79454
#
# Compressibility (1/GPa) = 0.01803515
#
# Stress axis : x y z
#
# Youngs Moduli (GPa) = 54.24911 89.68311 81.48394
#
# Poissons Ratio (x) = 0.32348 0.50133
# Poissons Ratio (y) = 0.19567 0.17528
# Poissons Ratio (z) = 0.33377 0.19292
#
# Static dielectric constant tensor:
#      x y z
#    x 3.563360 0.000000 0.000000 
#    y 0.000000 3.721450 0.000000 
#    z 0.000000 0.000000 3.579900 
# 
# 
# High freq. dielectric constant tensor:
#      x y z
#    x 1.770270 0.000000 0.000000 
#    y 0.000000 1.778340 0.000000 
#    z 0.000000 0.000000 1.771210 
# 
# From -- ./inp_files/26346.got.cif
#   From: 2010.03.12/outbox.cif.g09.slc.cpg/sg51_14_cif.got.tgz:26346.got - 2010.04.16 13:43:02.
