data_PCOD8212940
_publ_section_title
;
Structure prediction by ZEFSAII (Michael W. Deem and Ramdas Pophale) SiO2 
 PCOD8212940
Probable space group: P M M A
;
_chemical_formula_sum "Si O2"
_cell_formula_units_Z 44
_cell_length_a 9.555187
_cell_length_b 28.421322
_cell_length_c 9.345270
_cell_angle_alpha 90.000000
_cell_angle_beta 90.000000
_cell_angle_gamma 90.000000
_cell_volume 2537.904754
_symmetry_space_group_name_H-M "P M M A"
_symmetry_group_IT_number 51
_symmetry_cell_setting 'orthorhombic'
loop_
_space_group_symop_operation_xyz
x,y,z
1/2-x,-y,z
1/2+x,-y,-z
-x,y,-z
-x,-y,-z
1/2+x,y,-z
1/2-x,y,z
x,-y,z
loop_
_atom_site_type_symbol
_atom_site_label
_atom_site_fract_x
_atom_site_fract_y
_atom_site_fract_z
Si Si1 0.909927 0.049689 0.640504
Si Si2 0.411815 0.579078 0.363558
Si Si3 0.913505 0.766113 0.855921
Si Si4 0.913388 0.151822 0.645499
Si Si5 0.588635 0.313575 0.636321
Si Si6 0.412572 0.500000 0.142597
O O1 0.750000 0.050557 0.590524
O O2 0.941648 0.099770 0.717474
O O3 0.000000 0.047968 0.500000
O O4 0.938390 0.000000 0.728241
O O5 0.500000 0.562744 0.500000
O O6 0.250000 0.572411 0.404122
O O7 0.446783 0.632780 0.321332
O O8 0.453501 0.546554 0.230746
O O9 0.750000 0.769430 0.893228
O O10 0.963224 0.810279 0.760999
O O11 0.949727 0.718318 0.771734
O O12 0.000000 0.766190 0.000000
O O13 0.750000 0.159315 0.608491
O O14 0.000000 0.158526 0.500000
O O15 0.500000 0.296887 0.500000
O O16 0.750000 0.307333 0.593350
O O17 0.250000 0.500000 0.102292
O O18 0.500000 0.500000 0.000000
#
# Coordination Sequence:
#
# PCOD8212940 Si02
#       6
#     8   8   8   8   8   4
#     4   8  13  22  38  61  87 112 139 176 222 266
#     4   9  18  33  52  73  96 122 154 192 231 272
#     4  10  21  34  47  66  93 123 154 188 226 270
#     4   9  17  29  46  68  91 116 149 187 225 268
#     4   9  18  33  52  73  95 119 151 191 232 274
#     4  10  21  34  48  70 100 130 159 192 228 268
#
# _framework density 17.337136999999998
#
# number of rings (size 3 to 8) (size 9 to 14) (size 15 to 20)
#    0.000    2.909    0.000    0.818    0.000    2.909 
#    0.000    0.000    0.000    0.545    0.000    0.000 
#    0.000    0.000    0.000    0.000    0.000    0.000 
#
# Total GULP energy -545200.826580 kJ/mol
# GULP energy per Si atom -12390.927877 kJ/mol
# Density = 1.729768 g / cm^3
# Si number density = 17.337137 Si / 1000 Ang^3
#
#
#
# Elastic Constant Matrix: (Units=GPa)
#
#
# Indices 1 2 3 4 5 6 
#
# 1 54.0808 47.6254 59.2932 0.0000 0.0000 0.0000
# 2 47.6254 141.0939 81.8569 0.0000 0.0000 0.0000
# 3 59.2932 81.8569 124.8614 0.0000 0.0000 0.0000
# 4 0.0000 0.0000 0.0000 7.4593 0.0000 0.0000
# 5 0.0000 0.0000 0.0000 0.0000 33.4164 0.0000
# 6 0.0000 0.0000 0.0000 0.0000 0.0000 17.6131
#
#
#
# Elastic Compliance Matrix: (Units=1/GPa)
#
#
# Indices 1 2 3 4 5 6 
#
# 1 0.039924 -0.003997 -0.016338 0.000000 0.000000 0.000000
# 2 -0.003997 0.011838 -0.005863 0.000000 0.000000 0.000000
# 3 -0.016338 -0.005863 0.019611 0.000000 0.000000 0.000000
# 4 0.000000 0.000000 0.000000 0.134061 0.000000 0.000000
# 5 0.000000 0.000000 0.000000 0.000000 0.029925 0.000000
# 6 0.000000 0.000000 0.000000 0.000000 0.000000 0.056776
#
#
# Mechanical properties :
#
#
# Convention : Reuss Voigt Hill
#
# Bulk Modulus (GPa) = 52.69657 77.50969 65.10313
# Shear Modulus (GPa) = 14.25085 20.44847 17.34966
#
# Velocity S-wave (km/s) = 2.87014 3.43805 3.16685
# Velocity P-wave (km/s) = 6.43776 7.78233 7.14176
#
# Compressibility (1/GPa) = 0.01897657
#
# Stress axis : x y z
#
# Youngs Moduli (GPa) = 25.04769 84.47397 50.99243
#
# Poissons Ratio (x) = 0.33767 0.83312
# Poissons Ratio (y) = 0.10012 0.29894
# Poissons Ratio (z) = 0.40923 0.49523
#
# Static dielectric constant tensor:
#      x y z
#    x 3.267450 0.000000 0.000000 
#    y 0.000000 3.964470 0.000000 
#    z 0.000000 0.000000 2.882140 
# 
# 
# High freq. dielectric constant tensor:
#      x y z
#    x 1.669920 0.000000 0.000000 
#    y 0.000000 1.701390 0.000000 
#    z 0.000000 0.000000 1.625440 
# 
# From -- ./inp_files/5821.got.cif
#   From: 2010.03.12/outbox.cif.g09.slc.cpg/sg51_3_cif.got.tgz:5821.got - 2010.04.16 13:43:02.
