data_PCOD8212352
_publ_section_title
;
Structure prediction by ZEFSAII (Michael W. Deem and Ramdas Pophale) SiO2 
 PCOD8212352
Probable space group: P M M A
;
_chemical_formula_sum "Si O2"
_cell_formula_units_Z 48
_cell_length_a 28.733261
_cell_length_b 9.565414
_cell_length_c 9.759166
_cell_angle_alpha 90.000000
_cell_angle_beta 90.000000
_cell_angle_gamma 90.000000
_cell_volume 2682.263220
_symmetry_space_group_name_H-M "P M M A"
_symmetry_group_IT_number 51
_symmetry_cell_setting 'orthorhombic'
loop_
_space_group_symop_operation_xyz
x,y,z
1/2-x,-y,z
1/2+x,-y,-z
-x,y,-z
-x,-y,-z
1/2+x,y,-z
1/2-x,y,z
x,-y,z
loop_
_atom_site_type_symbol
_atom_site_label
_atom_site_fract_x
_atom_site_fract_y
_atom_site_fract_z
Si Si1 0.019311 0.663520 0.353697
Si Si2 0.127608 0.163291 0.997601
Si Si3 0.803689 0.160084 0.238820
Si Si4 0.968335 0.156733 0.131916
Si Si5 0.696431 0.337468 0.497519
Si Si6 0.377062 0.336308 0.272312
O O1 0.012381 0.500000 0.330851
O O2 0.073408 0.705765 0.338687
O O3 0.000000 0.711651 0.500000
O O4 0.987818 0.739076 0.243267
O O5 0.171106 0.200752 0.901857
O O6 0.082491 0.208333 0.911789
O O7 0.125436 0.000000 0.037543
O O8 0.131914 0.251604 0.134790
O O9 0.750000 0.188575 0.210026
O O10 0.821297 0.253902 0.364748
O O11 0.814008 0.000000 0.278706
O O12 0.966728 0.000000 0.193314
O O13 0.000000 0.161457 0.000000
O O14 0.750000 0.299773 0.533958
O O15 0.690779 0.500000 0.463143
O O16 0.663946 0.293773 0.623870
O O17 0.375553 0.500000 0.237396
#
# Coordination Sequence:
#
# PCOD8212352 Si02
#       6
#     8   8   8   8   8   8
#     4  10  22  37  53  77 107 139 175 217 260 307
#     4  10  21  36  54  78 107 138 174 216 261 309
#     4   9  19  36  56  79 106 135 171 215 261 311
#     4  10  20  36  55  76 105 140 175 213 257 307
#     4   9  19  36  56  78 106 138 172 215 263 310
#     4  10  21  36  53  77 107 138 175 215 259 310
#
# _framework density 17.895334999999999
#
# number of rings (size 3 to 8) (size 9 to 14) (size 15 to 20)
#    0.000    2.333    1.667    0.000    2.333    3.333 
#    0.000    0.000    0.000    0.000    0.000    0.000 
#    0.000    0.000    0.000    0.000    0.000    0.000 
#
# Total GULP energy -595308.444958 kJ/mol
# GULP energy per Si atom -12402.259270 kJ/mol
# Density = 1.785460 g / cm^3
# Si number density = 17.895335 Si / 1000 Ang^3
#
#
#
# Elastic Constant Matrix: (Units=GPa)
#
#
# Indices 1 2 3 4 5 6 
#
# 1 106.8823 47.6818 82.6653 0.0000 0.0000 0.0000
# 2 47.6818 54.3890 65.4535 0.0000 0.0000 0.0000
# 3 82.6653 65.4535 138.9800 0.0000 0.0000 0.0000
# 4 0.0000 0.0000 0.0000 56.8842 0.0000 0.0000
# 5 0.0000 0.0000 0.0000 0.0000 33.3927 0.0000
# 6 0.0000 0.0000 0.0000 0.0000 0.0000 24.5631
#
#
#
# Elastic Compliance Matrix: (Units=1/GPa)
#
#
# Indices 1 2 3 4 5 6 
#
# 1 0.018361 -0.006818 -0.007710 0.000000 0.000000 0.000000
# 2 -0.006818 0.044971 -0.017124 0.000000 0.000000 0.000000
# 3 -0.007710 -0.017124 0.019846 0.000000 0.000000 0.000000
# 4 0.000000 0.000000 0.000000 0.017580 0.000000 0.000000
# 5 0.000000 0.000000 0.000000 0.000000 0.029947 0.000000
# 6 0.000000 0.000000 0.000000 0.000000 0.000000 0.040712
#
#
# Mechanical properties :
#
#
# Convention : Reuss Voigt Hill
#
# Bulk Modulus (GPa) = 50.31842 76.87249 63.59546
# Shear Modulus (GPa) = 20.71737 29.93138 25.32438
#
# Velocity S-wave (km/s) = 3.40619 4.09416 3.76591
# Velocity P-wave (km/s) = 6.60672 8.08699 7.38404
#
# Compressibility (1/GPa) = 0.01987344
#
# Stress axis : x y z
#
# Youngs Moduli (GPa) = 54.46375 22.23668 50.38872
#
# Poissons Ratio (x) = 0.15161 0.38849
# Poissons Ratio (y) = 0.37134 0.86285
# Poissons Ratio (z) = 0.41991 0.38078
#
# Static dielectric constant tensor:
#      x y z
#    x 3.513570 0.000000 0.000000 
#    y 0.000000 3.314870 0.000000 
#    z 0.000000 0.000000 3.241130 
# 
# 
# High freq. dielectric constant tensor:
#      x y z
#    x 1.705520 0.000000 0.000000 
#    y 0.000000 1.689000 0.000000 
#    z 0.000000 0.000000 1.691710 
# 
# From -- ./inp_files/12822.got.cif
#   From: 2010.03.12/outbox.cif.g09.slc.cpg/sg51_7_cif.got.tgz:12822.got - 2010.04.16 13:43:02.
