data_PCOD8212225
_publ_section_title
;
Structure prediction by ZEFSAII (Michael W. Deem and Ramdas Pophale) SiO2 
 PCOD8212225
Probable space group: P M M A
;
_chemical_formula_sum "Si O2"
_cell_formula_units_Z 56
_cell_length_a 21.632155
_cell_length_b 9.275856
_cell_length_c 14.715244
_cell_angle_alpha 90.000000
_cell_angle_beta 90.000000
_cell_angle_gamma 90.000000
_cell_volume 2952.713106
_symmetry_space_group_name_H-M "P M M A"
_symmetry_group_IT_number 51
_symmetry_cell_setting 'orthorhombic'
loop_
_space_group_symop_operation_xyz
x,y,z
1/2-x,-y,z
1/2+x,-y,-z
-x,y,-z
-x,-y,-z
1/2+x,y,-z
1/2-x,y,z
x,-y,z
loop_
_atom_site_type_symbol
_atom_site_label
_atom_site_fract_x
_atom_site_fract_y
_atom_site_fract_z
Si Si1 0.458355 0.168661 0.799644
Si Si2 0.882583 0.839626 0.375758
Si Si3 0.750000 0.156020 0.305298
Si Si4 0.750000 0.331009 0.137931
Si Si5 0.137928 0.170048 0.952381
Si Si6 0.931220 0.337961 0.535971
Si Si7 0.677715 0.666648 0.877759
Si Si8 0.574408 0.333126 0.739466
O O1 0.415714 0.223177 0.715115
O O2 0.425007 0.200294 0.896306
O O3 0.523386 0.250871 0.799580
O O4 0.471367 0.000000 0.790397
O O5 0.809506 0.839071 0.367375
O O6 0.890570 0.748527 0.465792
O O7 0.908478 0.000000 0.392425
O O8 0.750000 0.298006 0.244003
O O9 0.750000 0.000000 0.251302
O O10 0.750000 0.500000 0.117496
O O11 0.809285 0.256979 0.097235
O O12 0.152251 0.000000 0.955070
O O13 0.137645 0.234068 0.053906
O O14 0.905644 0.500000 0.538954
O O15 0.925956 0.270055 0.636951
O O16 0.000000 0.330930 0.500000
O O17 0.750000 0.714988 0.870639
O O18 0.674438 0.500000 0.909211
O O19 0.643073 0.687105 0.781355
O O20 0.554704 0.500000 0.738041
#
# Coordination Sequence:
#
# PCOD8212225 Si02
#       8
#     8   8   4   4   8   8   8   8
#     4  10  21  36  58  88 118 151 189 233 290 352
#     4  10  20  35  57  83 115 155 193 238 290 345
#     4  10  20  38  56  79 120 159 194 235 292 350
#     4  12  22  32  54  87 118 153 196 235 278 342
#     4  11  22  38  60  86 118 153 190 235 288 341
#     4  10  20  36  58  84 113 148 192 238 289 348
#     4  10  22  41  62  84 111 152 203 241 281 342
#     4  10  22  40  60  83 117 154 189 244 299 341
#
# _framework density 18.965608
#
# number of rings (size 3 to 8) (size 9 to 14) (size 15 to 20)
#    0.000    1.714    3.571    1.071    0.000    3.714 
#    1.286    2.857    0.000    0.000    0.000    0.000 
#    0.000    0.000    0.000    0.000    0.000    0.000 
#
# Total GULP energy -694181.774524 kJ/mol
# GULP energy per Si atom -12396.103116 kJ/mol
# Density = 1.892244 g / cm^3
# Si number density = 18.965608 Si / 1000 Ang^3
#
#
#
# Elastic Constant Matrix: (Units=GPa)
#
#
# Indices 1 2 3 4 5 6 
#
# 1 92.7242 35.9473 48.5744 0.0000 0.0000 0.0000
# 2 35.9473 71.3136 47.1530 0.0000 0.0000 0.0000
# 3 48.5744 47.1530 123.8415 0.0000 0.0000 0.0000
# 4 0.0000 0.0000 0.0000 29.5318 0.0000 0.0000
# 5 0.0000 0.0000 0.0000 0.0000 19.6799 0.0000
# 6 0.0000 0.0000 0.0000 0.0000 0.0000 25.0750
#
#
#
# Elastic Compliance Matrix: (Units=1/GPa)
#
#
# Indices 1 2 3 4 5 6 
#
# 1 0.014714 -0.004812 -0.003939 0.000000 0.000000 0.000000
# 2 -0.004812 0.020315 -0.005847 0.000000 0.000000 0.000000
# 3 -0.003939 -0.005847 0.011846 0.000000 0.000000 0.000000
# 4 0.000000 0.000000 0.000000 0.033862 0.000000 0.000000
# 5 0.000000 0.000000 0.000000 0.000000 0.050813 0.000000
# 6 0.000000 0.000000 0.000000 0.000000 0.000000 0.039880
#
#
# Mechanical properties :
#
#
# Convention : Reuss Voigt Hill
#
# Bulk Modulus (GPa) = 56.56923 61.24762 58.90843
# Shear Modulus (GPa) = 24.21080 25.27099 24.74089
#
# Velocity S-wave (km/s) = 3.57678 3.65425 3.61572
# Velocity P-wave (km/s) = 6.85199 7.08300 6.96845
#
# Compressibility (1/GPa) = 0.01767746
#
# Stress axis : x y z
#
# Youngs Moduli (GPa) = 67.96364 49.22555 84.41562
#
# Poissons Ratio (x) = 0.23689 0.33250
# Poissons Ratio (y) = 0.32707 0.49360
# Poissons Ratio (z) = 0.26770 0.28784
#
# Static dielectric constant tensor:
#      x y z
#    x 2.751630 0.000000 0.000000 
#    y 0.000000 3.722630 0.000000 
#    z 0.000000 0.000000 3.607610 
# 
# 
# High freq. dielectric constant tensor:
#      x y z
#    x 1.733260 0.000000 0.000000 
#    y 0.000000 1.732540 0.000000 
#    z 0.000000 0.000000 1.735640 
# 
# From -- ./inp_files/25839.got.cif
#   From: 2010.03.12/outbox.cif.g09.slc.cpg/sg51_13_cif.got.tgz:25839.got - 2010.04.16 13:43:02.
