data_PCOD8212101
_publ_section_title
;
Structure prediction by ZEFSAII (Michael W. Deem and Ramdas Pophale) SiO2 
 PCOD8212101
Probable space group: P M M A
;
_chemical_formula_sum "Si O2"
_cell_formula_units_Z 64
_cell_length_a 18.498641
_cell_length_b 9.233201
_cell_length_c 20.256418
_cell_angle_alpha 90.000000
_cell_angle_beta 90.000000
_cell_angle_gamma 90.000000
_cell_volume 3459.830034
_symmetry_space_group_name_H-M "P M M A"
_symmetry_group_IT_number 51
_symmetry_cell_setting 'orthorhombic'
loop_
_space_group_symop_operation_xyz
x,y,z
1/2-x,-y,z
1/2+x,-y,-z
-x,y,-z
-x,-y,-z
1/2+x,y,-z
1/2-x,y,z
x,-y,z
loop_
_atom_site_type_symbol
_atom_site_label
_atom_site_fract_x
_atom_site_fract_y
_atom_site_fract_z
Si Si1 0.830958 0.332744 0.282399
Si Si2 0.423564 0.171238 0.471979
Si Si3 0.833379 0.828170 0.653344
Si Si4 0.552154 0.670129 0.176712
Si Si5 0.593021 0.172458 0.790961
Si Si6 0.165254 0.163613 0.594471
Si Si7 0.573087 0.328849 0.030899
Si Si8 0.834760 0.665713 0.910698
O O1 0.750000 0.274957 0.268549
O O2 0.830204 0.500000 0.299942
O O3 0.877280 0.297341 0.218798
O O4 0.866852 0.254239 0.345001
O O5 0.500000 0.235344 0.500000
O O6 0.389923 0.232215 0.402715
O O7 0.365392 0.220191 0.525819
O O8 0.431992 0.000000 0.464397
O O9 0.750000 0.769593 0.645081
O O10 0.864751 0.780271 0.724486
O O11 0.830538 0.000000 0.647662
O O12 0.531708 0.500000 0.175112
O O13 0.486167 0.757624 0.208448
O O14 0.575713 0.732230 0.105176
O O15 0.636603 0.231188 0.853557
O O16 0.586596 0.000000 0.795772
O O17 0.250000 0.182444 0.589975
O O18 0.140513 0.000000 0.606840
O O19 0.572774 0.500000 0.036118
O O20 0.500000 0.267502 0.000000
O O21 0.637718 0.278902 0.982501
O O22 0.750000 0.675895 0.912230
O O23 0.861290 0.500000 0.898015
#
# Coordination Sequence:
#
# PCOD8212101 Si02
#       8
#     8   8   8   8   8   8   8   8
#     4   9  19  34  52  76 105 137 170 207 257 314
#     4   9  17  28  46  73 102 130 165 213 257 299
#     4   9  18  32  48  69 101 138 173 211 258 308
#     4  10  20  35  56  77 105 140 175 218 262 310
#     4  11  22  34  53  79 108 142 177 216 264 318
#     4   9  17  30  51  75  99 130 166 205 250 303
#     4   9  16  31  54  76  99 130 170 213 256 300
#     4  10  20  35  57  82 106 136 177 222 265 312
#
# _framework density 18.498017999999998
#
# number of rings (size 3 to 8) (size 9 to 14) (size 15 to 20)
#    0.000    2.500    1.250    1.125    1.750    3.250 
#    0.000    3.750    0.000    1.875    0.000    3.500 
#    0.000    0.000    0.000    0.000    0.000    0.000 
#
# Total GULP energy -793119.413252 kJ/mol
# GULP energy per Si atom -12392.490832 kJ/mol
# Density = 1.845592 g / cm^3
# Si number density = 18.498018 Si / 1000 Ang^3
#
#
#
# Elastic Constant Matrix: (Units=GPa)
#
#
# Indices 1 2 3 4 5 6 
#
# 1 93.0112 32.4931 66.6518 0.0000 0.0000 0.0000
# 2 32.4931 32.1984 41.3446 0.0000 0.0000 0.0000
# 3 66.6518 41.3446 154.9637 0.0000 0.0000 0.0000
# 4 0.0000 0.0000 0.0000 32.2524 0.0000 0.0000
# 5 0.0000 0.0000 0.0000 0.0000 28.8719 0.0000
# 6 0.0000 0.0000 0.0000 0.0000 0.0000 20.2082
#
#
#
# Elastic Compliance Matrix: (Units=1/GPa)
#
#
# Indices 1 2 3 4 5 6 
#
# 1 0.018477 -0.012841 -0.004521 0.000000 0.000000 0.000000
# 2 -0.012841 0.056166 -0.009462 0.000000 0.000000 0.000000
# 3 -0.004521 -0.009462 0.010922 0.000000 0.000000 0.000000
# 4 0.000000 0.000000 0.000000 0.031005 0.000000 0.000000
# 5 0.000000 0.000000 0.000000 0.000000 0.034636 0.000000
# 6 0.000000 0.000000 0.000000 0.000000 0.000000 0.049485
#
#
# Mechanical properties :
#
#
# Convention : Reuss Voigt Hill
#
# Bulk Modulus (GPa) = 31.33142 62.35024 46.84083
# Shear Modulus (GPa) = 18.86944 25.57874 22.22409
#
# Velocity S-wave (km/s) = 3.19733 3.72261 3.46993
# Velocity P-wave (km/s) = 5.53218 7.22888 6.43668
#
# Compressibility (1/GPa) = 0.03191684
#
# Stress axis : x y z
#
# Youngs Moduli (GPa) = 54.12062 17.80446 91.55530
#
# Poissons Ratio (x) = 0.22862 0.41396
# Poissons Ratio (y) = 0.69494 0.86631
# Poissons Ratio (z) = 0.24470 0.16847
#
# Static dielectric constant tensor:
#      x y z
#    x 3.624680 0.000000 0.000000 
#    y 0.000000 3.054180 0.000000 
#    z 0.000000 0.000000 3.796770 
# 
# 
# High freq. dielectric constant tensor:
#      x y z
#    x 1.726230 0.000000 0.000000 
#    y 0.000000 1.667400 0.000000 
#    z 0.000000 0.000000 1.734550 
# 
# From -- ./inp_files/30623.got.cif
#   From: 2010.03.12/outbox.cif.g09.slc.cpg/sg51_16_cif.got.tgz:30623.got - 2010.04.16 13:43:02.
