data_PCOD8212781
_publ_section_title
;
Structure prediction by ZEFSAII (Michael W. Deem and Ramdas Pophale) SiO2 
 PCOD8212781
Probable space group: P M M A
;
_chemical_formula_sum "Si O2"
_cell_formula_units_Z 48
_cell_length_a 8.830269
_cell_length_b 14.958420
_cell_length_c 18.949559
_cell_angle_alpha 90.000000
_cell_angle_beta 90.000000
_cell_angle_gamma 90.000000
_cell_volume 2502.987982
_symmetry_space_group_name_H-M "P M M A"
_symmetry_group_IT_number 51
_symmetry_cell_setting 'orthorhombic'
loop_
_space_group_symop_operation_xyz
x,y,z
1/2-x,-y,z
1/2+x,-y,-z
-x,y,-z
-x,-y,-z
1/2+x,y,-z
1/2-x,y,z
x,-y,z
loop_
_atom_site_type_symbol
_atom_site_label
_atom_site_fract_x
_atom_site_fract_y
_atom_site_fract_z
Si Si1 0.572781 0.000000 0.923849
Si Si2 0.574257 0.896606 0.329024
Si Si3 0.428635 0.500000 0.923937
Si Si4 0.928123 0.249438 0.575988
Si Si5 0.927903 0.846550 0.818275
Si Si6 0.924161 0.602768 0.331643
Si Si7 0.073890 0.338780 0.826805
O O1 0.521076 0.912652 0.880641
O O2 0.750000 0.000000 0.935335
O O3 0.500000 0.000000 0.000000
O O4 0.750000 0.870820 0.331497
O O5 0.488069 0.840481 0.387973
O O6 0.514935 0.873169 0.252048
O O7 0.546128 0.000000 0.346255
O O8 0.250000 0.500000 0.930159
O O9 0.482472 0.587799 0.882398
O O10 0.500000 0.500000 0.000000
O O11 0.750000 0.241717 0.568194
O O12 0.000000 0.260731 0.500000
O O13 0.967639 0.336298 0.621651
O O14 0.750000 0.853549 0.803090
O O15 0.972687 0.747609 0.841878
O O16 0.750000 0.624368 0.350069
O O17 0.962517 0.500000 0.347988
O O18 0.957330 0.622510 0.250356
O O19 0.250000 0.314688 0.836666
#
# Coordination Sequence:
#
# PCOD8212781 Si02
#       7
#     4   8   4   8   8   8   8
#     4  10  24  42  60  86 125 162 203 252 308 364
#     4  11  23  40  65  94 123 161 206 250 304 371
#     4  10  22  40  60  88 125 166 205 254 313 363
#     4  12  26  43  64  92 128 165 203 255 310 364
#     4  11  22  38  61  92 124 158 202 256 307 361
#     4  10  20  38  65  93 122 160 207 257 305 363
#     4  10  20  37  62  89 119 160 207 250 302 368
#
# _framework density 19.177081000000001
#
# number of rings (size 3 to 8) (size 9 to 14) (size 15 to 20)
#    0.000    1.333    3.333    2.500    0.000    4.667 
#    0.000    3.333    0.000    0.000    0.000    0.000 
#    0.000    0.000    0.000    0.000    0.000    0.000 
#
# Total GULP energy -595450.154630 kJ/mol
# GULP energy per Si atom -12405.211555 kJ/mol
# Density = 1.913343 g / cm^3
# Si number density = 19.177081 Si / 1000 Ang^3
#
#
#
# Elastic Constant Matrix: (Units=GPa)
#
#
# Indices 1 2 3 4 5 6 
#
# 1 95.2519 64.0029 51.2461 0.0000 0.0000 0.0000
# 2 64.0029 134.3464 49.7576 0.0000 0.0000 0.0000
# 3 51.2461 49.7576 120.0989 0.0000 0.0000 0.0000
# 4 0.0000 0.0000 0.0000 44.1066 0.0000 0.0000
# 5 0.0000 0.0000 0.0000 0.0000 36.5951 0.0000
# 6 0.0000 0.0000 0.0000 0.0000 0.0000 26.8739
#
#
#
# Elastic Compliance Matrix: (Units=1/GPa)
#
#
# Indices 1 2 3 4 5 6 
#
# 1 0.017452 -0.006563 -0.004728 0.000000 0.000000 0.000000
# 2 -0.006563 0.011261 -0.001865 0.000000 0.000000 0.000000
# 3 -0.004728 -0.001865 0.011116 0.000000 0.000000 0.000000
# 4 0.000000 0.000000 0.000000 0.022672 0.000000 0.000000
# 5 0.000000 0.000000 0.000000 0.000000 0.027326 0.000000
# 6 0.000000 0.000000 0.000000 0.000000 0.000000 0.037211
#
#
# Mechanical properties :
#
#
# Convention : Reuss Voigt Hill
#
# Bulk Modulus (GPa) = 73.97649 75.52338 74.74994
# Shear Modulus (GPa) = 31.67448 33.82783 32.75115
#
# Velocity S-wave (km/s) = 4.06850 4.20452 4.13707
# Velocity P-wave (km/s) = 7.79291 7.93967 7.86663
#
# Compressibility (1/GPa) = 0.01351781
#
# Stress axis : x y z
#
# Youngs Moduli (GPa) = 57.30009 88.80298 89.95751
#
# Poissons Ratio (x) = 0.58283 0.42528
# Poissons Ratio (y) = 0.37607 0.16776
# Poissons Ratio (z) = 0.27089 0.16561
#
# Static dielectric constant tensor:
#      x y z
#    x 3.505150 0.000000 0.000000 
#    y 0.000000 3.538890 0.000000 
#    z 0.000000 0.000000 3.150970 
# 
# 
# High freq. dielectric constant tensor:
#      x y z
#    x 1.746780 0.000000 0.000000 
#    y 0.000000 1.764850 0.000000 
#    z 0.000000 0.000000 1.747360 
# 
# From -- ./inp_files/27605.got.cif
#   From: 2010.03.12/outbox.cif.g09.slc.cpg/sg51_14_cif.got.tgz:27605.got - 2010.04.16 13:43:02.
