data_PCOD8212615
_publ_section_title
;
Structure prediction by ZEFSAII (Michael W. Deem and Ramdas Pophale) SiO2 
 PCOD8212615
Probable space group: P M M A
;
_chemical_formula_sum "Si O2"
_cell_formula_units_Z 48
_cell_length_a 19.198117
_cell_length_b 7.809222
_cell_length_c 16.352370
_cell_angle_alpha 90.000000
_cell_angle_beta 90.000000
_cell_angle_gamma 90.000000
_cell_volume 2451.585863
_symmetry_space_group_name_H-M "P M M A"
_symmetry_group_IT_number 51
_symmetry_cell_setting 'orthorhombic'
loop_
_space_group_symop_operation_xyz
x,y,z
1/2-x,-y,z
1/2+x,-y,-z
-x,y,-z
-x,-y,-z
1/2+x,y,-z
1/2-x,y,z
x,-y,z
loop_
_atom_site_type_symbol
_atom_site_label
_atom_site_fract_x
_atom_site_fract_y
_atom_site_fract_z
Si Si1 0.572231 0.500000 0.046869
Si Si2 0.171362 0.500000 0.103696
Si Si3 0.551336 0.805007 0.164876
Si Si4 0.076973 0.297976 0.656525
Si Si5 0.421642 0.305848 0.366911
Si Si6 0.329137 0.803383 0.513002
Si Si7 0.608817 0.809139 0.803023
O O1 0.582541 0.671323 0.100421
O O2 0.500000 0.500000 0.000000
O O3 0.631654 0.500000 0.980652
O O4 0.250000 0.500000 0.076724
O O5 0.158184 0.329735 0.156274
O O6 0.586451 0.777870 0.252981
O O7 0.469614 0.765529 0.170810
O O8 0.565267 0.000000 0.135346
O O9 0.086028 0.500000 0.658721
O O10 0.138308 0.217793 0.602581
O O11 0.001484 0.244064 0.619079
O O12 0.424185 0.500000 0.335237
O O13 0.377253 0.297957 0.449402
O O14 0.385155 0.196559 0.295541
O O15 0.250000 0.731071 0.512411
O O16 0.329064 0.000000 0.487075
O O17 0.630641 0.000000 0.831482
#
# Coordination Sequence:
#
# PCOD8212615 Si02
#       7
#     4   4   8   8   8   8   8
#     4  12  22  40  68  91 123 154 197 250 295 365
#     4  12  26  42  60  89 127 163 195 242 302 364
#     4  10  20  37  66  98 121 151 199 254 306 354
#     4  10  20  37  62  89 118 153 202 257 302 354
#     4  10  20  36  61  88 119 154 203 255 303 351
#     4  11  24  38  52  80 122 166 210 252 299 355
#     4  10  20  38  63  91 121 159 200 246 303 361
#
# _framework density 19.579162
#
# number of rings (size 3 to 8) (size 9 to 14) (size 15 to 20)
#    0.000    1.500    3.333    2.000    0.000    7.333 
#    0.000    0.833    0.000    1.000    0.000    0.000 
#    0.000    0.000    0.000    0.000    0.000    0.000 
#
# Total GULP energy -595312.184716 kJ/mol
# GULP energy per Si atom -12402.337182 kJ/mol
# Density = 1.953460 g / cm^3
# Si number density = 19.579162 Si / 1000 Ang^3
#
#
#
# Elastic Constant Matrix: (Units=GPa)
#
#
# Indices 1 2 3 4 5 6 
#
# 1 95.9055 29.2301 49.9256 0.0000 0.0000 0.0000
# 2 29.2301 102.6693 41.5226 0.0000 0.0000 0.0000
# 3 49.9256 41.5226 99.8208 0.0000 0.0000 0.0000
# 4 0.0000 0.0000 0.0000 12.7168 0.0000 0.0000
# 5 0.0000 0.0000 0.0000 0.0000 20.9778 0.0000
# 6 0.0000 0.0000 0.0000 0.0000 0.0000 19.2477
#
#
#
# Elastic Compliance Matrix: (Units=1/GPa)
#
#
# Indices 1 2 3 4 5 6 
#
# 1 0.014266 -0.001414 -0.006547 0.000000 0.000000 0.000000
# 2 -0.001414 0.011850 -0.004222 0.000000 0.000000 0.000000
# 3 -0.006547 -0.004222 0.015049 0.000000 0.000000 0.000000
# 4 0.000000 0.000000 0.000000 0.078636 0.000000 0.000000
# 5 0.000000 0.000000 0.000000 0.000000 0.047669 0.000000
# 6 0.000000 0.000000 0.000000 0.000000 0.000000 0.051954
#
#
# Mechanical properties :
#
#
# Convention : Reuss Voigt Hill
#
# Bulk Modulus (GPa) = 59.52792 59.97247 59.75020
# Shear Modulus (GPa) = 20.04885 22.43628 21.24257
#
# Velocity S-wave (km/s) = 3.20345 3.38883 3.29744
# Velocity P-wave (km/s) = 6.64474 6.78303 6.71424
#
# Compressibility (1/GPa) = 0.01679884
#
# Stress axis : x y z
#
# Youngs Moduli (GPa) = 70.09650 84.38761 66.45030
#
# Poissons Ratio (x) = 0.11930 0.43506
# Poissons Ratio (y) = 0.09910 0.28057
# Poissons Ratio (z) = 0.45893 0.35630
#
# Static dielectric constant tensor:
#      x y z
#    x 3.199440 0.000000 0.000000 
#    y 0.000000 3.650310 0.000000 
#    z 0.000000 0.000000 3.506720 
# 
# 
# High freq. dielectric constant tensor:
#      x y z
#    x 1.733540 0.000000 0.000000 
#    y 0.000000 1.778220 0.000000 
#    z 0.000000 0.000000 1.761280 
# 
# From -- ./inp_files/24916.got.cif
#   From: 2010.03.12/outbox.cif.g09.slc.cpg/sg51_13_cif.got.tgz:24916.got - 2010.04.16 13:43:02.
