data_PCOD8212688
_publ_section_title
;
Structure prediction by ZEFSAII (Michael W. Deem and Ramdas Pophale) SiO2 
 PCOD8212688
Probable space group: P M M A
;
_chemical_formula_sum "Si O2"
_cell_formula_units_Z 48
_cell_length_a 10.092929
_cell_length_b 9.306791
_cell_length_c 29.544911
_cell_angle_alpha 90.000000
_cell_angle_beta 90.000000
_cell_angle_gamma 90.000000
_cell_volume 2775.235648
_symmetry_space_group_name_H-M "P M M A"
_symmetry_group_IT_number 51
_symmetry_cell_setting 'orthorhombic'
loop_
_space_group_symop_operation_xyz
x,y,z
1/2-x,-y,z
1/2+x,-y,-z
-x,y,-z
-x,-y,-z
1/2+x,y,-z
1/2-x,y,z
x,-y,z
loop_
_atom_site_type_symbol
_atom_site_label
_atom_site_fract_x
_atom_site_fract_y
_atom_site_fract_z
Si Si1 0.398074 0.171469 0.036849
Si Si2 0.092598 0.159645 0.136719
Si Si3 0.250000 0.835829 0.460895
Si Si4 0.488874 0.835023 0.596448
Si Si5 0.908050 0.661464 0.779393
Si Si6 0.250000 0.328880 0.553380
Si Si7 0.098178 0.165528 0.306712
O O1 0.250000 0.229811 0.026307
O O2 0.445537 0.220554 0.086978
O O3 0.396265 0.000000 0.035499
O O4 0.500000 0.235400 0.000000
O O5 0.250000 0.151429 0.140124
O O6 0.034078 0.262435 0.175657
O O7 0.033226 0.000000 0.143865
O O8 0.377500 0.804910 0.430727
O O9 0.250000 0.727682 0.502432
O O10 0.250000 0.000000 0.478775
O O11 0.378857 0.726613 0.579160
O O12 0.511584 0.801840 0.649142
O O13 0.443271 0.000000 0.589454
O O14 0.750000 0.665882 0.780348
O O15 0.962606 0.500000 0.778463
O O16 0.960072 0.741738 0.734592
O O17 0.250000 0.500000 0.552849
O O18 0.250000 0.206714 0.317390
O O19 0.088234 0.000000 0.292357
#
# Coordination Sequence:
#
# PCOD8212688 Si02
#       7
#     8   8   4   8   8   4   8
#     4   8  13  21  35  57  83 110 142 183 230 271
#     4   8  13  22  36  55  81 113 148 186 227 271
#     4  10  20  38  62  82 100 128 170 212 249 290
#     4  10  20  37  59  80 101 130 168 209 249 290
#     4   9  16  24  37  62  94 123 149 184 234 284
#     4  12  26  38  50  76 110 142 170 198 241 294
#     4   9  16  29  50  75  98 120 154 200 247 289
#
# _framework density 17.295829000000001
#
# number of rings (size 3 to 8) (size 9 to 14) (size 15 to 20)
#    0.000    2.833    0.833    2.750    0.000    5.333 
#    0.000    0.000    0.000    0.500    2.167    0.000 
#    0.000    0.000    0.000    0.000    0.000    0.000 
#
# Total GULP energy -595050.607237 kJ/mol
# GULP energy per Si atom -12396.887651 kJ/mol
# Density = 1.725646 g / cm^3
# Si number density = 17.295829 Si / 1000 Ang^3
#
#
#
# Elastic Constant Matrix: (Units=GPa)
#
#
# Indices 1 2 3 4 5 6 
#
# 1 64.5886 40.2892 48.7917 0.0000 0.0000 0.0000
# 2 40.2892 102.6734 78.2788 0.0000 0.0000 0.0000
# 3 48.7917 78.2788 163.1481 0.0000 0.0000 0.0000
# 4 0.0000 0.0000 0.0000 6.3259 0.0000 0.0000
# 5 0.0000 0.0000 0.0000 0.0000 10.1330 0.0000
# 6 0.0000 0.0000 0.0000 0.0000 0.0000 13.0987
#
#
#
# Elastic Compliance Matrix: (Units=1/GPa)
#
#
# Indices 1 2 3 4 5 6 
#
# 1 0.021919 -0.005682 -0.003829 0.000000 0.000000 0.000000
# 2 -0.005682 0.016830 -0.006376 0.000000 0.000000 0.000000
# 3 -0.003829 -0.006376 0.010334 0.000000 0.000000 0.000000
# 4 0.000000 0.000000 0.000000 0.158080 0.000000 0.000000
# 5 0.000000 0.000000 0.000000 0.000000 0.098687 0.000000
# 6 0.000000 0.000000 0.000000 0.000000 0.000000 0.076344
#
#
# Mechanical properties :
#
#
# Convention : Reuss Voigt Hill
#
# Bulk Modulus (GPa) = 57.77160 73.90329 65.83744
# Shear Modulus (GPa) = 11.91218 16.78154 14.34686
#
# Velocity S-wave (km/s) = 2.62722 3.11829 2.88323
# Velocity P-wave (km/s) = 6.53281 7.46905 7.01656
#
# Compressibility (1/GPa) = 0.01730954
#
# Stress axis : x y z
#
# Youngs Moduli (GPa) = 45.62156 59.41677 96.77020
#
# Poissons Ratio (x) = 0.33760 0.37055
# Poissons Ratio (y) = 0.25922 0.61700
# Poissons Ratio (z) = 0.17469 0.37884
#
# Static dielectric constant tensor:
#      x y z
#    x 2.892810 0.000000 0.000000 
#    y 0.000000 3.120260 0.000000 
#    z 0.000000 0.000000 3.522470 
# 
# 
# High freq. dielectric constant tensor:
#      x y z
#    x 1.619640 0.000000 0.000000 
#    y 0.000000 1.645410 0.000000 
#    z 0.000000 0.000000 1.686050 
# 
# From -- ./inp_files/37152.got.cif
#   From: 2010.03.12/outbox.cif.g09.slc.cpg/sg51_19_cif.got.tgz:37152.got - 2010.04.16 13:43:02.
