data_PCOD8212180
_publ_section_title
;
Structure prediction by ZEFSAII (Michael W. Deem and Ramdas Pophale) SiO2 
 PCOD8212180
Probable space group: P M M A
;
_chemical_formula_sum "Si O2"
_cell_formula_units_Z 48
_cell_length_a 16.293596
_cell_length_b 9.038451
_cell_length_c 16.425678
_cell_angle_alpha 90.000000
_cell_angle_beta 90.000000
_cell_angle_gamma 90.000000
_cell_volume 2418.991023
_symmetry_space_group_name_H-M "P M M A"
_symmetry_group_IT_number 51
_symmetry_cell_setting 'orthorhombic'
loop_
_space_group_symop_operation_xyz
x,y,z
1/2-x,-y,z
1/2+x,-y,-z
-x,y,-z
-x,-y,-z
1/2+x,y,-z
1/2-x,y,z
x,-y,z
loop_
_atom_site_type_symbol
_atom_site_label
_atom_site_fract_x
_atom_site_fract_y
_atom_site_fract_z
Si Si1 0.577628 0.175624 0.946905
Si Si2 0.250000 0.175700 0.979935
Si Si3 0.846702 0.666661 0.621757
Si Si4 0.112915 0.666873 0.696574
Si Si5 0.846987 0.828985 0.461190
Si Si6 0.937893 0.333351 0.778209
Si Si7 0.750000 0.175147 0.204461
O O1 0.665877 0.236640 0.978936
O O2 0.566750 0.226722 0.854858
O O3 0.577461 0.000000 0.949570
O O4 0.500000 0.235813 0.000000
O O5 0.250000 0.000000 0.983957
O O6 0.250000 0.232984 0.887706
O O7 0.750000 0.666729 0.623651
O O8 0.881141 0.500000 0.608757
O O9 0.877843 0.770170 0.548545
O O10 0.877345 0.728876 0.708395
O O11 0.147404 0.500000 0.688695
O O12 0.105035 0.737168 0.607184
O O13 0.170204 0.766873 0.751451
O O14 0.027103 0.668063 0.740596
O O15 0.750000 0.803956 0.449015
O O16 0.870750 0.000000 0.454253
O O17 0.913042 0.500000 0.804562
O O18 0.750000 0.000000 0.209198
#
# Coordination Sequence:
#
# PCOD8212180 Si02
#       7
#     8   4   8   8   8   8   4
#     4  10  21  39  61  85 116 154 194 242 301 357
#     4   9  20  37  59  86 113 148 193 239 296 361
#     4   9  19  37  59  80 111 154 196 236 284 340
#     4  11  22  36  56  83 119 154 188 233 291 346
#     4  10  20  35  56  84 115 149 194 240 283 334
#     4  10  23  39  57  86 117 151 194 240 287 344
#     4  11  21  37  61  86 113 146 193 241 284 345
#
# _framework density 19.842984000000001
#
# number of rings (size 3 to 8) (size 9 to 14) (size 15 to 20)
#    0.000    2.000    0.833    2.250    1.167    5.000 
#    0.000    5.000    0.000    0.000    0.000    0.000 
#    0.000    0.000    0.000    0.000    0.000    0.000 
#
# Total GULP energy -595232.322686 kJ/mol
# GULP energy per Si atom -12400.673389 kJ/mol
# Density = 1.979782 g / cm^3
# Si number density = 19.842984 Si / 1000 Ang^3
#
#
#
# Elastic Constant Matrix: (Units=GPa)
#
#
# Indices 1 2 3 4 5 6 
#
# 1 72.1247 25.2806 45.1998 0.0000 0.0000 0.0000
# 2 25.2806 72.3802 49.6967 0.0000 0.0000 0.0000
# 3 45.1998 49.6967 160.1986 0.0000 0.0000 0.0000
# 4 0.0000 0.0000 0.0000 32.4284 0.0000 0.0000
# 5 0.0000 0.0000 0.0000 0.0000 28.1196 0.0000
# 6 0.0000 0.0000 0.0000 0.0000 0.0000 40.7718
#
#
#
# Elastic Compliance Matrix: (Units=1/GPa)
#
#
# Indices 1 2 3 4 5 6 
#
# 1 0.017499 -0.003459 -0.003864 0.000000 0.000000 0.000000
# 2 -0.003459 0.018239 -0.004682 0.000000 0.000000 0.000000
# 3 -0.003864 -0.004682 0.008785 0.000000 0.000000 0.000000
# 4 0.000000 0.000000 0.000000 0.030837 0.000000 0.000000
# 5 0.000000 0.000000 0.000000 0.000000 0.035562 0.000000
# 6 0.000000 0.000000 0.000000 0.000000 0.000000 0.024527
#
#
# Mechanical properties :
#
#
# Convention : Reuss Voigt Hill
#
# Bulk Modulus (GPa) = 48.75093 60.56195 54.65644
# Shear Modulus (GPa) = 30.06671 32.56572 31.31622
#
# Velocity S-wave (km/s) = 3.89682 4.05553 3.97697
# Velocity P-wave (km/s) = 6.69840 7.24684 6.97801
#
# Compressibility (1/GPa) = 0.02051243
#
# Stress axis : x y z
#
# Youngs Moduli (GPa) = 57.14634 54.82830 113.82953
#
# Poissons Ratio (x) = 0.18963 0.43988
# Poissons Ratio (y) = 0.19765 0.53297
# Poissons Ratio (z) = 0.22083 0.25671
#
# Static dielectric constant tensor:
#      x y z
#    x 3.637290 0.000000 0.000000 
#    y 0.000000 3.630580 0.000000 
#    z 0.000000 0.000000 3.766960 
# 
# 
# High freq. dielectric constant tensor:
#      x y z
#    x 1.775460 0.000000 0.000000 
#    y 0.000000 1.762180 0.000000 
#    z 0.000000 0.000000 1.786320 
# 
# From -- ./inp_files/24875.got.cif
#   From: 2010.03.12/outbox.cif.g09.slc.cpg/sg51_13_cif.got.tgz:24875.got - 2010.04.16 13:43:02.
