data_PCOD8212606
_publ_section_title
;
Structure prediction by ZEFSAII (Michael W. Deem and Ramdas Pophale) SiO2 
 PCOD8212606
Probable space group: P M M A
;
_chemical_formula_sum "Si O2"
_cell_formula_units_Z 64
_cell_length_a 17.509201
_cell_length_b 14.203794
_cell_length_c 12.559577
_cell_angle_alpha 90.000000
_cell_angle_beta 90.000000
_cell_angle_gamma 90.000000
_cell_volume 3123.530178
_symmetry_space_group_name_H-M "P M M A"
_symmetry_group_IT_number 51
_symmetry_cell_setting 'orthorhombic'
loop_
_space_group_symop_operation_xyz
x,y,z
1/2-x,-y,z
1/2+x,-y,-z
-x,y,-z
-x,-y,-z
1/2+x,y,-z
1/2-x,y,z
x,-y,z
loop_
_atom_site_type_symbol
_atom_site_label
_atom_site_fract_x
_atom_site_fract_y
_atom_site_fract_z
Si Si1 0.836721 0.712497 0.855526
Si Si2 0.337072 0.290445 0.514297
Si Si3 0.923540 0.609148 0.675694
Si Si4 0.899854 0.609155 0.287872
Si Si5 0.550426 0.107082 0.100776
Si Si6 0.407024 0.105093 0.228830
Si Si7 0.587607 0.105904 0.523223
Si Si8 0.161391 0.273118 0.900964
O O1 0.750000 0.693326 0.821347
O O2 0.890303 0.644249 0.787589
O O3 0.855091 0.822156 0.835618
O O4 0.849363 0.689177 0.979220
O O5 0.250000 0.295141 0.475553
O O6 0.389947 0.332848 0.422233
O O7 0.345013 0.347437 0.623110
O O8 0.360680 0.182079 0.537883
O O9 0.903349 0.500000 0.659759
O O10 0.013461 0.627271 0.677288
O O11 0.881015 0.500000 0.278102
O O12 0.882789 0.654196 0.173833
O O13 0.496981 0.119877 0.204567
O O14 0.625261 0.170042 0.113101
O O15 0.578411 0.000000 0.086806
O O16 0.500000 0.139689 0.000000
O O17 0.394596 0.119395 0.352943
O O18 0.382457 0.000000 0.192384
O O19 0.500000 0.127240 0.500000
O O20 0.609136 0.000000 0.485595
O O21 0.250000 0.265960 0.869489
#
# Coordination Sequence:
#
# PCOD8212606 Si02
#       8
#     8   8   8   8   8   8   8   8
#     4  11  23  39  59  92 133 165 201 260 326 383
#     4  12  25  41  66  98 132 165 202 259 323 382
#     4  11  24  42  67  95 120 157 209 266 322 377
#     4  11  26  47  69  91 121 168 223 267 313 383
#     4  10  20  36  61  91 124 165 212 258 306 369
#     4  10  20  36  60  90 124 168 213 256 310 375
#     4  10  22  39  62  94 130 170 211 252 306 375
#     4  11  25  41  63  93 129 173 214 263 325 378
#
# _framework density 20.489637999999999
#
# number of rings (size 3 to 8) (size 9 to 14) (size 15 to 20)
#    0.000    1.250    2.500    3.000    1.750    4.750 
#    0.000    5.000    0.000    1.500    0.000    0.000 
#    0.000    0.000    0.000    0.000    0.000    0.000 
#
# Total GULP energy -793903.887625 kJ/mol
# GULP energy per Si atom -12404.748244 kJ/mol
# Density = 2.044300 g / cm^3
# Si number density = 20.489638 Si / 1000 Ang^3
#
#
#
# Elastic Constant Matrix: (Units=GPa)
#
#
# Indices 1 2 3 4 5 6 
#
# 1 79.0011 59.5642 25.0578 0.0000 0.0000 0.0000
# 2 59.5642 135.8924 44.2166 0.0000 0.0000 0.0000
# 3 25.0578 44.2166 75.7807 0.0000 0.0000 0.0000
# 4 0.0000 0.0000 0.0000 29.1428 0.0000 0.0000
# 5 0.0000 0.0000 0.0000 0.0000 31.9239 0.0000
# 6 0.0000 0.0000 0.0000 0.0000 0.0000 13.0274
#
#
#
# Elastic Compliance Matrix: (Units=1/GPa)
#
#
# Indices 1 2 3 4 5 6 
#
# 1 0.019096 -0.007795 -0.001766 0.000000 0.000000 0.000000
# 2 -0.007795 0.012266 -0.004579 0.000000 0.000000 0.000000
# 3 -0.001766 -0.004579 0.016452 0.000000 0.000000 0.000000
# 4 0.000000 0.000000 0.000000 0.034314 0.000000 0.000000
# 5 0.000000 0.000000 0.000000 0.000000 0.031324 0.000000
# 6 0.000000 0.000000 0.000000 0.000000 0.000000 0.076761
#
#
# Mechanical properties :
#
#
# Convention : Reuss Voigt Hill
#
# Bulk Modulus (GPa) = 51.19705 60.92795 56.06250
# Shear Modulus (GPa) = 22.22184 25.60786 23.91485
#
# Velocity S-wave (km/s) = 3.29681 3.53908 3.42009
# Velocity P-wave (km/s) = 6.28753 6.81914 6.55872
#
# Compressibility (1/GPa) = 0.01953238
#
# Stress axis : x y z
#
# Youngs Moduli (GPa) = 52.36802 81.52884 60.78424
#
# Poissons Ratio (x) = 0.63555 0.10733
# Poissons Ratio (y) = 0.40823 0.27834
# Poissons Ratio (z) = 0.09247 0.37333
#
# Static dielectric constant tensor:
#      x y z
#    x 3.640970 0.000000 0.000000 
#    y 0.000000 3.868950 0.000000 
#    z 0.000000 0.000000 3.780820 
# 
# 
# High freq. dielectric constant tensor:
#      x y z
#    x 1.795640 0.000000 0.000000 
#    y 0.000000 1.809480 0.000000 
#    z 0.000000 0.000000 1.806100 
# 
# From -- ./inp_files/17594.got.cif
#   From: 2010.03.12/outbox.cif.g09.slc.cpg/sg51_9_cif.got.tgz:17594.got - 2010.04.16 13:43:02.
