data_PCOD8212207
_publ_section_title
;
Structure prediction by ZEFSAII (Michael W. Deem and Ramdas Pophale) SiO2 
 PCOD8212207
Probable space group: P M M A
;
_chemical_formula_sum "Si O2"
_cell_formula_units_Z 64
_cell_length_a 14.010863
_cell_length_b 8.759629
_cell_length_c 26.732621
_cell_angle_alpha 90.000000
_cell_angle_beta 90.000000
_cell_angle_gamma 90.000000
_cell_volume 3280.893555
_symmetry_space_group_name_H-M "P M M A"
_symmetry_group_IT_number 51
_symmetry_cell_setting 'orthorhombic'
loop_
_space_group_symop_operation_xyz
x,y,z
1/2-x,-y,z
1/2+x,-y,-z
-x,y,-z
-x,-y,-z
1/2+x,y,-z
1/2-x,y,z
x,-y,z
loop_
_atom_site_type_symbol
_atom_site_label
_atom_site_fract_x
_atom_site_fract_y
_atom_site_fract_z
Si Si1 0.959904 0.680786 0.077740
Si Si2 0.645156 0.176337 0.720664
Si Si3 0.855605 0.319200 0.978290
Si Si4 0.485722 0.822312 0.555818
Si Si5 0.042693 0.320139 0.739298
Si Si6 0.857208 0.319624 0.362840
Si Si7 0.643455 0.671104 0.614941
Si Si8 0.858743 0.177191 0.170226
O O1 0.952029 0.500000 0.086600
O O2 0.930151 0.768349 0.127290
O O3 0.068812 0.730185 0.064360
O O4 0.891404 0.735532 0.032669
O O5 0.750000 0.196633 0.746757
O O6 0.557436 0.237230 0.754217
O O7 0.642746 0.280910 0.672107
O O8 0.628862 0.000000 0.706619
O O9 0.750000 0.250354 0.967230
O O10 0.851271 0.500000 0.979406
O O11 0.500000 0.756177 0.500000
O O12 0.399906 0.740533 0.585084
O O13 0.584726 0.792462 0.583528
O O14 0.462045 0.000000 0.554318
O O15 0.028234 0.500000 0.742012
O O16 0.078159 0.266524 0.684244
O O17 0.121491 0.270055 0.779227
O O18 0.750000 0.254437 0.356497
O O19 0.854135 0.500000 0.364958
O O20 0.750000 0.671994 0.593209
O O21 0.599089 0.500000 0.611222
O O22 0.750000 0.210350 0.153894
O O23 0.876236 0.000000 0.180837
#
# Coordination Sequence:
#
# PCOD8212207 Si02
#       8
#     8   8   8   8   8   8   8   8
#     4   9  17  31  54  82 111 148 193 240 288 339
#     4  10  20  35  58  87 116 144 175 217 270 325
#     4   8  14  27  51  83 115 147 188 238 291 345
#     4  11  24  39  56  81 113 148 184 224 276 337
#     4  11  22  38  62  88 113 146 190 235 279 333
#     4  10  22  40  61  85 112 143 182 229 281 336
#     4  10  20  35  57  83 108 139 180 222 265 317
#     4  11  24  39  55  79 113 152 192 237 291 346
#
# _framework density 19.506879999999999
#
# number of rings (size 3 to 8) (size 9 to 14) (size 15 to 20)
#    0.000    2.000    1.250    3.375    0.000    5.750 
#    0.000    4.375    0.000    3.375    0.000    0.000 
#    0.000    0.000    0.000    0.000    0.000    0.000 
#
# Total GULP energy -793476.022469 kJ/mol
# GULP energy per Si atom -12398.062851 kJ/mol
# Density = 1.946248 g / cm^3
# Si number density = 19.506880 Si / 1000 Ang^3
#
#
#
# Elastic Constant Matrix: (Units=GPa)
#
#
# Indices 1 2 3 4 5 6 
#
# 1 145.5507 35.0189 40.8736 0.0000 0.0000 0.0000
# 2 35.0189 46.4734 24.8259 0.0000 0.0000 0.0000
# 3 40.8736 24.8259 89.1140 0.0000 0.0000 0.0000
# 4 0.0000 0.0000 0.0000 21.3802 0.0000 0.0000
# 5 0.0000 0.0000 0.0000 0.0000 25.6087 0.0000
# 6 0.0000 0.0000 0.0000 0.0000 0.0000 27.6965
#
#
#
# Elastic Compliance Matrix: (Units=1/GPa)
#
#
# Indices 1 2 3 4 5 6 
#
# 1 0.008874 -0.005302 -0.002593 0.000000 0.000000 0.000000
# 2 -0.005302 0.028447 -0.005493 0.000000 0.000000 0.000000
# 3 -0.002593 -0.005493 0.013941 0.000000 0.000000 0.000000
# 4 0.000000 0.000000 0.000000 0.046772 0.000000 0.000000
# 5 0.000000 0.000000 0.000000 0.000000 0.039049 0.000000
# 6 0.000000 0.000000 0.000000 0.000000 0.000000 0.036106
#
#
# Mechanical properties :
#
#
# Convention : Reuss Voigt Hill
#
# Bulk Modulus (GPa) = 40.83927 53.61943 47.22935
# Shear Modulus (GPa) = 24.02362 26.96507 25.49435
#
# Velocity S-wave (km/s) = 3.51315 3.72201 3.61909
# Velocity P-wave (km/s) = 6.11862 6.78368 6.45971
#
# Compressibility (1/GPa) = 0.02448623
#
# Stress axis : x y z
#
# Youngs Moduli (GPa) = 112.68521 35.15294 71.72866
#
# Poissons Ratio (x) = 0.18637 0.18602
# Poissons Ratio (y) = 0.59741 0.39403
# Poissons Ratio (z) = 0.29223 0.19311
#
# Static dielectric constant tensor:
#      x y z
#    x 4.104980 0.000000 0.000000 
#    y 0.000000 3.369620 0.000000 
#    z 0.000000 0.000000 3.375290 
# 
# 
# High freq. dielectric constant tensor:
#      x y z
#    x 1.776940 0.000000 0.000000 
#    y 0.000000 1.748160 0.000000 
#    z 0.000000 0.000000 1.737200 
# 
# From -- ./inp_files/35668.got.cif
#   From: 2010.03.12/outbox.cif.g09.slc.cpg/sg51_18_cif.got.tgz:35668.got - 2010.04.16 13:43:02.
