data_PCOD8212198
_publ_section_title
;
Structure prediction by ZEFSAII (Michael W. Deem and Ramdas Pophale) SiO2 
 PCOD8212198
Probable space group: P M M A
;
_chemical_formula_sum "Si O2"
_cell_formula_units_Z 48
_cell_length_a 9.214153
_cell_length_b 8.988729
_cell_length_c 30.914353
_cell_angle_alpha 90.000000
_cell_angle_beta 90.000000
_cell_angle_gamma 90.000000
_cell_volume 2560.435666
_symmetry_space_group_name_H-M "P M M A"
_symmetry_group_IT_number 51
_symmetry_cell_setting 'orthorhombic'
loop_
_space_group_symop_operation_xyz
x,y,z
1/2-x,-y,z
1/2+x,-y,-z
-x,y,-z
-x,-y,-z
1/2+x,y,-z
1/2-x,y,z
x,-y,z
loop_
_atom_site_type_symbol
_atom_site_label
_atom_site_fract_x
_atom_site_fract_y
_atom_site_fract_z
Si Si1 0.417734 0.175229 0.285663
Si Si2 0.919512 0.827055 0.869992
Si Si3 0.920488 0.672949 0.207444
Si Si4 0.077479 0.332494 0.372161
Si Si5 0.918987 0.669882 0.957498
Si Si6 0.081012 0.173037 0.457540
O O1 0.250000 0.219024 0.277919
O O2 0.512459 0.238884 0.247205
O O3 0.477887 0.242809 0.330428
O O4 0.437728 0.000000 0.287775
O O5 0.750000 0.796700 0.861349
O O6 0.964825 0.773844 0.917685
O O7 0.011737 0.732001 0.836654
O O8 0.957364 0.000000 0.864811
O O9 0.750000 0.702404 0.206336
O O10 0.958019 0.500000 0.212569
O O11 0.250000 0.327428 0.373467
O O12 0.018148 0.500000 0.369200
O O13 0.016791 0.257768 0.415847
O O14 0.750000 0.682671 0.967132
O O15 0.963885 0.500000 0.946863
O O16 0.000000 0.729125 0.000000
O O17 0.250000 0.205935 0.463903
O O18 0.000000 0.233415 0.500000
O O19 0.049611 0.000000 0.450224
#
# Coordination Sequence:
#
# PCOD8212198 Si02
#       6
#     8   8   8   8   8   8
#     4  10  20  35  57  82 105 133 172 215 259 310
#     4  10  21  37  57  81 108 140 180 221 260 308
#     4  11  24  39  55  78 108 140 174 214 262 314
#     4   9  17  30  50  75 101 131 169 211 253 300
#     4   9  18  33  53  77 106 140 177 217 260 306
#     4   9  17  30  48  70  97 129 166 208 253 302
#
# _framework density 18.746808999999999
#
# number of rings (size 3 to 8) (size 9 to 14) (size 15 to 20)
#    0.000    2.333    0.000    2.500    0.000    8.667 
#    0.000    2.500    0.000    3.000    0.000    0.000 
#    0.000    0.000    0.000    0.000    0.000    0.000 
#
# Total GULP energy -595334.248396 kJ/mol
# GULP energy per Si atom -12402.796842 kJ/mol
# Density = 1.870414 g / cm^3
# Si number density = 18.746809 Si / 1000 Ang^3
#
#
#
# Elastic Constant Matrix: (Units=GPa)
#
#
# Indices 1 2 3 4 5 6 
#
# 1 46.2033 33.8869 47.6390 0.0000 0.0000 0.0000
# 2 33.8869 79.1380 48.8455 0.0000 0.0000 0.0000
# 3 47.6390 48.8455 146.8181 0.0000 0.0000 0.0000
# 4 0.0000 0.0000 0.0000 36.6681 0.0000 0.0000
# 5 0.0000 0.0000 0.0000 0.0000 32.5354 0.0000
# 6 0.0000 0.0000 0.0000 0.0000 0.0000 20.8843
#
#
#
# Elastic Compliance Matrix: (Units=1/GPa)
#
#
# Indices 1 2 3 4 5 6 
#
# 1 0.039105 -0.011216 -0.008957 0.000000 0.000000 0.000000
# 2 -0.011216 0.019119 -0.002721 0.000000 0.000000 0.000000
# 3 -0.008957 -0.002721 0.010623 0.000000 0.000000 0.000000
# 4 0.000000 0.000000 0.000000 0.027272 0.000000 0.000000
# 5 0.000000 0.000000 0.000000 0.000000 0.030736 0.000000
# 6 0.000000 0.000000 0.000000 0.000000 0.000000 0.047883
#
#
# Mechanical properties :
#
#
# Convention : Reuss Voigt Hill
#
# Bulk Modulus (GPa) = 43.37010 59.21135 51.29072
# Shear Modulus (GPa) = 21.90944 27.47010 24.68977
#
# Velocity S-wave (km/s) = 3.42234 3.83210 3.63300
# Velocity P-wave (km/s) = 6.22908 7.15775 6.70950
#
# Compressibility (1/GPa) = 0.02305736
#
# Stress axis : x y z
#
# Youngs Moduli (GPa) = 25.57197 52.30512 94.13677
#
# Poissons Ratio (x) = 0.58667 0.84319
# Poissons Ratio (y) = 0.28683 0.25616
# Poissons Ratio (z) = 0.22905 0.14233
#
# Static dielectric constant tensor:
#      x y z
#    x 3.229910 0.000000 0.000000 
#    y 0.000000 3.540770 0.000000 
#    z 0.000000 0.000000 3.674210 
# 
# 
# High freq. dielectric constant tensor:
#      x y z
#    x 1.700890 0.000000 0.000000 
#    y 0.000000 1.735000 0.000000 
#    z 0.000000 0.000000 1.745150 
# 
# From -- ./inp_files/36886.got.cif
#   From: 2010.03.12/outbox.cif.g09.slc.cpg/sg51_19_cif.got.tgz:36886.got - 2010.04.16 13:43:02.
