data_PCOD8212829
_publ_section_title
;
Structure prediction by ZEFSAII (Michael W. Deem and Ramdas Pophale) SiO2 
 PCOD8212829
Probable space group: P M M A
;
_chemical_formula_sum "Si O2"
_cell_formula_units_Z 48
_cell_length_a 15.366004
_cell_length_b 8.353989
_cell_length_c 18.803452
_cell_angle_alpha 90.000000
_cell_angle_beta 90.000000
_cell_angle_gamma 90.000000
_cell_volume 2413.750778
_symmetry_space_group_name_H-M "P M M A"
_symmetry_group_IT_number 51
_symmetry_cell_setting 'orthorhombic'
loop_
_space_group_symop_operation_xyz
x,y,z
1/2-x,-y,z
1/2+x,-y,-z
-x,y,-z
-x,-y,-z
1/2+x,y,-z
1/2-x,y,z
x,-y,z
loop_
_atom_site_type_symbol
_atom_site_label
_atom_site_fract_x
_atom_site_fract_y
_atom_site_fract_z
Si Si1 0.250000 0.189982 0.579991
Si Si2 0.250000 0.808041 0.420772
Si Si3 0.088813 0.811374 0.165057
Si Si4 0.250000 0.182524 0.928405
Si Si5 0.401690 0.684844 0.836134
Si Si6 0.750000 0.315257 0.919412
Si Si7 0.597285 0.812515 0.676112
Si Si8 0.097269 0.811574 0.680596
O O1 0.250000 0.262292 0.500628
O O2 0.335567 0.250379 0.621368
O O3 0.250000 0.000000 0.576230
O O4 0.334588 0.738019 0.379779
O O5 0.250000 0.000000 0.423301
O O6 0.164454 0.769470 0.110742
O O7 0.114403 0.748217 0.243938
O O8 0.999748 0.727555 0.140498
O O9 0.071675 0.000000 0.166775
O O10 0.164071 0.211469 0.882440
O O11 0.250000 0.000000 0.954903
O O12 0.250000 0.298487 0.996096
O O13 0.383343 0.500000 0.851288
O O14 0.384272 0.720701 0.753590
O O15 0.750000 0.500000 0.897561
O O16 0.499240 0.770463 0.651922
O O17 0.613319 0.000000 0.676663
O O18 0.107155 0.000000 0.695692
#
# Coordination Sequence:
#
# PCOD8212829 Si02
#       8
#     4   4   8   4   8   4   8   8
#     4   9  17  26  42  69 104 139 176 221 274 326
#     4   9  15  24  40  71 107 137 170 223 280 318
#     4  10  20  38  61  85 112 150 191 230 278 336
#     4  12  25  42  61  83 113 152 187 222 274 340
#     4  11  22  38  60  87 112 141 184 238 285 328
#     4  12  25  40  58  87 120 150 185 230 274 322
#     4   8  15  27  47  72 101 134 176 224 270 317
#     4   9  17  31  49  73 102 138 179 222 270 329
#
# _framework density 19.886063
#
# number of rings (size 3 to 8) (size 9 to 14) (size 15 to 20)
#    0.000    2.167    0.000    5.500    0.000    3.333 
#    0.000    6.667    0.000    0.000    0.000   18.667 
#    0.000    0.000    0.000    0.000    0.000    0.000 
#
# Total GULP energy -595232.956950 kJ/mol
# GULP energy per Si atom -12400.686603 kJ/mol
# Density = 1.984080 g / cm^3
# Si number density = 19.886063 Si / 1000 Ang^3
#
#
#
# Elastic Constant Matrix: (Units=GPa)
#
#
# Indices 1 2 3 4 5 6 
#
# 1 152.5254 6.5854 80.6517 0.0000 0.0000 0.0000
# 2 6.5854 51.1585 4.1550 0.0000 0.0000 0.0000
# 3 80.6517 4.1550 104.5106 0.0000 0.0000 0.0000
# 4 0.0000 0.0000 0.0000 13.0932 0.0000 0.0000
# 5 0.0000 0.0000 0.0000 0.0000 3.6938 0.0000
# 6 0.0000 0.0000 0.0000 0.0000 0.0000 16.1475
#
#
#
# Elastic Compliance Matrix: (Units=1/GPa)
#
#
# Indices 1 2 3 4 5 6 
#
# 1 0.011103 -0.000736 -0.008539 0.000000 0.000000 0.000000
# 2 -0.000736 0.019659 -0.000214 0.000000 0.000000 0.000000
# 3 -0.008539 -0.000214 0.016167 0.000000 0.000000 0.000000
# 4 0.000000 0.000000 0.000000 0.076375 0.000000 0.000000
# 5 0.000000 0.000000 0.000000 0.000000 0.270723 0.000000
# 6 0.000000 0.000000 0.000000 0.000000 0.000000 0.061929
#
#
# Mechanical properties :
#
#
# Convention : Reuss Voigt Hill
#
# Bulk Modulus (GPa) = 35.77615 54.55318 45.16466
# Shear Modulus (GPa) = 10.32520 21.04041 15.68280
#
# Velocity S-wave (km/s) = 2.28111 3.25629 2.81131
# Velocity P-wave (km/s) = 4.99675 6.45216 5.77052
#
# Compressibility (1/GPa) = 0.02795158
#
# Stress axis : x y z
#
# Youngs Moduli (GPa) = 90.06198 50.86684 61.85510
#
# Poissons Ratio (x) = 0.03742 0.52820
# Poissons Ratio (y) = 0.06626 0.01323
# Poissons Ratio (z) = 0.76907 0.01088
#
# Static dielectric constant tensor:
#      x y z
#    x 3.839160 0.000000 0.000000 
#    y 0.000000 3.235010 0.000000 
#    z 0.000000 0.000000 3.711870 
# 
# 
# High freq. dielectric constant tensor:
#      x y z
#    x 1.791590 0.000000 0.000000 
#    y 0.000000 1.744020 0.000000 
#    z 0.000000 0.000000 1.770130 
# 
# From -- ./inp_files/29675.got.cif
#   From: 2010.03.12/outbox.cif.g09.slc.cpg/sg51_15_cif.got.tgz:29675.got - 2010.04.16 13:43:02.
