data_PCOD8212592
_publ_section_title
;
Structure prediction by ZEFSAII (Michael W. Deem and Ramdas Pophale) SiO2 
 PCOD8212592
Probable space group: P M M A
;
_chemical_formula_sum "Si O2"
_cell_formula_units_Z 64
_cell_length_a 17.260137
_cell_length_b 15.071968
_cell_length_c 12.996096
_cell_angle_alpha 90.000000
_cell_angle_beta 90.000000
_cell_angle_gamma 90.000000
_cell_volume 3380.859420
_symmetry_space_group_name_H-M "P M M A"
_symmetry_group_IT_number 51
_symmetry_cell_setting 'orthorhombic'
loop_
_space_group_symop_operation_xyz
x,y,z
1/2-x,-y,z
1/2+x,-y,-z
-x,y,-z
-x,-y,-z
1/2+x,y,-z
1/2-x,y,z
x,-y,z
loop_
_atom_site_type_symbol
_atom_site_label
_atom_site_fract_x
_atom_site_fract_y
_atom_site_fract_z
Si Si1 0.448280 0.247553 0.399378
Si Si2 0.431632 0.402333 0.924453
Si Si3 0.890656 0.164565 0.895456
Si Si4 0.160202 0.899249 0.890150
Si Si5 0.841368 0.398715 0.672683
Si Si6 0.543819 0.768534 0.194871
Si Si7 0.335183 0.643024 0.105446
Si Si8 0.839207 0.898928 0.677989
O O1 0.500000 0.246748 0.500000
O O2 0.393917 0.335082 0.398285
O O3 0.509516 0.241371 0.307467
O O4 0.391572 0.162736 0.394761
O O5 0.442807 0.500000 0.874265
O O6 0.424593 0.328512 0.837024
O O7 0.500000 0.373964 0.000000
O O8 0.359197 0.405662 0.001174
O O9 0.838780 0.251799 0.908021
O O10 0.862953 0.109332 0.797132
O O11 0.979943 0.194078 0.884435
O O12 0.878551 0.106633 0.997114
O O13 0.250000 0.871021 0.894891
O O14 0.116336 0.836013 0.808602
O O15 0.151204 0.000000 0.851340
O O16 0.750000 0.371746 0.665211
O O17 0.853000 0.500000 0.636677
O O18 0.877616 0.385977 0.788288
O O19 0.250000 0.609121 0.125652
O O20 0.750000 0.870477 0.664753
O O21 0.852322 0.000000 0.643142
#
# Coordination Sequence:
#
# PCOD8212592 Si02
#       8
#     8   8   8   8   8   8   8   8
#     4  11  24  41  61  84 111 145 192 246 300 344
#     4  11  20  32  50  77 115 154 183 211 257 326
#     4  11  19  32  56  88 119 148 183 227 281 338
#     4  11  23  37  55  81 117 160 195 225 269 332
#     4  10  20  36  61  91 120 148 182 231 289 345
#     4  11  22  38  55  80 111 148 194 236 288 333
#     4  11  19  31  54  85 119 151 183 225 273 330
#     4  10  20  36  60  88 116 145 180 232 295 350
#
# _framework density 18.930097
#
# number of rings (size 3 to 8) (size 9 to 14) (size 15 to 20)
#    0.000    1.250    5.000    2.625    0.000    6.750 
#    0.000    1.250    0.000    1.500    0.000    0.000 
#    0.000    0.000    0.000    0.000    0.000    0.000 
#
# Total GULP energy -793384.574471 kJ/mol
# GULP energy per Si atom -12396.633976 kJ/mol
# Density = 1.888701 g / cm^3
# Si number density = 18.930097 Si / 1000 Ang^3
#
#
#
# Elastic Constant Matrix: (Units=GPa)
#
#
# Indices 1 2 3 4 5 6 
#
# 1 94.2157 52.1035 49.9593 0.0000 0.0000 0.0000
# 2 52.1035 128.9461 40.8766 0.0000 0.0000 0.0000
# 3 49.9593 40.8766 74.6683 0.0000 0.0000 0.0000
# 4 0.0000 0.0000 0.0000 15.5751 0.0000 0.0000
# 5 0.0000 0.0000 0.0000 0.0000 26.9889 0.0000
# 6 0.0000 0.0000 0.0000 0.0000 0.0000 27.3735
#
#
#
# Elastic Compliance Matrix: (Units=1/GPa)
#
#
# Indices 1 2 3 4 5 6 
#
# 1 0.018169 -0.004220 -0.009846 0.000000 0.000000 0.000000
# 2 -0.004220 0.010364 -0.002850 0.000000 0.000000 0.000000
# 3 -0.009846 -0.002850 0.021541 0.000000 0.000000 0.000000
# 4 0.000000 0.000000 0.000000 0.064205 0.000000 0.000000
# 5 0.000000 0.000000 0.000000 0.000000 0.037052 0.000000
# 6 0.000000 0.000000 0.000000 0.000000 0.000000 0.036532
#
#
# Mechanical properties :
#
#
# Convention : Reuss Voigt Hill
#
# Bulk Modulus (GPa) = 61.57351 64.85652 63.21502
# Shear Modulus (GPa) = 22.01587 24.31354 23.16471
#
# Velocity S-wave (km/s) = 3.41399 3.58772 3.50193
# Velocity P-wave (km/s) = 6.93814 7.17619 7.05817
#
# Compressibility (1/GPa) = 0.01624075
#
# Stress axis : x y z
#
# Youngs Moduli (GPa) = 55.03910 96.48870 46.42386
#
# Poissons Ratio (x) = 0.40721 0.45710
# Poissons Ratio (y) = 0.23228 0.13231
# Poissons Ratio (z) = 0.54192 0.27499
#
# Static dielectric constant tensor:
#      x y z
#    x 3.311720 0.000000 0.000000 
#    y 0.000000 3.544560 0.000000 
#    z 0.000000 0.000000 2.701730 
# 
# 
# High freq. dielectric constant tensor:
#      x y z
#    x 1.739560 0.000000 0.000000 
#    y 0.000000 1.750090 0.000000 
#    z 0.000000 0.000000 1.685480 
# 
# From -- ./inp_files/17566.got.cif
#   From: 2010.03.12/outbox.cif.g09.slc.cpg/sg51_9_cif.got.tgz:17566.got - 2010.04.16 13:43:02.
