data_PCOD8212155
_publ_section_title
;
Structure prediction by ZEFSAII (Michael W. Deem and Ramdas Pophale) SiO2 
 PCOD8212155
Probable space group: P M M A
;
_chemical_formula_sum "Si O2"
_cell_formula_units_Z 64
_cell_length_a 17.646814
_cell_length_b 16.063387
_cell_length_c 11.733819
_cell_angle_alpha 90.000000
_cell_angle_beta 90.000000
_cell_angle_gamma 90.000000
_cell_volume 3326.157541
_symmetry_space_group_name_H-M "P M M A"
_symmetry_group_IT_number 51
_symmetry_cell_setting 'orthorhombic'
loop_
_space_group_symop_operation_xyz
x,y,z
1/2-x,-y,z
1/2+x,-y,-z
-x,y,-z
-x,-y,-z
1/2+x,y,-z
1/2-x,y,z
x,-y,z
loop_
_atom_site_type_symbol
_atom_site_label
_atom_site_fract_x
_atom_site_fract_y
_atom_site_fract_z
Si Si1 0.941109 0.653353 0.277106
Si Si2 0.977086 0.220249 0.873048
Si Si3 0.164965 0.724063 0.535161
Si Si4 0.099214 0.595774 0.349899
Si Si5 0.838796 0.678286 0.868023
Si Si6 0.998631 0.909514 0.686657
Si Si7 0.666407 0.592593 0.099122
Si Si8 0.121890 0.905406 0.496232
O O1 0.892946 0.713416 0.359901
O O2 0.884231 0.591284 0.213250
O O3 0.977739 0.700188 0.170580
O O4 0.007665 0.606998 0.346835
O O5 0.887116 0.236674 0.855093
O O6 0.004763 0.145795 0.796325
O O7 0.000000 0.197479 0.000000
O O8 0.250000 0.694695 0.567034
O O9 0.134641 0.664321 0.434470
O O10 0.173864 0.822454 0.500675
O O11 0.116173 0.500000 0.387925
O O12 0.137110 0.610708 0.226829
O O13 0.750000 0.698446 0.857641
O O14 0.863184 0.646386 0.992920
O O15 0.917269 0.902548 0.626631
O O16 0.062017 0.888687 0.594954
O O17 0.011862 0.000000 0.736913
O O18 0.750000 0.624446 0.134378
O O19 0.670151 0.500000 0.050738
O O20 0.159128 0.000000 0.510836
#
# Coordination Sequence:
#
# PCOD8212155 Si02
#       8
#     8   8   8   8   8   8   8   8
#     4  11  22  39  58  82 116 151 199 243 292 338
#     4  11  20  35  58  86 116 150 193 240 284 343
#     4  12  25  39  60  88 120 158 195 239 297 361
#     4  11  25  40  59  84 117 158 204 248 294 351
#     4  10  21  37  57  83 117 155 194 243 299 347
#     4   9  18  33  59  88 114 147 190 238 290 345
#     4  10  20  35  56  81 110 147 195 246 295 344
#     4   9  18  36  61  89 118 150 189 242 296 349
#
# _framework density 19.241422
#
# number of rings (size 3 to 8) (size 9 to 14) (size 15 to 20)
#    0.000    1.625    2.500    4.125    1.750    3.500 
#    0.000    1.875    0.000    1.125    0.000    0.000 
#    0.000    0.000    0.000    0.000    0.000    0.000 
#
# Total GULP energy -792898.457997 kJ/mol
# GULP energy per Si atom -12389.038406 kJ/mol
# Density = 1.919763 g / cm^3
# Si number density = 19.241422 Si / 1000 Ang^3
#
#
#
# Elastic Constant Matrix: (Units=GPa)
#
#
# Indices 1 2 3 4 5 6 
#
# 1 92.1331 15.7540 22.6050 0.0000 0.0000 0.0000
# 2 15.7540 94.2885 28.5020 0.0000 0.0000 0.0000
# 3 22.6050 28.5020 76.4755 0.0000 0.0000 0.0000
# 4 0.0000 0.0000 0.0000 27.1378 0.0000 0.0000
# 5 0.0000 0.0000 0.0000 0.0000 21.4023 0.0000
# 6 0.0000 0.0000 0.0000 0.0000 0.0000 16.7215
#
#
#
# Elastic Compliance Matrix: (Units=1/GPa)
#
#
# Indices 1 2 3 4 5 6 
#
# 1 0.011791 -0.001033 -0.003100 0.000000 0.000000 0.000000
# 2 -0.001033 0.012043 -0.004183 0.000000 0.000000 0.000000
# 3 -0.003100 -0.004183 0.015551 0.000000 0.000000 0.000000
# 4 0.000000 0.000000 0.000000 0.036849 0.000000 0.000000
# 5 0.000000 0.000000 0.000000 0.000000 0.046724 0.000000
# 6 0.000000 0.000000 0.000000 0.000000 0.000000 0.059803
#
#
# Mechanical properties :
#
#
# Convention : Reuss Voigt Hill
#
# Bulk Modulus (GPa) = 43.95027 44.06877 44.00952
# Shear Modulus (GPa) = 24.15712 26.12139 25.13926
#
# Velocity S-wave (km/s) = 3.54711 3.68851 3.61850
# Velocity P-wave (km/s) = 6.29818 6.41037 6.35453
#
# Compressibility (1/GPa) = 0.02275299
#
# Stress axis : x y z
#
# Youngs Moduli (GPa) = 84.80936 83.03730 64.30266
#
# Poissons Ratio (x) = 0.08577 0.19936
# Poissons Ratio (y) = 0.08760 0.26898
# Poissons Ratio (z) = 0.26294 0.34734
#
# Static dielectric constant tensor:
#      x y z
#    x 3.530640 0.000000 0.000000 
#    y 0.000000 3.506350 0.000000 
#    z 0.000000 0.000000 3.417040 
# 
# 
# High freq. dielectric constant tensor:
#      x y z
#    x 1.744870 0.000000 0.000000 
#    y 0.000000 1.741240 0.000000 
#    z 0.000000 0.000000 1.747620 
# 
# From -- ./inp_files/17579.got.cif
#   From: 2010.03.12/outbox.cif.g09.slc.cpg/sg51_9_cif.got.tgz:17579.got - 2010.04.16 13:43:02.
