data_PCOD8212286
_publ_section_title
;
Structure prediction by ZEFSAII (Michael W. Deem and Ramdas Pophale) SiO2 
 PCOD8212286
Probable space group: P M M A
;
_chemical_formula_sum "Si O2"
_cell_formula_units_Z 48
_cell_length_a 16.666295
_cell_length_b 15.280255
_cell_length_c 9.780876
_cell_angle_alpha 90.000000
_cell_angle_beta 90.000000
_cell_angle_gamma 90.000000
_cell_volume 2490.849110
_symmetry_space_group_name_H-M "P M M A"
_symmetry_group_IT_number 51
_symmetry_cell_setting 'orthorhombic'
loop_
_space_group_symop_operation_xyz
x,y,z
1/2-x,-y,z
1/2+x,-y,-z
-x,y,-z
-x,-y,-z
1/2+x,y,-z
1/2-x,y,z
x,-y,z
loop_
_atom_site_type_symbol
_atom_site_label
_atom_site_fract_x
_atom_site_fract_y
_atom_site_fract_z
Si Si1 0.341437 0.770209 0.494874
Si Si2 0.039929 0.335642 0.133112
Si Si3 0.344336 0.811647 0.054686
Si Si4 0.080858 0.187760 0.771529
Si Si5 0.578796 0.402615 0.585605
Si Si6 0.927283 0.098514 0.704091
O O1 0.250000 0.794651 0.462059
O O2 0.357697 0.783212 0.654519
O O3 0.354837 0.669360 0.451402
O O4 0.399434 0.833055 0.410162
O O5 0.120183 0.283984 0.089267
O O6 0.060282 0.404238 0.251800
O O7 0.976474 0.267683 0.192419
O O8 0.000000 0.382641 0.000000
O O9 0.250000 0.806182 0.073990
O O10 0.380377 0.884664 0.155032
O O11 0.366896 0.841166 0.901627
O O12 0.023183 0.108435 0.724612
O O13 0.500000 0.378199 0.500000
O O14 0.609575 0.500000 0.546442
O O15 0.909504 0.000000 0.654762
#
# Coordination Sequence:
#
# PCOD8212286 Si02
#       6
#     8   8   8   8   8   8
#     4  12  23  38  59  86 121 153 190 245 298 342
#     4   9  18  34  58  84 113 148 190 238 282 340
#     4  10  20  35  58  87 116 148 190 238 293 346
#     4  10  20  38  59  82 113 153 199 231 283 347
#     4  11  21  37  61  87 118 156 198 239 284 347
#     4  11  23  39  61  85 115 154 196 242 290 345
#
# _framework density 19.270536
#
# number of rings (size 3 to 8) (size 9 to 14) (size 15 to 20)
#    0.000    1.500    5.000    3.000    0.000    4.667 
#    0.000    0.000    0.000    3.000    0.000    0.000 
#    0.000    0.000    0.000    0.000    0.000    0.000 
#
# Total GULP energy -595212.476876 kJ/mol
# GULP energy per Si atom -12400.259935 kJ/mol
# Density = 1.922668 g / cm^3
# Si number density = 19.270536 Si / 1000 Ang^3
#
#
#
# Elastic Constant Matrix: (Units=GPa)
#
#
# Indices 1 2 3 4 5 6 
#
# 1 84.7742 21.0451 24.1699 0.0000 0.0000 0.0000
# 2 21.0451 85.9068 25.1923 0.0000 0.0000 0.0000
# 3 24.1699 25.1923 117.4353 0.0000 0.0000 0.0000
# 4 0.0000 0.0000 0.0000 9.7903 0.0000 0.0000
# 5 0.0000 0.0000 0.0000 0.0000 24.2135 0.0000
# 6 0.0000 0.0000 0.0000 0.0000 0.0000 13.4717
#
#
#
# Elastic Compliance Matrix: (Units=1/GPa)
#
#
# Indices 1 2 3 4 5 6 
#
# 1 0.013042 -0.002569 -0.002133 0.000000 0.000000 0.000000
# 2 -0.002569 0.012928 -0.002245 0.000000 0.000000 0.000000
# 3 -0.002133 -0.002245 0.009436 0.000000 0.000000 0.000000
# 4 0.000000 0.000000 0.000000 0.102142 0.000000 0.000000
# 5 0.000000 0.000000 0.000000 0.000000 0.041299 0.000000
# 6 0.000000 0.000000 0.000000 0.000000 0.000000 0.074229
#
#
# Mechanical properties :
#
#
# Convention : Reuss Voigt Hill
#
# Bulk Modulus (GPa) = 46.48567 47.65898 47.07233
# Shear Modulus (GPa) = 18.23875 24.00905 21.12390
#
# Velocity S-wave (km/s) = 3.07979 3.53355 3.31445
# Velocity P-wave (km/s) = 6.06810 6.43686 6.25520
#
# Compressibility (1/GPa) = 0.02151200
#
# Stress axis : x y z
#
# Youngs Moduli (GPa) = 76.67501 77.35032 105.97891
#
# Poissons Ratio (x) = 0.19875 0.22606
# Poissons Ratio (y) = 0.19701 0.23787
# Poissons Ratio (z) = 0.16355 0.17361
#
# Static dielectric constant tensor:
#      x y z
#    x 3.409070 0.000000 0.000000 
#    y 0.000000 3.238620 0.000000 
#    z 0.000000 0.000000 3.926630 
# 
# 
# High freq. dielectric constant tensor:
#      x y z
#    x 1.739270 0.000000 0.000000 
#    y 0.000000 1.722040 0.000000 
#    z 0.000000 0.000000 1.770580 
# 
# From -- ./inp_files/9614.got.cif
#   From: 2010.03.12/outbox.cif.g09.slc.cpg/sg51_5_cif.got.tgz:9614.got - 2010.04.16 13:43:02.
