data_PCOD8212423
_publ_section_title
;
Structure prediction by ZEFSAII (Michael W. Deem and Ramdas Pophale) SiO2 
 PCOD8212423
Probable space group: P M M A
;
_chemical_formula_sum "Si O2"
_cell_formula_units_Z 48
_cell_length_a 15.907184
_cell_length_b 8.895796
_cell_length_c 17.395697
_cell_angle_alpha 90.000000
_cell_angle_beta 90.000000
_cell_angle_gamma 90.000000
_cell_volume 2461.614005
_symmetry_space_group_name_H-M "P M M A"
_symmetry_group_IT_number 51
_symmetry_cell_setting 'orthorhombic'
loop_
_space_group_symop_operation_xyz
x,y,z
1/2-x,-y,z
1/2+x,-y,-z
-x,y,-z
-x,-y,-z
1/2+x,y,-z
1/2-x,y,z
x,-y,z
loop_
_atom_site_type_symbol
_atom_site_label
_atom_site_fract_x
_atom_site_fract_y
_atom_site_fract_z
Si Si1 0.423141 0.673651 0.840077
Si Si2 0.099604 0.169548 0.991451
Si Si3 0.155665 0.679120 0.684031
Si Si4 0.750000 0.178442 0.746685
Si Si5 0.119712 0.673680 0.143945
Si Si6 0.750000 0.678888 0.579453
Si Si7 0.091667 0.678828 0.522714
O O1 0.399251 0.500000 0.849519
O O2 0.376513 0.759818 0.909282
O O3 0.390452 0.740890 0.759774
O O4 0.522192 0.698141 0.840430
O O5 0.133558 0.000000 0.995342
O O6 0.143466 0.263252 0.059684
O O7 0.000000 0.176706 0.000000
O O8 0.250000 0.740994 0.683926
O O9 0.154331 0.500000 0.683374
O O10 0.109522 0.740883 0.608183
O O11 0.667512 0.235426 0.790488
O O12 0.750000 0.242554 0.661308
O O13 0.750000 0.000000 0.743835
O O14 0.146202 0.500000 0.147595
O O15 0.750000 0.500000 0.590358
O O16 0.833884 0.732516 0.534206
O O17 0.090020 0.500000 0.522359
O O18 0.000000 0.743589 0.500000
#
# Coordination Sequence:
#
# PCOD8212423 Si02
#       7
#     8   8   8   4   8   4   8
#     4   9  18  31  54  83 111 144 187 234 275 323
#     4   9  17  32  54  78 109 148 185 224 275 331
#     4   9  16  29  48  78 115 144 173 222 280 325
#     4  12  26  40  54  77 112 149 182 227 288 343
#     4  10  20  36  57  81 107 141 188 237 280 325
#     4  10  20  36  58  85 112 141 182 231 278 333
#     4   9  17  29  52  83 113 141 176 227 283 331
#
# _framework density 19.499403000000001
#
# number of rings (size 3 to 8) (size 9 to 14) (size 15 to 20)
#    0.000    2.500    0.833    1.750    2.333    2.667 
#    1.500    0.000    0.000    1.500    0.000    0.000 
#    0.000    0.000    0.000    0.000    0.000    0.000 
#
# Total GULP energy -595143.493020 kJ/mol
# GULP energy per Si atom -12398.822771 kJ/mol
# Density = 1.945502 g / cm^3
# Si number density = 19.499403 Si / 1000 Ang^3
#
#
#
# Elastic Constant Matrix: (Units=GPa)
#
#
# Indices 1 2 3 4 5 6 
#
# 1 101.2577 31.7554 75.1479 0.0000 0.0000 0.0000
# 2 31.7554 68.7239 57.6030 0.0000 0.0000 0.0000
# 3 75.1479 57.6030 218.6293 0.0000 0.0000 0.0000
# 4 0.0000 0.0000 0.0000 10.4236 0.0000 0.0000
# 5 0.0000 0.0000 0.0000 0.0000 29.8811 0.0000
# 6 0.0000 0.0000 0.0000 0.0000 0.0000 12.4981
#
#
#
# Elastic Compliance Matrix: (Units=1/GPa)
#
#
# Indices 1 2 3 4 5 6 
#
# 1 0.013744 -0.003069 -0.003916 0.000000 0.000000 0.000000
# 2 -0.003069 0.019360 -0.004046 0.000000 0.000000 0.000000
# 3 -0.003916 -0.004046 0.006986 0.000000 0.000000 0.000000
# 4 0.000000 0.000000 0.000000 0.095936 0.000000 0.000000
# 5 0.000000 0.000000 0.000000 0.000000 0.033466 0.000000
# 6 0.000000 0.000000 0.000000 0.000000 0.000000 0.080012
#
#
# Mechanical properties :
#
#
# Convention : Reuss Voigt Hill
#
# Bulk Modulus (GPa) = 55.46523 79.73594 67.60058
# Shear Modulus (GPa) = 18.01314 25.50088 21.75701
#
# Velocity S-wave (km/s) = 3.04267 3.62024 3.34395
# Velocity P-wave (km/s) = 6.39141 7.64560 7.04646
#
# Compressibility (1/GPa) = 0.01802931
#
# Stress axis : x y z
#
# Youngs Moduli (GPa) = 72.75815 51.65196 143.14564
#
# Poissons Ratio (x) = 0.15851 0.56051
# Poissons Ratio (y) = 0.22328 0.57918
# Poissons Ratio (z) = 0.28489 0.20899
#
# Static dielectric constant tensor:
#      x y z
#    x 3.549510 0.000000 0.000000 
#    y 0.000000 3.210680 0.000000 
#    z 0.000000 0.000000 3.843310 
# 
# 
# High freq. dielectric constant tensor:
#      x y z
#    x 1.755530 0.000000 0.000000 
#    y 0.000000 1.718750 0.000000 
#    z 0.000000 0.000000 1.776830 
# 
# From -- ./inp_files/29551.got.cif
#   From: 2010.03.12/outbox.cif.g09.slc.cpg/sg51_15_cif.got.tgz:29551.got - 2010.04.16 13:43:02.
