data_PCOD8212986
_publ_section_title
;
Structure prediction by ZEFSAII (Michael W. Deem and Ramdas Pophale) SiO2 
 PCOD8212986
Probable space group: P M M A
;
_chemical_formula_sum "Si O2"
_cell_formula_units_Z 64
_cell_length_a 17.044132
_cell_length_b 14.050263
_cell_length_c 13.774946
_cell_angle_alpha 90.000000
_cell_angle_beta 90.000000
_cell_angle_gamma 90.000000
_cell_volume 3298.748818
_symmetry_space_group_name_H-M "P M M A"
_symmetry_group_IT_number 51
_symmetry_cell_setting 'orthorhombic'
loop_
_space_group_symop_operation_xyz
x,y,z
1/2-x,-y,z
1/2+x,-y,-z
-x,y,-z
-x,-y,-z
1/2+x,y,-z
1/2-x,y,z
x,-y,z
loop_
_atom_site_type_symbol
_atom_site_label
_atom_site_fract_x
_atom_site_fract_y
_atom_site_fract_z
Si Si1 0.926756 0.755500 0.564123
Si Si2 0.840003 0.891926 0.242951
Si Si3 0.839937 0.283038 0.378486
Si Si4 0.085179 0.109797 0.958469
Si Si5 0.982818 0.391237 0.304759
Si Si6 0.157848 0.890037 0.295834
Si Si7 0.544115 0.608361 0.904218
Si Si8 0.160797 0.228402 0.112562
O O1 0.858637 0.717553 0.493017
O O2 0.892743 0.847281 0.617282
O O3 0.000000 0.789728 0.500000
O O4 0.953158 0.672673 0.638522
O O5 0.750000 0.878985 0.206217
O O6 0.858242 0.820454 0.331240
O O7 0.901910 0.870476 0.156017
O O8 0.852460 0.000000 0.280699
O O9 0.750000 0.312759 0.362740
O O10 0.893955 0.362154 0.328433
O O11 0.101353 0.000000 0.982086
O O12 0.149768 0.172618 0.012386
O O13 0.000000 0.140711 0.000000
O O14 0.997501 0.500000 0.337072
O O15 0.988807 0.380017 0.189074
O O16 0.250000 0.874808 0.315761
O O17 0.128814 0.838722 0.198244
O O18 0.136411 0.000000 0.285419
O O19 0.571241 0.500000 0.919575
O O20 0.620948 0.669518 0.887310
O O21 0.500000 0.646341 0.000000
O O22 0.250000 0.252412 0.130346
#
# Coordination Sequence:
#
# PCOD8212986 Si02
#       8
#     8   8   8   8   8   8   8   8
#     4  10  21  38  61  85 115 154 197 246 294 348
#     4   9  19  36  55  80 119 161 198 240 294 352
#     4  10  22  37  59  89 118 150 198 248 294 351
#     4  10  21  34  53  82 116 156 198 239 283 342
#     4  10  22  42  64  86 117 153 189 240 300 352
#     4  10  21  37  57  84 120 157 194 240 294 348
#     4  10  22  41  65  89 116 152 192 235 288 352
#     4  11  22  36  59  86 118 154 191 238 289 345
#
# _framework density 19.401295999999999
#
# number of rings (size 3 to 8) (size 9 to 14) (size 15 to 20)
#    0.000    2.000    1.250    1.500    3.500    4.750 
#    0.000    4.375    0.000    3.375    0.000    0.000 
#    0.000    0.000    0.000    0.000    0.000    0.000 
#
# Total GULP energy -793651.826803 kJ/mol
# GULP energy per Si atom -12400.809794 kJ/mol
# Density = 1.935714 g / cm^3
# Si number density = 19.401296 Si / 1000 Ang^3
#
#
#
# Elastic Constant Matrix: (Units=GPa)
#
#
# Indices 1 2 3 4 5 6 
#
# 1 73.7755 50.7391 44.4635 0.0000 0.0000 0.0000
# 2 50.7391 110.6471 55.8651 0.0000 0.0000 0.0000
# 3 44.4635 55.8651 114.3744 0.0000 0.0000 0.0000
# 4 0.0000 0.0000 0.0000 30.1415 0.0000 0.0000
# 5 0.0000 0.0000 0.0000 0.0000 29.3358 0.0000
# 6 0.0000 0.0000 0.0000 0.0000 0.0000 33.0685
#
#
#
# Elastic Compliance Matrix: (Units=1/GPa)
#
#
# Indices 1 2 3 4 5 6 
#
# 1 0.021558 -0.007505 -0.004715 0.000000 0.000000 0.000000
# 2 -0.007505 0.014609 -0.004218 0.000000 0.000000 0.000000
# 3 -0.004715 -0.004218 0.012636 0.000000 0.000000 0.000000
# 4 0.000000 0.000000 0.000000 0.033177 0.000000 0.000000
# 5 0.000000 0.000000 0.000000 0.000000 0.034088 0.000000
# 6 0.000000 0.000000 0.000000 0.000000 0.000000 0.030240
#
#
# Mechanical properties :
#
#
# Convention : Reuss Voigt Hill
#
# Bulk Modulus (GPa) = 62.78566 66.77026 64.77796
# Shear Modulus (GPa) = 27.10122 28.35781 27.72952
#
# Velocity S-wave (km/s) = 3.74154 3.82729 3.78466
# Velocity P-wave (km/s) = 7.14824 7.34990 7.24977
#
# Compressibility (1/GPa) = 0.01592720
#
# Stress axis : x y z
#
# Youngs Moduli (GPa) = 46.38661 68.45090 79.13678
#
# Poissons Ratio (x) = 0.51374 0.37312
# Poissons Ratio (y) = 0.34814 0.33379
# Poissons Ratio (z) = 0.21871 0.28872
#
# Static dielectric constant tensor:
#      x y z
#    x 3.496040 0.000000 0.000000 
#    y 0.000000 3.524630 0.000000 
#    z 0.000000 0.000000 3.670890 
# 
# 
# High freq. dielectric constant tensor:
#      x y z
#    x 1.749830 0.000000 0.000000 
#    y 0.000000 1.755220 0.000000 
#    z 0.000000 0.000000 1.761960 
# 
# From -- ./inp_files/17520.got.cif
#   From: 2010.03.12/outbox.cif.g09.slc.cpg/sg51_9_cif.got.tgz:17520.got - 2010.04.16 13:43:02.
