data_PCOD8212852
_publ_section_title
;
Structure prediction by ZEFSAII (Michael W. Deem and Ramdas Pophale) SiO2 
 PCOD8212852
Probable space group: P M M A
;
_chemical_formula_sum "Si O2"
_cell_formula_units_Z 48
_cell_length_a 18.008216
_cell_length_b 14.425796
_cell_length_c 9.263444
_cell_angle_alpha 90.000000
_cell_angle_beta 90.000000
_cell_angle_gamma 90.000000
_cell_volume 2406.483886
_symmetry_space_group_name_H-M "P M M A"
_symmetry_group_IT_number 51
_symmetry_cell_setting 'orthorhombic'
loop_
_space_group_symop_operation_xyz
x,y,z
1/2-x,-y,z
1/2+x,-y,-z
-x,y,-z
-x,-y,-z
1/2+x,y,-z
1/2-x,y,z
x,-y,z
loop_
_atom_site_type_symbol
_atom_site_label
_atom_site_fract_x
_atom_site_fract_y
_atom_site_fract_z
Si Si1 0.833925 0.245295 0.962171
Si Si2 0.539638 0.602054 0.648236
Si Si3 0.336045 0.749955 0.370968
Si Si4 0.579236 0.106678 0.431494
Si Si5 0.567873 0.891586 0.099092
Si Si6 0.435787 0.600897 0.892750
O O1 0.750000 0.270592 0.996246
O O2 0.846191 0.220235 0.794702
O O3 0.855869 0.151245 0.042349
O O4 0.878893 0.331124 0.028347
O O5 0.500000 0.589184 0.500000
O O6 0.562156 0.500000 0.709757
O O7 0.614325 0.658586 0.617162
O O8 0.477544 0.648143 0.754607
O O9 0.250000 0.726797 0.406074
O O10 0.361905 0.829389 0.483552
O O11 0.500000 0.121532 0.500000
O O12 0.564476 0.136369 0.266572
O O13 0.606771 0.000000 0.443213
O O14 0.571591 0.000000 0.076680
O O15 0.500000 0.851024 0.000000
O O16 0.398421 0.500000 0.852242
O O17 0.500000 0.577158 0.000000
#
# Coordination Sequence:
#
# PCOD8212852 Si02
#       6
#     8   8   8   8   8   8
#     4  11  24  38  57  89 124 160 202 253 311 363
#     4  10  22  40  62  89 119 156 203 251 302 364
#     4  11  24  39  59  89 125 164 202 250 308 363
#     4  10  22  40  63  90 118 155 203 248 297 361
#     4  10  22  40  64  91 119 156 201 250 300 355
#     4  10  20  38  63  87 115 156 203 251 302 361
#
# _framework density 19.946113
#
# number of rings (size 3 to 8) (size 9 to 14) (size 15 to 20)
#    0.000    1.667    1.667    2.000    4.667    4.000 
#    0.000    5.000    0.000    3.000    0.000    0.000 
#    0.000    0.000    0.000    0.000    0.000    0.000 
#
# Total GULP energy -594694.229768 kJ/mol
# GULP energy per Si atom -12389.463120 kJ/mol
# Density = 1.990071 g / cm^3
# Si number density = 19.946113 Si / 1000 Ang^3
#
#
#
# Elastic Constant Matrix: (Units=GPa)
#
#
# Indices 1 2 3 4 5 6 
#
# 1 122.3405 61.0791 72.7739 0.0000 0.0000 0.0000
# 2 61.0791 69.8719 64.6476 0.0000 0.0000 0.0000
# 3 72.7739 64.6476 135.6656 0.0000 0.0000 0.0000
# 4 0.0000 0.0000 0.0000 33.3023 0.0000 0.0000
# 5 0.0000 0.0000 0.0000 0.0000 33.5457 0.0000
# 6 0.0000 0.0000 0.0000 0.0000 0.0000 17.3116
#
#
#
# Elastic Compliance Matrix: (Units=1/GPa)
#
#
# Indices 1 2 3 4 5 6 
#
# 1 0.015276 -0.010324 -0.003275 0.000000 0.000000 0.000000
# 2 -0.010324 0.032574 -0.009985 0.000000 0.000000 0.000000
# 3 -0.003275 -0.009985 0.013886 0.000000 0.000000 0.000000
# 4 0.000000 0.000000 0.000000 0.030028 0.000000 0.000000
# 5 0.000000 0.000000 0.000000 0.000000 0.029810 0.000000
# 6 0.000000 0.000000 0.000000 0.000000 0.000000 0.057765
#
#
# Mechanical properties :
#
#
# Convention : Reuss Voigt Hill
#
# Bulk Modulus (GPa) = 68.63501 80.54212 74.58856
# Shear Modulus (GPa) = 21.61112 25.45707 23.53409
#
# Velocity S-wave (km/s) = 3.29519 3.57640 3.43867
# Velocity P-wave (km/s) = 6.99733 7.58431 7.29672
#
# Compressibility (1/GPa) = 0.01456982
#
# Stress axis : x y z
#
# Youngs Moduli (GPa) = 65.46139 30.69889 72.01627
#
# Poissons Ratio (x) = 0.31692 0.23586
# Poissons Ratio (y) = 0.67580 0.71905
# Poissons Ratio (z) = 0.21439 0.30652
#
# Static dielectric constant tensor:
#      x y z
#    x 3.364390 0.000000 0.000000 
#    y 0.000000 3.752940 0.000000 
#    z 0.000000 0.000000 4.052880 
# 
# 
# High freq. dielectric constant tensor:
#      x y z
#    x 1.759520 0.000000 0.000000 
#    y 0.000000 1.783880 0.000000 
#    z 0.000000 0.000000 1.799410 
# 
# From -- ./inp_files/9638.got.cif
#   From: 2010.03.12/outbox.cif.g09.slc.cpg/sg51_5_cif.got.tgz:9638.got - 2010.04.16 13:43:02.
