data_PCOD8212581
_publ_section_title
;
Structure prediction by ZEFSAII (Michael W. Deem and Ramdas Pophale) SiO2 
 PCOD8212581
Probable space group: P M M A
;
_chemical_formula_sum "Si O2"
_cell_formula_units_Z 48
_cell_length_a 13.642122
_cell_length_b 8.841924
_cell_length_c 20.819070
_cell_angle_alpha 90.000000
_cell_angle_beta 90.000000
_cell_angle_gamma 90.000000
_cell_volume 2511.250476
_symmetry_space_group_name_H-M "P M M A"
_symmetry_group_IT_number 51
_symmetry_cell_setting 'orthorhombic'
loop_
_space_group_symop_operation_xyz
x,y,z
1/2-x,-y,z
1/2+x,-y,-z
-x,y,-z
-x,-y,-z
1/2+x,y,-z
1/2-x,y,z
x,-y,z
loop_
_atom_site_type_symbol
_atom_site_label
_atom_site_fract_x
_atom_site_fract_y
_atom_site_fract_z
Si Si1 0.362331 0.822058 0.471923
Si Si2 0.866194 0.667851 0.039129
Si Si3 0.459514 0.320591 0.592352
Si Si4 0.141337 0.677234 0.103713
Si Si5 0.863800 0.822836 0.287347
Si Si6 0.038635 0.175580 0.844574
O O1 0.250000 0.788952 0.453666
O O2 0.430833 0.742663 0.418920
O O3 0.384756 0.753239 0.541727
O O4 0.384417 0.000000 0.473902
O O5 0.750000 0.664917 0.036086
O O6 0.905895 0.500000 0.057243
O O7 0.900730 0.786365 0.091706
O O8 0.902468 0.713933 0.967503
O O9 0.459384 0.500000 0.583788
O O10 0.425659 0.275691 0.663014
O O11 0.250000 0.748250 0.112931
O O12 0.148329 0.500000 0.113980
O O13 0.067660 0.745702 0.156040
O O14 0.750000 0.781778 0.293833
O O15 0.899412 0.772269 0.216995
O O16 0.882047 0.000000 0.299914
O O17 0.019000 0.000000 0.842565
#
# Coordination Sequence:
#
# PCOD8212581 Si02
#       6
#     8   8   8   8   8   8
#     4  10  20  36  60  86 114 150 185 216 258 314
#     4   9  18  33  53  76 103 137 175 215 263 321
#     4  11  22  35  56  86 116 144 179 226 271 309
#     4   9  19  36  55  74 100 137 178 218 265 322
#     4  10  22  40  57  74 105 147 183 215 259 320
#     4  11  22  34  52  79 107 136 174 221 270 317
#
# _framework density 19.113983000000001
#
# number of rings (size 3 to 8) (size 9 to 14) (size 15 to 20)
#    0.000    2.000    0.000    6.000    0.000    9.000 
#    0.000    2.500    0.000    1.000    0.000    0.000 
#    0.000    0.000    0.000    0.000    0.000    0.000 
#
# Total GULP energy -595271.924668 kJ/mol
# GULP energy per Si atom -12401.498431 kJ/mol
# Density = 1.907048 g / cm^3
# Si number density = 19.113983 Si / 1000 Ang^3
#
#
#
# Elastic Constant Matrix: (Units=GPa)
#
#
# Indices 1 2 3 4 5 6 
#
# 1 97.8129 45.6787 50.2907 0.0000 0.0000 0.0000
# 2 45.6787 80.4536 43.4281 0.0000 0.0000 0.0000
# 3 50.2907 43.4281 85.6738 0.0000 0.0000 0.0000
# 4 0.0000 0.0000 0.0000 24.3889 0.0000 0.0000
# 5 0.0000 0.0000 0.0000 0.0000 27.4323 0.0000
# 6 0.0000 0.0000 0.0000 0.0000 0.0000 28.6225
#
#
#
# Elastic Compliance Matrix: (Units=1/GPa)
#
#
# Indices 1 2 3 4 5 6 
#
# 1 0.016308 -0.005633 -0.006717 0.000000 0.000000 0.000000
# 2 -0.005633 0.019057 -0.006354 0.000000 0.000000 0.000000
# 3 -0.006717 -0.006354 0.018836 0.000000 0.000000 0.000000
# 4 0.000000 0.000000 0.000000 0.041002 0.000000 0.000000
# 5 0.000000 0.000000 0.000000 0.000000 0.036453 0.000000
# 6 0.000000 0.000000 0.000000 0.000000 0.000000 0.034938
#
#
# Mechanical properties :
#
#
# Convention : Reuss Voigt Hill
#
# Bulk Modulus (GPa) = 59.54795 60.30391 59.92593
# Shear Modulus (GPa) = 23.85491 24.39160 24.12326
#
# Velocity S-wave (km/s) = 3.53659 3.57615 3.55642
# Velocity P-wave (km/s) = 6.92086 6.97638 6.94868
#
# Compressibility (1/GPa) = 0.01679319
#
# Stress axis : x y z
#
# Youngs Moduli (GPa) = 61.31945 52.47307 53.09007
#
# Poissons Ratio (x) = 0.29559 0.35663
# Poissons Ratio (y) = 0.34542 0.33731
# Poissons Ratio (z) = 0.41191 0.33339
#
# Static dielectric constant tensor:
#      x y z
#    x 3.697430 0.000000 0.000000 
#    y 0.000000 3.436260 0.000000 
#    z 0.000000 0.000000 3.441000 
# 
# 
# High freq. dielectric constant tensor:
#      x y z
#    x 1.759890 0.000000 0.000000 
#    y 0.000000 1.739400 0.000000 
#    z 0.000000 0.000000 1.726260 
# 
# From -- ./inp_files/29445.got.cif
#   From: 2010.03.12/outbox.cif.g09.slc.cpg/sg51_15_cif.got.tgz:29445.got - 2010.04.16 13:43:02.
