data_PCOD8212384
_publ_section_title
;
Structure prediction by ZEFSAII (Michael W. Deem and Ramdas Pophale) SiO2 
 PCOD8212384
Probable space group: P M M A
;
_chemical_formula_sum "Si O2"
_cell_formula_units_Z 40
_cell_length_a 8.890611
_cell_length_b 25.667214
_cell_length_c 9.433813
_cell_angle_alpha 90.000000
_cell_angle_beta 90.000000
_cell_angle_gamma 90.000000
_cell_volume 2152.769855
_symmetry_space_group_name_H-M "P M M A"
_symmetry_group_IT_number 51
_symmetry_cell_setting 'orthorhombic'
loop_
_space_group_symop_operation_xyz
x,y,z
1/2-x,-y,z
1/2+x,-y,-z
-x,y,-z
-x,-y,-z
1/2+x,y,-z
1/2-x,y,z
x,-y,z
loop_
_atom_site_type_symbol
_atom_site_label
_atom_site_fract_x
_atom_site_fract_y
_atom_site_fract_z
Si Si1 0.071097 0.902768 0.846277
Si Si2 0.573862 0.000000 0.346133
Si Si3 0.072939 0.388107 0.151918
Si Si4 0.575432 0.500000 0.849823
Si Si5 0.425709 0.700375 0.354536
Si Si6 0.427590 0.180608 0.349394
O O1 0.250000 0.897910 0.861770
O O2 0.003197 0.850768 0.778167
O O3 0.023257 0.949863 0.743487
O O4 0.000000 0.912415 0.000000
O O5 0.500000 0.000000 0.500000
O O6 0.750000 0.000000 0.371831
O O7 0.250000 0.381320 0.134493
O O8 0.033276 0.444754 0.226270
O O9 0.006523 0.340205 0.241670
O O10 0.000000 0.384505 0.000000
O O11 0.750000 0.500000 0.881412
O O12 0.500000 0.500000 0.000000
O O13 0.500000 0.684637 0.500000
O O14 0.250000 0.692738 0.372711
O O15 0.464415 0.759548 0.311900
O O16 0.500000 0.164536 0.500000
O O17 0.250000 0.169413 0.357200
#
# Coordination Sequence:
#
# PCOD8212384 Si02
#       6
#     8   4   8   4   8   8
#     4  11  23  39  58  83 112 142 175 216 262 306
#     4  10  23  40  60  84 110 142 179 214 255 306
#     4   9  17  30  48  71  96 126 164 207 252 301
#     4   8  14  26  45  66  92 124 160 202 249 298
#     4   9  19  34  51  72 101 134 169 207 252 302
#     4  10  20  36  56  78 104 138 177 216 257 309
#
# _framework density 18.580714
#
# number of rings (size 3 to 8) (size 9 to 14) (size 15 to 20)
#    0.000    2.400    0.000    2.100    0.000    5.600 
#    0.000    2.500    0.000    0.000    0.000    0.000 
#    0.000    0.000    0.000    0.000    0.000    0.000 
#
# Total GULP energy -495750.797876 kJ/mol
# GULP energy per Si atom -12393.769947 kJ/mol
# Density = 1.853842 g / cm^3
# Si number density = 18.580714 Si / 1000 Ang^3
#
#
#
# Elastic Constant Matrix: (Units=GPa)
#
#
# Indices 1 2 3 4 5 6 
#
# 1 49.9046 43.6536 46.8241 0.0000 0.0000 0.0000
# 2 43.6536 143.3898 89.3523 0.0000 0.0000 0.0000
# 3 46.8241 89.3523 133.5901 0.0000 0.0000 0.0000
# 4 0.0000 0.0000 0.0000 40.9545 0.0000 0.0000
# 5 0.0000 0.0000 0.0000 0.0000 33.4632 0.0000
# 6 0.0000 0.0000 0.0000 0.0000 0.0000 24.1507
#
#
#
# Elastic Compliance Matrix: (Units=1/GPa)
#
#
# Indices 1 2 3 4 5 6 
#
# 1 0.031573 -0.004657 -0.007951 0.000000 0.000000 0.000000
# 2 -0.004657 0.012645 -0.006825 0.000000 0.000000 0.000000
# 3 -0.007951 -0.006825 0.014838 0.000000 0.000000 0.000000
# 4 0.000000 0.000000 0.000000 0.024417 0.000000 0.000000
# 5 0.000000 0.000000 0.000000 0.000000 0.029884 0.000000
# 6 0.000000 0.000000 0.000000 0.000000 0.000000 0.041407
#
#
# Mechanical properties :
#
#
# Convention : Reuss Voigt Hill
#
# Bulk Modulus (GPa) = 49.53534 76.28272 62.90903
# Shear Modulus (GPa) = 24.95512 29.51731 27.23621
#
# Velocity S-wave (km/s) = 3.66876 3.99005 3.83277
# Velocity P-wave (km/s) = 6.68310 7.89754 7.31557
#
# Compressibility (1/GPa) = 0.02018761
#
# Stress axis : x y z
#
# Youngs Moduli (GPa) = 31.67305 79.08313 67.39573
#
# Poissons Ratio (x) = 0.36830 0.53589
# Poissons Ratio (y) = 0.14750 0.45999
# Poissons Ratio (z) = 0.25185 0.53976
#
# Static dielectric constant tensor:
#      x y z
#    x 3.395060 0.000000 0.000000 
#    y 0.000000 4.027600 0.000000 
#    z 0.000000 0.000000 2.879940 
# 
# 
# High freq. dielectric constant tensor:
#      x y z
#    x 1.722090 0.000000 0.000000 
#    y 0.000000 1.744360 0.000000 
#    z 0.000000 0.000000 1.703240 
# 
# From -- ./inp_files/5630.got.cif
#   From: 2010.03.12/outbox.cif.g09.slc.cpg/sg51_3_cif.got.tgz:5630.got - 2010.04.16 13:43:02.
