data_PCOD8212673
_publ_section_title
;
Structure prediction by ZEFSAII (Michael W. Deem and Ramdas Pophale) SiO2 
 PCOD8212673
Probable space group: P M M A
;
_chemical_formula_sum "Si O2"
_cell_formula_units_Z 64
_cell_length_a 14.555198
_cell_length_b 23.490443
_cell_length_c 9.437668
_cell_angle_alpha 90.000000
_cell_angle_beta 90.000000
_cell_angle_gamma 90.000000
_cell_volume 3226.814653
_symmetry_space_group_name_H-M "P M M A"
_symmetry_group_IT_number 51
_symmetry_cell_setting 'orthorhombic'
loop_
_space_group_symop_operation_xyz
x,y,z
1/2-x,-y,z
1/2+x,-y,-z
-x,y,-z
-x,-y,-z
1/2+x,y,-z
1/2-x,y,z
x,-y,z
loop_
_atom_site_type_symbol
_atom_site_label
_atom_site_fract_x
_atom_site_fract_y
_atom_site_fract_z
Si Si1 0.643312 0.065143 0.341333
Si Si2 0.645357 0.368431 0.145339
Si Si3 0.012600 0.565451 0.662092
Si Si4 0.145858 0.565082 0.126840
Si Si5 0.646986 0.835909 0.847384
Si Si6 0.520162 0.826975 0.348682
Si Si7 0.591927 0.757004 0.086908
Si Si8 0.643330 0.939808 0.011133
O O1 0.750000 0.079248 0.382336
O O2 0.571164 0.113322 0.394496
O O3 0.620107 0.000000 0.393918
O O4 0.629385 0.068673 0.175206
O O5 0.750000 0.386999 0.169646
O O6 0.588607 0.392298 0.276979
O O7 0.639086 0.300843 0.135398
O O8 0.607775 0.396525 0.000853
O O9 0.044264 0.500000 0.681770
O O10 0.000000 0.581674 0.500000
O O11 0.915028 0.576939 0.735790
O O12 0.250000 0.581490 0.167753
O O13 0.138392 0.500000 0.076265
O O14 0.750000 0.845861 0.789486
O O15 0.582664 0.827170 0.713769
O O16 0.596916 0.889967 0.922010
O O17 0.654858 0.788492 0.970931
O O18 0.500000 0.795851 0.500000
O O19 0.580820 0.792831 0.233111
O O20 0.500000 0.743997 0.000000
O O21 0.750000 0.938519 0.973757
O O22 0.600089 0.000000 0.961882
#
# Coordination Sequence:
#
# PCOD8212673 Si02
#       8
#     8   8   8   8   8   8   8   8
#     4   9  18  34  57  83 112 148 186 226 276 334
#     4  11  22  36  59  87 111 144 190 240 286 331
#     4  10  21  36  56  84 121 160 191 225 273 330
#     4   9  18  34  57  85 116 150 189 234 283 330
#     4  10  20  37  58  82 110 143 187 237 282 334
#     4  11  24  38  56  84 116 148 185 227 283 343
#     4  10  21  38  59  81 108 147 190 236 283 333
#     4   8  14  27  52  82 105 132 175 225 273 321
#
# _framework density 19.833801999999999
#
# number of rings (size 3 to 8) (size 9 to 14) (size 15 to 20)
#    0.000    2.250    1.250    2.625    0.000    4.500 
#    0.000    2.500    0.000    1.500    0.000    0.000 
#    0.000    0.000    0.000    0.000    0.000    0.000 
#
# Total GULP energy -792966.123694 kJ/mol
# GULP energy per Si atom -12390.095683 kJ/mol
# Density = 1.978866 g / cm^3
# Si number density = 19.833802 Si / 1000 Ang^3
#
#
#
# Elastic Constant Matrix: (Units=GPa)
#
#
# Indices 1 2 3 4 5 6 
#
# 1 81.5408 29.9661 40.0469 0.0000 0.0000 0.0000
# 2 29.9661 92.8207 43.6753 0.0000 0.0000 0.0000
# 3 40.0469 43.6753 116.6854 0.0000 0.0000 0.0000
# 4 0.0000 0.0000 0.0000 7.9116 0.0000 0.0000
# 5 0.0000 0.0000 0.0000 0.0000 19.7004 0.0000
# 6 0.0000 0.0000 0.0000 0.0000 0.0000 26.4736
#
#
#
# Elastic Compliance Matrix: (Units=1/GPa)
#
#
# Indices 1 2 3 4 5 6 
#
# 1 0.015417 -0.003019 -0.004161 0.000000 0.000000 0.000000
# 2 -0.003019 0.013668 -0.004080 0.000000 0.000000 0.000000
# 3 -0.004161 -0.004080 0.011525 0.000000 0.000000 0.000000
# 4 0.000000 0.000000 0.000000 0.126396 0.000000 0.000000
# 5 0.000000 0.000000 0.000000 0.000000 0.050760 0.000000
# 6 0.000000 0.000000 0.000000 0.000000 0.000000 0.037773
#
#
# Mechanical properties :
#
#
# Convention : Reuss Voigt Hill
#
# Bulk Modulus (GPa) = 55.27912 57.60260 56.44086
# Shear Modulus (GPa) = 17.60007 22.64104 20.12055
#
# Velocity S-wave (km/s) = 2.98212 3.38233 3.18851
# Velocity P-wave (km/s) = 6.30786 6.66027 6.48646
#
# Compressibility (1/GPa) = 0.01809001
#
# Stress axis : x y z
#
# Youngs Moduli (GPa) = 64.86354 73.16466 86.76681
#
# Poissons Ratio (x) = 0.22090 0.36104
# Poissons Ratio (y) = 0.19584 0.35398
# Poissons Ratio (z) = 0.26990 0.29848
#
# Static dielectric constant tensor:
#      x y z
#    x 3.551250 0.000000 0.000000 
#    y 0.000000 3.709930 0.000000 
#    z 0.000000 0.000000 3.426430 
# 
# 
# High freq. dielectric constant tensor:
#      x y z
#    x 1.777040 0.000000 0.000000 
#    y 0.000000 1.767620 0.000000 
#    z 0.000000 0.000000 1.756190 
# 
# From -- ./inp_files/8671.got.cif
#   From: 2010.03.12/outbox.cif.g09.slc.cpg/sg51_5_cif.got.tgz:8671.got - 2010.04.16 13:43:02.
