data_PCOD8212196
_publ_section_title
;
Structure prediction by ZEFSAII (Michael W. Deem and Ramdas Pophale) SiO2 
 PCOD8212196
Probable space group: P M M A
;
_chemical_formula_sum "Si O2"
_cell_formula_units_Z 56
_cell_length_a 19.008638
_cell_length_b 9.385720
_cell_length_c 16.267193
_cell_angle_alpha 90.000000
_cell_angle_beta 90.000000
_cell_angle_gamma 90.000000
_cell_volume 2902.225899
_symmetry_space_group_name_H-M "P M M A"
_symmetry_group_IT_number 51
_symmetry_cell_setting 'orthorhombic'
loop_
_space_group_symop_operation_xyz
x,y,z
1/2-x,-y,z
1/2+x,-y,-z
-x,y,-z
-x,-y,-z
1/2+x,y,-z
1/2-x,y,z
x,-y,z
loop_
_atom_site_type_symbol
_atom_site_label
_atom_site_fract_x
_atom_site_fract_y
_atom_site_fract_z
Si Si1 0.043119 0.163445 0.921334
Si Si2 0.832257 0.666686 0.367578
Si Si3 0.416730 0.664034 0.334830
Si Si4 0.917634 0.831708 0.506146
Si Si5 0.171931 0.837453 0.023660
Si Si6 0.168603 0.335487 0.176997
Si Si7 0.054472 0.661622 0.759546
O O1 0.030607 0.245010 0.836792
O O2 0.021123 0.000000 0.906641
O O3 0.125537 0.181075 0.942246
O O4 0.000000 0.223957 0.000000
O O5 0.750000 0.708146 0.361405
O O6 0.841782 0.500000 0.389808
O O7 0.870798 0.761554 0.435405
O O8 0.869256 0.699548 0.279279
O O9 0.400208 0.500000 0.357869
O O10 0.391846 0.765061 0.408301
O O11 0.372029 0.715609 0.257106
O O12 0.498964 0.684470 0.314256
O O13 0.000000 0.794133 0.500000
O O14 0.904312 0.000000 0.504762
O O15 0.250000 0.781735 0.001830
O O16 0.138582 0.749234 0.098803
O O17 0.172945 0.000000 0.053042
O O18 0.250000 0.300299 0.190512
O O19 0.154367 0.500000 0.159196
O O20 0.052656 0.500000 0.791333
#
# Coordination Sequence:
#
# PCOD8212196 Si02
#       7
#     8   8   8   8   8   8   8
#     4  10  21  35  52  77 109 143 183 230 279 333
#     4  10  22  41  63  86 115 153 195 238 287 343
#     4  10  20  35  57  81 110 147 184 224 278 339
#     4  11  23  38  59  87 116 148 188 233 282 339
#     4   9  18  33  51  71 100 140 180 217 268 332
#     4   9  18  32  51  78 108 137 176 225 274 326
#     4  10  21  36  56  82 109 143 187 234 281 334
#
# _framework density 19.295534
#
# number of rings (size 3 to 8) (size 9 to 14) (size 15 to 20)
#    0.000    2.143    1.429    1.286    0.000    4.571 
#    0.000    1.429    0.000    0.000    0.000    0.000 
#    0.000    0.000    0.000    0.000    0.000    0.000 
#
# Total GULP energy -694358.987756 kJ/mol
# GULP energy per Si atom -12399.267638 kJ/mol
# Density = 1.925162 g / cm^3
# Si number density = 19.295534 Si / 1000 Ang^3
#
#
#
# Elastic Constant Matrix: (Units=GPa)
#
#
# Indices 1 2 3 4 5 6 
#
# 1 69.8580 25.4632 27.3519 0.0000 0.0000 0.0000
# 2 25.4632 66.1693 49.6877 0.0000 0.0000 0.0000
# 3 27.3519 49.6877 98.8147 0.0000 0.0000 0.0000
# 4 0.0000 0.0000 0.0000 22.9292 0.0000 0.0000
# 5 0.0000 0.0000 0.0000 0.0000 28.7534 0.0000
# 6 0.0000 0.0000 0.0000 0.0000 0.0000 23.6947
#
#
#
# Elastic Compliance Matrix: (Units=1/GPa)
#
#
# Indices 1 2 3 4 5 6 
#
# 1 0.016961 -0.004822 -0.002270 0.000000 0.000000 0.000000
# 2 -0.004822 0.025652 -0.011564 0.000000 0.000000 0.000000
# 3 -0.002270 -0.011564 0.016563 0.000000 0.000000 0.000000
# 4 0.000000 0.000000 0.000000 0.043612 0.000000 0.000000
# 5 0.000000 0.000000 0.000000 0.000000 0.034778 0.000000
# 6 0.000000 0.000000 0.000000 0.000000 0.000000 0.042203
#
#
# Mechanical properties :
#
#
# Convention : Reuss Voigt Hill
#
# Bulk Modulus (GPa) = 45.73798 48.87196 47.30497
# Shear Modulus (GPa) = 22.28446 23.89810 23.09128
#
# Velocity S-wave (km/s) = 3.40207 3.52309 3.46311
# Velocity P-wave (km/s) = 6.25999 6.47555 6.36868
#
# Compressibility (1/GPa) = 0.02186367
#
# Stress axis : x y z
#
# Youngs Moduli (GPa) = 58.95775 38.98312 60.37523
#
# Poissons Ratio (x) = 0.18799 0.13705
# Poissons Ratio (y) = 0.28432 0.69818
# Poissons Ratio (z) = 0.13383 0.45080
#
# Static dielectric constant tensor:
#      x y z
#    x 3.712220 0.000000 0.000000 
#    y 0.000000 3.436770 0.000000 
#    z 0.000000 0.000000 3.402370 
# 
# 
# High freq. dielectric constant tensor:
#      x y z
#    x 1.758700 0.000000 0.000000 
#    y 0.000000 1.741700 0.000000 
#    z 0.000000 0.000000 1.745270 
# 
# From -- ./inp_files/25650.got.cif
#   From: 2010.03.12/outbox.cif.g09.slc.cpg/sg51_13_cif.got.tgz:25650.got - 2010.04.16 13:43:02.
