data_PCOD8212450
_publ_section_title
;
Structure prediction by ZEFSAII (Michael W. Deem and Ramdas Pophale) SiO2 
 PCOD8212450
Probable space group: P M M A
;
_chemical_formula_sum "Si O2"
_cell_formula_units_Z 48
_cell_length_a 8.723895
_cell_length_b 29.916925
_cell_length_c 9.483469
_cell_angle_alpha 90.000000
_cell_angle_beta 90.000000
_cell_angle_gamma 90.000000
_cell_volume 2475.110607
_symmetry_space_group_name_H-M "P M M A"
_symmetry_group_IT_number 51
_symmetry_cell_setting 'orthorhombic'
loop_
_space_group_symop_operation_xyz
x,y,z
1/2-x,-y,z
1/2+x,-y,-z
-x,y,-z
-x,-y,-z
1/2+x,y,-z
1/2-x,y,z
x,-y,z
loop_
_atom_site_type_symbol
_atom_site_label
_atom_site_fract_x
_atom_site_fract_y
_atom_site_fract_z
Si Si1 0.068294 0.200352 0.655027
Si Si2 0.069756 0.620062 0.854203
Si Si3 0.567860 0.877526 0.844728
Si Si4 0.571906 0.947574 0.352190
Si Si5 0.573866 0.549588 0.651397
Si Si6 0.570265 0.279584 0.146114
O O1 0.250000 0.193418 0.648870
O O2 0.021882 0.247476 0.725974
O O3 0.000000 0.199551 0.500000
O O4 0.994341 0.161480 0.746223
O O5 0.250000 0.618988 0.867119
O O6 0.011233 0.670310 0.818860
O O7 0.017798 0.586272 0.736127
O O8 0.000000 0.603086 0.000000
O O9 0.750000 0.875699 0.853438
O O10 0.514282 0.924342 0.777630
O O11 0.500000 0.872254 0.000000
O O12 0.500000 0.931229 0.500000
O O13 0.750000 0.934255 0.351797
O O14 0.546930 0.000000 0.331618
O O15 0.500000 0.548454 0.500000
O O16 0.750000 0.564170 0.641052
O O17 0.558637 0.500000 0.720057
O O18 0.750000 0.279097 0.123898
O O19 0.500000 0.261711 0.000000
#
# Coordination Sequence:
#
# PCOD8212450 Si02
#       6
#     8   8   8   8   8   8
#     4  11  23  40  60  85 116 150 190 233 280 333
#     4  10  20  36  57  83 113 146 185 228 277 331
#     4  12  25  41  61  86 117 153 193 237 286 338
#     4  10  21  39  63  90 120 155 194 236 284 337
#     4  10  21  37  56  79 108 144 185 229 279 333
#     4   9  20  37  58  83 112 146 184 228 278 333
#
# _framework density 19.393072
#
# number of rings (size 3 to 8) (size 9 to 14) (size 15 to 20)
#    0.000    1.667    0.000    4.500    0.000    6.667 
#    0.000    1.667    0.000    0.000    0.000    0.000 
#    0.000    0.000    0.000    0.000    0.000    0.000 
#
# Total GULP energy -595326.776775 kJ/mol
# GULP energy per Si atom -12402.641183 kJ/mol
# Density = 1.934893 g / cm^3
# Si number density = 19.393072 Si / 1000 Ang^3
#
#
#
# Elastic Constant Matrix: (Units=GPa)
#
#
# Indices 1 2 3 4 5 6 
#
# 1 110.2687 47.6087 57.9007 0.0000 0.0000 0.0000
# 2 47.6087 97.4155 70.7133 0.0000 0.0000 0.0000
# 3 57.9007 70.7133 148.1051 0.0000 0.0000 0.0000
# 4 0.0000 0.0000 0.0000 53.4428 0.0000 0.0000
# 5 0.0000 0.0000 0.0000 0.0000 40.8938 0.0000
# 6 0.0000 0.0000 0.0000 0.0000 0.0000 29.3053
#
#
#
# Elastic Compliance Matrix: (Units=1/GPa)
#
#
# Indices 1 2 3 4 5 6 
#
# 1 0.012289 -0.003854 -0.002964 0.000000 0.000000 0.000000
# 2 -0.003854 0.016919 -0.006571 0.000000 0.000000 0.000000
# 3 -0.002964 -0.006571 0.011048 0.000000 0.000000 0.000000
# 4 0.000000 0.000000 0.000000 0.018712 0.000000 0.000000
# 5 0.000000 0.000000 0.000000 0.000000 0.024454 0.000000
# 6 0.000000 0.000000 0.000000 0.000000 0.000000 0.034124
#
#
# Mechanical properties :
#
#
# Convention : Reuss Voigt Hill
#
# Bulk Modulus (GPa) = 74.19983 78.69276 76.44630
# Shear Modulus (GPa) = 33.59831 36.69949 35.14890
#
# Velocity S-wave (km/s) = 4.16684 4.35489 4.26190
# Velocity P-wave (km/s) = 7.84182 8.12112 7.98269
#
# Compressibility (1/GPa) = 0.01347712
#
# Stress axis : x y z
#
# Youngs Moduli (GPa) = 81.37150 59.10518 90.51237
#
# Poissons Ratio (x) = 0.22781 0.26829
# Poissons Ratio (y) = 0.31363 0.59477
# Poissons Ratio (z) = 0.24120 0.38839
#
# Static dielectric constant tensor:
#      x y z
#    x 3.688470 0.000000 0.000000 
#    y 0.000000 3.900450 0.000000 
#    z 0.000000 0.000000 3.603440 
# 
# 
# High freq. dielectric constant tensor:
#      x y z
#    x 1.769410 0.000000 0.000000 
#    y 0.000000 1.767540 0.000000 
#    z 0.000000 0.000000 1.755730 
# 
# From -- ./inp_files/5967.got.cif
#   From: 2010.03.12/outbox.cif.g09.slc.cpg/sg51_3_cif.got.tgz:5967.got - 2010.04.16 13:43:02.
