data_PCOD8212971
_publ_section_title
;
Structure prediction by ZEFSAII (Michael W. Deem and Ramdas Pophale) SiO2 
 PCOD8212971
Probable space group: P M M A
;
_chemical_formula_sum "Si O2"
_cell_formula_units_Z 48
_cell_length_a 14.936553
_cell_length_b 9.171914
_cell_length_c 18.876862
_cell_angle_alpha 90.000000
_cell_angle_beta 90.000000
_cell_angle_gamma 90.000000
_cell_volume 2586.069302
_symmetry_space_group_name_H-M "P M M A"
_symmetry_group_IT_number 51
_symmetry_cell_setting 'orthorhombic'
loop_
_space_group_symop_operation_xyz
x,y,z
1/2-x,-y,z
1/2+x,-y,-z
-x,y,-z
-x,-y,-z
1/2+x,y,-z
1/2-x,y,z
x,-y,z
loop_
_atom_site_type_symbol
_atom_site_label
_atom_site_fract_x
_atom_site_fract_y
_atom_site_fract_z
Si Si1 0.353307 0.332414 0.328373
Si Si2 0.004942 0.171425 0.420661
Si Si3 0.003279 0.831217 0.916793
Si Si4 0.146266 0.329840 0.827681
Si Si5 0.852015 0.831224 0.314761
Si Si6 0.646583 0.668830 0.833768
O O1 0.250000 0.301935 0.344990
O O2 0.377402 0.500000 0.341649
O O3 0.409986 0.235089 0.380994
O O4 0.375002 0.290382 0.247370
O O5 0.913380 0.214281 0.380784
O O6 0.000000 0.235779 0.500000
O O7 0.018954 0.000000 0.422989
O O8 0.912202 0.769739 0.883908
O O9 0.089705 0.745905 0.888889
O O10 0.012289 0.000000 0.896324
O O11 0.000000 0.806875 0.000000
O O12 0.250000 0.298846 0.843896
O O13 0.123962 0.500000 0.826229
O O14 0.118065 0.264248 0.752132
O O15 0.750000 0.797461 0.336697
O O16 0.864849 0.000000 0.294204
O O17 0.750000 0.699884 0.851245
O O18 0.623590 0.500000 0.847837
#
# Coordination Sequence:
#
# PCOD8212971 Si02
#       6
#     8   8   8   8   8   8
#     4   9  19  36  56  78 104 135 173 217 264 311
#     4  10  21  34  50  77 110 142 176 214 258 309
#     4  11  24  38  53  78 112 146 177 213 260 314
#     4  10  21  37  58  82 105 134 177 225 268 313
#     4   9  18  34  55  77 104 139 176 216 264 315
#     4   9  19  37  60  83 107 137 175 221 268 312
#
# _framework density 18.560987999999998
#
# number of rings (size 3 to 8) (size 9 to 14) (size 15 to 20)
#    0.000    2.333    0.000    3.000    0.000    8.667 
#    0.000    6.667    0.000    2.000    0.000    0.000 
#    0.000    0.000    0.000    0.000    0.000    0.000 
#
# Total GULP energy -595356.513696 kJ/mol
# GULP energy per Si atom -12403.260702 kJ/mol
# Density = 1.851874 g / cm^3
# Si number density = 18.560988 Si / 1000 Ang^3
#
#
#
# Elastic Constant Matrix: (Units=GPa)
#
#
# Indices 1 2 3 4 5 6 
#
# 1 101.8473 53.1807 71.4802 0.0000 0.0000 0.0000
# 2 53.1807 81.1042 66.1237 0.0000 0.0000 0.0000
# 3 71.4802 66.1237 126.4041 0.0000 0.0000 0.0000
# 4 0.0000 0.0000 0.0000 12.7497 0.0000 0.0000
# 5 0.0000 0.0000 0.0000 0.0000 13.3868 0.0000
# 6 0.0000 0.0000 0.0000 0.0000 0.0000 34.1191
#
#
#
# Elastic Compliance Matrix: (Units=1/GPa)
#
#
# Indices 1 2 3 4 5 6 
#
# 1 0.017836 -0.006054 -0.006919 0.000000 0.000000 0.000000
# 2 -0.006054 0.023554 -0.008898 0.000000 0.000000 0.000000
# 3 -0.006919 -0.008898 0.016478 0.000000 0.000000 0.000000
# 4 0.000000 0.000000 0.000000 0.078433 0.000000 0.000000
# 5 0.000000 0.000000 0.000000 0.000000 0.074700 0.000000
# 6 0.000000 0.000000 0.000000 0.000000 0.000000 0.029309
#
#
# Mechanical properties :
#
#
# Convention : Reuss Voigt Hill
#
# Bulk Modulus (GPa) = 70.79044 76.76943 73.77993
# Shear Modulus (GPa) = 17.31532 19.95584 18.63558
#
# Velocity S-wave (km/s) = 3.05763 3.28250 3.17206
# Velocity P-wave (km/s) = 7.11953 7.47107 7.29742
#
# Compressibility (1/GPa) = 0.01412620
#
# Stress axis : x y z
#
# Youngs Moduli (GPa) = 56.06685 42.45591 60.68572
#
# Poissons Ratio (x) = 0.25703 0.41989
# Poissons Ratio (y) = 0.33943 0.53997
# Poissons Ratio (z) = 0.38793 0.37776
#
# Static dielectric constant tensor:
#      x y z
#    x 3.499140 0.000000 0.000000 
#    y 0.000000 3.401960 0.000000 
#    z 0.000000 0.000000 3.442630 
# 
# 
# High freq. dielectric constant tensor:
#      x y z
#    x 1.732840 0.000000 0.000000 
#    y 0.000000 1.719520 0.000000 
#    z 0.000000 0.000000 1.716730 
# 
# From -- ./inp_files/29386.got.cif
#   From: 2010.03.12/outbox.cif.g09.slc.cpg/sg51_15_cif.got.tgz:29386.got - 2010.04.16 13:43:02.
