data_PCOD8212314
_publ_section_title
;
Structure prediction by ZEFSAII (Michael W. Deem and Ramdas Pophale) SiO2 
 PCOD8212314
Probable space group: P M M A
;
_chemical_formula_sum "Si O2"
_cell_formula_units_Z 48
_cell_length_a 9.471763
_cell_length_b 29.150521
_cell_length_c 9.383734
_cell_angle_alpha 90.000000
_cell_angle_beta 90.000000
_cell_angle_gamma 90.000000
_cell_volume 2590.913013
_symmetry_space_group_name_H-M "P M M A"
_symmetry_group_IT_number 51
_symmetry_cell_setting 'orthorhombic'
loop_
_space_group_symop_operation_xyz
x,y,z
1/2-x,-y,z
1/2+x,-y,-z
-x,y,-z
-x,-y,-z
1/2+x,y,-z
1/2-x,y,z
x,-y,z
loop_
_atom_site_type_symbol
_atom_site_label
_atom_site_fract_x
_atom_site_fract_y
_atom_site_fract_z
Si Si1 0.422170 0.702517 0.150793
Si Si2 0.912156 0.050991 0.140832
Si Si3 0.995052 0.613644 0.668603
Si Si4 0.417174 0.230432 0.646920
Si Si5 0.910681 0.124760 0.363122
Si Si6 0.750000 0.447831 0.314893
Si Si7 0.750000 0.549784 0.651232
O O1 0.250000 0.707904 0.136946
O O2 0.463743 0.659892 0.248745
O O3 0.495917 0.745767 0.226333
O O4 0.500000 0.696356 0.000000
O O5 0.750000 0.060084 0.102084
O O6 0.969645 0.090172 0.245052
O O7 0.932281 0.000000 0.207604
O O8 0.000000 0.056159 0.000000
O O9 0.125387 0.585699 0.731428
O O10 0.000000 0.625422 0.500000
O O11 0.880490 0.576886 0.708680
O O12 0.500000 0.241240 0.500000
O O13 0.250000 0.245762 0.636675
O O14 0.426536 0.177102 0.686990
O O15 0.750000 0.113075 0.400382
O O16 0.000000 0.114195 0.500000
O O17 0.750000 0.500000 0.246878
O O18 0.750000 0.455141 0.482486
O O19 0.750000 0.500000 0.722798
#
# Coordination Sequence:
#
# PCOD8212314 Si02
#       7
#     8   8   8   8   8   4   4
#     4  12  26  42  59  82 113 150 192 237 286 340
#     4   9  18  33  52  76 110 151 194 237 279 329
#     4  10  20  35  59  86 114 146 184 226 277 332
#     4  10  21  39  63  87 114 147 186 234 285 343
#     4   9  19  35  55  83 114 145 183 229 283 336
#     4   9  18  30  55  91 119 141 177 229 276 325
#     4   9  16  32  55  85 115 143 181 227 272 321
#
# _framework density 18.526288000000001
#
# number of rings (size 3 to 8) (size 9 to 14) (size 15 to 20)
#    0.000    2.167    0.833    2.000    2.333    4.333 
#    0.000    1.667    0.000    3.000    0.000    0.000 
#    0.000    0.000    0.000    0.000    0.000    0.000 
#
# Total GULP energy -594677.368309 kJ/mol
# GULP energy per Si atom -12389.111840 kJ/mol
# Density = 1.848412 g / cm^3
# Si number density = 18.526288 Si / 1000 Ang^3
#
#
#
# Elastic Constant Matrix: (Units=GPa)
#
#
# Indices 1 2 3 4 5 6 
#
# 1 138.3708 60.1040 49.0877 0.0000 0.0000 0.0000
# 2 60.1040 121.9439 64.1877 0.0000 0.0000 0.0000
# 3 49.0877 64.1877 84.6165 0.0000 0.0000 0.0000
# 4 0.0000 0.0000 0.0000 -1.1911 0.0000 0.0000
# 5 0.0000 0.0000 0.0000 0.0000 28.7224 0.0000
# 6 0.0000 0.0000 0.0000 0.0000 0.0000 34.4809
#
#
#
# Elastic Compliance Matrix: (Units=1/GPa)
#
#
# Indices 1 2 3 4 5 6 
#
# 1 0.009732 -0.003038 -0.003341 0.000000 0.000000 0.000000
# 2 -0.003038 0.014600 -0.009313 0.000000 0.000000 0.000000
# 3 -0.003341 -0.009313 0.020820 0.000000 0.000000 0.000000
# 4 0.000000 0.000000 0.000000 -0.839562 0.000000 0.000000
# 5 0.000000 0.000000 0.000000 0.000000 0.034816 0.000000
# 6 0.000000 0.000000 0.000000 0.000000 0.000000 0.029002
#
#
# Mechanical properties :
#
#
# Convention : Reuss Voigt Hill
#
# Bulk Modulus (GPa) = 72.62798 76.85445 74.74122
# Shear Modulus (GPa) = -7.19818 23.83924 8.32053
#
# Velocity S-wave (km/s) = -1.97328 3.59106 2.12154
# Velocity P-wave (km/s) = 5.83918 7.66605 6.81412
#
# Compressibility (1/GPa) = 0.01376880
#
# Stress axis : x y z
#
# Youngs Moduli (GPa) = 102.75555 68.49453 48.02959
#
# Poissons Ratio (x) = 0.20809 0.16047
# Poissons Ratio (y) = 0.31217 0.44728
# Poissons Ratio (z) = 0.34332 0.63786
#
# Static dielectric constant tensor:
#      x y z
#    x 3.474480 0.000000 0.000000 
#    y 0.000000 3.732050 0.000000 
#    z 0.000000 0.000000 3.167450 
# 
# 
# High freq. dielectric constant tensor:
#      x y z
#    x 1.736750 0.000000 0.000000 
#    y 0.000000 1.736700 0.000000 
#    z 0.000000 0.000000 1.688840 
# 
# From -- ./inp_files/6221.got.cif
#   From: 2010.03.12/outbox.cif.g09.slc.cpg/sg51_4_cif.got.tgz:6221.got - 2010.04.16 13:43:02.
