data_PCOD8212988
_publ_section_title
;
Structure prediction by ZEFSAII (Michael W. Deem and Ramdas Pophale) SiO2 
 PCOD8212988
Probable space group: P M M A
;
_chemical_formula_sum "Si O2"
_cell_formula_units_Z 56
_cell_length_a 14.589213
_cell_length_b 15.214446
_cell_length_c 12.026014
_cell_angle_alpha 90.000000
_cell_angle_beta 90.000000
_cell_angle_gamma 90.000000
_cell_volume 2669.375765
_symmetry_space_group_name_H-M "P M M A"
_symmetry_group_IT_number 51
_symmetry_cell_setting 'orthorhombic'
loop_
_space_group_symop_operation_xyz
x,y,z
1/2-x,-y,z
1/2+x,-y,-z
-x,y,-z
-x,-y,-z
1/2+x,y,-z
1/2-x,y,z
x,-y,z
loop_
_atom_site_type_symbol
_atom_site_label
_atom_site_fract_x
_atom_site_fract_y
_atom_site_fract_z
Si Si1 0.645056 0.244603 0.452203
Si Si2 0.355284 0.810080 0.310011
Si Si3 0.357802 0.401515 0.702277
Si Si4 0.037740 0.900619 0.671950
Si Si5 0.649281 0.236326 0.927959
Si Si6 0.857284 0.899716 0.101916
Si Si7 0.400713 0.597502 0.948247
O O1 0.750000 0.224548 0.418033
O O2 0.635954 0.256655 0.585444
O O3 0.610076 0.333709 0.392811
O O4 0.581504 0.163070 0.419435
O O5 0.250000 0.845904 0.304494
O O6 0.427507 0.889595 0.322472
O O7 0.388027 0.758390 0.198320
O O8 0.250000 0.395417 0.723340
O O9 0.385872 0.500000 0.664428
O O10 0.406152 0.376094 0.818565
O O11 0.085071 0.878757 0.788716
O O12 0.058935 0.000000 0.635193
O O13 0.750000 0.196842 0.916489
O O14 0.599457 0.165153 0.007820
O O15 0.656767 0.332128 0.982856
O O16 0.750000 0.880284 0.127179
O O17 0.871345 0.000000 0.062053
O O18 0.356528 0.500000 0.959956
O O19 0.500000 0.599678 0.000000
#
# Coordination Sequence:
#
# PCOD8212988 Si02
#       7
#     8   8   8   8   8   8   8
#     4  10  21  39  62  88 118 151 193 248 297 340
#     4  10  24  41  55  79 117 159 201 240 285 348
#     4   9  18  35  62  91 115 146 191 240 292 345
#     4  11  23  38  60  87 113 150 199 246 296 347
#     4  10  21  37  58  82 113 157 193 228 290 352
#     4   9  19  36  59  90 120 144 185 244 298 350
#     4  10  21  34  53  86 121 148 182 231 285 343
#
# _framework density 20.978687000000001
#
# number of rings (size 3 to 8) (size 9 to 14) (size 15 to 20)
#    0.000    2.143    0.000    2.143    4.000    6.000 
#    0.000    5.000    0.000    4.286    0.000    0.000 
#    0.000    0.000    0.000    0.000    0.000    0.000 
#
# Total GULP energy -694060.181142 kJ/mol
# GULP energy per Si atom -12393.931806 kJ/mol
# Density = 2.093094 g / cm^3
# Si number density = 20.978687 Si / 1000 Ang^3
#
#
#
# Elastic Constant Matrix: (Units=GPa)
#
#
# Indices 1 2 3 4 5 6 
#
# 1 76.7906 30.3566 35.6639 0.0000 0.0000 0.0000
# 2 30.3566 123.3548 77.6010 0.0000 0.0000 0.0000
# 3 35.6639 77.6010 157.1289 0.0000 0.0000 0.0000
# 4 0.0000 0.0000 0.0000 16.4402 0.0000 0.0000
# 5 0.0000 0.0000 0.0000 0.0000 9.8462 0.0000
# 6 0.0000 0.0000 0.0000 0.0000 0.0000 23.8840
#
#
#
# Elastic Compliance Matrix: (Units=1/GPa)
#
#
# Indices 1 2 3 4 5 6 
#
# 1 0.014973 -0.002244 -0.002290 0.000000 0.000000 0.000000
# 2 -0.002244 0.012097 -0.005465 0.000000 0.000000 0.000000
# 3 -0.002290 -0.005465 0.009583 0.000000 0.000000 0.000000
# 4 0.000000 0.000000 0.000000 0.060827 0.000000 0.000000
# 5 0.000000 0.000000 0.000000 0.000000 0.101562 0.000000
# 6 0.000000 0.000000 0.000000 0.000000 0.000000 0.041869
#
#
# Mechanical properties :
#
#
# Convention : Reuss Voigt Hill
#
# Bulk Modulus (GPa) = 60.04332 71.61303 65.82818
# Shear Modulus (GPa) = 18.76453 24.27760 21.52107
#
# Velocity S-wave (km/s) = 2.99399 3.40553 3.20637
# Velocity P-wave (km/s) = 6.37458 7.04796 6.71971
#
# Compressibility (1/GPa) = 0.01665464
#
# Stress axis : x y z
#
# Youngs Moduli (GPa) = 66.78604 82.66618 104.35175
#
# Poissons Ratio (x) = 0.18550 0.23899
# Poissons Ratio (y) = 0.14987 0.57027
# Poissons Ratio (z) = 0.15296 0.45176
#
# Static dielectric constant tensor:
#      x y z
#    x 3.854850 0.000000 0.000000 
#    y 0.000000 3.822530 0.000000 
#    z 0.000000 0.000000 3.993990 
# 
# 
# High freq. dielectric constant tensor:
#      x y z
#    x 1.818420 0.000000 0.000000 
#    y 0.000000 1.806340 0.000000 
#    z 0.000000 0.000000 1.829760 
# 
# From -- ./inp_files/16599.got.cif
#   From: 2010.03.12/outbox.cif.g09.slc.cpg/sg51_9_cif.got.tgz:16599.got - 2010.04.16 13:43:02.
