data_PCOD8212368
_publ_section_title
;
Structure prediction by ZEFSAII (Michael W. Deem and Ramdas Pophale) SiO2 
 PCOD8212368
Probable space group: P M M A
;
_chemical_formula_sum "Si O2"
_cell_formula_units_Z 52
_cell_length_a 9.754188
_cell_length_b 21.299686
_cell_length_c 13.716764
_cell_angle_alpha 90.000000
_cell_angle_beta 90.000000
_cell_angle_gamma 90.000000
_cell_volume 2849.810547
_symmetry_space_group_name_H-M "P M M A"
_symmetry_group_IT_number 51
_symmetry_cell_setting 'orthorhombic'
loop_
_space_group_symop_operation_xyz
x,y,z
1/2-x,-y,z
1/2+x,-y,-z
-x,y,-z
-x,-y,-z
1/2+x,y,-z
1/2-x,y,z
x,-y,z
loop_
_atom_site_type_symbol
_atom_site_label
_atom_site_fract_x
_atom_site_fract_y
_atom_site_fract_z
Si Si1 0.594949 0.571555 0.084907
Si Si2 0.412771 0.930304 0.212830
Si Si3 0.091606 0.135660 0.406034
Si Si4 0.410578 0.500000 0.595083
Si Si5 0.588552 0.187670 0.905979
Si Si6 0.093519 0.624972 0.708444
Si Si7 0.405695 0.260477 0.289274
O O1 0.750000 0.574722 0.047138
O O2 0.555244 0.500000 0.112031
O O3 0.572896 0.615606 0.176929
O O4 0.500000 0.598704 0.000000
O O5 0.250000 0.927977 0.215464
O O6 0.463056 0.910208 0.320436
O O7 0.461232 0.881453 0.129864
O O8 0.468595 0.000000 0.187921
O O9 0.250000 0.121976 0.432189
O O10 0.073951 0.206553 0.369011
O O11 0.000000 0.122901 0.500000
O O12 0.250000 0.500000 0.569673
O O13 0.500000 0.500000 0.500000
O O14 0.451922 0.438531 0.655402
O O15 0.750000 0.188320 0.932073
O O16 0.556094 0.236210 0.818898
O O17 0.500000 0.207045 0.000000
O O18 0.250000 0.641547 0.683009
O O19 0.000591 0.682685 0.675318
O O20 0.250000 0.284551 0.289370
#
# Coordination Sequence:
#
# PCOD8212368 Si02
#       7
#     8   8   8   4   8   8   8
#     4   9  17  31  50  72  98 126 154 189 236 290
#     4   8  15  30  51  74 102 137 172 204 247 302
#     4   9  18  33  52  73  99 131 166 208 254 299
#     4  10  22  40  57  76 102 130 163 206 255 306
#     4   9  18  33  52  74 103 138 173 210 248 290
#     4  10  20  36  56  75 100 132 164 204 254 300
#     4   9  20  36  51  71 101 134 169 206 247 300
#
# _framework density 18.246825999999999
#
# number of rings (size 3 to 8) (size 9 to 14) (size 15 to 20)
#    0.000    2.923    0.769    1.846    0.000    4.308 
#    0.000    8.462    0.000    0.923    0.000    0.000 
#    0.000    0.000    0.000    0.000    0.000    0.000 
#
# Total GULP energy -644685.886606 kJ/mol
# GULP energy per Si atom -12397.805512 kJ/mol
# Density = 1.820530 g / cm^3
# Si number density = 18.246826 Si / 1000 Ang^3
#
#
#
# Elastic Constant Matrix: (Units=GPa)
#
#
# Indices 1 2 3 4 5 6 
#
# 1 52.4486 29.3032 29.5011 0.0000 0.0000 0.0000
# 2 29.3032 87.3387 6.1602 0.0000 0.0000 0.0000
# 3 29.5011 6.1602 66.7567 0.0000 0.0000 0.0000
# 4 0.0000 0.0000 0.0000 11.2197 0.0000 0.0000
# 5 0.0000 0.0000 0.0000 0.0000 36.0192 0.0000
# 6 0.0000 0.0000 0.0000 0.0000 0.0000 22.6681
#
#
#
# Elastic Compliance Matrix: (Units=1/GPa)
#
#
# Indices 1 2 3 4 5 6 
#
# 1 0.031981 -0.009797 -0.013229 0.000000 0.000000 0.000000
# 2 -0.009797 0.014526 0.002989 0.000000 0.000000 0.000000
# 3 -0.013229 0.002989 0.020550 0.000000 0.000000 0.000000
# 4 0.000000 0.000000 0.000000 0.089129 0.000000 0.000000
# 5 0.000000 0.000000 0.000000 0.000000 0.027763 0.000000
# 6 0.000000 0.000000 0.000000 0.000000 0.000000 0.044115
#
#
# Mechanical properties :
#
#
# Convention : Reuss Voigt Hill
#
# Bulk Modulus (GPa) = 37.06019 37.38590 37.22305
# Shear Modulus (GPa) = 18.04199 23.42003 20.73101
#
# Velocity S-wave (km/s) = 3.14789 3.58650 3.37433
# Velocity P-wave (km/s) = 5.79369 6.13874 5.96871
#
# Compressibility (1/GPa) = 0.02698313
#
# Stress axis : x y z
#
# Youngs Moduli (GPa) = 31.26875 68.84290 48.66164
#
# Poissons Ratio (x) = 0.67445 0.64374
# Poissons Ratio (y) = 0.30634 -0.14545
# Poissons Ratio (z) = 0.41365 -0.20577
#
# Static dielectric constant tensor:
#      x y z
#    x 3.135970 0.000000 0.000000 
#    y 0.000000 3.452500 0.000000 
#    z 0.000000 0.000000 3.290770 
# 
# 
# High freq. dielectric constant tensor:
#      x y z
#    x 1.686540 0.000000 0.000000 
#    y 0.000000 1.707290 0.000000 
#    z 0.000000 0.000000 1.702850 
# 
# From -- ./inp_files/21570.got.cif
#   From: 2010.03.12/outbox.cif.g09.slc.cpg/sg51_11_cif.got.tgz:21570.got - 2010.04.16 13:43:02.
