data_PCOD8212337
_publ_section_title
;
Structure prediction by ZEFSAII (Michael W. Deem and Ramdas Pophale) SiO2 
 PCOD8212337
Probable space group: P M M A
;
_chemical_formula_sum "Si O2"
_cell_formula_units_Z 56
_cell_length_a 19.102013
_cell_length_b 15.270239
_cell_length_c 9.761348
_cell_angle_alpha 90.000000
_cell_angle_beta 90.000000
_cell_angle_gamma 90.000000
_cell_volume 2847.310087
_symmetry_space_group_name_H-M "P M M A"
_symmetry_group_IT_number 51
_symmetry_cell_setting 'orthorhombic'
loop_
_space_group_symop_operation_xyz
x,y,z
1/2-x,-y,z
1/2+x,-y,-z
-x,y,-z
-x,-y,-z
1/2+x,y,-z
1/2-x,y,z
x,-y,z
loop_
_atom_site_type_symbol
_atom_site_label
_atom_site_fract_x
_atom_site_fract_y
_atom_site_fract_z
Si Si1 0.923173 0.159317 0.475494
Si Si2 0.831948 0.756041 0.025012
Si Si3 0.168375 0.226123 0.283429
Si Si4 0.329533 0.594842 0.410215
Si Si5 0.566143 0.600302 0.090282
Si Si6 0.558925 0.354913 0.395794
Si Si7 0.169935 0.097673 0.759743
O O1 0.881274 0.168552 0.618928
O O2 0.935355 0.250429 0.397546
O O3 0.877325 0.099350 0.376049
O O4 0.000000 0.116442 0.500000
O O5 0.750000 0.735546 0.036685
O O6 0.870185 0.665175 0.057460
O O7 0.856262 0.831938 0.128944
O O8 0.849719 0.793381 0.874086
O O9 0.250000 0.206703 0.316865
O O10 0.149194 0.328733 0.305176
O O11 0.250000 0.604582 0.453930
O O12 0.344535 0.500000 0.341025
O O13 0.368476 0.603476 0.554929
O O14 0.589290 0.500000 0.061379
O O15 0.541101 0.610601 0.246250
O O16 0.500000 0.627606 0.000000
O O17 0.500000 0.388780 0.500000
O O18 0.250000 0.118542 0.717831
O O19 0.164098 0.000000 0.823077
#
# Coordination Sequence:
#
# PCOD8212337 Si02
#       7
#     8   8   8   8   8   8   8
#     4  10  20  35  61  91 114 152 191 240 294 347
#     4  10  22  40  61  85 118 159 197 245 295 350
#     4   9  19  35  56  81 113 151 193 237 290 347
#     4   9  18  31  51  79 109 143 190 246 292 334
#     4  11  25  39  56  84 120 162 201 244 294 351
#     4  10  21  37  56  80 110 155 197 238 289 341
#     4  10  21  40  66  92 119 153 192 239 300 361
#
# _framework density 19.667684000000001
#
# number of rings (size 3 to 8) (size 9 to 14) (size 15 to 20)
#    0.000    2.143    1.429    0.857    6.000    3.429 
#    0.000    2.143    0.000    5.571    0.000    0.000 
#    0.000    0.000    0.000    0.000    0.000    0.000 
#
# Total GULP energy -694332.757134 kJ/mol
# GULP energy per Si atom -12398.799235 kJ/mol
# Density = 1.962292 g / cm^3
# Si number density = 19.667684 Si / 1000 Ang^3
#
#
#
# Elastic Constant Matrix: (Units=GPa)
#
#
# Indices 1 2 3 4 5 6 
#
# 1 91.5581 40.2293 59.5007 0.0000 0.0000 0.0000
# 2 40.2293 81.5800 38.3782 0.0000 0.0000 0.0000
# 3 59.5007 38.3782 135.5475 0.0000 0.0000 0.0000
# 4 0.0000 0.0000 0.0000 15.6292 0.0000 0.0000
# 5 0.0000 0.0000 0.0000 0.0000 31.7829 0.0000
# 6 0.0000 0.0000 0.0000 0.0000 0.0000 18.6505
#
#
#
# Elastic Compliance Matrix: (Units=1/GPa)
#
#
# Indices 1 2 3 4 5 6 
#
# 1 0.017329 -0.005730 -0.005984 0.000000 0.000000 0.000000
# 2 -0.005730 0.016036 -0.002025 0.000000 0.000000 0.000000
# 3 -0.005984 -0.002025 0.010578 0.000000 0.000000 0.000000
# 4 0.000000 0.000000 0.000000 0.063983 0.000000 0.000000
# 5 0.000000 0.000000 0.000000 0.000000 0.031463 0.000000
# 6 0.000000 0.000000 0.000000 0.000000 0.000000 0.053618
#
#
# Mechanical properties :
#
#
# Convention : Reuss Voigt Hill
#
# Bulk Modulus (GPa) = 60.73948 64.98914 62.86431
# Shear Modulus (GPa) = 22.12643 24.58434 23.35539
#
# Velocity S-wave (km/s) = 3.35776 3.53935 3.44975
# Velocity P-wave (km/s) = 6.78105 7.05819 6.92101
#
# Compressibility (1/GPa) = 0.01646376
#
# Stress axis : x y z
#
# Youngs Moduli (GPa) = 57.70749 62.35881 94.53750
#
# Poissons Ratio (x) = 0.35732 0.56575
# Poissons Ratio (y) = 0.33067 0.19145
# Poissons Ratio (z) = 0.34534 0.12628
#
# Static dielectric constant tensor:
#      x y z
#    x 3.692390 0.000000 0.000000 
#    y 0.000000 3.468260 0.000000 
#    z 0.000000 0.000000 3.527040 
# 
# 
# High freq. dielectric constant tensor:
#      x y z
#    x 1.771540 0.000000 0.000000 
#    y 0.000000 1.752090 0.000000 
#    z 0.000000 0.000000 1.760820 
# 
# From -- ./inp_files/10969.got.cif
#   From: 2010.03.12/outbox.cif.g09.slc.cpg/sg51_6_cif.got.tgz:10969.got - 2010.04.16 13:43:02.
