data_PCOD8212521
_publ_section_title
;
Structure prediction by ZEFSAII (Michael W. Deem and Ramdas Pophale) SiO2 
 PCOD8212521
Probable space group: P M M A
;
_chemical_formula_sum "Si O2"
_cell_formula_units_Z 56
_cell_length_a 14.767213
_cell_length_b 8.826890
_cell_length_c 21.880556
_cell_angle_alpha 90.000000
_cell_angle_beta 90.000000
_cell_angle_gamma 90.000000
_cell_volume 2852.099071
_symmetry_space_group_name_H-M "P M M A"
_symmetry_group_IT_number 51
_symmetry_cell_setting 'orthorhombic'
loop_
_space_group_symop_operation_xyz
x,y,z
1/2-x,-y,z
1/2+x,-y,-z
-x,y,-z
-x,-y,-z
1/2+x,y,-z
1/2-x,y,z
x,-y,z
loop_
_atom_site_type_symbol
_atom_site_label
_atom_site_fract_x
_atom_site_fract_y
_atom_site_fract_z
Si Si1 0.750000 0.678813 0.386429
Si Si2 0.250000 0.174422 0.484279
Si Si3 0.553192 0.176286 0.559980
Si Si4 0.393524 0.672801 0.005576
Si Si5 0.439051 0.320580 0.663725
Si Si6 0.851176 0.172063 0.115670
Si Si7 0.992649 0.678317 0.201988
Si Si8 0.647637 0.172583 0.868194
O O1 0.750000 0.500000 0.379818
O O2 0.750000 0.720133 0.457085
O O3 0.840359 0.746030 0.354605
O O4 0.339606 0.210219 0.444898
O O5 0.250000 0.000000 0.506070
O O6 0.500000 0.235589 0.500000
O O7 0.516893 0.263058 0.618776
O O8 0.533230 0.000000 0.569118
O O9 0.361577 0.500000 0.997122
O O10 0.362356 0.728740 0.071301
O O11 0.500000 0.688257 0.000000
O O12 0.347284 0.776352 0.954553
O O13 0.437592 0.500000 0.660322
O O14 0.461610 0.263925 0.731672
O O15 0.750000 0.182471 0.142821
O O16 0.915285 0.282985 0.153304
O O17 0.887666 0.000000 0.119438
O O18 0.009683 0.500000 0.200364
O O19 0.085383 0.762256 0.185589
O O20 0.750000 0.182582 0.843980
O O21 0.619695 0.000000 0.882752
#
# Coordination Sequence:
#
# PCOD8212521 Si02
#       8
#     4   4   8   8   8   8   8   8
#     4  10  20  36  60  90 120 154 191 236 291 350
#     4  10  20  36  58  90 122 154 193 238 293 348
#     4  10  20  36  60  87 119 154 192 241 291 343
#     4  11  22  37  61  92 121 154 195 245 304 358
#     4  10  23  40  60  87 120 157 198 242 292 349
#     4  11  24  40  60  89 122 156 195 242 297 356
#     4  11  24  42  63  87 118 159 201 246 297 353
#     4  11  24  42  65  90 117 155 201 251 305 359
#
# _framework density 19.634661999999999
#
# number of rings (size 3 to 8) (size 9 to 14) (size 15 to 20)
#    0.000    1.429    2.857    2.143    1.000    6.571 
#    1.286    0.000    0.000    0.000    0.000    0.000 
#    0.000    0.000    0.000    0.000    0.000    0.000 
#
# Total GULP energy -694649.873673 kJ/mol
# GULP energy per Si atom -12404.462030 kJ/mol
# Density = 1.958997 g / cm^3
# Si number density = 19.634662 Si / 1000 Ang^3
#
#
#
# Elastic Constant Matrix: (Units=GPa)
#
#
# Indices 1 2 3 4 5 6 
#
# 1 139.1689 29.6636 50.3399 0.0000 0.0000 0.0000
# 2 29.6636 52.4836 18.2939 0.0000 0.0000 0.0000
# 3 50.3399 18.2939 109.2000 0.0000 0.0000 0.0000
# 4 0.0000 0.0000 0.0000 -71.8330 0.0000 0.0000
# 5 0.0000 0.0000 0.0000 0.0000 14.3579 0.0000
# 6 0.0000 0.0000 0.0000 0.0000 0.0000 9.5998
#
#
#
# Elastic Compliance Matrix: (Units=1/GPa)
#
#
# Indices 1 2 3 4 5 6 
#
# 1 0.009360 -0.004021 -0.003641 0.000000 0.000000 0.000000
# 2 -0.004021 0.021963 -0.001826 0.000000 0.000000 0.000000
# 3 -0.003641 -0.001826 0.011142 0.000000 0.000000 0.000000
# 4 0.000000 0.000000 0.000000 -0.013921 0.000000 0.000000
# 5 0.000000 0.000000 0.000000 0.000000 0.069648 0.000000
# 6 0.000000 0.000000 0.000000 0.000000 0.000000 0.104169
#
#
# Mechanical properties :
#
#
# Convention : Reuss Voigt Hill
#
# Bulk Modulus (GPa) = 42.57374 55.27193 48.92283
# Shear Modulus (GPa) = 21.81834 3.92860 12.87347
#
# Velocity S-wave (km/s) = 3.33711 1.41605 2.56334
# Velocity P-wave (km/s) = 6.04801 5.55742 5.80789
#
# Compressibility (1/GPa) = 0.02348866
#
# Stress axis : x y z
#
# Youngs Moduli (GPa) = 106.84222 45.53205 89.75165
#
# Poissons Ratio (x) = 0.18308 0.32679
# Poissons Ratio (y) = 0.42960 0.16386
# Poissons Ratio (z) = 0.38902 0.08313
#
# Static dielectric constant tensor:
#      x y z
#    x 3.849850 0.000000 0.000000 
#    y 0.000000 3.557110 0.000000 
#    z 0.000000 0.000000 3.513460 
# 
# 
# High freq. dielectric constant tensor:
#      x y z
#    x 1.782140 0.000000 0.000000 
#    y 0.000000 1.765820 0.000000 
#    z 0.000000 0.000000 1.753720 
# 
# From -- ./inp_files/33508.got.cif
#   From: 2010.03.12/outbox.cif.g09.slc.cpg/sg51_17_cif.got.tgz:33508.got - 2010.04.16 13:43:02.
