data_PCOD8212307
_publ_section_title
;
Structure prediction by ZEFSAII (Michael W. Deem and Ramdas Pophale) SiO2 
 PCOD8212307
Probable space group: P M M A
;
_chemical_formula_sum "Si O2"
_cell_formula_units_Z 64
_cell_length_a 9.546387
_cell_length_b 24.033805
_cell_length_c 14.212374
_cell_angle_alpha 90.000000
_cell_angle_beta 90.000000
_cell_angle_gamma 90.000000
_cell_volume 3260.830292
_symmetry_space_group_name_H-M "P M M A"
_symmetry_group_IT_number 51
_symmetry_cell_setting 'orthorhombic'
loop_
_space_group_symop_operation_xyz
x,y,z
1/2-x,-y,z
1/2+x,-y,-z
-x,y,-z
-x,-y,-z
1/2+x,y,-z
1/2-x,y,z
x,-y,z
loop_
_atom_site_type_symbol
_atom_site_label
_atom_site_fract_x
_atom_site_fract_y
_atom_site_fract_z
Si Si1 0.408991 0.064849 0.242818
Si Si2 0.412491 0.147138 0.406961
Si Si3 0.912493 0.435056 0.268874
Si Si4 0.919373 0.636792 0.597193
Si Si5 0.041377 0.753304 0.892141
Si Si6 0.591194 0.746564 0.701207
Si Si7 0.095320 0.874710 0.908241
Si Si8 0.401413 0.632146 0.910581
O O1 0.250000 0.076795 0.207319
O O2 0.432656 0.092628 0.343647
O O3 0.519414 0.089201 0.169963
O O4 0.437796 0.000000 0.254571
O O5 0.500000 0.137374 0.500000
O O6 0.250000 0.155833 0.433246
O O7 0.477438 0.200282 0.350828
O O8 0.750000 0.420231 0.292421
O O9 0.931139 0.500000 0.251363
O O10 0.964359 0.403406 0.174968
O O11 0.016081 0.417817 0.353376
O O12 0.750000 0.631332 0.585251
O O13 0.969006 0.688802 0.661395
O O14 0.000000 0.644618 0.500000
O O15 0.917807 0.751003 0.814619
O O16 0.121387 0.811054 0.873507
O O17 0.125392 0.696099 0.877794
O O18 0.000000 0.754299 0.000000
O O19 0.750000 0.748401 0.671819
O O20 0.250000 0.899868 0.928249
O O21 0.000000 0.877125 0.000000
O O22 0.250000 0.607552 0.938707
O O23 0.500000 0.626966 0.000000
#
# Coordination Sequence:
#
# PCOD8212307 Si02
#       8
#     8   8   8   8   8   8   8   8
#     4  10  22  41  63  85 115 158 203 247 297 349
#     4  10  21  39  61  88 119 154 193 241 296 353
#     4  10  22  41  62  85 117 158 202 249 297 346
#     4  11  23  40  63  91 119 154 196 245 302 359
#     4  10  20  35  58  91 122 155 191 234 285 350
#     4  10  20  37  62  89 122 159 193 236 293 355
#     4  11  23  38  60  90 122 158 197 242 296 354
#     4  10  21  37  58  87 121 157 194 238 289 349
#
# _framework density 19.626904
#
# number of rings (size 3 to 8) (size 9 to 14) (size 15 to 20)
#    0.000    1.750    2.500    1.500    0.000    6.500 
#    0.000    0.625    0.000    0.000    0.000    0.000 
#    0.000    0.000    0.000    0.000    0.000    0.000 
#
# Total GULP energy -793046.872160 kJ/mol
# GULP energy per Si atom -12391.357378 kJ/mol
# Density = 1.958223 g / cm^3
# Si number density = 19.626904 Si / 1000 Ang^3
#
#
#
# Elastic Constant Matrix: (Units=GPa)
#
#
# Indices 1 2 3 4 5 6 
#
# 1 104.4927 42.9030 63.4875 0.0000 0.0000 0.0000
# 2 42.9030 120.5277 58.6791 0.0000 0.0000 0.0000
# 3 63.4875 58.6791 134.1492 0.0000 0.0000 0.0000
# 4 0.0000 0.0000 0.0000 23.4663 0.0000 0.0000
# 5 0.0000 0.0000 0.0000 0.0000 34.5721 0.0000
# 6 0.0000 0.0000 0.0000 0.0000 0.0000 46.4601
#
#
#
# Elastic Compliance Matrix: (Units=1/GPa)
#
#
# Indices 1 2 3 4 5 6 
#
# 1 0.013883 -0.002215 -0.005601 0.000000 0.000000 0.000000
# 2 -0.002215 0.010895 -0.003718 0.000000 0.000000 0.000000
# 3 -0.005601 -0.003718 0.011731 0.000000 0.000000 0.000000
# 4 0.000000 0.000000 0.000000 0.042614 0.000000 0.000000
# 5 0.000000 0.000000 0.000000 0.000000 0.028925 0.000000
# 6 0.000000 0.000000 0.000000 0.000000 0.000000 0.021524
#
#
# Mechanical properties :
#
#
# Convention : Reuss Voigt Hill
#
# Bulk Modulus (GPa) = 74.39401 76.58986 75.49193
# Shear Modulus (GPa) = 31.82278 33.83970 32.83124
#
# Velocity S-wave (km/s) = 4.03101 4.15679 4.09438
# Velocity P-wave (km/s) = 7.72346 7.88328 7.80378
#
# Compressibility (1/GPa) = 0.01344194
#
# Stress axis : x y z
#
# Youngs Moduli (GPa) = 72.03261 91.78451 85.24097
#
# Poissons Ratio (x) = 0.20327 0.47747
# Poissons Ratio (y) = 0.15952 0.31689
# Poissons Ratio (z) = 0.40348 0.34122
#
# Static dielectric constant tensor:
#      x y z
#    x 3.409080 0.000000 0.000000 
#    y 0.000000 3.908460 0.000000 
#    z 0.000000 0.000000 3.499650 
# 
# 
# High freq. dielectric constant tensor:
#      x y z
#    x 1.753610 0.000000 0.000000 
#    y 0.000000 1.771050 0.000000 
#    z 0.000000 0.000000 1.765860 
# 
# From -- ./inp_files/22405.got.cif
#   From: 2010.03.12/outbox.cif.g09.slc.cpg/sg51_12_cif.got.tgz:22405.got - 2010.04.16 13:43:02.
