data_PCOD8212480
_publ_section_title
;
Structure prediction by ZEFSAII (Michael W. Deem and Ramdas Pophale) SiO2 
 PCOD8212480
Probable space group: P M M A
;
_chemical_formula_sum "Si O2"
_cell_formula_units_Z 64
_cell_length_a 18.827165
_cell_length_b 9.365986
_cell_length_c 20.153048
_cell_angle_alpha 90.000000
_cell_angle_beta 90.000000
_cell_angle_gamma 90.000000
_cell_volume 3553.686990
_symmetry_space_group_name_H-M "P M M A"
_symmetry_group_IT_number 51
_symmetry_cell_setting 'orthorhombic'
loop_
_space_group_symop_operation_xyz
x,y,z
1/2-x,-y,z
1/2+x,-y,-z
-x,y,-z
-x,-y,-z
1/2+x,y,-z
1/2-x,y,z
x,-y,z
loop_
_atom_site_type_symbol
_atom_site_label
_atom_site_fract_x
_atom_site_fract_y
_atom_site_fract_z
Si Si1 0.075827 0.665740 0.473502
Si Si2 0.832682 0.665968 0.186465
Si Si3 0.416167 0.169342 0.703053
Si Si4 0.668911 0.664455 0.790349
Si Si5 0.165308 0.839725 0.083836
Si Si6 0.334375 0.658008 0.962521
Si Si7 0.831836 0.833328 0.427759
Si Si8 0.057344 0.664198 0.321457
O O1 0.085236 0.500000 0.490826
O O2 0.138709 0.750807 0.508690
O O3 0.082261 0.696976 0.395794
O O4 0.000000 0.721538 0.500000
O O5 0.750000 0.699091 0.197379
O O6 0.848692 0.500000 0.201426
O O7 0.877392 0.767362 0.233419
O O8 0.856415 0.705407 0.111516
O O9 0.373517 0.216520 0.637644
O O10 0.494666 0.231775 0.699560
O O11 0.419852 0.000000 0.710329
O O12 0.750000 0.706390 0.774156
O O13 0.662977 0.500000 0.811677
O O14 0.638112 0.756027 0.851396
O O15 0.624190 0.697994 0.724902
O O16 0.250000 0.837089 0.081983
O O17 0.135564 0.000000 0.086779
O O18 0.134354 0.766344 0.017230
O O19 0.250000 0.653130 0.966710
O O20 0.364527 0.500000 0.977733
O O21 0.750000 0.792571 0.417625
O O22 0.842214 0.000000 0.440896
O O23 0.031904 0.500000 0.314728
#
# Coordination Sequence:
#
# PCOD8212480 Si02
#       8
#     8   8   8   8   8   8   8   8
#     4  10  20  36  58  82 106 134 174 223 269 313
#     4   9  18  32  51  76 106 140 179 223 266 308
#     4  11  22  35  53  76 107 145 181 217 260 312
#     4   9  18  33  53  76 102 134 171 214 264 316
#     4   9  16  26  44  72 104 135 168 211 260 310
#     4   8  14  26  45  70 100 135 174 213 257 311
#     4  10  22  38  55  79 110 143 179 217 261 316
#     4  10  21  37  57  79 105 137 176 217 261 319
#
# _framework density 18.009464999999999
#
# number of rings (size 3 to 8) (size 9 to 14) (size 15 to 20)
#    0.000    2.500    1.250    1.875    0.000    5.250 
#    0.000    2.500    0.000    2.250    0.000    5.250 
#    0.000    0.000    0.000    0.000    0.000    0.000 
#
# Total GULP energy -793672.749660 kJ/mol
# GULP energy per Si atom -12401.136713 kJ/mol
# Density = 1.796847 g / cm^3
# Si number density = 18.009465 Si / 1000 Ang^3
#
#
#
# Elastic Constant Matrix: (Units=GPa)
#
#
# Indices 1 2 3 4 5 6 
#
# 1 73.7935 46.3125 54.4186 0.0000 0.0000 0.0000
# 2 46.3125 90.4698 76.7869 0.0000 0.0000 0.0000
# 3 54.4186 76.7869 155.6630 0.0000 0.0000 0.0000
# 4 0.0000 0.0000 0.0000 24.1182 0.0000 0.0000
# 5 0.0000 0.0000 0.0000 0.0000 -37.2111 0.0000
# 6 0.0000 0.0000 0.0000 0.0000 0.0000 25.2604
#
#
#
# Elastic Compliance Matrix: (Units=1/GPa)
#
#
# Indices 1 2 3 4 5 6 
#
# 1 0.021025 -0.007783 -0.003511 0.000000 0.000000 0.000000
# 2 -0.007783 0.021896 -0.008080 0.000000 0.000000 0.000000
# 3 -0.003511 -0.008080 0.011637 0.000000 0.000000 0.000000
# 4 0.000000 0.000000 0.000000 0.041462 0.000000 0.000000
# 5 0.000000 0.000000 0.000000 0.000000 -0.026874 0.000000
# 6 0.000000 0.000000 0.000000 0.000000 0.000000 0.039588
#
#
# Mechanical properties :
#
#
# Convention : Reuss Voigt Hill
#
# Bulk Modulus (GPa) = 63.25082 74.99580 69.12331
# Shear Modulus (GPa) = 32.73279 11.92738 22.33009
#
# Velocity S-wave (km/s) = 4.26788 2.57628 3.52505
# Velocity P-wave (km/s) = 7.71255 7.11213 7.41842
#
# Compressibility (1/GPa) = 0.01581007
#
# Stress axis : x y z
#
# Youngs Moduli (GPa) = 47.56240 45.67143 85.93090
#
# Poissons Ratio (x) = 0.35546 0.30169
# Poissons Ratio (y) = 0.37018 0.69432
# Poissons Ratio (z) = 0.16699 0.36902
#
# Static dielectric constant tensor:
#      x y z
#    x 3.048200 0.000000 0.000000 
#    y 0.000000 3.377010 0.000000 
#    z 0.000000 0.000000 3.476940 
# 
# 
# High freq. dielectric constant tensor:
#      x y z
#    x 1.666590 0.000000 0.000000 
#    y 0.000000 1.696350 0.000000 
#    z 0.000000 0.000000 1.710370 
# 
# From -- ./inp_files/33854.got.cif
#   From: 2010.03.12/outbox.cif.g09.slc.cpg/sg51_17_cif.got.tgz:33854.got - 2010.04.16 13:43:02.
