data_PCOD8212700
_publ_section_title
;
Structure prediction by ZEFSAII (Michael W. Deem and Ramdas Pophale) SiO2 
 PCOD8212700
Probable space group: P M M A
;
_chemical_formula_sum "Si O2"
_cell_formula_units_Z 40
_cell_length_a 8.824517
_cell_length_b 25.608763
_cell_length_c 9.501277
_cell_angle_alpha 90.000000
_cell_angle_beta 90.000000
_cell_angle_gamma 90.000000
_cell_volume 2147.145745
_symmetry_space_group_name_H-M "P M M A"
_symmetry_group_IT_number 51
_symmetry_cell_setting 'orthorhombic'
loop_
_space_group_symop_operation_xyz
x,y,z
1/2-x,-y,z
1/2+x,-y,-z
-x,y,-z
-x,-y,-z
1/2+x,y,-z
1/2-x,y,z
x,-y,z
loop_
_atom_site_type_symbol
_atom_site_label
_atom_site_fract_x
_atom_site_fract_y
_atom_site_fract_z
Si Si1 0.073735 0.000000 0.149398
Si Si2 0.926834 0.703985 0.854851
Si Si3 0.929315 0.205820 0.652246
Si Si4 0.429587 0.415418 0.148723
Si Si5 0.431050 0.500000 0.653882
Si Si6 0.928797 0.887215 0.846766
O O1 0.028362 0.944551 0.221758
O O2 0.250000 0.000000 0.122867
O O3 0.000000 0.000000 0.000000
O O4 0.750000 0.710113 0.877346
O O5 0.983685 0.741171 0.729338
O O6 0.970630 0.644589 0.818010
O O7 0.000000 0.722697 0.000000
O O8 0.750000 0.203798 0.637346
O O9 0.991495 0.156405 0.740508
O O10 0.000000 0.204412 0.500000
O O11 0.250000 0.425788 0.146438
O O12 0.509175 0.448441 0.269385
O O13 0.500000 0.432619 0.000000
O O14 0.250000 0.500000 0.648334
O O15 0.500000 0.500000 0.500000
O O16 0.750000 0.880920 0.865335
O O17 0.000000 0.879283 0.000000
#
# Coordination Sequence:
#
# PCOD8212700 Si02
#       6
#     4   8   8   8   4   8
#     4   8  14  26  45  70  96 124 158 204 253 296
#     4   9  19  35  56  80 104 131 169 212 255 301
#     4  10  21  35  49  71 102 136 170 207 251 302
#     4  10  20  37  59  83 109 138 173 214 257 306
#     4  12  25  40  57  80 110 144 178 214 257 306
#     4   9  17  30  50  73  98 127 165 208 252 300
#
# _framework density 18.629380999999999
#
# number of rings (size 3 to 8) (size 9 to 14) (size 15 to 20)
#    0.000    2.400    0.000    2.400    0.000    3.200 
#    0.000    2.500    0.000    0.000    0.000    0.000 
#    0.000    0.000    0.000    0.000    0.000    0.000 
#
# Total GULP energy -495798.886708 kJ/mol
# GULP energy per Si atom -12394.972168 kJ/mol
# Density = 1.858698 g / cm^3
# Si number density = 18.629381 Si / 1000 Ang^3
#
#
#
# Elastic Constant Matrix: (Units=GPa)
#
#
# Indices 1 2 3 4 5 6 
#
# 1 56.3901 43.5289 47.5143 0.0000 0.0000 0.0000
# 2 43.5289 153.3924 97.7508 0.0000 0.0000 0.0000
# 3 47.5143 97.7508 155.8136 0.0000 0.0000 0.0000
# 4 0.0000 0.0000 0.0000 10.0781 0.0000 0.0000
# 5 0.0000 0.0000 0.0000 0.0000 34.2591 0.0000
# 6 0.0000 0.0000 0.0000 0.0000 0.0000 16.8886
#
#
#
# Elastic Compliance Matrix: (Units=1/GPa)
#
#
# Indices 1 2 3 4 5 6 
#
# 1 0.025090 -0.003739 -0.005305 0.000000 0.000000 0.000000
# 2 -0.003739 0.011419 -0.006023 0.000000 0.000000 0.000000
# 3 -0.005305 -0.006023 0.011815 0.000000 0.000000 0.000000
# 4 0.000000 0.000000 0.000000 0.099225 0.000000 0.000000
# 5 0.000000 0.000000 0.000000 0.000000 0.029189 0.000000
# 6 0.000000 0.000000 0.000000 0.000000 0.000000 0.059212
#
#
# Mechanical properties :
#
#
# Convention : Reuss Voigt Hill
#
# Bulk Modulus (GPa) = 54.98182 82.57600 68.77891
# Shear Modulus (GPa) = 18.37234 24.03196 21.20215
#
# Velocity S-wave (km/s) = 3.14379 3.59556 3.37724
# Velocity P-wave (km/s) = 6.53877 7.85234 7.22547
#
# Compressibility (1/GPa) = 0.01818783
#
# Stress axis : x y z
#
# Youngs Moduli (GPa) = 39.85626 87.57506 84.64108
#
# Poissons Ratio (x) = 0.32745 0.44905
# Poissons Ratio (y) = 0.14903 0.50983
# Poissons Ratio (z) = 0.21145 0.52750
#
# Static dielectric constant tensor:
#      x y z
#    x 3.401450 0.000000 0.000000 
#    y 0.000000 4.119340 0.000000 
#    z 0.000000 0.000000 3.283850 
# 
# 
# High freq. dielectric constant tensor:
#      x y z
#    x 1.720020 0.000000 0.000000 
#    y 0.000000 1.748520 0.000000 
#    z 0.000000 0.000000 1.702540 
# 
# From -- ./inp_files/5585.got.cif
#   From: 2010.03.12/outbox.cif.g09.slc.cpg/sg51_3_cif.got.tgz:5585.got - 2010.04.16 13:43:02.
