data_PCOD8212032
_publ_section_title
;
Structure prediction by ZEFSAII (Michael W. Deem and Ramdas Pophale) SiO2 
 PCOD8212032
Probable space group: P M M A
;
_chemical_formula_sum "Si O2"
_cell_formula_units_Z 56
_cell_length_a 18.856092
_cell_length_b 9.198133
_cell_length_c 17.159863
_cell_angle_alpha 90.000000
_cell_angle_beta 90.000000
_cell_angle_gamma 90.000000
_cell_volume 2976.221089
_symmetry_space_group_name_H-M "P M M A"
_symmetry_group_IT_number 51
_symmetry_cell_setting 'orthorhombic'
loop_
_space_group_symop_operation_xyz
x,y,z
1/2-x,-y,z
1/2+x,-y,-z
-x,y,-z
-x,-y,-z
1/2+x,y,-z
1/2-x,y,z
x,-y,z
loop_
_atom_site_type_symbol
_atom_site_label
_atom_site_fract_x
_atom_site_fract_y
_atom_site_fract_z
Si Si1 0.329527 0.834835 0.726930
Si Si2 0.331700 0.166894 0.472593
Si Si3 0.083246 0.327433 0.605134
Si Si4 0.455951 0.167878 0.172977
Si Si5 0.887815 0.835739 0.113729
Si Si6 0.580427 0.335506 0.971500
Si Si7 0.447060 0.832253 0.349184
O O1 0.250000 0.813685 0.695180
O O2 0.380792 0.720331 0.685964
O O3 0.329216 0.806990 0.819912
O O4 0.356160 0.000000 0.710268
O O5 0.250000 0.213581 0.461873
O O6 0.368784 0.269064 0.535331
O O7 0.370838 0.186953 0.389896
O O8 0.337374 0.000000 0.501320
O O9 0.078162 0.500000 0.600134
O O10 0.004295 0.261188 0.602220
O O11 0.537782 0.198491 0.155371
O O12 0.408151 0.255950 0.111097
O O13 0.439766 0.223663 0.260386
O O14 0.435651 0.000000 0.164054
O O15 0.886472 0.000000 0.082450
O O16 0.871498 0.735463 0.039181
O O17 0.604634 0.500000 0.960523
O O18 0.500000 0.319925 0.000000
O O19 0.472191 0.000000 0.350032
#
# Coordination Sequence:
#
# PCOD8212032 Si02
#       7
#     8   8   8   8   8   8   8
#     4  10  20  35  55  77 105 144 187 228 273 326
#     4  10  22  40  61  82 106 140 181 224 271 324
#     4  12  24  36  54  81 113 144 179 221 270 326
#     4   9  16  29  50  75 101 132 171 217 266 310
#     4   9  16  29  48  71 100 134 175 218 263 311
#     4   9  17  27  43  70 103 136 170 209 256 309
#     4  10  20  37  60  83 108 139 180 227 274 321
#
# _framework density 18.815807
#
# number of rings (size 3 to 8) (size 9 to 14) (size 15 to 20)
#    0.000    2.143    1.429    2.571    0.000    7.429 
#    0.000    0.000    0.000    0.857    0.000    4.000 
#    0.000    0.000    0.000    0.000    0.000    0.000 
#
# Total GULP energy -694414.364131 kJ/mol
# GULP energy per Si atom -12400.256502 kJ/mol
# Density = 1.877298 g / cm^3
# Si number density = 18.815807 Si / 1000 Ang^3
#
#
#
# Elastic Constant Matrix: (Units=GPa)
#
#
# Indices 1 2 3 4 5 6 
#
# 1 73.7490 38.5758 46.6136 0.0000 0.0000 0.0000
# 2 38.5758 102.7609 60.6565 0.0000 0.0000 0.0000
# 3 46.6136 60.6565 119.5465 0.0000 0.0000 0.0000
# 4 0.0000 0.0000 0.0000 10.8956 0.0000 0.0000
# 5 0.0000 0.0000 0.0000 0.0000 18.2365 0.0000
# 6 0.0000 0.0000 0.0000 0.0000 0.0000 9.8222
#
#
#
# Elastic Compliance Matrix: (Units=1/GPa)
#
#
# Indices 1 2 3 4 5 6 
#
# 1 0.019055 -0.003951 -0.005425 0.000000 0.000000 0.000000
# 2 -0.003951 0.014711 -0.005924 0.000000 0.000000 0.000000
# 3 -0.005425 -0.005924 0.013486 0.000000 0.000000 0.000000
# 4 0.000000 0.000000 0.000000 0.091780 0.000000 0.000000
# 5 0.000000 0.000000 0.000000 0.000000 0.054835 0.000000
# 6 0.000000 0.000000 0.000000 0.000000 0.000000 0.101810
#
#
# Mechanical properties :
#
#
# Convention : Reuss Voigt Hill
#
# Bulk Modulus (GPa) = 60.05121 65.30537 62.67829
# Shear Modulus (GPa) = 15.06805 17.80490 16.43647
#
# Velocity S-wave (km/s) = 2.83294 3.07949 2.95879
# Velocity P-wave (km/s) = 6.53340 6.88676 6.71241
#
# Compressibility (1/GPa) = 0.01665245
#
# Stress axis : x y z
#
# Youngs Moduli (GPa) = 52.47907 67.97631 74.15057
#
# Poissons Ratio (x) = 0.26856 0.40230
# Poissons Ratio (y) = 0.20733 0.43925
# Poissons Ratio (z) = 0.28472 0.40267
#
# Static dielectric constant tensor:
#      x y z
#    x 3.211450 0.000000 0.000000 
#    y 0.000000 3.355890 0.000000 
#    z 0.000000 0.000000 3.593310 
# 
# 
# High freq. dielectric constant tensor:
#      x y z
#    x 1.696340 0.000000 0.000000 
#    y 0.000000 1.717670 0.000000 
#    z 0.000000 0.000000 1.740360 
# 
# From -- ./inp_files/25718.got.cif
#   From: 2010.03.12/outbox.cif.g09.slc.cpg/sg51_13_cif.got.tgz:25718.got - 2010.04.16 13:43:02.
