data_PCOD8212680
_publ_section_title
;
Structure prediction by ZEFSAII (Michael W. Deem and Ramdas Pophale) SiO2 
 PCOD8212680
Probable space group: P M M A
;
_chemical_formula_sum "Si O2"
_cell_formula_units_Z 64
_cell_length_a 22.322546
_cell_length_b 15.473481
_cell_length_c 8.999991
_cell_angle_alpha 90.000000
_cell_angle_beta 90.000000
_cell_angle_gamma 90.000000
_cell_volume 3108.664314
_symmetry_space_group_name_H-M "P M M A"
_symmetry_group_IT_number 51
_symmetry_cell_setting 'orthorhombic'
loop_
_space_group_symop_operation_xyz
x,y,z
1/2-x,-y,z
1/2+x,-y,-z
-x,y,-z
-x,-y,-z
1/2+x,y,-z
1/2-x,y,z
x,-y,z
loop_
_atom_site_type_symbol
_atom_site_label
_atom_site_fract_x
_atom_site_fract_y
_atom_site_fract_z
Si Si1 0.508577 0.185941 0.825085
Si Si2 0.898628 0.592998 0.818414
Si Si3 0.315878 0.768567 0.897066
Si Si4 0.014798 0.362869 0.673563
Si Si5 0.896305 0.902848 0.259373
Si Si6 0.872747 0.404584 0.154898
Si Si7 0.183022 0.097157 0.461311
Si Si8 0.857931 0.224757 0.779829
O O1 0.483255 0.266280 0.734430
O O2 0.468516 0.107532 0.757083
O O3 0.579101 0.173626 0.796897
O O4 0.500000 0.197803 0.000000
O O5 0.865515 0.500000 0.789501
O O6 0.868687 0.674467 0.731899
O O7 0.965789 0.581695 0.760540
O O8 0.903439 0.612304 0.994303
O O9 0.250000 0.798978 0.846059
O O10 0.366228 0.836011 0.851610
O O11 0.325531 0.673272 0.825485
O O12 0.318033 0.768165 0.074146
O O13 0.079347 0.403335 0.711181
O O14 0.000000 0.365631 0.500000
O O15 0.869906 0.883475 0.422175
O O16 0.879282 0.000000 0.212477
O O17 0.841789 0.500000 0.157941
O O18 0.250000 0.103738 0.532651
O O19 0.180062 0.171228 0.337895
O O20 0.174260 0.000000 0.395401
#
# Coordination Sequence:
#
# PCOD8212680 Si02
#       8
#     8   8   8   8   8   8   8   8
#     4  11  21  40  61  88 126 158 194 249 314 372
#     4   9  19  34  55  85 121 162 199 241 296 360
#     4  11  22  39  62  88 118 155 208 255 296 353
#     4  11  21  32  56  88 121 156 199 244 296 359
#     4  11  24  41  64  89 118 159 203 249 308 367
#     4  10  20  37  58  82 119 161 200 245 302 358
#     4  10  23  43  63  87 121 161 207 253 302 364
#     4  10  21  37  64  90 123 161 200 251 307 365
#
# _framework density 20.587620999999999
#
# number of rings (size 3 to 8) (size 9 to 14) (size 15 to 20)
#    0.000    1.625    2.500    3.000    3.500    4.250 
#    0.000    1.250    0.000    1.125    0.000    0.000 
#    0.000    0.000    0.000    0.000    0.000    0.000 
#
# Total GULP energy -793089.625951 kJ/mol
# GULP energy per Si atom -12392.025405 kJ/mol
# Density = 2.054076 g / cm^3
# Si number density = 20.587621 Si / 1000 Ang^3
#
#
#
# Elastic Constant Matrix: (Units=GPa)
#
#
# Indices 1 2 3 4 5 6 
#
# 1 78.3686 28.9672 23.0134 0.0000 0.0000 0.0000
# 2 28.9672 122.6422 36.2248 0.0000 0.0000 0.0000
# 3 23.0134 36.2248 71.7510 0.0000 0.0000 0.0000
# 4 0.0000 0.0000 0.0000 18.8207 0.0000 0.0000
# 5 0.0000 0.0000 0.0000 0.0000 11.3356 0.0000
# 6 0.0000 0.0000 0.0000 0.0000 0.0000 18.3088
#
#
#
# Elastic Compliance Matrix: (Units=1/GPa)
#
#
# Indices 1 2 3 4 5 6 
#
# 1 0.014684 -0.002441 -0.003477 0.000000 0.000000 0.000000
# 2 -0.002441 0.009989 -0.004260 0.000000 0.000000 0.000000
# 3 -0.003477 -0.004260 0.017203 0.000000 0.000000 0.000000
# 4 0.000000 0.000000 0.000000 0.053133 0.000000 0.000000
# 5 0.000000 0.000000 0.000000 0.000000 0.088218 0.000000
# 6 0.000000 0.000000 0.000000 0.000000 0.000000 0.054619
#
#
# Mechanical properties :
#
#
# Convention : Reuss Voigt Hill
#
# Bulk Modulus (GPa) = 46.47101 49.90806 48.18954
# Shear Modulus (GPa) = 18.84133 21.99678 20.41905
#
# Velocity S-wave (km/s) = 3.02847 3.27226 3.15272
# Velocity P-wave (km/s) = 5.90340 6.21058 6.05894
#
# Compressibility (1/GPa) = 0.02151879
#
# Stress axis : x y z
#
# Youngs Moduli (GPa) = 68.10314 100.11366 58.12909
#
# Poissons Ratio (x) = 0.24439 0.20213
# Poissons Ratio (y) = 0.16625 0.24763
# Poissons Ratio (z) = 0.23681 0.42648
#
# Static dielectric constant tensor:
#      x y z
#    x 3.642930 0.000000 0.000000 
#    y 0.000000 3.901070 0.000000 
#    z 0.000000 0.000000 3.508900 
# 
# 
# High freq. dielectric constant tensor:
#      x y z
#    x 1.789470 0.000000 0.000000 
#    y 0.000000 1.816220 0.000000 
#    z 0.000000 0.000000 1.785180 
# 
# From -- ./inp_files/11865.got.cif
#   From: 2010.03.12/outbox.cif.g09.slc.cpg/sg51_6_cif.got.tgz:11865.got - 2010.04.16 13:43:02.
