data_PCOD8212762
_publ_section_title
;
Structure prediction by ZEFSAII (Michael W. Deem and Ramdas Pophale) SiO2 
 PCOD8212762
Probable space group: P M M A
;
_chemical_formula_sum "Si O2"
_cell_formula_units_Z 48
_cell_length_a 18.477068
_cell_length_b 8.998885
_cell_length_c 14.938803
_cell_angle_alpha 90.000000
_cell_angle_beta 90.000000
_cell_angle_gamma 90.000000
_cell_volume 2483.919742
_symmetry_space_group_name_H-M "P M M A"
_symmetry_group_IT_number 51
_symmetry_cell_setting 'orthorhombic'
loop_
_space_group_symop_operation_xyz
x,y,z
1/2-x,-y,z
1/2+x,-y,-z
-x,y,-z
-x,-y,-z
1/2+x,y,-z
1/2-x,y,z
x,-y,z
loop_
_atom_site_type_symbol
_atom_site_label
_atom_site_fract_x
_atom_site_fract_y
_atom_site_fract_z
Si Si1 0.578548 0.173060 0.822151
Si Si2 0.052023 0.174950 0.374347
Si Si3 0.103946 0.175187 0.561025
Si Si4 0.832078 0.330328 0.284311
Si Si5 0.415233 0.172413 0.869670
Si Si6 0.833135 0.675274 0.969418
O O1 0.578370 0.239264 0.720870
O O2 0.501111 0.198028 0.868995
O O3 0.639726 0.262185 0.874901
O O4 0.599279 0.000000 0.822974
O O5 0.107525 0.214827 0.454951
O O6 0.972480 0.232774 0.399561
O O7 0.044880 0.000000 0.364238
O O8 0.164723 0.267083 0.614280
O O9 0.115443 0.000000 0.575494
O O10 0.750000 0.319548 0.249638
O O11 0.858959 0.500000 0.281106
O O12 0.882811 0.229388 0.223201
O O13 0.396064 0.000000 0.880405
O O14 0.381583 0.260441 0.951602
O O15 0.750000 0.722583 0.983693
O O16 0.842032 0.500000 0.969733
#
# Coordination Sequence:
#
# PCOD8212762 Si02
#       6
#     8   8   8   8   8   8
#     4  10  20  37  61  89 114 141 185 238 283 331
#     4   8  15  31  57  85 111 138 177 233 282 319
#     4   9  16  32  57  81 108 145 185 227 276 330
#     4  11  23  36  51  78 119 158 189 230 284 339
#     4  11  22  38  62  88 110 141 188 239 287 337
#     4  11  25  42  57  79 115 154 188 227 280 339
#
# _framework density 19.324296
#
# number of rings (size 3 to 8) (size 9 to 14) (size 15 to 20)
#    0.000    2.000    1.667    3.500    0.000    8.000 
#    0.000    3.333    0.000    5.000    0.000    0.000 
#    0.000    0.000    0.000    0.000    0.000    0.000 
#
# Total GULP energy -595170.928672 kJ/mol
# GULP energy per Si atom -12399.394347 kJ/mol
# Density = 1.928031 g / cm^3
# Si number density = 19.324296 Si / 1000 Ang^3
#
#
#
# Elastic Constant Matrix: (Units=GPa)
#
#
# Indices 1 2 3 4 5 6 
#
# 1 44.1580 34.0438 28.5750 0.0000 0.0000 0.0000
# 2 34.0438 63.3292 33.9231 0.0000 0.0000 0.0000
# 3 28.5750 33.9231 134.0351 0.0000 0.0000 0.0000
# 4 0.0000 0.0000 0.0000 7.6425 0.0000 0.0000
# 5 0.0000 0.0000 0.0000 0.0000 21.1750 0.0000
# 6 0.0000 0.0000 0.0000 0.0000 0.0000 24.5111
#
#
#
# Elastic Compliance Matrix: (Units=1/GPa)
#
#
# Indices 1 2 3 4 5 6 
#
# 1 0.040105 -0.019642 -0.003579 0.000000 0.000000 0.000000
# 2 -0.019642 0.027887 -0.002870 0.000000 0.000000 0.000000
# 3 -0.003579 -0.002870 0.008950 0.000000 0.000000 0.000000
# 4 0.000000 0.000000 0.000000 0.130846 0.000000 0.000000
# 5 0.000000 0.000000 0.000000 0.000000 0.047226 0.000000
# 6 0.000000 0.000000 0.000000 0.000000 0.000000 0.040798
#
#
# Mechanical properties :
#
#
# Convention : Reuss Voigt Hill
#
# Bulk Modulus (GPa) = 40.38847 48.28955 44.33901
# Shear Modulus (GPa) = 14.03516 20.33109 17.18312
#
# Velocity S-wave (km/s) = 2.69791 3.24713 2.98518
# Velocity P-wave (km/s) = 5.53631 6.25314 5.90561
#
# Compressibility (1/GPa) = 0.02475954
#
# Stress axis : x y z
#
# Youngs Moduli (GPa) = 24.93454 35.85881 111.72974
#
# Poissons Ratio (x) = 0.70435 0.39985
# Poissons Ratio (y) = 0.48977 0.32072
# Poissons Ratio (z) = 0.08923 0.10293
#
# Static dielectric constant tensor:
#      x y z
#    x 3.388570 0.000000 0.000000 
#    y 0.000000 3.332880 0.000000 
#    z 0.000000 0.000000 3.903040 
# 
# 
# High freq. dielectric constant tensor:
#      x y z
#    x 1.732810 0.000000 0.000000 
#    y 0.000000 1.735140 0.000000 
#    z 0.000000 0.000000 1.768970 
# 
# From -- ./inp_files/24710.got.cif
#   From: 2010.03.12/outbox.cif.g09.slc.cpg/sg51_13_cif.got.tgz:24710.got - 2010.04.16 13:43:02.
