data_PCOD8212888
_publ_section_title
;
Structure prediction by ZEFSAII (Michael W. Deem and Ramdas Pophale) SiO2 
 PCOD8212888
Probable space group: P M M A
;
_chemical_formula_sum "Si O2"
_cell_formula_units_Z 48
_cell_length_a 15.869414
_cell_length_b 9.051255
_cell_length_c 16.705418
_cell_angle_alpha 90.000000
_cell_angle_beta 90.000000
_cell_angle_gamma 90.000000
_cell_volume 2399.534715
_symmetry_space_group_name_H-M "P M M A"
_symmetry_group_IT_number 51
_symmetry_cell_setting 'orthorhombic'
loop_
_space_group_symop_operation_xyz
x,y,z
1/2-x,-y,z
1/2+x,-y,-z
-x,y,-z
-x,-y,-z
1/2+x,y,-z
1/2-x,y,z
x,-y,z
loop_
_atom_site_type_symbol
_atom_site_label
_atom_site_fract_x
_atom_site_fract_y
_atom_site_fract_z
Si Si1 0.653949 0.666935 0.799417
Si Si2 0.929927 0.173660 0.659291
Si Si3 0.399810 0.670594 0.661148
Si Si4 0.250000 0.330962 0.781497
Si Si5 0.750000 0.825018 0.053173
Si Si6 0.092085 0.327594 0.029333
Si Si7 0.846199 0.328465 0.515458
O O1 0.750000 0.688212 0.827398
O O2 0.637962 0.500000 0.769126
O O3 0.636059 0.776119 0.726465
O O4 0.595435 0.702457 0.875577
O O5 0.906953 0.236528 0.572463
O O6 0.021222 0.230332 0.684918
O O7 0.929210 0.000000 0.653694
O O8 0.427254 0.500000 0.659471
O O9 0.331319 0.700858 0.728397
O O10 0.362956 0.718985 0.575543
O O11 0.250000 0.500000 0.812588
O O12 0.250000 0.218281 0.854207
O O13 0.750000 0.000000 0.043763
O O14 0.665069 0.763248 0.013806
O O15 0.106778 0.500000 0.009972
O O16 0.000000 0.275054 0.000000
O O17 0.750000 0.292532 0.537470
O O18 0.866304 0.500000 0.528261
#
# Coordination Sequence:
#
# PCOD8212888 Si02
#       7
#     8   8   8   4   4   8   8
#     4  10  21  41  66  91 120 157 208 261 306 353
#     4  12  26  38  55  89 130 165 199 240 302 376
#     4  10  21  41  66  90 115 153 207 262 306 348
#     4  10  22  42  68  91 116 155 208 259 304 357
#     4  12  26  42  64  97 138 171 200 249 320 391
#     4  10  22  43  71  98 123 162 217 269 312 366
#     4  10  20  39  65  90 116 153 206 259 303 349
#
# _framework density 20.003876999999999
#
# number of rings (size 3 to 8) (size 9 to 14) (size 15 to 20)
#    0.000    1.500    1.667    3.250    2.333    7.000 
#    0.000    0.000    0.000    0.000    0.000    0.000 
#    0.000    0.000    0.000    0.000    0.000    0.000 
#
# Total GULP energy -595457.992540 kJ/mol
# GULP energy per Si atom -12405.374845 kJ/mol
# Density = 1.995835 g / cm^3
# Si number density = 20.003877 Si / 1000 Ang^3
#
#
#
# Elastic Constant Matrix: (Units=GPa)
#
#
# Indices 1 2 3 4 5 6 
#
# 1 109.9454 51.8904 35.7739 0.0000 0.0000 0.0000
# 2 51.8904 92.7801 49.4069 0.0000 0.0000 0.0000
# 3 35.7739 49.4069 100.6914 0.0000 0.0000 0.0000
# 4 0.0000 0.0000 0.0000 8.2987 0.0000 0.0000
# 5 0.0000 0.0000 0.0000 0.0000 34.0602 0.0000
# 6 0.0000 0.0000 0.0000 0.0000 0.0000 10.6854
#
#
#
# Elastic Compliance Matrix: (Units=1/GPa)
#
#
# Indices 1 2 3 4 5 6 
#
# 1 0.012495 -0.006260 -0.001368 0.000000 0.000000 0.000000
# 2 -0.006260 0.017727 -0.006474 0.000000 0.000000 0.000000
# 3 -0.001368 -0.006474 0.013594 0.000000 0.000000 0.000000
# 4 0.000000 0.000000 0.000000 0.120501 0.000000 0.000000
# 5 0.000000 0.000000 0.000000 0.000000 0.029360 0.000000
# 6 0.000000 0.000000 0.000000 0.000000 0.000000 0.093585
#
#
# Mechanical properties :
#
#
# Convention : Reuss Voigt Hill
#
# Bulk Modulus (GPa) = 64.05183 64.17324 64.11254
# Shear Modulus (GPa) = 15.59238 21.69857 18.64548
#
# Velocity S-wave (km/s) = 2.79492 3.29708 3.05633
# Velocity P-wave (km/s) = 6.51956 6.82967 6.67642
#
# Compressibility (1/GPa) = 0.01561236
#
# Stress axis : x y z
#
# Youngs Moduli (GPa) = 80.03284 56.41186 73.56241
#
# Poissons Ratio (x) = 0.35313 0.10061
# Poissons Ratio (y) = 0.50100 0.47625
# Poissons Ratio (z) = 0.10946 0.36521
#
# Static dielectric constant tensor:
#      x y z
#    x 3.787470 0.000000 0.000000 
#    y 0.000000 3.445120 0.000000 
#    z 0.000000 0.000000 3.665750 
# 
# 
# High freq. dielectric constant tensor:
#      x y z
#    x 1.793940 0.000000 0.000000 
#    y 0.000000 1.759510 0.000000 
#    z 0.000000 0.000000 1.791620 
# 
# From -- ./inp_files/29527.got.cif
#   From: 2010.03.12/outbox.cif.g09.slc.cpg/sg51_15_cif.got.tgz:29527.got - 2010.04.16 13:43:02.
