data_PCOD8212469
_publ_section_title
;
Structure prediction by ZEFSAII (Michael W. Deem and Ramdas Pophale) SiO2 
 PCOD8212469
Probable space group: P M M A
;
_chemical_formula_sum "Si O2"
_cell_formula_units_Z 64
_cell_length_a 8.962127
_cell_length_b 23.572586
_cell_length_c 15.403671
_cell_angle_alpha 90.000000
_cell_angle_beta 90.000000
_cell_angle_gamma 90.000000
_cell_volume 3254.187383
_symmetry_space_group_name_H-M "P M M A"
_symmetry_group_IT_number 51
_symmetry_cell_setting 'orthorhombic'
loop_
_space_group_symop_operation_xyz
x,y,z
1/2-x,-y,z
1/2+x,-y,-z
-x,y,-z
-x,-y,-z
1/2+x,y,-z
1/2-x,y,z
x,-y,z
loop_
_atom_site_type_symbol
_atom_site_label
_atom_site_fract_x
_atom_site_fract_y
_atom_site_fract_z
Si Si1 0.425200 0.863001 0.589516
Si Si2 0.578658 0.935332 0.738266
Si Si3 0.573994 0.560941 0.242826
Si Si4 0.424174 0.233088 0.912225
Si Si5 0.912978 0.435036 0.578811
Si Si6 0.927378 0.316864 0.231835
Si Si7 0.576140 0.731197 0.411790
Si Si8 0.425804 0.102038 0.909723
O O1 0.500000 0.883885 0.500000
O O2 0.250000 0.875478 0.584433
O O3 0.493071 0.896690 0.669803
O O4 0.459779 0.797088 0.605612
O O5 0.750000 0.915133 0.746284
O O6 0.500024 0.932303 0.831847
O O7 0.569944 0.000000 0.705908
O O8 0.750000 0.556927 0.244879
O O9 0.511895 0.500000 0.203894
O O10 0.518351 0.569556 0.339247
O O11 0.525486 0.619851 0.196101
O O12 0.250000 0.243767 0.922599
O O13 0.493054 0.270736 0.834524
O O14 0.460400 0.167994 0.892238
O O15 0.500000 0.254037 0.000000
O O16 0.750000 0.406605 0.594638
O O17 0.885856 0.500000 0.553375
O O18 0.000000 0.403918 0.500000
O O19 0.750000 0.310707 0.235252
O O20 0.988129 0.304248 0.329274
O O21 0.500000 0.709649 0.500000
O O22 0.750000 0.721114 0.423404
O O23 0.250000 0.089498 0.913702
O O24 0.500000 0.082259 0.000000
#
# Coordination Sequence:
#
# PCOD8212469 Si02
#       8
#     8   8   8   8   8   8   8   8
#     4  10  20  36  58  80 104 138 180 226 275 321
#     4  11  24  39  55  79 111 146 184 222 259 305
#     4   9  17  29  45  65  90 125 167 204 242 294
#     4   9  18  34  56  81 105 130 164 209 261 313
#     4   9  16  26  40  57  80 113 153 197 240 281
#     4   9  17  31  51  73 101 134 166 206 255 306
#     4   9  18  33  52  75 102 133 169 210 259 311
#     4  10  20  36  59  84 110 140 173 212 262 318
#
# _framework density 19.666968000000001
#
# number of rings (size 3 to 8) (size 9 to 14) (size 15 to 20)
#    0.000    2.500    0.000    2.250    0.000    6.500 
#    0.000    3.125    0.000    0.375    0.000    0.000 
#    0.000    0.000    0.000    0.000    0.000    0.000 
#
# Total GULP energy -793169.742999 kJ/mol
# GULP energy per Si atom -12393.277234 kJ/mol
# Density = 1.962221 g / cm^3
# Si number density = 19.666968 Si / 1000 Ang^3
#
#
#
# Elastic Constant Matrix: (Units=GPa)
#
#
# Indices 1 2 3 4 5 6 
#
# 1 36.1658 31.6471 26.8185 0.0000 0.0000 0.0000
# 2 31.6471 78.3902 33.4092 0.0000 0.0000 0.0000
# 3 26.8185 33.4092 89.8325 0.0000 0.0000 0.0000
# 4 0.0000 0.0000 0.0000 17.5965 0.0000 0.0000
# 5 0.0000 0.0000 0.0000 0.0000 32.7901 0.0000
# 6 0.0000 0.0000 0.0000 0.0000 0.0000 14.8325
#
#
#
# Elastic Compliance Matrix: (Units=1/GPa)
#
#
# Indices 1 2 3 4 5 6 
#
# 1 0.047532 -0.015617 -0.008382 0.000000 0.000000 0.000000
# 2 -0.015617 0.020290 -0.002884 0.000000 0.000000 0.000000
# 3 -0.008382 -0.002884 0.014707 0.000000 0.000000 0.000000
# 4 0.000000 0.000000 0.000000 0.056830 0.000000 0.000000
# 5 0.000000 0.000000 0.000000 0.000000 0.030497 0.000000
# 6 0.000000 0.000000 0.000000 0.000000 0.000000 0.067420
#
#
# Mechanical properties :
#
#
# Convention : Reuss Voigt Hill
#
# Bulk Modulus (GPa) = 34.76650 43.12646 38.94648
# Shear Modulus (GPa) = 16.63184 20.54473 18.58828
#
# Velocity S-wave (km/s) = 2.91120 3.23558 3.07767
# Velocity P-wave (km/s) = 5.38666 5.99455 5.69872
#
# Compressibility (1/GPa) = 0.02876332
#
# Stress axis : x y z
#
# Youngs Moduli (GPa) = 21.03863 49.28417 67.99601
#
# Poissons Ratio (x) = 0.76966 0.56995
# Poissons Ratio (y) = 0.32856 0.19610
# Poissons Ratio (z) = 0.17635 0.14213
#
# Static dielectric constant tensor:
#      x y z
#    x 3.550140 0.000000 0.000000 
#    y 0.000000 3.877210 0.000000 
#    z 0.000000 0.000000 3.564030 
# 
# 
# High freq. dielectric constant tensor:
#      x y z
#    x 1.756760 0.000000 0.000000 
#    y 0.000000 1.772750 0.000000 
#    z 0.000000 0.000000 1.746650 
# 
# From -- ./inp_files/22297.got.cif
#   From: 2010.03.12/outbox.cif.g09.slc.cpg/sg51_12_cif.got.tgz:22297.got - 2010.04.16 13:43:02.
