data_PCOD8212831
_publ_section_title
;
Structure prediction by ZEFSAII (Michael W. Deem and Ramdas Pophale) SiO2 
 PCOD8212831
Probable space group: P M M A
;
_chemical_formula_sum "Si O2"
_cell_formula_units_Z 48
_cell_length_a 8.711497
_cell_length_b 29.661047
_cell_length_c 9.576326
_cell_angle_alpha 90.000000
_cell_angle_beta 90.000000
_cell_angle_gamma 90.000000
_cell_volume 2474.447196
_symmetry_space_group_name_H-M "P M M A"
_symmetry_group_IT_number 51
_symmetry_cell_setting 'orthorhombic'
loop_
_space_group_symop_operation_xyz
x,y,z
1/2-x,-y,z
1/2+x,-y,-z
-x,y,-z
-x,-y,-z
1/2+x,y,-z
1/2-x,y,z
x,-y,z
loop_
_atom_site_type_symbol
_atom_site_label
_atom_site_fract_x
_atom_site_fract_y
_atom_site_fract_z
Si Si1 0.571131 0.552480 0.645730
Si Si2 0.569908 0.700345 0.355289
Si Si3 0.567943 0.123880 0.846614
Si Si4 0.068501 0.622699 0.847884
Si Si5 0.928069 0.052601 0.352520
Si Si6 0.067985 0.197242 0.647880
O O1 0.500000 0.569229 0.500000
O O2 0.750000 0.563499 0.643279
O O3 0.537259 0.500000 0.669395
O O4 0.491935 0.578089 0.772702
O O5 0.500000 0.683136 0.500000
O O6 0.750000 0.697727 0.372478
O O7 0.511927 0.667392 0.233454
O O8 0.517936 0.751311 0.321151
O O9 0.750000 0.125928 0.853479
O O10 0.515771 0.078624 0.768907
O O11 0.504406 0.167857 0.769786
O O12 0.500000 0.122841 0.000000
O O13 0.250000 0.620089 0.856952
O O14 0.000000 0.625463 0.000000
O O15 0.750000 0.066383 0.353455
O O16 0.000000 0.066754 0.500000
O O17 0.951467 0.000000 0.323064
O O18 0.250000 0.190876 0.645198
O O19 0.000000 0.181087 0.500000
#
# Coordination Sequence:
#
# PCOD8212831 Si02
#       6
#     8   8   8   8   8   8
#     4  10  21  38  60  85 112 145 186 231 279 332
#     4   9  20  37  59  85 112 145 186 232 279 331
#     4  12  25  40  58  83 116 153 191 233 284 338
#     4  11  23  38  56  82 115 151 189 230 281 336
#     4  10  21  39  63  89 116 149 190 234 280 332
#     4  10  20  38  61  86 115 148 189 233 279 331
#
# _framework density 19.398271999999999
#
# number of rings (size 3 to 8) (size 9 to 14) (size 15 to 20)
#    0.000    1.667    0.000    4.500    0.000    6.667 
#    0.000    1.667    0.000    0.000    0.000    0.000 
#    0.000    0.000    0.000    0.000    0.000    0.000 
#
# Total GULP energy -595454.553903 kJ/mol
# GULP energy per Si atom -12405.303206 kJ/mol
# Density = 1.935412 g / cm^3
# Si number density = 19.398272 Si / 1000 Ang^3
#
#
#
# Elastic Constant Matrix: (Units=GPa)
#
#
# Indices 1 2 3 4 5 6 
#
# 1 117.7486 52.9740 73.0536 0.0000 0.0000 0.0000
# 2 52.9740 101.6479 84.0860 0.0000 0.0000 0.0000
# 3 73.0536 84.0860 188.7871 0.0000 0.0000 0.0000
# 4 0.0000 0.0000 0.0000 38.5272 0.0000 0.0000
# 5 0.0000 0.0000 0.0000 0.0000 40.8244 0.0000
# 6 0.0000 0.0000 0.0000 0.0000 0.0000 23.0271
#
#
#
# Elastic Compliance Matrix: (Units=1/GPa)
#
#
# Indices 1 2 3 4 5 6 
#
# 1 0.012052 -0.003837 -0.002955 0.000000 0.000000 0.000000
# 2 -0.003837 0.016799 -0.005998 0.000000 0.000000 0.000000
# 3 -0.002955 -0.005998 0.009112 0.000000 0.000000 0.000000
# 4 0.000000 0.000000 0.000000 0.025956 0.000000 0.000000
# 5 0.000000 0.000000 0.000000 0.000000 0.024495 0.000000
# 6 0.000000 0.000000 0.000000 0.000000 0.000000 0.043427
#
#
# Mechanical properties :
#
#
# Convention : Reuss Voigt Hill
#
# Bulk Modulus (GPa) = 80.74670 92.04565 86.39617
# Shear Modulus (GPa) = 30.95091 33.68042 32.31567
#
# Velocity S-wave (km/s) = 3.99877 4.17136 4.08598
# Velocity P-wave (km/s) = 7.93954 8.41153 8.17894
#
# Compressibility (1/GPa) = 0.01238441
#
# Stress axis : x y z
#
# Youngs Moduli (GPa) = 82.97418 59.52864 109.74912
#
# Poissons Ratio (x) = 0.22839 0.32429
# Poissons Ratio (y) = 0.31834 0.65822
# Poissons Ratio (z) = 0.24518 0.35702
#
# Static dielectric constant tensor:
#      x y z
#    x 3.665780 0.000000 0.000000 
#    y 0.000000 3.751240 0.000000 
#    z 0.000000 0.000000 3.328280 
# 
# 
# High freq. dielectric constant tensor:
#      x y z
#    x 1.769310 0.000000 0.000000 
#    y 0.000000 1.768950 0.000000 
#    z 0.000000 0.000000 1.755580 
# 
# From -- ./inp_files/5962.got.cif
#   From: 2010.03.12/outbox.cif.g09.slc.cpg/sg51_3_cif.got.tgz:5962.got - 2010.04.16 13:43:02.
