data_PCOD8212936
_publ_section_title
;
Structure prediction by ZEFSAII (Michael W. Deem and Ramdas Pophale) SiO2 
 PCOD8212936
Probable space group: P M M A
;
_chemical_formula_sum "Si O2"
_cell_formula_units_Z 64
_cell_length_a 9.694305
_cell_length_b 14.558064
_cell_length_c 28.650359
_cell_angle_alpha 90.000000
_cell_angle_beta 90.000000
_cell_angle_gamma 90.000000
_cell_volume 4043.434123
_symmetry_space_group_name_H-M "P M M A"
_symmetry_group_IT_number 51
_symmetry_cell_setting 'orthorhombic'
loop_
_space_group_symop_operation_xyz
x,y,z
1/2-x,-y,z
1/2+x,-y,-z
-x,y,-z
-x,-y,-z
1/2+x,y,-z
1/2-x,y,z
x,-y,z
loop_
_atom_site_type_symbol
_atom_site_label
_atom_site_fract_x
_atom_site_fract_y
_atom_site_fract_z
Si Si1 0.591396 0.106521 0.183006
Si Si2 0.085352 0.896868 0.643095
Si Si3 0.403266 0.109148 0.540308
Si Si4 0.907517 0.103225 0.904173
Si Si5 0.408444 0.280649 0.043408
Si Si6 0.091878 0.393869 0.133688
Si Si7 0.410639 0.396379 0.777536
Si Si8 0.088055 0.782442 0.728649
O O1 0.750000 0.131945 0.172517
O O2 0.503538 0.134824 0.138166
O O3 0.530953 0.162615 0.226704
O O4 0.574212 0.000000 0.195142
O O5 0.250000 0.898002 0.642879
O O6 0.035838 0.865281 0.591495
O O7 0.023935 0.824668 0.681048
O O8 0.031819 0.000000 0.654822
O O9 0.500000 0.151677 0.500000
O O10 0.250000 0.150504 0.533631
O O11 0.396320 0.000000 0.536058
O O12 0.750000 0.109541 0.886551
O O13 0.931196 0.172107 0.947265
O O14 0.944276 0.000000 0.920965
O O15 0.250000 0.302869 0.031408
O O16 0.456412 0.336239 0.088997
O O17 0.500000 0.312446 0.000000
O O18 0.250000 0.371059 0.146872
O O19 0.072908 0.500000 0.120838
O O20 0.996696 0.366566 0.177229
O O21 0.250000 0.388344 0.790999
O O22 0.448195 0.500000 0.761298
O O23 0.446678 0.325976 0.735259
O O24 0.250000 0.799407 0.726003
#
# Coordination Sequence:
#
# PCOD8212936 Si02
#       8
#     8   8   8   8   8   8   8   8
#     4   9  16  25  40  62  81  99 129 163 189 218
#     4   8  13  21  34  54  79 107 139 169 197 234
#     4   8  13  21  34  51  71  99 135 170 201 233
#     4   9  18  32  46  59  79 106 131 155 186 224
#     4  10  21  34  47  64  83 102 126 156 190 228
#     4   9  18  33  50  65  82 104 128 154 187 230
#     4   9  17  28  43  64  85 104 129 159 190 226
#     4   9  15  23  37  57  83 109 129 158 198 231
#
# _framework density 15.828129000000001
#
# number of rings (size 3 to 8) (size 9 to 14) (size 15 to 20)
#    0.000    3.125    0.000    1.875    0.000    3.000 
#    0.000    0.000    0.000    1.500    0.000    3.500 
#    0.000    0.500    0.000    0.375    0.000    0.750 
#
# Total GULP energy -793272.284097 kJ/mol
# GULP energy per Si atom -12394.879439 kJ/mol
# Density = 1.579210 g / cm^3
# Si number density = 15.828129 Si / 1000 Ang^3
#
#
#
# Elastic Constant Matrix: (Units=GPa)
#
#
# Indices 1 2 3 4 5 6 
#
# 1 40.7238 21.1124 39.5709 0.0000 0.0000 0.0000
# 2 21.1124 69.0159 51.5183 0.0000 0.0000 0.0000
# 3 39.5709 51.5183 106.7517 0.0000 0.0000 0.0000
# 4 0.0000 0.0000 0.0000 17.2211 0.0000 0.0000
# 5 0.0000 0.0000 0.0000 0.0000 19.7883 0.0000
# 6 0.0000 0.0000 0.0000 0.0000 0.0000 13.3931
#
#
#
# Elastic Compliance Matrix: (Units=1/GPa)
#
#
# Indices 1 2 3 4 5 6 
#
# 1 0.038515 -0.001758 -0.013428 0.000000 0.000000 0.000000
# 2 -0.001758 0.022729 -0.010317 0.000000 0.000000 0.000000
# 3 -0.013428 -0.010317 0.019324 0.000000 0.000000 0.000000
# 4 0.000000 0.000000 0.000000 0.058068 0.000000 0.000000
# 5 0.000000 0.000000 0.000000 0.000000 0.050535 0.000000
# 6 0.000000 0.000000 0.000000 0.000000 0.000000 0.074665
#
#
# Mechanical properties :
#
#
# Convention : Reuss Voigt Hill
#
# Bulk Modulus (GPa) = 33.82851 48.98827 41.40839
# Shear Modulus (GPa) = 15.39891 17.03315 16.21603
#
# Velocity S-wave (km/s) = 3.12249 3.28400 3.20426
# Velocity P-wave (km/s) = 5.86675 6.73772 6.31726
#
# Compressibility (1/GPa) = 0.02956087
#
# Stress axis : x y z
#
# Youngs Moduli (GPa) = 25.96363 43.99725 51.74840
#
# Poissons Ratio (x) = 0.07735 0.69490
# Poissons Ratio (y) = 0.04565 0.53390
# Poissons Ratio (z) = 0.34865 0.45393
#
# Static dielectric constant tensor:
#      x y z
#    x 2.897130 0.000000 0.000000 
#    y 0.000000 3.049970 0.000000 
#    z 0.000000 0.000000 3.074210 
# 
# 
# High freq. dielectric constant tensor:
#      x y z
#    x 1.583470 0.000000 0.000000 
#    y 0.000000 1.595870 0.000000 
#    z 0.000000 0.000000 1.592140 
# 
# From -- ./inp_files/37541.got.cif
#   From: 2010.03.12/outbox.cif.g09.slc.cpg/sg51_19_cif.got.tgz:37541.got - 2010.04.16 13:43:02.
