data_PCOD8212513
_publ_section_title
;
Structure prediction by ZEFSAII (Michael W. Deem and Ramdas Pophale) SiO2 
 PCOD8212513
Probable space group: P M M A
;
_chemical_formula_sum "Si O2"
_cell_formula_units_Z 48
_cell_length_a 17.251328
_cell_length_b 17.779121
_cell_length_c 7.827923
_cell_angle_alpha 90.000000
_cell_angle_beta 90.000000
_cell_angle_gamma 90.000000
_cell_volume 2400.929253
_symmetry_space_group_name_H-M "P M M A"
_symmetry_group_IT_number 51
_symmetry_cell_setting 'orthorhombic'
loop_
_space_group_symop_operation_xyz
x,y,z
1/2-x,-y,z
1/2+x,-y,-z
-x,y,-z
-x,-y,-z
1/2+x,y,-z
1/2-x,y,z
x,-y,z
loop_
_atom_site_type_symbol
_atom_site_label
_atom_site_fract_x
_atom_site_fract_y
_atom_site_fract_z
Si Si1 0.836837 0.687179 0.882879
Si Si2 0.007129 0.293812 0.306917
Si Si3 0.058447 0.862800 0.728335
Si Si4 0.100245 0.915264 0.376026
Si Si5 0.164612 0.854772 0.031459
Si Si6 0.074866 0.583588 0.882154
O O1 0.750000 0.674861 0.804642
O O2 0.903715 0.687330 0.738847
O O3 0.840048 0.764816 0.986147
O O4 0.853360 0.619730 0.015992
O O5 0.000000 0.271029 0.500000
O O6 0.975871 0.218705 0.214365
O O7 0.949577 0.363861 0.275633
O O8 0.108531 0.865362 0.550659
O O9 0.987835 0.919233 0.693046
O O10 0.107229 0.891652 0.891621
O O11 0.150524 0.877466 0.227479
O O12 0.129166 0.000000 0.411201
O O13 0.250000 0.883116 0.982127
O O14 0.098135 0.500000 0.818479
O O15 0.000000 0.580382 0.000000
#
# Coordination Sequence:
#
# PCOD8212513 Si02
#       6
#     8   8   8   8   8   8
#     4  10  20  36  58  86 118 155 202 246 295 357
#     4  11  19  35  62  88 117 158 201 248 297 354
#     4  11  20  38  63  87 115 157 204 249 293 367
#     4  11  24  40  61  88 118 153 201 255 304 359
#     4  11  23  38  60  88 117 156 202 247 302 362
#     4   9  19  34  57  87 118 153 194 238 288 348
#
# _framework density 19.992260000000002
#
# number of rings (size 3 to 8) (size 9 to 14) (size 15 to 20)
#    0.000    1.500    5.000    1.500    0.000    3.667 
#    0.000    1.667    0.000    0.000    0.000    0.000 
#    0.000    0.000    0.000    0.000    0.000    0.000 
#
# Total GULP energy -594858.470086 kJ/mol
# GULP energy per Si atom -12392.884793 kJ/mol
# Density = 1.994676 g / cm^3
# Si number density = 19.992260 Si / 1000 Ang^3
#
#
#
# Elastic Constant Matrix: (Units=GPa)
#
#
# Indices 1 2 3 4 5 6 
#
# 1 103.4188 19.0553 39.0453 0.0000 0.0000 0.0000
# 2 19.0553 111.1145 6.9439 0.0000 0.0000 0.0000
# 3 39.0453 6.9439 73.0780 0.0000 0.0000 0.0000
# 4 0.0000 0.0000 0.0000 24.7149 0.0000 0.0000
# 5 0.0000 0.0000 0.0000 0.0000 22.6413 0.0000
# 6 0.0000 0.0000 0.0000 0.0000 0.0000 8.6910
#
#
#
# Elastic Compliance Matrix: (Units=1/GPa)
#
#
# Indices 1 2 3 4 5 6 
#
# 1 0.012434 -0.001727 -0.006479 0.000000 0.000000 0.000000
# 2 -0.001727 0.009293 0.000040 0.000000 0.000000 0.000000
# 3 -0.006479 0.000040 0.017142 0.000000 0.000000 0.000000
# 4 0.000000 0.000000 0.000000 0.040461 0.000000 0.000000
# 5 0.000000 0.000000 0.000000 0.000000 0.044167 0.000000
# 6 0.000000 0.000000 0.000000 0.000000 0.000000 0.115061
#
#
# Mechanical properties :
#
#
# Convention : Reuss Voigt Hill
#
# Bulk Modulus (GPa) = 44.37369 46.41115 45.39242
# Shear Modulus (GPa) = 19.05457 26.04725 22.55091
#
# Velocity S-wave (km/s) = 3.09058 3.61344 3.36219
# Velocity P-wave (km/s) = 5.91432 6.37763 6.15034
#
# Compressibility (1/GPa) = 0.02253588
#
# Stress axis : x y z
#
# Youngs Moduli (GPa) = 80.42519 107.60237 58.33605
#
# Poissons Ratio (x) = 0.18587 0.37797
# Poissons Ratio (y) = 0.13893 -0.00233
# Poissons Ratio (z) = 0.52110 -0.00429
#
# Static dielectric constant tensor:
#      x y z
#    x 3.631350 0.000000 0.000000 
#    y 0.000000 3.800530 0.000000 
#    z 0.000000 0.000000 3.466580 
# 
# 
# High freq. dielectric constant tensor:
#      x y z
#    x 1.767100 0.000000 0.000000 
#    y 0.000000 1.775230 0.000000 
#    z 0.000000 0.000000 1.763710 
# 
# From -- ./inp_files/8268.got.cif
#   From: 2010.03.12/outbox.cif.g09.slc.cpg/sg51_5_cif.got.tgz:8268.got - 2010.04.16 13:43:02.
