data_PCOD8212078
_publ_section_title
;
Structure prediction by ZEFSAII (Michael W. Deem and Ramdas Pophale) SiO2 
 PCOD8212078
Probable space group: P M M A
;
_chemical_formula_sum "Si O2"
_cell_formula_units_Z 52
_cell_length_a 9.230964
_cell_length_b 19.877729
_cell_length_c 14.439078
_cell_angle_alpha 90.000000
_cell_angle_beta 90.000000
_cell_angle_gamma 90.000000
_cell_volume 2649.435097
_symmetry_space_group_name_H-M "P M M A"
_symmetry_group_IT_number 51
_symmetry_cell_setting 'orthorhombic'
loop_
_space_group_symop_operation_xyz
x,y,z
1/2-x,-y,z
1/2+x,-y,-z
-x,y,-z
-x,-y,-z
1/2+x,y,-z
1/2-x,y,z
x,-y,z
loop_
_atom_site_type_symbol
_atom_site_label
_atom_site_fract_x
_atom_site_fract_y
_atom_site_fract_z
Si Si1 0.084048 0.425249 0.712321
Si Si2 0.917808 0.765557 0.088259
Si Si3 0.079893 0.000000 0.901599
Si Si4 0.079657 0.165813 0.405096
Si Si5 0.084127 0.386787 0.913305
Si Si6 0.418740 0.678694 0.407239
Si Si7 0.581130 0.122771 0.229773
O O1 0.250000 0.402803 0.693168
O O2 0.054876 0.500000 0.671259
O O3 0.055594 0.430151 0.822043
O O4 0.976102 0.370138 0.672307
O O5 0.750000 0.771345 0.064506
O O6 0.969029 0.689422 0.106384
O O7 0.954710 0.806832 0.180357
O O8 0.000000 0.796747 0.000000
O O9 0.034195 0.935742 0.840663
O O10 0.250000 0.000000 0.922887
O O11 0.000000 0.000000 0.000000
O O12 0.250000 0.151198 0.415274
O O13 0.048958 0.244005 0.381702
O O14 0.000000 0.145553 0.500000
O O15 0.013420 0.120039 0.323370
O O16 0.250000 0.387146 0.942452
O O17 0.000000 0.418936 0.000000
O O18 0.500000 0.657331 0.500000
O O19 0.250000 0.665817 0.422144
O O20 0.750000 0.116320 0.256754
#
# Coordination Sequence:
#
# PCOD8212078 Si02
#       7
#     8   8   4   8   8   8   8
#     4  10  21  36  53  74 103 141 182 221 265 321
#     4   9  17  29  48  73 101 134 172 218 268 315
#     4  10  22  38  57  84 119 158 195 228 266 316
#     4  10  21  37  59  86 111 138 176 223 274 326
#     4   9  18  32  49  71  99 132 172 218 268 317
#     4  10  21  37  58  83 109 137 172 218 272 327
#     4  10  20  35  55  80 112 149 186 224 267 315
#
# _framework density 19.626825
#
# number of rings (size 3 to 8) (size 9 to 14) (size 15 to 20)
#    0.000    2.308    0.000    2.308    0.000    5.846 
#    0.000    3.462    0.000    0.000    0.000    0.000 
#    0.000    0.000    0.000    0.000    0.000    0.000 
#
# Total GULP energy -644839.586725 kJ/mol
# GULP energy per Si atom -12400.761283 kJ/mol
# Density = 1.958215 g / cm^3
# Si number density = 19.626825 Si / 1000 Ang^3
#
#
#
# Elastic Constant Matrix: (Units=GPa)
#
#
# Indices 1 2 3 4 5 6 
#
# 1 86.9629 34.4923 67.1149 0.0000 0.0000 0.0000
# 2 34.4923 63.4233 41.5682 0.0000 0.0000 0.0000
# 3 67.1149 41.5682 126.0449 0.0000 0.0000 0.0000
# 4 0.0000 0.0000 0.0000 21.9269 0.0000 0.0000
# 5 0.0000 0.0000 0.0000 0.0000 43.5630 0.0000
# 6 0.0000 0.0000 0.0000 0.0000 0.0000 17.5988
#
#
#
# Elastic Compliance Matrix: (Units=1/GPa)
#
#
# Indices 1 2 3 4 5 6 
#
# 1 0.020767 -0.005162 -0.009355 0.000000 0.000000 0.000000
# 2 -0.005162 0.021398 -0.004308 0.000000 0.000000 0.000000
# 3 -0.009355 -0.004308 0.014336 0.000000 0.000000 0.000000
# 4 0.000000 0.000000 0.000000 0.045606 0.000000 0.000000
# 5 0.000000 0.000000 0.000000 0.000000 0.022955 0.000000
# 6 0.000000 0.000000 0.000000 0.000000 0.000000 0.056822
#
#
# Mechanical properties :
#
#
# Convention : Reuss Voigt Hill
#
# Bulk Modulus (GPa) = 53.05196 62.53131 57.79163
# Shear Modulus (GPa) = 22.14173 25.50147 23.82160
#
# Velocity S-wave (km/s) = 3.36242 3.60851 3.48764
# Velocity P-wave (km/s) = 6.49334 7.02076 6.76220
#
# Compressibility (1/GPa) = 0.01884945
#
# Stress axis : x y z
#
# Youngs Moduli (GPa) = 48.15414 46.73303 69.75588
#
# Poissons Ratio (x) = 0.24125 0.65257
# Poissons Ratio (y) = 0.24859 0.30051
# Poissons Ratio (z) = 0.45049 0.20133
#
# Static dielectric constant tensor:
#      x y z
#    x 3.514760 0.000000 0.000000 
#    y 0.000000 3.508860 0.000000 
#    z 0.000000 0.000000 3.510130 
# 
# 
# High freq. dielectric constant tensor:
#      x y z
#    x 1.758760 0.000000 0.000000 
#    y 0.000000 1.754980 0.000000 
#    z 0.000000 0.000000 1.766410 
# 
# From -- ./inp_files/21606.got.cif
#   From: 2010.03.12/outbox.cif.g09.slc.cpg/sg51_11_cif.got.tgz:21606.got - 2010.04.16 13:43:02.
