data_PCOD8212635
_publ_section_title
;
Structure prediction by ZEFSAII (Michael W. Deem and Ramdas Pophale) SiO2 
 PCOD8212635
Probable space group: P M M A
;
_chemical_formula_sum "Si O2"
_cell_formula_units_Z 52
_cell_length_a 10.957645
_cell_length_b 8.160276
_cell_length_c 28.181567
_cell_angle_alpha 90.000000
_cell_angle_beta 90.000000
_cell_angle_gamma 90.000000
_cell_volume 2519.922661
_symmetry_space_group_name_H-M "P M M A"
_symmetry_group_IT_number 51
_symmetry_cell_setting 'orthorhombic'
loop_
_space_group_symop_operation_xyz
x,y,z
1/2-x,-y,z
1/2+x,-y,-z
-x,y,-z
-x,-y,-z
1/2+x,y,-z
1/2-x,y,z
x,-y,z
loop_
_atom_site_type_symbol
_atom_site_label
_atom_site_fract_x
_atom_site_fract_y
_atom_site_fract_z
Si Si1 0.113769 0.812292 0.317954
Si Si2 0.495789 0.685454 0.223814
Si Si3 0.750000 0.815739 0.222994
Si Si4 0.041037 0.686587 0.604678
Si Si5 0.390736 0.178369 0.131908
Si Si6 0.110592 0.691229 0.031976
Si Si7 0.250000 0.317855 0.678779
Si Si8 0.602425 0.000000 0.459254
O O1 0.250000 0.762763 0.302704
O O2 0.029858 0.785543 0.271784
O O3 0.084722 0.713314 0.366714
O O4 0.102344 0.000000 0.332832
O O5 0.481450 0.500000 0.239502
O O6 0.630575 0.723803 0.203995
O O7 0.406953 0.723020 0.180509
O O8 0.750000 0.815605 0.280182
O O9 0.750000 0.000000 0.203995
O O10 0.045864 0.500000 0.582471
O O11 0.134107 0.708715 0.646926
O O12 0.073211 0.828689 0.567228
O O13 0.250000 0.148075 0.125437
O O14 0.434873 0.277655 0.085813
O O15 0.456526 0.000000 0.134766
O O16 0.250000 0.762728 0.022205
O O17 0.117790 0.500000 0.022277
O O18 0.000000 0.768137 0.000000
O O19 0.250000 0.500000 0.701836
O O20 0.500000 0.000000 0.500000
O O21 0.750000 0.000000 0.473422
#
# Coordination Sequence:
#
# PCOD8212635 Si02
#       8
#     8   8   4   8   8   8   4   4
#     4  11  23  38  60  93 131 169 211 261 316 375
#     4  12  24  38  56  84 122 164 208 254 307 372
#     4  12  24  36  58  86 122 162 206 254 306 359
#     4  11  23  42  70  98 127 168 216 262 317 384
#     4  10  21  38  59  82 114 157 202 249 305 370
#     4   9  18  35  59  85 112 148 195 251 314 378
#     4  10  20  36  62  94 120 154 206 253 297 362
#     4  12  28  48  74 102 136 176 220 272 333 388
#
# _framework density 20.635555
#
# number of rings (size 3 to 8) (size 9 to 14) (size 15 to 20)
#    0.000    1.231    3.077    3.462    1.077    5.231 
#    1.385    0.000    0.000    0.000    0.000    0.000 
#    0.000    0.000    0.000    0.000    0.000    0.000 
#
# Total GULP energy -644207.395404 kJ/mol
# GULP energy per Si atom -12388.603758 kJ/mol
# Density = 2.058859 g / cm^3
# Si number density = 20.635555 Si / 1000 Ang^3
#
#
#
# Elastic Constant Matrix: (Units=GPa)
#
#
# Indices 1 2 3 4 5 6 
#
# 1 88.4360 28.9589 35.9201 0.0000 0.0000 0.0000
# 2 28.9589 97.0774 30.8173 0.0000 0.0000 0.0000
# 3 35.9201 30.8173 91.4894 0.0000 0.0000 0.0000
# 4 0.0000 0.0000 0.0000 26.8228 0.0000 0.0000
# 5 0.0000 0.0000 0.0000 0.0000 41.8592 0.0000
# 6 0.0000 0.0000 0.0000 0.0000 0.0000 22.8904
#
#
#
# Elastic Compliance Matrix: (Units=1/GPa)
#
#
# Indices 1 2 3 4 5 6 
#
# 1 0.014074 -0.002737 -0.004604 0.000000 0.000000 0.000000
# 2 -0.002737 0.012067 -0.002990 0.000000 0.000000 0.000000
# 3 -0.004604 -0.002990 0.013745 0.000000 0.000000 0.000000
# 4 0.000000 0.000000 0.000000 0.037282 0.000000 0.000000
# 5 0.000000 0.000000 0.000000 0.000000 0.023890 0.000000
# 6 0.000000 0.000000 0.000000 0.000000 0.000000 0.043686
#
#
# Mechanical properties :
#
#
# Convention : Reuss Voigt Hill
#
# Bulk Modulus (GPa) = 52.01788 52.04395 52.03091
# Shear Modulus (GPa) = 29.10158 30.40159 29.75159
#
# Velocity S-wave (km/s) = 3.75942 3.84247 3.80118
# Velocity P-wave (km/s) = 6.64131 6.70533 6.67339
#
# Compressibility (1/GPa) = 0.01922416
#
# Stress axis : x y z
#
# Youngs Moduli (GPa) = 71.05467 82.87300 72.75456
#
# Poissons Ratio (x) = 0.22681 0.33494
# Poissons Ratio (y) = 0.19447 0.21754
# Poissons Ratio (z) = 0.32711 0.24779
#
# Static dielectric constant tensor:
#      x y z
#    x 4.259260 0.000000 0.000000 
#    y 0.000000 3.935440 0.000000 
#    z 0.000000 0.000000 3.548830 
# 
# 
# High freq. dielectric constant tensor:
#      x y z
#    x 1.814300 0.000000 0.000000 
#    y 0.000000 1.812670 0.000000 
#    z 0.000000 0.000000 1.783660 
# 
# From -- ./inp_files/36580.got.cif
#   From: 2010.03.12/outbox.cif.g09.slc.cpg/sg51_19_cif.got.tgz:36580.got - 2010.04.16 13:43:02.
