data_PCOD8212442
_publ_section_title
;
Structure prediction by ZEFSAII (Michael W. Deem and Ramdas Pophale) SiO2 
 PCOD8212442
Probable space group: P M M A
;
_chemical_formula_sum "Si O2"
_cell_formula_units_Z 40
_cell_length_a 8.946182
_cell_length_b 25.220515
_cell_length_c 9.224830
_cell_angle_alpha 90.000000
_cell_angle_beta 90.000000
_cell_angle_gamma 90.000000
_cell_volume 2081.373646
_symmetry_space_group_name_H-M "P M M A"
_symmetry_group_IT_number 51
_symmetry_cell_setting 'orthorhombic'
loop_
_space_group_symop_operation_xyz
x,y,z
1/2-x,-y,z
1/2+x,-y,-z
-x,y,-z
-x,-y,-z
1/2+x,y,-z
1/2-x,y,z
x,-y,z
loop_
_atom_site_type_symbol
_atom_site_label
_atom_site_fract_x
_atom_site_fract_y
_atom_site_fract_z
Si Si1 0.424069 0.192850 0.647590
Si Si2 0.926772 0.314249 0.348263
Si Si3 0.072339 0.399829 0.154422
Si Si4 0.573787 0.000000 0.344630
Si Si5 0.074014 0.098892 0.846108
Si Si6 0.075450 0.500000 0.345348
O O1 0.500000 0.174041 0.500000
O O2 0.250000 0.186141 0.620699
O O3 0.465589 0.253228 0.686186
O O4 0.478198 0.154939 0.777480
O O5 0.750000 0.324928 0.355602
O O6 0.000000 0.332011 0.500000
O O7 0.001711 0.346513 0.218680
O O8 0.250000 0.393751 0.139175
O O9 0.025620 0.448253 0.257325
O O10 0.000000 0.411344 0.000000
O O11 0.500000 0.000000 0.500000
O O12 0.519591 0.948234 0.257944
O O13 0.750000 0.000000 0.366028
O O14 0.250000 0.096959 0.868556
O O15 0.000000 0.091408 0.000000
O O16 0.250000 0.500000 0.372302
O O17 0.000000 0.500000 0.500000
#
# Coordination Sequence:
#
# PCOD8212442 Si02
#       6
#     8   8   8   4   8   4
#     4   9  19  35  55  79 108 141 181 223 266 316
#     4  10  20  36  57  82 111 145 184 227 270 320
#     4  11  23  39  58  83 113 146 182 224 273 324
#     4  10  21  36  56  80 106 136 177 222 266 318
#     4  10  21  36  53  78 109 141 177 220 267 319
#     4  10  23  40  60  84 110 142 181 222 269 322
#
# _framework density 19.218078999999999
#
# number of rings (size 3 to 8) (size 9 to 14) (size 15 to 20)
#    0.000    2.000    0.000    3.000    0.000    6.400 
#    0.000    2.000    0.000    0.000    0.000    0.000 
#    0.000    0.000    0.000    0.000    0.000    0.000 
#
# Total GULP energy -496162.953700 kJ/mol
# GULP energy per Si atom -12404.073842 kJ/mol
# Density = 1.917434 g / cm^3
# Si number density = 19.218079 Si / 1000 Ang^3
#
#
#
# Elastic Constant Matrix: (Units=GPa)
#
#
# Indices 1 2 3 4 5 6 
#
# 1 62.3823 46.6899 60.7575 0.0000 0.0000 0.0000
# 2 46.6899 122.6181 86.8435 0.0000 0.0000 0.0000
# 3 60.7575 86.8435 181.8060 0.0000 0.0000 0.0000
# 4 0.0000 0.0000 0.0000 18.2195 0.0000 0.0000
# 5 0.0000 0.0000 0.0000 0.0000 42.0497 0.0000
# 6 0.0000 0.0000 0.0000 0.0000 0.0000 25.4142
#
#
#
# Elastic Compliance Matrix: (Units=1/GPa)
#
#
# Indices 1 2 3 4 5 6 
#
# 1 0.026157 -0.005696 -0.006021 0.000000 0.000000 0.000000
# 2 -0.005696 0.013565 -0.004576 0.000000 0.000000 0.000000
# 3 -0.006021 -0.004576 0.009698 0.000000 0.000000 0.000000
# 4 0.000000 0.000000 0.000000 0.054886 0.000000 0.000000
# 5 0.000000 0.000000 0.000000 0.000000 0.023781 0.000000
# 6 0.000000 0.000000 0.000000 0.000000 0.000000 0.039348
#
#
# Mechanical properties :
#
#
# Convention : Reuss Voigt Hill
#
# Bulk Modulus (GPa) = 59.39932 83.93201 71.66567
# Shear Modulus (GPa) = 24.31504 28.63771 26.47637
#
# Velocity S-wave (km/s) = 3.56085 3.86443 3.71574
# Velocity P-wave (km/s) = 6.91963 7.97997 7.46865
#
# Compressibility (1/GPa) = 0.01683521
#
# Stress axis : x y z
#
# Youngs Moduli (GPa) = 38.23054 73.71709 103.11014
#
# Poissons Ratio (x) = 0.41988 0.62079
# Poissons Ratio (y) = 0.21776 0.47186
# Poissons Ratio (z) = 0.23017 0.33735
#
# Static dielectric constant tensor:
#      x y z
#    x 3.468910 0.000000 0.000000 
#    y 0.000000 3.810210 0.000000 
#    z 0.000000 0.000000 3.473840 
# 
# 
# High freq. dielectric constant tensor:
#      x y z
#    x 1.746770 0.000000 0.000000 
#    y 0.000000 1.763350 0.000000 
#    z 0.000000 0.000000 1.752220 
# 
# From -- ./inp_files/5588.got.cif
#   From: 2010.03.12/outbox.cif.g09.slc.cpg/sg51_3_cif.got.tgz:5588.got - 2010.04.16 13:43:02.
