data_PCOD8212383
_publ_section_title
;
Structure prediction by ZEFSAII (Michael W. Deem and Ramdas Pophale) SiO2 
 PCOD8212383
Probable space group: P M M A
;
_chemical_formula_sum "Si O2"
_cell_formula_units_Z 52
_cell_length_a 9.569534
_cell_length_b 8.186053
_cell_length_c 35.616057
_cell_angle_alpha 90.000000
_cell_angle_beta 90.000000
_cell_angle_gamma 90.000000
_cell_volume 2790.044818
_symmetry_space_group_name_H-M "P M M A"
_symmetry_group_IT_number 51
_symmetry_cell_setting 'orthorhombic'
loop_
_space_group_symop_operation_xyz
x,y,z
1/2-x,-y,z
1/2+x,-y,-z
-x,y,-z
-x,-y,-z
1/2+x,y,-z
1/2-x,y,z
x,-y,z
loop_
_atom_site_type_symbol
_atom_site_label
_atom_site_fract_x
_atom_site_fract_y
_atom_site_fract_z
Si Si1 0.592986 0.807671 0.733844
Si Si2 0.909042 0.308528 0.811992
Si Si3 0.415499 0.316839 0.585497
Si Si4 0.410462 0.189698 0.110776
Si Si5 0.594009 0.309048 0.966987
Si Si6 0.917428 0.000000 0.461543
Si Si7 0.410852 0.807444 0.665022
O O1 0.750000 0.733860 0.730657
O O2 0.521462 0.758439 0.773653
O O3 0.499603 0.738236 0.699976
O O4 0.597726 0.000000 0.730839
O O5 0.750000 0.243022 0.811821
O O6 0.918699 0.500000 0.812162
O O7 0.984509 0.243054 0.850029
O O8 0.250000 0.313291 0.584848
O O9 0.468290 0.500000 0.572802
O O10 0.466723 0.283864 0.627915
O O11 0.467775 0.166672 0.559488
O O12 0.250000 0.247908 0.113269
O O13 0.476322 0.274031 0.073768
O O14 0.427726 0.000000 0.105143
O O15 0.750000 0.230932 0.968793
O O16 0.604454 0.500000 0.973622
O O17 0.500000 0.229848 0.000000
O O18 0.000000 0.000000 0.500000
O O19 0.750000 0.000000 0.467473
O O20 0.250000 0.765297 0.673115
O O21 0.430992 0.000000 0.658752
#
# Coordination Sequence:
#
# PCOD8212383 Si02
#       7
#     8   8   8   8   8   4   8
#     4   9  17  28  43  66  95 124 152 188 236 282
#     4   9  16  26  41  61  87 118 150 184 224 271
#     4   9  17  31  53  77 100 131 171 209 244 290
#     4   9  16  26  42  63  85 111 145 183 218 258
#     4   9  17  29  45  65  88 112 139 173 215 262
#     4  10  20  36  56  78 104 134 168 208 252 298
#     4   9  16  29  49  70  93 125 164 200 234 277
#
# _framework density 18.637694
#
# number of rings (size 3 to 8) (size 9 to 14) (size 15 to 20)
#    0.000    2.923    0.769    0.923    0.000    4.923 
#    0.000    0.769    0.000    1.846    0.000    0.000 
#    0.000    0.000    0.000    0.000    0.000    0.000 
#
# Total GULP energy -644335.464716 kJ/mol
# GULP energy per Si atom -12391.066629 kJ/mol
# Density = 1.859527 g / cm^3
# Si number density = 18.637694 Si / 1000 Ang^3
#
#
#
# Elastic Constant Matrix: (Units=GPa)
#
#
# Indices 1 2 3 4 5 6 
#
# 1 35.1770 18.2569 45.6648 0.0000 0.0000 0.0000
# 2 18.2569 65.0267 56.7239 0.0000 0.0000 0.0000
# 3 45.6648 56.7239 186.7324 0.0000 0.0000 0.0000
# 4 0.0000 0.0000 0.0000 27.5207 0.0000 0.0000
# 5 0.0000 0.0000 0.0000 0.0000 19.2881 0.0000
# 6 0.0000 0.0000 0.0000 0.0000 0.0000 8.2794
#
#
#
# Elastic Compliance Matrix: (Units=1/GPa)
#
#
# Indices 1 2 3 4 5 6 
#
# 1 0.042359 -0.003886 -0.009178 0.000000 0.000000 0.000000
# 2 -0.003886 0.021279 -0.005514 0.000000 0.000000 0.000000
# 3 -0.009178 -0.005514 0.009275 0.000000 0.000000 0.000000
# 4 0.000000 0.000000 0.000000 0.036336 0.000000 0.000000
# 5 0.000000 0.000000 0.000000 0.000000 0.051845 0.000000
# 6 0.000000 0.000000 0.000000 0.000000 0.000000 0.120782
#
#
# Mechanical properties :
#
#
# Convention : Reuss Voigt Hill
#
# Bulk Modulus (GPa) = 27.96690 58.69192 43.32941
# Shear Modulus (GPa) = 15.10791 22.10366 18.60578
#
# Velocity S-wave (km/s) = 2.85021 3.44752 3.16300
# Velocity P-wave (km/s) = 5.08623 6.88524 6.05294
#
# Compressibility (1/GPa) = 0.03575656
#
# Stress axis : x y z
#
# Youngs Moduli (GPa) = 23.60750 46.99464 107.82112
#
# Poissons Ratio (x) = 0.18264 0.98961
# Poissons Ratio (y) = 0.09175 0.59448
# Poissons Ratio (z) = 0.21668 0.25911
#
# Static dielectric constant tensor:
#      x y z
#    x 3.267660 0.000000 0.000000 
#    y 0.000000 3.398200 0.000000 
#    z 0.000000 0.000000 3.797370 
# 
# 
# High freq. dielectric constant tensor:
#      x y z
#    x 1.651460 0.000000 0.000000 
#    y 0.000000 1.722130 0.000000 
#    z 0.000000 0.000000 1.742350 
# 
# From -- ./inp_files/37693.got.cif
#   From: 2010.03.12/outbox.cif.g09.slc.cpg/sg51_19_cif.got.tgz:37693.got - 2010.04.16 13:43:02.
