data_PCOD8212045
_publ_section_title
;
Structure prediction by ZEFSAII (Michael W. Deem and Ramdas Pophale) SiO2 
 PCOD8212045
Probable space group: P M M A
;
_chemical_formula_sum "Si O2"
_cell_formula_units_Z 48
_cell_length_a 15.792769
_cell_length_b 9.322171
_cell_length_c 15.936151
_cell_angle_alpha 90.000000
_cell_angle_beta 90.000000
_cell_angle_gamma 90.000000
_cell_volume 2346.166256
_symmetry_space_group_name_H-M "P M M A"
_symmetry_group_IT_number 51
_symmetry_cell_setting 'orthorhombic'
loop_
_space_group_symop_operation_xyz
x,y,z
1/2-x,-y,z
1/2+x,-y,-z
-x,y,-z
-x,-y,-z
1/2+x,y,-z
1/2-x,y,z
x,-y,z
loop_
_atom_site_type_symbol
_atom_site_label
_atom_site_fract_x
_atom_site_fract_y
_atom_site_fract_z
Si Si1 0.152668 0.166446 0.305304
Si Si2 0.877493 0.661754 0.352460
Si Si3 0.900419 0.838520 0.511604
Si Si4 0.750000 0.162860 0.056896
Si Si5 0.250000 0.840180 0.745975
Si Si6 0.420896 0.331831 0.940222
Si Si7 0.984757 0.660790 0.774707
O O1 0.250000 0.200347 0.287148
O O2 0.127860 0.221411 0.398158
O O3 0.099264 0.243516 0.232289
O O4 0.130912 0.000000 0.299237
O O5 0.842149 0.500000 0.356825
O O6 0.862246 0.731901 0.442827
O O7 0.831192 0.754066 0.282953
O O8 0.973401 0.663293 0.318302
O O9 0.000000 0.838770 0.500000
O O10 0.864650 0.000000 0.498492
O O11 0.750000 0.153301 0.155584
O O12 0.663336 0.245448 0.030017
O O13 0.750000 0.000000 0.019067
O O14 0.250000 0.000000 0.707367
O O15 0.397524 0.500000 0.942684
O O16 0.450821 0.284087 0.846744
O O17 0.500000 0.295185 0.000000
O O18 0.956474 0.500000 0.798898
#
# Coordination Sequence:
#
# PCOD8212045 Si02
#       7
#     8   8   8   4   4   8   8
#     4  10  22  39  57  80 115 161 207 249 300 362
#     4  11  22  35  55  85 117 150 194 250 305 347
#     4  10  20  35  55  78 109 154 203 247 293 355
#     4  11  23  39  65  99 130 161 198 251 313 368
#     4  11  23  37  57  85 118 155 192 235 297 366
#     4  10  22  43  69  94 125 166 207 249 304 371
#     4  10  21  38  61  87 115 150 197 252 300 353
#
# _framework density 20.458908999999998
#
# number of rings (size 3 to 8) (size 9 to 14) (size 15 to 20)
#    0.000    1.667    3.333    1.000    1.167    3.667 
#    1.500    0.000    0.000    0.000    0.000    0.000 
#    0.000    0.000    0.000    0.000    0.000    0.000 
#
# Total GULP energy -595030.399905 kJ/mol
# GULP energy per Si atom -12396.466665 kJ/mol
# Density = 2.041234 g / cm^3
# Si number density = 20.458909 Si / 1000 Ang^3
#
#
#
# Elastic Constant Matrix: (Units=GPa)
#
#
# Indices 1 2 3 4 5 6 
#
# 1 118.1523 55.6729 32.6605 0.0000 0.0000 0.0000
# 2 55.6729 110.7095 32.4122 0.0000 0.0000 0.0000
# 3 32.6605 32.4122 56.6547 0.0000 0.0000 0.0000
# 4 0.0000 0.0000 0.0000 27.1582 0.0000 0.0000
# 5 0.0000 0.0000 0.0000 0.0000 32.6337 0.0000
# 6 0.0000 0.0000 0.0000 0.0000 0.0000 14.8709
#
#
#
# Elastic Compliance Matrix: (Units=1/GPa)
#
#
# Indices 1 2 3 4 5 6 
#
# 1 0.011837 -0.004750 -0.004106 0.000000 0.000000 0.000000
# 2 -0.004750 0.012756 -0.004559 0.000000 0.000000 0.000000
# 3 -0.004106 -0.004559 0.022626 0.000000 0.000000 0.000000
# 4 0.000000 0.000000 0.000000 0.036821 0.000000 0.000000
# 5 0.000000 0.000000 0.000000 0.000000 0.030643 0.000000
# 6 0.000000 0.000000 0.000000 0.000000 0.000000 0.067246
#
#
# Mechanical properties :
#
#
# Convention : Reuss Voigt Hill
#
# Bulk Modulus (GPa) = 49.04879 58.55641 53.80260
# Shear Modulus (GPa) = 23.19564 25.91726 24.55645
#
# Velocity S-wave (km/s) = 3.37080 3.56307 3.46827
# Velocity P-wave (km/s) = 6.25908 6.75358 6.51103
#
# Compressibility (1/GPa) = 0.02038786
#
# Stress axis : x y z
#
# Youngs Moduli (GPa) = 84.48024 78.39234 44.19619
#
# Poissons Ratio (x) = 0.37240 0.18148
# Poissons Ratio (y) = 0.40132 0.20151
# Poissons Ratio (z) = 0.34689 0.35742
#
# Static dielectric constant tensor:
#      x y z
#    x 4.442300 0.000000 0.000000 
#    y 0.000000 3.796600 0.000000 
#    z 0.000000 0.000000 3.589860 
# 
# 
# High freq. dielectric constant tensor:
#      x y z
#    x 1.800220 0.000000 0.000000 
#    y 0.000000 1.795650 0.000000 
#    z 0.000000 0.000000 1.785780 
# 
# From -- ./inp_files/29569.got.cif
#   From: 2010.03.12/outbox.cif.g09.slc.cpg/sg51_15_cif.got.tgz:29569.got - 2010.04.16 13:43:02.
