data_PCOD8212367
_publ_section_title
;
Structure prediction by ZEFSAII (Michael W. Deem and Ramdas Pophale) SiO2 
 PCOD8212367
Probable space group: P M M A
;
_chemical_formula_sum "Si O2"
_cell_formula_units_Z 48
_cell_length_a 19.468725
_cell_length_b 8.937384
_cell_length_c 15.408841
_cell_angle_alpha 90.000000
_cell_angle_beta 90.000000
_cell_angle_gamma 90.000000
_cell_volume 2681.130188
_symmetry_space_group_name_H-M "P M M A"
_symmetry_group_IT_number 51
_symmetry_cell_setting 'orthorhombic'
loop_
_space_group_symop_operation_xyz
x,y,z
1/2-x,-y,z
1/2+x,-y,-z
-x,y,-z
-x,-y,-z
1/2+x,y,-z
1/2-x,y,z
x,-y,z
loop_
_atom_site_type_symbol
_atom_site_label
_atom_site_fract_x
_atom_site_fract_y
_atom_site_fract_z
Si Si1 0.168410 0.165618 0.082288
Si Si2 0.169555 0.173735 0.275640
Si Si3 0.168167 0.333240 0.915994
Si Si4 0.429036 0.178630 0.591639
Si Si5 0.827582 0.824213 0.256192
Si Si6 0.073055 0.322099 0.410344
O O1 0.250000 0.160573 0.076527
O O2 0.147692 0.223117 0.178123
O O3 0.138534 0.000000 0.067929
O O4 0.137477 0.267985 0.005814
O O5 0.250000 0.198206 0.290561
O O6 0.130525 0.282945 0.340454
O O7 0.150280 0.000000 0.291706
O O8 0.250000 0.326552 0.919476
O O9 0.140099 0.500000 0.907096
O O10 0.141500 0.243200 0.832409
O O11 0.373780 0.226586 0.663382
O O12 0.501665 0.248158 0.619729
O O13 0.403964 0.250904 0.501730
O O14 0.435391 0.000000 0.581769
O O15 0.750000 0.766492 0.273310
O O16 0.828661 0.000000 0.244290
O O17 0.064869 0.500000 0.419453
#
# Coordination Sequence:
#
# PCOD8212367 Si02
#       6
#     8   8   8   8   8   8
#     4   8  14  26  45  68  95 128 164 200 236 279
#     4   9  18  33  53  76 101 131 168 207 245 288
#     4   9  16  25  41  68 101 133 160 191 237 291
#     4  10  20  36  56  73  94 130 172 207 242 293
#     4   9  18  32  51  75  99 125 162 206 246 284
#     4  11  22  35  52  74 101 131 163 203 252 302
#
# _framework density 17.902896999999999
#
# number of rings (size 3 to 8) (size 9 to 14) (size 15 to 20)
#    0.000    2.667    0.000    4.500    0.000    5.000 
#    0.000    3.333    0.000    1.000    0.000    7.000 
#    0.000    0.000    0.000    0.000    0.000    0.000 
#
# Total GULP energy -595049.310704 kJ/mol
# GULP energy per Si atom -12396.860640 kJ/mol
# Density = 1.786215 g / cm^3
# Si number density = 17.902897 Si / 1000 Ang^3
#
#
#
# Elastic Constant Matrix: (Units=GPa)
#
#
# Indices 1 2 3 4 5 6 
#
# 1 49.1335 33.0721 60.3076 0.0000 0.0000 0.0000
# 2 33.0721 85.5018 62.9475 0.0000 0.0000 0.0000
# 3 60.3076 62.9475 151.1746 0.0000 0.0000 0.0000
# 4 0.0000 0.0000 0.0000 15.2249 0.0000 0.0000
# 5 0.0000 0.0000 0.0000 0.0000 -0.3538 0.0000
# 6 0.0000 0.0000 0.0000 0.0000 0.0000 17.5365
#
#
#
# Elastic Compliance Matrix: (Units=1/GPa)
#
#
# Indices 1 2 3 4 5 6 
#
# 1 0.041656 -0.005593 -0.014289 0.000000 0.000000 0.000000
# 2 -0.005593 0.017617 -0.005104 0.000000 0.000000 0.000000
# 3 -0.014289 -0.005104 0.014440 0.000000 0.000000 0.000000
# 4 0.000000 0.000000 0.000000 0.065682 0.000000 0.000000
# 5 0.000000 0.000000 0.000000 0.000000 -2.826581 0.000000
# 6 0.000000 0.000000 0.000000 0.000000 0.000000 0.057024
#
#
# Mechanical properties :
#
#
# Convention : Reuss Voigt Hill
#
# Bulk Modulus (GPa) = 42.12114 66.49603 54.30859
# Shear Modulus (GPa) = -1.94380 15.11372 6.58496
#
# Velocity S-wave (km/s) = -1.04312 2.90867 1.91993
# Velocity P-wave (km/s) = 4.70402 6.96446 5.94271
#
# Compressibility (1/GPa) = 0.02374105
#
# Stress axis : x y z
#
# Youngs Moduli (GPa) = 24.00638 56.76386 69.25008
#
# Poissons Ratio (x) = 0.31747 0.98950
# Poissons Ratio (y) = 0.13426 0.35348
# Poissons Ratio (z) = 0.34302 0.28974
#
# Static dielectric constant tensor:
#      x y z
#    x 2.974850 0.000000 0.000000 
#    y 0.000000 3.370300 0.000000 
#    z 0.000000 0.000000 3.526690 
# 
# 
# High freq. dielectric constant tensor:
#      x y z
#    x 1.648430 0.000000 0.000000 
#    y 0.000000 1.694540 0.000000 
#    z 0.000000 0.000000 1.708120 
# 
# From -- ./inp_files/25483.got.cif
#   From: 2010.03.12/outbox.cif.g09.slc.cpg/sg51_13_cif.got.tgz:25483.got - 2010.04.16 13:43:02.
