data_PCOD8212639
_publ_section_title
;
Structure prediction by ZEFSAII (Michael W. Deem and Ramdas Pophale) SiO2 
 PCOD8212639
Probable space group: P M M A
;
_chemical_formula_sum "Si O2"
_cell_formula_units_Z 40
_cell_length_a 16.686695
_cell_length_b 8.930730
_cell_length_c 14.147520
_cell_angle_alpha 90.000000
_cell_angle_beta 90.000000
_cell_angle_gamma 90.000000
_cell_volume 2108.325222
_symmetry_space_group_name_H-M "P M M A"
_symmetry_group_IT_number 51
_symmetry_cell_setting 'orthorhombic'
loop_
_space_group_symop_operation_xyz
x,y,z
1/2-x,-y,z
1/2+x,-y,-z
-x,y,-z
-x,-y,-z
1/2+x,y,-z
1/2-x,y,z
x,-y,z
loop_
_atom_site_type_symbol
_atom_site_label
_atom_site_fract_x
_atom_site_fract_y
_atom_site_fract_z
Si Si1 0.338386 0.330465 0.621972
Si Si2 0.405763 0.325747 0.149752
Si Si3 0.935613 0.175524 0.218808
Si Si4 0.750000 0.823350 0.530476
Si Si5 0.250000 0.328363 0.271944
Si Si6 0.342225 0.174969 0.968948
O O1 0.250000 0.328312 0.671433
O O2 0.367405 0.500000 0.603729
O O3 0.402865 0.247830 0.685744
O O4 0.329506 0.245383 0.520728
O O5 0.426567 0.500000 0.145278
O O6 0.477016 0.239123 0.199926
O O7 0.326511 0.291627 0.208811
O O8 0.394303 0.266731 0.043716
O O9 0.942057 0.000000 0.234644
O O10 0.875773 0.215639 0.133828
O O11 0.750000 0.781298 0.639627
O O12 0.750000 0.000000 0.518448
O O13 0.250000 0.500000 0.306863
O O14 0.250000 0.225412 0.973189
O O15 0.352109 0.000000 0.991234
#
# Coordination Sequence:
#
# PCOD8212639 Si02
#       6
#     8   8   8   4   4   8
#     4   9  19  36  59  87 118 151 186 230 284 341
#     4  11  23  39  58  82 115 154 197 242 287 342
#     4  11  22  36  57  87 121 156 192 238 288 338
#     4  10  20  36  63  90 113 146 187 236 288 346
#     4  10  22  42  61  80 109 150 193 238 294 346
#     4  10  21  37  57  83 117 156 194 234 284 339
#
# _framework density 18.972404999999998
#
# number of rings (size 3 to 8) (size 9 to 14) (size 15 to 20)
#    0.600    1.200    1.000    3.600    0.000    6.400 
#    0.000    1.000    0.000    6.000    0.000    0.000 
#    0.000    0.000    0.000    0.000    0.000    0.000 
#
# Total GULP energy -496043.167404 kJ/mol
# GULP energy per Si atom -12401.079185 kJ/mol
# Density = 1.892922 g / cm^3
# Si number density = 18.972405 Si / 1000 Ang^3
#
#
#
# Elastic Constant Matrix: (Units=GPa)
#
#
# Indices 1 2 3 4 5 6 
#
# 1 61.8829 26.9015 -0.0434 0.0000 0.0000 0.0000
# 2 26.9015 112.7929 44.8181 0.0000 0.0000 0.0000
# 3 -0.0434 44.8181 67.7012 0.0000 0.0000 0.0000
# 4 0.0000 0.0000 0.0000 32.2855 0.0000 0.0000
# 5 0.0000 0.0000 0.0000 0.0000 -0.2323 0.0000
# 6 0.0000 0.0000 0.0000 0.0000 0.0000 32.6180
#
#
#
# Elastic Compliance Matrix: (Units=1/GPa)
#
#
# Indices 1 2 3 4 5 6 
#
# 1 0.018812 -0.006095 0.004047 0.000000 0.000000 0.000000
# 2 -0.006095 0.014005 -0.009275 0.000000 0.000000 0.000000
# 3 0.004047 -0.009275 0.020913 0.000000 0.000000 0.000000
# 4 0.000000 0.000000 0.000000 0.030974 0.000000 0.000000
# 5 0.000000 0.000000 0.000000 0.000000 -4.305079 0.000000
# 6 0.000000 0.000000 0.000000 0.000000 0.000000 0.030658
#
#
# Mechanical properties :
#
#
# Convention : Reuss Voigt Hill
#
# Bulk Modulus (GPa) = 32.17078 42.85883 37.51481
# Shear Modulus (GPa) = -1.20287 24.31428 11.55570
#
# Velocity S-wave (km/s) = -0.79711 3.58377 2.47063
# Velocity P-wave (km/s) = 4.01824 6.30585 5.28725
#
# Compressibility (1/GPa) = 0.03108411
#
# Stress axis : x y z
#
# Youngs Moduli (GPa) = 53.15799 71.40375 47.81601
#
# Poissons Ratio (x) = 0.43518 -0.19350
# Poissons Ratio (y) = 0.32398 0.44350
# Poissons Ratio (z) = -0.21512 0.66228
#
# Static dielectric constant tensor:
#      x y z
#    x 3.487310 0.000000 0.000000 
#    y 0.000000 3.515640 0.000000 
#    z 0.000000 0.000000 3.317410 
# 
# 
# High freq. dielectric constant tensor:
#      x y z
#    x 1.731690 0.000000 0.000000 
#    y 0.000000 1.748470 0.000000 
#    z 0.000000 0.000000 1.732410 
# 
# From -- ./inp_files/23824.got.cif
#   From: 2010.03.12/outbox.cif.g09.slc.cpg/sg51_12_cif.got.tgz:23824.got - 2010.04.16 13:43:02.
