data_PCOD8212590
_publ_section_title
;
Structure prediction by ZEFSAII (Michael W. Deem and Ramdas Pophale) SiO2 
 PCOD8212590
Probable space group: P M M A
;
_chemical_formula_sum "Si O2"
_cell_formula_units_Z 64
_cell_length_a 8.734203
_cell_length_b 23.778310
_cell_length_c 15.466240
_cell_angle_alpha 90.000000
_cell_angle_beta 90.000000
_cell_angle_gamma 90.000000
_cell_volume 3212.099660
_symmetry_space_group_name_H-M "P M M A"
_symmetry_group_IT_number 51
_symmetry_cell_setting 'orthorhombic'
loop_
_space_group_symop_operation_xyz
x,y,z
1/2-x,-y,z
1/2+x,-y,-z
-x,y,-z
-x,-y,-z
1/2+x,y,-z
1/2-x,y,z
x,-y,z
loop_
_atom_site_type_symbol
_atom_site_label
_atom_site_fract_x
_atom_site_fract_y
_atom_site_fract_z
Si Si1 0.930342 0.749313 0.649805
Si Si2 0.428865 0.754186 0.149368
Si Si3 0.429989 0.631875 0.089582
Si Si4 0.069674 0.133128 0.911167
Si Si5 0.573044 0.433891 0.742863
Si Si6 0.068919 0.632816 0.589998
Si Si7 0.431637 0.136535 0.588565
Si Si8 0.067726 0.936746 0.748731
O O1 0.750000 0.751114 0.633862
O O2 0.972528 0.752154 0.750310
O O3 0.996540 0.692884 0.610132
O O4 0.008428 0.800668 0.601032
O O5 0.250000 0.766081 0.136033
O O6 0.480680 0.695932 0.106316
O O7 0.524206 0.802351 0.102568
O O8 0.250000 0.626393 0.082561
O O9 0.489574 0.593672 0.168627
O O10 0.500000 0.609758 0.000000
O O11 0.250000 0.128604 0.916538
O O12 0.004229 0.094781 0.833619
O O13 0.000000 0.109741 0.000000
O O14 0.750000 0.416566 0.727639
O O15 0.552058 0.500000 0.750806
O O16 0.473320 0.411886 0.663489
O O17 0.250000 0.638395 0.582814
O O18 0.000000 0.610190 0.500000
O O19 0.500000 0.111731 0.500000
O O20 0.250000 0.137042 0.584536
O O21 0.492834 0.096585 0.665150
O O22 0.250000 0.937230 0.749633
O O23 0.002105 0.000000 0.746834
#
# Coordination Sequence:
#
# PCOD8212590 Si02
#       8
#     8   8   8   8   8   8   8   8
#     4  11  21  38  63  90 123 157 194 241 297 357
#     4  10  20  36  60  87 120 155 192 240 297 355
#     4  10  21  38  59  89 121 157 197 240 295 351
#     4  11  22  37  59  87 118 153 197 241 295 355
#     4  10  22  43  66  87 119 162 206 252 301 350
#     4  12  25  41  64  92 124 158 199 246 298 359
#     4  11  22  38  60  89 120 155 197 241 295 354
#     4   9  20  39  60  82 114 156 200 247 296 350
#
# _framework density 19.924662000000001
#
# number of rings (size 3 to 8) (size 9 to 14) (size 15 to 20)
#    0.000    1.500    2.500    3.000    0.000    3.750 
#    0.000    0.000    0.000    5.250    0.000    0.000 
#    0.000    0.000    0.000    0.000    0.000    0.000 
#
# Total GULP energy -793928.514487 kJ/mol
# GULP energy per Si atom -12405.133039 kJ/mol
# Density = 1.987931 g / cm^3
# Si number density = 19.924662 Si / 1000 Ang^3
#
#
#
# Elastic Constant Matrix: (Units=GPa)
#
#
# Indices 1 2 3 4 5 6 
#
# 1 61.2532 23.0600 43.5775 0.0000 0.0000 0.0000
# 2 23.0600 107.3697 58.5553 0.0000 0.0000 0.0000
# 3 43.5775 58.5553 178.4184 0.0000 0.0000 0.0000
# 4 0.0000 0.0000 0.0000 9.9640 0.0000 0.0000
# 5 0.0000 0.0000 0.0000 0.0000 34.7381 0.0000
# 6 0.0000 0.0000 0.0000 0.0000 0.0000 13.3777
#
#
#
# Elastic Compliance Matrix: (Units=1/GPa)
#
#
# Indices 1 2 3 4 5 6 
#
# 1 0.020105 -0.001997 -0.004255 0.000000 0.000000 0.000000
# 2 -0.001997 0.011542 -0.003300 0.000000 0.000000 0.000000
# 3 -0.004255 -0.003300 0.007727 0.000000 0.000000 0.000000
# 4 0.000000 0.000000 0.000000 0.100361 0.000000 0.000000
# 5 0.000000 0.000000 0.000000 0.000000 0.028787 0.000000
# 6 0.000000 0.000000 0.000000 0.000000 0.000000 0.074751
#
#
# Mechanical properties :
#
#
# Convention : Reuss Voigt Hill
#
# Bulk Modulus (GPa) = 49.33621 66.38076 57.85849
# Shear Modulus (GPa) = 18.57804 26.40587 22.49196
#
# Velocity S-wave (km/s) = 3.05686 3.64440 3.36348
# Velocity P-wave (km/s) = 6.10527 7.14822 6.64723
#
# Compressibility (1/GPa) = 0.02026909
#
# Stress axis : x y z
#
# Youngs Moduli (GPa) = 49.73951 86.63672 129.41383
#
# Poissons Ratio (x) = 0.17305 0.55064
# Poissons Ratio (y) = 0.09935 0.42710
# Poissons Ratio (z) = 0.21164 0.28592
#
# Static dielectric constant tensor:
#      x y z
#    x 3.463800 0.000000 0.000000 
#    y 0.000000 3.632050 0.000000 
#    z 0.000000 0.000000 3.988420 
# 
# 
# High freq. dielectric constant tensor:
#      x y z
#    x 1.764070 0.000000 0.000000 
#    y 0.000000 1.774160 0.000000 
#    z 0.000000 0.000000 1.798150 
# 
# From -- ./inp_files/22348.got.cif
#   From: 2010.03.12/outbox.cif.g09.slc.cpg/sg51_12_cif.got.tgz:22348.got - 2010.04.16 13:43:02.
