data_PCOD8212786
_publ_section_title
;
Structure prediction by ZEFSAII (Michael W. Deem and Ramdas Pophale) SiO2 
 PCOD8212786
Probable space group: P M M A
;
_chemical_formula_sum "Si O2"
_cell_formula_units_Z 64
_cell_length_a 23.551300
_cell_length_b 8.882280
_cell_length_c 15.248866
_cell_angle_alpha 90.000000
_cell_angle_beta 90.000000
_cell_angle_gamma 90.000000
_cell_volume 3189.898704
_symmetry_space_group_name_H-M "P M M A"
_symmetry_group_IT_number 51
_symmetry_cell_setting 'orthorhombic'
loop_
_space_group_symop_operation_xyz
x,y,z
1/2-x,-y,z
1/2+x,-y,-z
-x,y,-z
-x,-y,-z
1/2+x,y,-z
1/2-x,y,z
x,-y,z
loop_
_atom_site_type_symbol
_atom_site_label
_atom_site_fract_x
_atom_site_fract_y
_atom_site_fract_z
Si Si1 0.112657 0.172076 0.101544
Si Si2 0.620928 0.176675 0.590911
Si Si3 0.115067 0.172494 0.902894
Si Si4 0.316013 0.325862 0.758065
Si Si5 0.684522 0.675919 0.750007
Si Si6 0.000486 0.325567 0.851439
Si Si7 0.008084 0.672127 0.353515
Si Si8 0.616981 0.324706 0.412481
O O1 0.151086 0.272177 0.164334
O O2 0.047989 0.228212 0.102504
O O3 0.114652 0.000000 0.134224
O O4 0.136160 0.187306 0.002979
O O5 0.662159 0.244311 0.663469
O O6 0.555889 0.220106 0.608332
O O7 0.640712 0.236079 0.496191
O O8 0.627358 0.000000 0.593334
O O9 0.166277 0.229023 0.842158
O O10 0.060500 0.275849 0.889171
O O11 0.099891 0.000000 0.880337
O O12 0.250000 0.301809 0.739759
O O13 0.331044 0.500000 0.776286
O O14 0.350257 0.266548 0.673512
O O15 0.750000 0.717031 0.763352
O O16 0.674057 0.500000 0.738150
O O17 0.990693 0.500000 0.873622
O O18 0.000205 0.295352 0.748343
O O19 0.026939 0.500000 0.369792
O O20 0.949830 0.707914 0.403204
O O21 0.629336 0.500000 0.426583
#
# Coordination Sequence:
#
# PCOD8212786 Si02
#       8
#     8   8   8   8   8   8   8   8
#     4  11  24  41  62  92 127 164 200 246 310 370
#     4  12  25  39  61  94 128 160 197 246 306 369
#     4  11  24  40  61  91 130 166 200 246 307 371
#     4  10  22  42  66  90 118 158 211 262 305 355
#     4  11  25  45  67  89 116 158 211 260 304 356
#     4  11  21  37  64  94 124 161 205 250 300 360
#     4  10  20  37  62  90 123 161 202 249 301 359
#     4  10  21  40  63  89 123 162 205 251 301 357
#
# _framework density 20.063334000000001
#
# number of rings (size 3 to 8) (size 9 to 14) (size 15 to 20)
#    0.000    1.250    2.500    3.375    0.000    8.750 
#    0.000    3.750    0.000    0.000    0.000    0.000 
#    0.000    0.000    0.000    0.000    0.000    0.000 
#
# Total GULP energy -794024.822042 kJ/mol
# GULP energy per Si atom -12406.637844 kJ/mol
# Density = 2.001767 g / cm^3
# Si number density = 20.063334 Si / 1000 Ang^3
#
#
#
# Elastic Constant Matrix: (Units=GPa)
#
#
# Indices 1 2 3 4 5 6 
#
# 1 71.5589 32.7890 18.9943 0.0000 0.0000 0.0000
# 2 32.7890 85.5319 48.2407 0.0000 0.0000 0.0000
# 3 18.9943 48.2407 105.3163 0.0000 0.0000 0.0000
# 4 0.0000 0.0000 0.0000 29.7165 0.0000 0.0000
# 5 0.0000 0.0000 0.0000 0.0000 9.0761 0.0000
# 6 0.0000 0.0000 0.0000 0.0000 0.0000 12.6133
#
#
#
# Elastic Compliance Matrix: (Units=1/GPa)
#
#
# Indices 1 2 3 4 5 6 
#
# 1 0.016953 -0.006438 -0.000109 0.000000 0.000000 0.000000
# 2 -0.006438 0.018209 -0.007180 0.000000 0.000000 0.000000
# 3 -0.000109 -0.007180 0.012803 0.000000 0.000000 0.000000
# 4 0.000000 0.000000 0.000000 0.033651 0.000000 0.000000
# 5 0.000000 0.000000 0.000000 0.000000 0.110180 0.000000
# 6 0.000000 0.000000 0.000000 0.000000 0.000000 0.079281
#
#
# Mechanical properties :
#
#
# Convention : Reuss Voigt Hill
#
# Bulk Modulus (GPa) = 48.74870 51.38388 50.06629
# Shear Modulus (GPa) = 16.37371 21.10672 18.74021
#
# Velocity S-wave (km/s) = 2.85985 3.24698 3.05954
# Velocity P-wave (km/s) = 5.93760 6.30267 6.12286
#
# Compressibility (1/GPa) = 0.02051337
#
# Stress axis : x y z
#
# Youngs Moduli (GPa) = 58.98589 54.91845 78.10385
#
# Poissons Ratio (x) = 0.35355 0.00849
# Poissons Ratio (y) = 0.37974 0.56075
# Poissons Ratio (z) = 0.00641 0.39429
#
# Static dielectric constant tensor:
#      x y z
#    x 3.598750 0.000000 0.000000 
#    y 0.000000 3.710260 0.000000 
#    z 0.000000 0.000000 3.843560 
# 
# 
# High freq. dielectric constant tensor:
#      x y z
#    x 1.777920 0.000000 0.000000 
#    y 0.000000 1.784030 0.000000 
#    z 0.000000 0.000000 1.799570 
# 
# From -- ./inp_files/26287.got.cif
#   From: 2010.03.12/outbox.cif.g09.slc.cpg/sg51_14_cif.got.tgz:26287.got - 2010.04.16 13:43:02.
