data_PCOD8212186
_publ_section_title
;
Structure prediction by ZEFSAII (Michael W. Deem and Ramdas Pophale) SiO2 
 PCOD8212186
Probable space group: P M M A
;
_chemical_formula_sum "Si O2"
_cell_formula_units_Z 48
_cell_length_a 17.144323
_cell_length_b 18.309817
_cell_length_c 7.816163
_cell_angle_alpha 90.000000
_cell_angle_beta 90.000000
_cell_angle_gamma 90.000000
_cell_volume 2453.567168
_symmetry_space_group_name_H-M "P M M A"
_symmetry_group_IT_number 51
_symmetry_cell_setting 'orthorhombic'
loop_
_space_group_symop_operation_xyz
x,y,z
1/2-x,-y,z
1/2+x,-y,-z
-x,y,-z
-x,-y,-z
1/2+x,y,-z
1/2-x,y,z
x,-y,z
loop_
_atom_site_type_symbol
_atom_site_label
_atom_site_fract_x
_atom_site_fract_y
_atom_site_fract_z
Si Si1 0.083318 0.644062 0.932404
Si Si2 0.009212 0.079118 0.304797
Si Si3 0.838987 0.837385 0.791214
Si Si4 0.840169 0.326195 0.713957
Si Si5 0.423594 0.808486 0.890783
Si Si6 0.660304 0.583568 0.395205
O O1 0.078989 0.723582 0.840025
O O2 0.114848 0.591760 0.784252
O O3 0.135543 0.642437 0.102073
O O4 0.000000 0.617236 0.000000
O O5 0.938266 0.135986 0.264798
O O6 0.000000 0.063949 0.500000
O O7 0.098053 0.105056 0.273100
O O8 0.998174 0.000000 0.210607
O O9 0.750000 0.861769 0.750302
O O10 0.859412 0.759770 0.701946
O O11 0.847162 0.828209 0.997573
O O12 0.750000 0.342250 0.701082
O O13 0.877621 0.367784 0.549365
O O14 0.500000 0.825143 0.000000
O O15 0.750000 0.606159 0.361242
O O16 0.653315 0.500000 0.454093
#
# Coordination Sequence:
#
# PCOD8212186 Si02
#       6
#     8   8   8   8   8   8
#     4  10  20  35  56  85 113 145 181 231 280 325
#     4  10  21  35  53  79 112 148 180 217 274 339
#     4   9  18  34  56  81 104 138 189 236 275 317
#     4   9  19  37  57  80 112 146 185 231 277 326
#     4   8  17  34  53  78 105 140 180 218 264 328
#     4  10  22  38  57  82 109 147 192 225 274 344
#
# _framework density 19.563355000000001
#
# number of rings (size 3 to 8) (size 9 to 14) (size 15 to 20)
#    0.000    2.667    0.000    1.500    2.333    5.667 
#    0.000    3.333    0.000    1.000    0.000    0.000 
#    0.000    0.000    0.000    0.000    0.000    0.000 
#
# Total GULP energy -594670.990559 kJ/mol
# GULP energy per Si atom -12388.978970 kJ/mol
# Density = 1.951883 g / cm^3
# Si number density = 19.563355 Si / 1000 Ang^3
#
#
#
# Elastic Constant Matrix: (Units=GPa)
#
#
# Indices 1 2 3 4 5 6 
#
# 1 55.5170 38.9773 27.7436 0.0000 0.0000 0.0000
# 2 38.9773 87.2051 46.4170 0.0000 0.0000 0.0000
# 3 27.7436 46.4170 97.0198 0.0000 0.0000 0.0000
# 4 0.0000 0.0000 0.0000 2.2407 0.0000 0.0000
# 5 0.0000 0.0000 0.0000 0.0000 27.1066 0.0000
# 6 0.0000 0.0000 0.0000 0.0000 0.0000 24.4126
#
#
#
# Elastic Compliance Matrix: (Units=1/GPa)
#
#
# Indices 1 2 3 4 5 6 
#
# 1 0.026725 -0.010569 -0.002586 0.000000 0.000000 0.000000
# 2 -0.010569 0.019565 -0.006338 0.000000 0.000000 0.000000
# 3 -0.002586 -0.006338 0.014079 0.000000 0.000000 0.000000
# 4 0.000000 0.000000 0.000000 0.446284 0.000000 0.000000
# 5 0.000000 0.000000 0.000000 0.000000 0.036891 0.000000
# 6 0.000000 0.000000 0.000000 0.000000 0.000000 0.040962
#
#
# Mechanical properties :
#
#
# Convention : Reuss Voigt Hill
#
# Bulk Modulus (GPa) = 46.76559 51.77974 49.27267
# Shear Modulus (GPa) = 7.92872 19.19227 13.56050
#
# Velocity S-wave (km/s) = 2.01535 3.13554 2.63565
# Velocity P-wave (km/s) = 5.41960 6.29555 5.87393
#
# Compressibility (1/GPa) = 0.02138324
#
# Stress axis : x y z
#
# Youngs Moduli (GPa) = 37.41863 51.11295 71.02816
#
# Poissons Ratio (x) = 0.54019 0.18367
# Poissons Ratio (y) = 0.39546 0.45018
# Poissons Ratio (z) = 0.09676 0.32396
#
# Static dielectric constant tensor:
#      x y z
#    x 3.552740 0.000000 0.000000 
#    y 0.000000 3.685060 0.000000 
#    z 0.000000 0.000000 3.686120 
# 
# 
# High freq. dielectric constant tensor:
#      x y z
#    x 1.748110 0.000000 0.000000 
#    y 0.000000 1.758400 0.000000 
#    z 0.000000 0.000000 1.755420 
# 
# From -- ./inp_files/8203.got.cif
#   From: 2010.03.12/outbox.cif.g09.slc.cpg/sg51_5_cif.got.tgz:8203.got - 2010.04.16 13:43:02.
