data_PCOD8212848
_publ_section_title
;
Structure prediction by ZEFSAII (Michael W. Deem and Ramdas Pophale) SiO2 
 PCOD8212848
Probable space group: P M M A
;
_chemical_formula_sum "Si O2"
_cell_formula_units_Z 64
_cell_length_a 18.044787
_cell_length_b 18.718120
_cell_length_c 9.496689
_cell_angle_alpha 90.000000
_cell_angle_beta 90.000000
_cell_angle_gamma 90.000000
_cell_volume 3207.644302
_symmetry_space_group_name_H-M "P M M A"
_symmetry_group_IT_number 51
_symmetry_cell_setting 'orthorhombic'
loop_
_space_group_symop_operation_xyz
x,y,z
1/2-x,-y,z
1/2+x,-y,-z
-x,y,-z
-x,-y,-z
1/2+x,y,-z
1/2-x,y,z
x,-y,z
loop_
_atom_site_type_symbol
_atom_site_label
_atom_site_fract_x
_atom_site_fract_y
_atom_site_fract_z
Si Si1 0.665558 0.359294 0.047737
Si Si2 0.332380 0.805393 0.901359
Si Si3 0.338140 0.670329 0.485442
Si Si4 0.929888 0.081685 0.598953
Si Si5 0.555084 0.172795 0.875304
Si Si6 0.931066 0.668646 0.786350
Si Si7 0.837471 0.176115 0.402092
Si Si8 0.077053 0.418182 0.706410
O O1 0.750000 0.380284 0.004849
O O2 0.664346 0.279975 0.111144
O O3 0.635997 0.412018 0.167494
O O4 0.607804 0.367378 0.920435
O O5 0.250000 0.834792 0.907636
O O6 0.370238 0.836286 0.756972
O O7 0.365688 0.831551 0.048502
O O8 0.250000 0.656729 0.492149
O O9 0.365091 0.671468 0.325651
O O10 0.362311 0.745658 0.550590
O O11 0.382926 0.608919 0.565551
O O12 0.947014 0.117494 0.748155
O O13 0.862926 0.118417 0.515852
O O14 0.000000 0.089906 0.500000
O O15 0.908439 0.000000 0.627028
O O16 0.538119 0.252295 0.820138
O O17 0.500000 0.150653 0.000000
O O18 0.001183 0.623671 0.736363
O O19 0.750000 0.171652 0.394185
O O20 0.055372 0.500000 0.683044
#
# Coordination Sequence:
#
# PCOD8212848 Si02
#       8
#     8   8   8   8   8   8   8   8
#     4  10  20  38  62  89 123 162 211 265 309 365
#     4   9  18  35  61  92 121 155 207 260 305 359
#     4  11  23  40  65  94 119 161 212 259 315 377
#     4  11  25  41  61  92 129 169 208 253 312 375
#     4  11  22  37  62  92 123 163 210 256 307 363
#     4  11  23  39  63  93 126 161 211 265 315 372
#     4  10  20  39  66  93 123 161 208 258 307 368
#     4  12  26  42  60  89 127 168 210 258 320 388
#
# _framework density 19.952335999999999
#
# number of rings (size 3 to 8) (size 9 to 14) (size 15 to 20)
#    0.000    1.375    2.500    3.750    1.750    4.500 
#    0.000    0.625    0.000    3.000    0.000    0.000 
#    0.000    0.000    0.000    0.000    0.000    0.000 
#
# Total GULP energy -793544.711734 kJ/mol
# GULP energy per Si atom -12399.136121 kJ/mol
# Density = 1.990692 g / cm^3
# Si number density = 19.952336 Si / 1000 Ang^3
#
#
#
# Elastic Constant Matrix: (Units=GPa)
#
#
# Indices 1 2 3 4 5 6 
#
# 1 75.7401 36.6125 28.4330 0.0000 0.0000 0.0000
# 2 36.6125 107.0879 55.8606 0.0000 0.0000 0.0000
# 3 28.4330 55.8606 121.7629 0.0000 0.0000 0.0000
# 4 0.0000 0.0000 0.0000 19.1563 0.0000 0.0000
# 5 0.0000 0.0000 0.0000 0.0000 40.8156 0.0000
# 6 0.0000 0.0000 0.0000 0.0000 0.0000 19.5313
#
#
#
# Elastic Compliance Matrix: (Units=1/GPa)
#
#
# Indices 1 2 3 4 5 6 
#
# 1 0.016056 -0.004645 -0.001618 0.000000 0.000000 0.000000
# 2 -0.004645 0.013620 -0.005164 0.000000 0.000000 0.000000
# 3 -0.001618 -0.005164 0.010959 0.000000 0.000000 0.000000
# 4 0.000000 0.000000 0.000000 0.052202 0.000000 0.000000
# 5 0.000000 0.000000 0.000000 0.000000 0.024500 0.000000
# 6 0.000000 0.000000 0.000000 0.000000 0.000000 0.051200
#
#
# Mechanical properties :
#
#
# Convention : Reuss Voigt Hill
#
# Bulk Modulus (GPa) = 56.23934 60.71147 58.47540
# Shear Modulus (GPa) = 25.33971 28.14630 26.74300
#
# Velocity S-wave (km/s) = 3.56759 3.75997 3.66504
# Velocity P-wave (km/s) = 6.72445 7.02454 6.87613
#
# Compressibility (1/GPa) = 0.01778115
#
# Stress axis : x y z
#
# Youngs Moduli (GPa) = 62.28187 73.42246 91.24583
#
# Poissons Ratio (x) = 0.34107 0.14765
# Poissons Ratio (y) = 0.28932 0.47115
# Poissons Ratio (z) = 0.10078 0.37912
#
# Static dielectric constant tensor:
#      x y z
#    x 3.740710 0.000000 0.000000 
#    y 0.000000 3.399910 0.000000 
#    z 0.000000 0.000000 4.023060 
# 
# 
# High freq. dielectric constant tensor:
#      x y z
#    x 1.789480 0.000000 0.000000 
#    y 0.000000 1.745820 0.000000 
#    z 0.000000 0.000000 1.799000 
# 
# From -- ./inp_files/10071.got.cif
#   From: 2010.03.12/outbox.cif.g09.slc.cpg/sg51_6_cif.got.tgz:10071.got - 2010.04.16 13:43:02.
