data_PCOD8212535
_publ_section_title
;
Structure prediction by ZEFSAII (Michael W. Deem and Ramdas Pophale) SiO2 
 PCOD8212535
Probable space group: P M M A
;
_chemical_formula_sum "Si O2"
_cell_formula_units_Z 48
_cell_length_a 15.960402
_cell_length_b 8.941179
_cell_length_c 18.128779
_cell_angle_alpha 90.000000
_cell_angle_beta 90.000000
_cell_angle_gamma 90.000000
_cell_volume 2587.063984
_symmetry_space_group_name_H-M "P M M A"
_symmetry_group_IT_number 51
_symmetry_cell_setting 'orthorhombic'
loop_
_space_group_symop_operation_xyz
x,y,z
1/2-x,-y,z
1/2+x,-y,-z
-x,y,-z
-x,-y,-z
1/2+x,y,-z
1/2-x,y,z
x,-y,z
loop_
_atom_site_type_symbol
_atom_site_label
_atom_site_fract_x
_atom_site_fract_y
_atom_site_fract_z
Si Si1 0.412093 0.822565 0.285874
Si Si2 0.500233 0.676066 0.416176
Si Si3 0.842231 0.329072 0.324485
Si Si4 0.250000 0.676376 0.217110
Si Si5 0.425007 0.175931 0.802130
Si Si6 0.909670 0.177114 0.031971
Si Si7 0.750000 0.323453 0.954574
O O1 0.430890 0.763630 0.368473
O O2 0.329474 0.746250 0.256498
O O3 0.485922 0.770554 0.230549
O O4 0.401077 0.000000 0.287834
O O5 0.500000 0.732880 0.500000
O O6 0.481199 0.500000 0.411145
O O7 0.591974 0.720089 0.386373
O O8 0.750000 0.301221 0.357554
O O9 0.856763 0.500000 0.302217
O O10 0.851168 0.235607 0.249549
O O11 0.250000 0.500000 0.228967
O O12 0.250000 0.719549 0.131287
O O13 0.410160 0.236633 0.884222
O O14 0.421462 0.000000 0.802926
O O15 0.895458 0.000000 0.025992
O O16 0.834206 0.256269 0.989439
O O17 0.000000 0.222947 0.000000
O O18 0.750000 0.500000 0.967303
#
# Coordination Sequence:
#
# PCOD8212535 Si02
#       7
#     8   8   8   4   8   8   4
#     4  10  20  36  59  84 109 143 186 231 277 324
#     4   9  18  35  56  80 113 149 183 220 269 324
#     4   9  18  32  51  76 105 140 180 220 263 315
#     4  11  23  39  57  79 110 145 186 229 273 334
#     4   9  19  34  54  78 105 140 181 225 272 325
#     4  10  21  38  58  80 109 147 190 233 282 338
#     4  11  25  39  55  83 116 149 188 237 291 338
#
# _framework density 18.553850000000001
#
# number of rings (size 3 to 8) (size 9 to 14) (size 15 to 20)
#    0.000    2.333    0.000    2.000    1.167    5.000 
#    1.500    0.000    0.000    0.000    0.000    0.000 
#    0.000    0.000    0.000    0.000    0.000    0.000 
#
# Total GULP energy -595210.784747 kJ/mol
# GULP energy per Si atom -12400.224682 kJ/mol
# Density = 1.851162 g / cm^3
# Si number density = 18.553850 Si / 1000 Ang^3
#
#
#
# Elastic Constant Matrix: (Units=GPa)
#
#
# Indices 1 2 3 4 5 6 
#
# 1 138.5462 44.2782 79.3294 0.0000 0.0000 0.0000
# 2 44.2782 44.8765 47.5737 0.0000 0.0000 0.0000
# 3 79.3294 47.5737 170.0292 0.0000 0.0000 0.0000
# 4 0.0000 0.0000 0.0000 29.1570 0.0000 0.0000
# 5 0.0000 0.0000 0.0000 0.0000 17.8183 0.0000
# 6 0.0000 0.0000 0.0000 0.0000 0.0000 29.8321
#
#
#
# Elastic Compliance Matrix: (Units=1/GPa)
#
#
# Indices 1 2 3 4 5 6 
#
# 1 0.011616 -0.008126 -0.003146 0.000000 0.000000 0.000000
# 2 -0.008126 0.037365 -0.006663 0.000000 0.000000 0.000000
# 3 -0.003146 -0.006663 0.009213 0.000000 0.000000 0.000000
# 4 0.000000 0.000000 0.000000 0.034297 0.000000 0.000000
# 5 0.000000 0.000000 0.000000 0.000000 0.056122 0.000000
# 6 0.000000 0.000000 0.000000 0.000000 0.000000 0.033521
#
#
# Mechanical properties :
#
#
# Convention : Reuss Voigt Hill
#
# Bulk Modulus (GPa) = 44.79533 77.31272 61.05403
# Shear Modulus (GPa) = 22.17815 27.51284 24.84550
#
# Velocity S-wave (km/s) = 3.46112 3.85498 3.66334
# Velocity P-wave (km/s) = 6.33785 7.84693 7.13241
#
# Compressibility (1/GPa) = 0.02232376
#
# Stress axis : x y z
#
# Youngs Moduli (GPa) = 86.08627 26.76305 108.53641
#
# Poissons Ratio (x) = 0.21748 0.34146
# Poissons Ratio (y) = 0.69956 0.72320
# Poissons Ratio (z) = 0.27083 0.17833
#
# Static dielectric constant tensor:
#      x y z
#    x 3.530630 0.000000 0.000000 
#    y 0.000000 3.365550 0.000000 
#    z 0.000000 0.000000 3.607450 
# 
# 
# High freq. dielectric constant tensor:
#      x y z
#    x 1.726410 0.000000 0.000000 
#    y 0.000000 1.715240 0.000000 
#    z 0.000000 0.000000 1.723540 
# 
# From -- ./inp_files/29599.got.cif
#   From: 2010.03.12/outbox.cif.g09.slc.cpg/sg51_15_cif.got.tgz:29599.got - 2010.04.16 13:43:02.
