data_PCOD8212378
_publ_section_title
;
Structure prediction by ZEFSAII (Michael W. Deem and Ramdas Pophale) SiO2 
 PCOD8212378
Probable space group: P M M A
;
_chemical_formula_sum "Si O2"
_cell_formula_units_Z 36
_cell_length_a 9.989349
_cell_length_b 14.310177
_cell_length_c 13.864368
_cell_angle_alpha 90.000000
_cell_angle_beta 90.000000
_cell_angle_gamma 90.000000
_cell_volume 1981.902426
_symmetry_space_group_name_H-M "P M M A"
_symmetry_group_IT_number 51
_symmetry_cell_setting 'orthorhombic'
loop_
_space_group_symop_operation_xyz
x,y,z
1/2-x,-y,z
1/2+x,-y,-z
-x,y,-z
-x,-y,-z
1/2+x,y,-z
1/2-x,y,z
x,-y,z
loop_
_atom_site_type_symbol
_atom_site_label
_atom_site_fract_x
_atom_site_fract_y
_atom_site_fract_z
Si Si1 0.092289 0.500000 0.593831
Si Si2 0.104772 0.000000 0.416235
Si Si3 0.598644 0.848548 0.743902
Si Si4 0.398965 0.318315 0.717520
Si Si5 0.896247 0.605635 0.072287
Si Si6 0.909351 0.000000 0.903010
O O1 0.250000 0.500000 0.566889
O O2 0.055308 0.592242 0.655202
O O3 0.000000 0.500000 0.500000
O O4 0.089189 0.910558 0.350209
O O5 0.000000 0.000000 0.500000
O O6 0.250000 0.000000 0.466180
O O7 0.750000 0.811849 0.759988
O O8 0.504142 0.764297 0.712455
O O9 0.554981 0.907696 0.839235
O O10 0.250000 0.286127 0.683838
O O11 0.393140 0.341908 0.828693
O O12 0.750000 0.608779 0.023406
O O13 0.943151 0.500000 0.092229
O O14 0.000000 0.655776 0.000000
O O15 0.750000 0.000000 0.928237
O O16 0.000000 0.000000 0.000000
#
# Coordination Sequence:
#
# PCOD8212378 Si02
#       6
#     4   4   8   8   8   4
#     4  10  22  40  57  76 106 144 185 228 275 324
#     4   9  19  37  58  78 104 135 167 213 270 322
#     4   9  20  37  55  79 110 141 175 218 268 320
#     4  10  20  36  56  77 107 144 180 221 267 316
#     4   9  17  31  50  72 100 135 172 210 252 298
#     4   9  19  37  58  80 112 149 181 219 266 320
#
# _framework density 18.164366000000001
#
# number of rings (size 3 to 8) (size 9 to 14) (size 15 to 20)
#    0.000    2.667    1.111    1.333    0.000    5.333 
#    0.000   11.111    0.000    0.000    0.000    0.000 
#    0.000    0.000    0.000    0.000    0.000    0.000 
#
# Total GULP energy -446061.479510 kJ/mol
# GULP energy per Si atom -12390.596653 kJ/mol
# Density = 1.812302 g / cm^3
# Si number density = 18.164366 Si / 1000 Ang^3
#
#
#
# Elastic Constant Matrix: (Units=GPa)
#
#
# Indices 1 2 3 4 5 6 
#
# 1 124.8656 77.6225 68.6959 0.0000 0.0000 0.0000
# 2 77.6225 117.5246 38.4035 0.0000 0.0000 0.0000
# 3 68.6959 38.4035 98.3794 0.0000 0.0000 0.0000
# 4 0.0000 0.0000 0.0000 -10.9828 0.0000 0.0000
# 5 0.0000 0.0000 0.0000 0.0000 38.9134 0.0000
# 6 0.0000 0.0000 0.0000 0.0000 0.0000 31.9048
#
#
#
# Elastic Compliance Matrix: (Units=1/GPa)
#
#
# Indices 1 2 3 4 5 6 
#
# 1 0.019334 -0.009580 -0.009761 0.000000 0.000000 0.000000
# 2 -0.009580 0.014500 0.001029 0.000000 0.000000 0.000000
# 3 -0.009761 0.001029 0.016579 0.000000 0.000000 0.000000
# 4 0.000000 0.000000 0.000000 -0.091051 0.000000 0.000000
# 5 0.000000 0.000000 0.000000 0.000000 0.025698 0.000000
# 6 0.000000 0.000000 0.000000 0.000000 0.000000 0.031343
#
#
# Mechanical properties :
#
#
# Convention : Reuss Voigt Hill
#
# Bulk Modulus (GPa) = 72.51895 78.91258 75.71577
# Shear Modulus (GPa) = 86.77131 22.37027 54.57079
#
# Velocity S-wave (km/s) = 6.91909 3.51315 5.48707
# Velocity P-wave (km/s) = 10.19030 7.74559 9.05087
#
# Compressibility (1/GPa) = 0.01378950
#
# Stress axis : x y z
#
# Youngs Moduli (GPa) = 51.72199 68.96535 60.31875
#
# Poissons Ratio (x) = 0.66071 0.58876
# Poissons Ratio (y) = 0.49551 -0.06209
# Poissons Ratio (z) = 0.50485 -0.07099
#
# Static dielectric constant tensor:
#      x y z
#    x 3.715390 0.000000 0.000000 
#    y 0.000000 2.827920 0.000000 
#    z 0.000000 0.000000 3.330240 
# 
# 
# High freq. dielectric constant tensor:
#      x y z
#    x 1.709820 0.000000 0.000000 
#    y 0.000000 1.697140 0.000000 
#    z 0.000000 0.000000 1.700650 
# 
# From -- ./inp_files/20397.got.cif
#   From: 2010.03.12/outbox.cif.g09.slc.cpg/sg51_11_cif.got.tgz:20397.got - 2010.04.16 13:43:02.
