data_PCOD8212255
_publ_section_title
;
Structure prediction by ZEFSAII (Michael W. Deem and Ramdas Pophale) SiO2 
 PCOD8212255
Probable space group: P M M A
;
_chemical_formula_sum "Si O2"
_cell_formula_units_Z 56
_cell_length_a 15.080766
_cell_length_b 10.415088
_cell_length_c 17.001155
_cell_angle_alpha 90.000000
_cell_angle_beta 90.000000
_cell_angle_gamma 90.000000
_cell_volume 2670.328998
_symmetry_space_group_name_H-M "P M M A"
_symmetry_group_IT_number 51
_symmetry_cell_setting 'orthorhombic'
loop_
_space_group_symop_operation_xyz
x,y,z
1/2-x,-y,z
1/2+x,-y,-z
-x,y,-z
-x,-y,-z
1/2+x,y,-z
1/2-x,y,z
x,-y,z
loop_
_atom_site_type_symbol
_atom_site_label
_atom_site_fract_x
_atom_site_fract_y
_atom_site_fract_z
Si Si1 0.348135 0.145380 0.917390
Si Si2 0.400752 0.858959 0.477502
Si Si3 0.148623 0.728698 0.196956
Si Si4 0.099804 0.642450 0.028456
Si Si5 0.969240 0.147538 0.220867
Si Si6 0.649416 0.360912 0.632668
Si Si7 0.652177 0.151502 0.356654
O O1 0.250000 0.143037 0.879178
O O2 0.419139 0.203264 0.855843
O O3 0.373736 0.000000 0.945252
O O4 0.344104 0.241632 0.991315
O O5 0.500000 0.885485 0.500000
O O6 0.400312 0.760280 0.404851
O O7 0.353877 0.795221 0.553994
O O8 0.359810 0.000000 0.453477
O O9 0.250000 0.782355 0.185623
O O10 0.114571 0.649139 0.122119
O O11 0.144736 0.638176 0.272802
O O12 0.075314 0.839100 0.213896
O O13 0.132186 0.500000 0.001913
O O14 0.000000 0.663156 0.000000
O O15 0.923993 0.210887 0.299001
O O16 0.943178 0.000000 0.223701
O O17 0.750000 0.348455 0.604140
O O18 0.610620 0.500000 0.605413
O O19 0.750000 0.184983 0.322984
O O20 0.637395 0.000000 0.364271
#
# Coordination Sequence:
#
# PCOD8212255 Si02
#       7
#     8   8   8   8   8   8   8
#     4  10  21  38  62  90 120 155 193 240 301 361
#     4  10  20  35  57  87 122 156 197 248 299 354
#     4  11  23  39  59  84 115 157 202 246 300 361
#     4  11  23  41  65  90 117 155 202 247 297 358
#     4  10  20  36  57  85 122 156 195 248 298 356
#     4  10  22  39  58  81 113 154 198 244 295 352
#     4   9  17  31  55  85 116 156 202 247 300 358
#
# _framework density 20.971198999999999
#
# number of rings (size 3 to 8) (size 9 to 14) (size 15 to 20)
#    0.000    1.857    1.429    2.571    0.000    7.429 
#    0.000    1.429    0.000    0.857    0.000    0.000 
#    0.000    0.000    0.000    0.000    0.000    0.000 
#
# Total GULP energy -693772.560754 kJ/mol
# GULP energy per Si atom -12388.795728 kJ/mol
# Density = 2.092347 g / cm^3
# Si number density = 20.971199 Si / 1000 Ang^3
#
#
#
# Elastic Constant Matrix: (Units=GPa)
#
#
# Indices 1 2 3 4 5 6 
#
# 1 123.4907 24.6912 41.2971 0.0000 0.0000 0.0000
# 2 24.6912 99.5673 55.9650 0.0000 0.0000 0.0000
# 3 41.2971 55.9650 119.5841 0.0000 0.0000 0.0000
# 4 0.0000 0.0000 0.0000 18.0015 0.0000 0.0000
# 5 0.0000 0.0000 0.0000 0.0000 35.5867 0.0000
# 6 0.0000 0.0000 0.0000 0.0000 0.0000 16.1881
#
#
#
# Elastic Compliance Matrix: (Units=1/GPa)
#
#
# Indices 1 2 3 4 5 6 
#
# 1 0.009188 -0.000672 -0.002859 0.000000 0.000000 0.000000
# 2 -0.000672 0.013678 -0.006169 0.000000 0.000000 0.000000
# 3 -0.002859 -0.006169 0.012237 0.000000 0.000000 0.000000
# 4 0.000000 0.000000 0.000000 0.055551 0.000000 0.000000
# 5 0.000000 0.000000 0.000000 0.000000 0.028100 0.000000
# 6 0.000000 0.000000 0.000000 0.000000 0.000000 0.061774
#
#
# Mechanical properties :
#
#
# Convention : Reuss Voigt Hill
#
# Bulk Modulus (GPa) = 63.68060 65.17208 64.42634
# Shear Modulus (GPa) = 24.37115 28.66785 26.51950
#
# Velocity S-wave (km/s) = 3.41269 3.70132 3.55993
# Velocity P-wave (km/s) = 6.77940 7.02928 6.90547
#
# Compressibility (1/GPa) = 0.01570337
#
# Stress axis : x y z
#
# Youngs Moduli (GPa) = 108.83702 73.11242 81.72187
#
# Poissons Ratio (x) = 0.04911 0.23361
# Poissons Ratio (y) = 0.07311 0.50415
# Poissons Ratio (z) = 0.31113 0.45104
#
# Static dielectric constant tensor:
#      x y z
#    x 3.747170 0.000000 0.000000 
#    y 0.000000 3.469800 0.000000 
#    z 0.000000 0.000000 3.966870 
# 
# 
# High freq. dielectric constant tensor:
#      x y z
#    x 1.828210 0.000000 0.000000 
#    y 0.000000 1.781570 0.000000 
#    z 0.000000 0.000000 1.825280 
# 
# From -- ./inp_files/24176.got.cif
#   From: 2010.03.12/outbox.cif.g09.slc.cpg/sg51_13_cif.got.tgz:24176.got - 2010.04.16 13:43:02.
