data_PCOD8212882
_publ_section_title
;
Structure prediction by ZEFSAII (Michael W. Deem and Ramdas Pophale) SiO2 
 PCOD8212882
Probable space group: P M M A
;
_chemical_formula_sum "Si O2"
_cell_formula_units_Z 40
_cell_length_a 14.868268
_cell_length_b 8.749166
_cell_length_c 15.186395
_cell_angle_alpha 90.000000
_cell_angle_beta 90.000000
_cell_angle_gamma 90.000000
_cell_volume 1975.521356
_symmetry_space_group_name_H-M "P M M A"
_symmetry_group_IT_number 51
_symmetry_cell_setting 'orthorhombic'
loop_
_space_group_symop_operation_xyz
x,y,z
1/2-x,-y,z
1/2+x,-y,-z
-x,y,-z
-x,-y,-z
1/2+x,y,-z
1/2-x,y,z
x,-y,z
loop_
_atom_site_type_symbol
_atom_site_label
_atom_site_fract_x
_atom_site_fract_y
_atom_site_fract_z
Si Si1 0.750000 0.320985 0.502479
Si Si2 0.750000 0.826132 0.687759
Si Si3 0.392666 0.178377 0.164527
Si Si4 0.750000 0.318971 0.160563
Si Si5 0.750000 0.681454 0.960421
Si Si6 0.072118 0.179772 0.573423
Si Si7 0.563089 0.681522 0.240568
O O1 0.750000 0.500000 0.486558
O O2 0.750000 0.287447 0.606033
O O3 0.834386 0.250449 0.454183
O O4 0.838464 0.794370 0.745070
O O5 0.750000 0.000000 0.652102
O O6 0.339915 0.254049 0.083984
O O7 0.489727 0.256904 0.171398
O O8 0.403480 0.000000 0.144718
O O9 0.750000 0.500000 0.160960
O O10 0.838796 0.258445 0.210476
O O11 0.750000 0.260001 0.060581
O O12 0.750000 0.500000 0.952429
O O13 0.038971 0.251465 0.664467
O O14 0.000000 0.223785 0.500000
O O15 0.081865 0.000000 0.585060
O O16 0.558844 0.500000 0.243133
#
# Coordination Sequence:
#
# PCOD8212882 Si02
#       7
#     4   4   8   4   4   8   8
#     4  12  24  36  56  85 116 151 196 247 292 345
#     4   9  19  36  56  78 113 155 189 232 293 350
#     4  10  21  38  59  87 121 152 188 239 297 351
#     4   9  22  41  60  85 119 154 191 241 294 343
#     4  10  20  39  64  88 114 150 194 236 287 350
#     4  11  24  41  60  84 118 158 198 242 295 350
#     4  11  22  39  62  87 116 154 199 244 291 345
#
# _framework density 20.247820999999998
#
# number of rings (size 3 to 8) (size 9 to 14) (size 15 to 20)
#    0.000    1.600    0.000    5.400    0.000   10.400 
#    0.000    9.500    0.000    0.000    0.000    0.000 
#    0.000    0.000    0.000    0.000    0.000    0.000 
#
# Total GULP energy -496217.552392 kJ/mol
# GULP energy per Si atom -12405.438810 kJ/mol
# Density = 2.020174 g / cm^3
# Si number density = 20.247821 Si / 1000 Ang^3
#
#
#
# Elastic Constant Matrix: (Units=GPa)
#
#
# Indices 1 2 3 4 5 6 
#
# 1 152.7816 60.8827 47.3515 0.0000 0.0000 0.0000
# 2 60.8827 87.5400 50.1725 0.0000 0.0000 0.0000
# 3 47.3515 50.1725 117.1573 0.0000 0.0000 0.0000
# 4 0.0000 0.0000 0.0000 305.5647 0.0000 0.0000
# 5 0.0000 0.0000 0.0000 0.0000 16.6646 0.0000
# 6 0.0000 0.0000 0.0000 0.0000 0.0000 35.6910
#
#
#
# Elastic Compliance Matrix: (Units=1/GPa)
#
#
# Indices 1 2 3 4 5 6 
#
# 1 0.009201 -0.005656 -0.001297 0.000000 0.000000 0.000000
# 2 -0.005656 0.018616 -0.005686 0.000000 0.000000 0.000000
# 3 -0.001297 -0.005686 0.011495 0.000000 0.000000 0.000000
# 4 0.000000 0.000000 0.000000 0.003273 0.000000 0.000000
# 5 0.000000 0.000000 0.000000 0.000000 0.060007 0.000000
# 6 0.000000 0.000000 0.000000 0.000000 0.000000 0.028018
#
#
# Mechanical properties :
#
#
# Convention : Reuss Voigt Hill
#
# Bulk Modulus (GPa) = 71.25576 74.92138 73.08857
# Shear Modulus (GPa) = 31.13981 84.85555 57.99768
#
# Velocity S-wave (km/s) = 3.92590 6.48070 5.35781
# Velocity P-wave (km/s) = 7.47118 9.64789 8.62845
#
# Compressibility (1/GPa) = 0.01403395
#
# Stress axis : x y z
#
# Youngs Moduli (GPa) = 108.68317 53.71696 86.99640
#
# Poissons Ratio (x) = 0.30383 0.11280
# Poissons Ratio (y) = 0.61472 0.49469
# Poissons Ratio (z) = 0.14092 0.30545
#
# Static dielectric constant tensor:
#      x y z
#    x 3.887210 0.000000 0.000000 
#    y 0.000000 3.639100 0.000000 
#    z 0.000000 0.000000 3.725020 
# 
# 
# High freq. dielectric constant tensor:
#      x y z
#    x 1.805690 0.000000 0.000000 
#    y 0.000000 1.792410 0.000000 
#    z 0.000000 0.000000 1.793260 
# 
# From -- ./inp_files/23856.got.cif
#   From: 2010.03.12/outbox.cif.g09.slc.cpg/sg51_12_cif.got.tgz:23856.got - 2010.04.16 13:43:02.
