data_PCOD8212710
_publ_section_title
;
Structure prediction by ZEFSAII (Michael W. Deem and Ramdas Pophale) SiO2 
 PCOD8212710
Probable space group: P M M A
;
_chemical_formula_sum "Si O2"
_cell_formula_units_Z 48
_cell_length_a 8.680216
_cell_length_b 30.458162
_cell_length_c 9.168433
_cell_angle_alpha 90.000000
_cell_angle_beta 90.000000
_cell_angle_gamma 90.000000
_cell_volume 2423.981720
_symmetry_space_group_name_H-M "P M M A"
_symmetry_group_IT_number 51
_symmetry_cell_setting 'orthorhombic'
loop_
_space_group_symop_operation_xyz
x,y,z
1/2-x,-y,z
1/2+x,-y,-z
-x,y,-z
-x,-y,-z
1/2+x,y,-z
1/2-x,y,z
x,-y,z
loop_
_atom_site_type_symbol
_atom_site_label
_atom_site_fract_x
_atom_site_fract_y
_atom_site_fract_z
Si Si1 0.567210 0.237989 0.343982
Si Si2 0.931117 0.000000 0.159325
Si Si3 0.067834 0.582811 0.842279
Si Si4 0.432996 0.836767 0.158910
Si Si5 0.433304 0.084368 0.659536
Si Si6 0.569034 0.337720 0.347889
Si Si7 0.932288 0.500000 0.340855
O O1 0.500000 0.222871 0.500000
O O2 0.750000 0.231042 0.345189
O O3 0.490960 0.210362 0.214437
O O4 0.518412 0.288105 0.310409
O O5 0.987370 0.042959 0.244995
O O6 0.750000 0.000000 0.143981
O O7 0.000000 0.000000 0.000000
O O8 0.250000 0.581928 0.853337
O O9 0.009180 0.629239 0.776698
O O10 0.007072 0.543146 0.742348
O O11 0.000000 0.576311 0.000000
O O12 0.250000 0.837833 0.151294
O O13 0.493775 0.872413 0.272106
O O14 0.500000 0.846848 0.000000
O O15 0.500000 0.077193 0.500000
O O16 0.250000 0.089241 0.653126
O O17 0.500000 0.353613 0.500000
O O18 0.750000 0.340679 0.364580
O O19 0.750000 0.500000 0.351027
O O20 0.000000 0.500000 0.500000
#
# Coordination Sequence:
#
# PCOD8212710 Si02
#       7
#     8   4   8   8   8   8   4
#     4  10  20  37  59  84 113 148 188 234 282 335
#     4  10  23  40  62  90 122 156 193 236 285 336
#     4  10  21  36  53  79 111 144 181 225 273 328
#     4  12  25  41  60  85 116 152 191 237 288 341
#     4  11  23  41  63  90 120 155 196 238 283 336
#     4   9  19  35  56  81 110 143 185 229 274 328
#     4  10  21  36  56  80 108 140 181 226 272 326
#
# _framework density 19.802129999999998
#
# number of rings (size 3 to 8) (size 9 to 14) (size 15 to 20)
#    0.000    1.667    0.000    4.500    0.000    5.333 
#    0.000    1.667    0.000    0.000    0.000    0.000 
#    0.000    0.000    0.000    0.000    0.000    0.000 
#
# Total GULP energy -595403.103469 kJ/mol
# GULP energy per Si atom -12404.231322 kJ/mol
# Density = 1.975706 g / cm^3
# Si number density = 19.802130 Si / 1000 Ang^3
#
#
#
# Elastic Constant Matrix: (Units=GPa)
#
#
# Indices 1 2 3 4 5 6 
#
# 1 73.1761 38.5515 43.7266 0.0000 0.0000 0.0000
# 2 38.5515 129.4763 76.2025 0.0000 0.0000 0.0000
# 3 43.7266 76.2025 165.5570 0.0000 0.0000 0.0000
# 4 0.0000 0.0000 0.0000 38.3669 0.0000 0.0000
# 5 0.0000 0.0000 0.0000 0.0000 40.7536 0.0000
# 6 0.0000 0.0000 0.0000 0.0000 0.0000 16.1468
#
#
#
# Elastic Compliance Matrix: (Units=1/GPa)
#
#
# Indices 1 2 3 4 5 6 
#
# 1 0.017232 -0.003363 -0.003003 0.000000 0.000000 0.000000
# 2 -0.003363 0.011249 -0.004290 0.000000 0.000000 0.000000
# 3 -0.003003 -0.004290 0.008808 0.000000 0.000000 0.000000
# 4 0.000000 0.000000 0.000000 0.026064 0.000000 0.000000
# 5 0.000000 0.000000 0.000000 0.000000 0.024538 0.000000
# 6 0.000000 0.000000 0.000000 0.000000 0.000000 0.061932
#
#
# Mechanical properties :
#
#
# Convention : Reuss Voigt Hill
#
# Bulk Modulus (GPa) = 62.58942 76.13006 69.35974
# Shear Modulus (GPa) = 28.33483 33.03539 30.68511
#
# Velocity S-wave (km/s) = 3.78683 4.08888 3.94075
# Velocity P-wave (km/s) = 7.12714 7.79877 7.47051
#
# Compressibility (1/GPa) = 0.01597714
#
# Stress axis : x y z
#
# Youngs Moduli (GPa) = 58.03101 88.89320 113.53535
#
# Poissons Ratio (x) = 0.29898 0.34098
# Poissons Ratio (y) = 0.19518 0.48702
# Poissons Ratio (z) = 0.17428 0.38131
#
# Static dielectric constant tensor:
#      x y z
#    x 3.576030 0.000000 0.000000 
#    y 0.000000 4.000420 0.000000 
#    z 0.000000 0.000000 3.740630 
# 
# 
# High freq. dielectric constant tensor:
#      x y z
#    x 1.771930 0.000000 0.000000 
#    y 0.000000 1.790330 0.000000 
#    z 0.000000 0.000000 1.779360 
# 
# From -- ./inp_files/6114.got.cif
#   From: 2010.03.12/outbox.cif.g09.slc.cpg/sg51_4_cif.got.tgz:6114.got - 2010.04.16 13:43:02.
