data_PCOD8212833
_publ_section_title
;
Structure prediction by ZEFSAII (Michael W. Deem and Ramdas Pophale) SiO2 
 PCOD8212833
Probable space group: P M M A
;
_chemical_formula_sum "Si O2"
_cell_formula_units_Z 48
_cell_length_a 15.885433
_cell_length_b 9.080460
_cell_length_c 16.931662
_cell_angle_alpha 90.000000
_cell_angle_beta 90.000000
_cell_angle_gamma 90.000000
_cell_volume 2442.342108
_symmetry_space_group_name_H-M "P M M A"
_symmetry_group_IT_number 51
_symmetry_cell_setting 'orthorhombic'
loop_
_space_group_symop_operation_xyz
x,y,z
1/2-x,-y,z
1/2+x,-y,-z
-x,y,-z
-x,-y,-z
1/2+x,y,-z
1/2-x,y,z
x,-y,z
loop_
_atom_site_type_symbol
_atom_site_label
_atom_site_fract_x
_atom_site_fract_y
_atom_site_fract_z
Si Si1 0.153309 0.830560 0.314816
Si Si2 0.411299 0.672068 0.462681
Si Si3 0.750000 0.824899 0.265793
Si Si4 0.844453 0.674441 0.992070
Si Si5 0.081676 0.329794 0.169683
Si Si6 0.250000 0.327460 0.567217
Si Si7 0.110886 0.670970 0.835535
O O1 0.250000 0.807957 0.338986
O O2 0.095042 0.754049 0.379623
O O3 0.138806 0.760454 0.229500
O O4 0.127956 0.000000 0.310447
O O5 0.500000 0.720653 0.500000
O O6 0.409923 0.500000 0.444145
O O7 0.333708 0.715796 0.518929
O O8 0.750000 0.769181 0.354858
O O9 0.832963 0.766203 0.222832
O O10 0.750000 0.000000 0.264694
O O11 0.750000 0.733205 0.979827
O O12 0.847460 0.500000 0.995186
O O13 0.901149 0.730262 0.919048
O O14 0.879712 0.733241 0.075412
O O15 0.108494 0.500000 0.175489
O O16 0.984606 0.308178 0.191784
O O17 0.250000 0.500000 0.589024
O O18 0.138742 0.500000 0.830519
#
# Coordination Sequence:
#
# PCOD8212833 Si02
#       7
#     8   8   4   8   8   4   8
#     4  11  24  41  60  86 124 164 197 235 292 356
#     4  10  22  41  67  95 118 149 197 249 302 357
#     4  12  26  40  58  85 120 159 200 239 288 357
#     4   9  16  31  58  89 117 149 192 245 299 344
#     4  10  21  35  60  92 118 150 200 252 296 347
#     4  10  22  42  66  91 122 153 192 251 304 349
#     4  10  20  38  61  86 118 154 196 250 303 347
#
# _framework density 19.653265999999999
#
# number of rings (size 3 to 8) (size 9 to 14) (size 15 to 20)
#    0.000    1.833    1.667    2.250    2.333    5.333 
#    0.000    0.833    0.000    2.000    0.000    0.000 
#    0.000    0.000    0.000    0.000    0.000    0.000 
#
# Total GULP energy -595340.083761 kJ/mol
# GULP energy per Si atom -12402.918412 kJ/mol
# Density = 1.960853 g / cm^3
# Si number density = 19.653266 Si / 1000 Ang^3
#
#
#
# Elastic Constant Matrix: (Units=GPa)
#
#
# Indices 1 2 3 4 5 6 
#
# 1 93.8802 30.8866 34.8200 0.0000 0.0000 0.0000
# 2 30.8866 64.1600 48.8968 0.0000 0.0000 0.0000
# 3 34.8200 48.8968 122.4591 0.0000 0.0000 0.0000
# 4 0.0000 0.0000 0.0000 -6.1401 0.0000 0.0000
# 5 0.0000 0.0000 0.0000 0.0000 32.6956 0.0000
# 6 0.0000 0.0000 0.0000 0.0000 0.0000 19.2039
#
#
#
# Elastic Compliance Matrix: (Units=1/GPa)
#
#
# Indices 1 2 3 4 5 6 
#
# 1 0.012900 -0.004908 -0.001708 0.000000 0.000000 0.000000
# 2 -0.004908 0.024271 -0.008296 0.000000 0.000000 0.000000
# 3 -0.001708 -0.008296 0.011964 0.000000 0.000000 0.000000
# 4 0.000000 0.000000 0.000000 -0.162865 0.000000 0.000000
# 5 0.000000 0.000000 0.000000 0.000000 0.030585 0.000000
# 6 0.000000 0.000000 0.000000 0.000000 0.000000 0.052073
#
#
# Mechanical properties :
#
#
# Convention : Reuss Voigt Hill
#
# Bulk Modulus (GPa) = 51.78365 56.63402 54.20883
# Shear Modulus (GPa) = 963.44500 20.21161 491.82831
#
# Velocity S-wave (km/s) = 22.16496 3.21036 15.83654
# Velocity P-wave (km/s) = 26.10466 6.52848 19.02727
#
# Compressibility (1/GPa) = 0.01931112
#
# Stress axis : x y z
#
# Youngs Moduli (GPa) = 77.51762 41.20143 83.58380
#
# Poissons Ratio (x) = 0.20223 0.14278
# Poissons Ratio (y) = 0.38048 0.69337
# Poissons Ratio (z) = 0.13242 0.34179
#
# Static dielectric constant tensor:
#      x y z
#    x 3.676850 0.000000 0.000000 
#    y 0.000000 3.276380 0.000000 
#    z 0.000000 0.000000 3.662490 
# 
# 
# High freq. dielectric constant tensor:
#      x y z
#    x 1.777220 0.000000 0.000000 
#    y 0.000000 1.731910 0.000000 
#    z 0.000000 0.000000 1.778930 
# 
# From -- ./inp_files/24948.got.cif
#   From: 2010.03.12/outbox.cif.g09.slc.cpg/sg51_13_cif.got.tgz:24948.got - 2010.04.16 13:43:02.
