data_PCOD8212386
_publ_section_title
;
Structure prediction by ZEFSAII (Michael W. Deem and Ramdas Pophale) SiO2 
 PCOD8212386
Probable space group: P M M A
;
_chemical_formula_sum "Si O2"
_cell_formula_units_Z 48
_cell_length_a 9.021977
_cell_length_b 30.231283
_cell_length_c 9.470863
_cell_angle_alpha 90.000000
_cell_angle_beta 90.000000
_cell_angle_gamma 90.000000
_cell_volume 2583.139431
_symmetry_space_group_name_H-M "P M M A"
_symmetry_group_IT_number 51
_symmetry_cell_setting 'orthorhombic'
loop_
_space_group_symop_operation_xyz
x,y,z
1/2-x,-y,z
1/2+x,-y,-z
-x,y,-z
-x,-y,-z
1/2+x,y,-z
1/2-x,y,z
x,-y,z
loop_
_atom_site_type_symbol
_atom_site_label
_atom_site_fract_x
_atom_site_fract_y
_atom_site_fract_z
Si Si1 0.425678 0.292001 0.151381
Si Si2 0.922859 0.625813 0.649538
Si Si3 0.924033 0.449714 0.855456
Si Si4 0.424505 0.776592 0.649002
Si Si5 0.421920 0.877943 0.643130
Si Si6 0.922331 0.048952 0.147171
O O1 0.250000 0.285020 0.133419
O O2 0.463531 0.333848 0.248525
O O3 0.498476 0.249580 0.224566
O O4 0.500000 0.299620 0.000000
O O5 0.750000 0.623633 0.618685
O O6 0.978253 0.580946 0.726386
O O7 0.000000 0.631862 0.500000
O O8 0.750000 0.444283 0.879377
O O9 0.968749 0.500000 0.818023
O O10 0.000000 0.434032 0.000000
O O11 0.500000 0.763981 0.500000
O O12 0.250000 0.765475 0.638793
O O13 0.453585 0.827590 0.688449
O O14 0.500000 0.890129 0.500000
O O15 0.250000 0.886302 0.620147
O O16 0.488369 0.912354 0.755419
O O17 0.750000 0.056672 0.121968
O O18 0.952674 0.000000 0.212211
O O19 0.000000 0.054056 0.000000
#
# Coordination Sequence:
#
# PCOD8212386 Si02
#       6
#     8   8   8   8   8   8
#     4  11  23  38  56  79 106 137 175 217 262 311
#     4  10  22  37  54  78 107 139 174 214 259 307
#     4   9  18  34  55  79 107 138 173 213 257 305
#     4  10  20  36  56  78 106 138 173 213 259 310
#     4   9  19  34  52  76 104 134 168 208 253 302
#     4   9  18  33  51  72 100 133 169 209 253 301
#
# _framework density 18.582039000000002
#
# number of rings (size 3 to 8) (size 9 to 14) (size 15 to 20)
#    0.000    2.333    0.000    2.000    0.000    6.000 
#    0.000    1.667    0.000    0.000    0.000    0.000 
#    0.000    0.000    0.000    0.000    0.000    0.000 
#
# Total GULP energy -595210.567929 kJ/mol
# GULP energy per Si atom -12400.220165 kJ/mol
# Density = 1.853975 g / cm^3
# Si number density = 18.582039 Si / 1000 Ang^3
#
#
#
# Elastic Constant Matrix: (Units=GPa)
#
#
# Indices 1 2 3 4 5 6 
#
# 1 65.2072 52.6857 64.9005 0.0000 0.0000 0.0000
# 2 52.6857 122.7058 90.1085 0.0000 0.0000 0.0000
# 3 64.9005 90.1085 149.3121 0.0000 0.0000 0.0000
# 4 0.0000 0.0000 0.0000 38.9447 0.0000 0.0000
# 5 0.0000 0.0000 0.0000 0.0000 37.0186 0.0000
# 6 0.0000 0.0000 0.0000 0.0000 0.0000 25.2335
#
#
#
# Elastic Compliance Matrix: (Units=1/GPa)
#
#
# Indices 1 2 3 4 5 6 
#
# 1 0.029135 -0.005765 -0.009185 0.000000 0.000000 0.000000
# 2 -0.005765 0.015776 -0.007015 0.000000 0.000000 0.000000
# 3 -0.009185 -0.007015 0.014923 0.000000 0.000000 0.000000
# 4 0.000000 0.000000 0.000000 0.025677 0.000000 0.000000
# 5 0.000000 0.000000 0.000000 0.000000 0.027013 0.000000
# 6 0.000000 0.000000 0.000000 0.000000 0.000000 0.039630
#
#
# Mechanical properties :
#
#
# Convention : Reuss Voigt Hill
#
# Bulk Modulus (GPa) = 62.87285 83.62384 73.24834
# Shear Modulus (GPa) = 24.82776 28.87471 26.85124
#
# Velocity S-wave (km/s) = 3.65926 3.94624 3.80545
# Velocity P-wave (km/s) = 7.19460 8.11566 7.66897
#
# Compressibility (1/GPa) = 0.01590512
#
# Stress axis : x y z
#
# Youngs Moduli (GPa) = 34.32256 63.38638 67.00875
#
# Poissons Ratio (x) = 0.36540 0.61549
# Poissons Ratio (y) = 0.19786 0.47008
# Poissons Ratio (z) = 0.31526 0.44467
#
# Static dielectric constant tensor:
#      x y z
#    x 3.405500 0.000000 0.000000 
#    y 0.000000 3.735350 0.000000 
#    z 0.000000 0.000000 3.400600 
# 
# 
# High freq. dielectric constant tensor:
#      x y z
#    x 1.720750 0.000000 0.000000 
#    y 0.000000 1.735520 0.000000 
#    z 0.000000 0.000000 1.719290 
# 
# From -- ./inp_files/5975.got.cif
#   From: 2010.03.12/outbox.cif.g09.slc.cpg/sg51_3_cif.got.tgz:5975.got - 2010.04.16 13:43:02.
