data_PCOD8212355
_publ_section_title
;
Structure prediction by ZEFSAII (Michael W. Deem and Ramdas Pophale) SiO2 
 PCOD8212355
Probable space group: P M M A
;
_chemical_formula_sum "Si O2"
_cell_formula_units_Z 44
_cell_length_a 8.652464
_cell_length_b 27.465234
_cell_length_c 9.949528
_cell_angle_alpha 90.000000
_cell_angle_beta 90.000000
_cell_angle_gamma 90.000000
_cell_volume 2364.425220
_symmetry_space_group_name_H-M "P M M A"
_symmetry_group_IT_number 51
_symmetry_cell_setting 'orthorhombic'
loop_
_space_group_symop_operation_xyz
x,y,z
1/2-x,-y,z
1/2+x,-y,-z
-x,y,-z
-x,-y,-z
1/2+x,y,-z
1/2-x,y,z
x,-y,z
loop_
_atom_site_type_symbol
_atom_site_label
_atom_site_fract_x
_atom_site_fract_y
_atom_site_fract_z
Si Si1 0.932867 0.554755 0.858468
Si Si2 0.933482 0.082649 0.855594
Si Si3 0.431306 0.629452 0.359255
Si Si4 0.432883 0.813014 0.857601
Si Si5 0.067209 0.740558 0.356244
Si Si6 0.567915 0.000000 0.649950
O O1 0.750000 0.557794 0.865924
O O2 0.987218 0.500000 0.821196
O O3 0.000802 0.592733 0.750868
O O4 0.000000 0.571289 0.000000
O O5 0.750000 0.084016 0.869236
O O6 0.996421 0.135349 0.814462
O O7 0.986881 0.046789 0.736005
O O8 0.000000 0.065538 0.000000
O O9 0.500000 0.613053 0.500000
O O10 0.250000 0.623618 0.369329
O O11 0.476188 0.684766 0.322973
O O12 0.250000 0.817927 0.867343
O O13 0.480027 0.772766 0.751478
O O14 0.500000 0.796114 0.000000
O O15 0.250000 0.749907 0.352564
O O16 0.000000 0.755613 0.500000
O O17 0.500000 0.000000 0.500000
O O18 0.750000 0.000000 0.633471
#
# Coordination Sequence:
#
# PCOD8212355 Si02
#       6
#     8   8   8   8   8   4
#     4   9  18  33  51  73 102 134 169 211 258 308
#     4  10  20  37  58  82 109 141 179 219 262 312
#     4   9  19  34  52  75 103 135 172 213 257 308
#     4  11  22  37  57  82 109 141 179 221 266 314
#     4  10  20  36  55  77 106 140 177 218 265 317
#     4  10  23  38  56  82 112 142 177 218 260 310
#
# _framework density 18.609173999999999
#
# number of rings (size 3 to 8) (size 9 to 14) (size 15 to 20)
#    0.000    2.182    0.000    4.091    0.000    4.727 
#    0.000    3.636    0.000    0.000    0.000    0.000 
#    0.000    0.000    0.000    0.000    0.000    0.000 
#
# Total GULP energy -545629.369792 kJ/mol
# GULP energy per Si atom -12400.667495 kJ/mol
# Density = 1.856682 g / cm^3
# Si number density = 18.609174 Si / 1000 Ang^3
#
#
#
# Elastic Constant Matrix: (Units=GPa)
#
#
# Indices 1 2 3 4 5 6 
#
# 1 64.7069 36.6611 44.8496 0.0000 0.0000 0.0000
# 2 36.6611 121.7808 110.8043 0.0000 0.0000 0.0000
# 3 44.8496 110.8043 168.7852 0.0000 0.0000 0.0000
# 4 0.0000 0.0000 0.0000 33.8712 0.0000 0.0000
# 5 0.0000 0.0000 0.0000 0.0000 36.2861 0.0000
# 6 0.0000 0.0000 0.0000 0.0000 0.0000 -107.6961
#
#
#
# Elastic Compliance Matrix: (Units=1/GPa)
#
#
# Indices 1 2 3 4 5 6 
#
# 1 0.019332 -0.002846 -0.003269 0.000000 0.000000 0.000000
# 2 -0.002846 0.020810 -0.012906 0.000000 0.000000 0.000000
# 3 -0.003269 -0.012906 0.015266 0.000000 0.000000 0.000000
# 4 0.000000 0.000000 0.000000 0.029524 0.000000 0.000000
# 5 0.000000 0.000000 0.000000 0.000000 0.027559 0.000000
# 6 0.000000 0.000000 0.000000 0.000000 0.000000 -0.009285
#
#
# Mechanical properties :
#
#
# Convention : Reuss Voigt Hill
#
# Bulk Modulus (GPa) = 57.57635 82.21146 69.89391
# Shear Modulus (GPa) = 34.00559 3.35609 18.68084
#
# Velocity S-wave (km/s) = 4.27940 1.34439 3.17180
# Velocity P-wave (km/s) = 7.44477 6.83254 7.14522
#
# Compressibility (1/GPa) = 0.01736824
#
# Stress axis : x y z
#
# Youngs Moduli (GPa) = 51.72702 48.05288 65.50694
#
# Poissons Ratio (x) = 0.13673 0.21414
# Poissons Ratio (y) = 0.14719 0.84540
# Poissons Ratio (z) = 0.16909 0.62015
#
# Static dielectric constant tensor:
#      x y z
#    x 3.416370 0.000000 0.000000 
#    y 0.000000 3.655470 0.000000 
#    z 0.000000 0.000000 3.519560 
# 
# 
# High freq. dielectric constant tensor:
#      x y z
#    x 1.726480 0.000000 0.000000 
#    y 0.000000 1.729090 0.000000 
#    z 0.000000 0.000000 1.725880 
# 
# From -- ./inp_files/5832.got.cif
#   From: 2010.03.12/outbox.cif.g09.slc.cpg/sg51_3_cif.got.tgz:5832.got - 2010.04.16 13:43:02.
