data_PCOD8212705
_publ_section_title
;
Structure prediction by ZEFSAII (Michael W. Deem and Ramdas Pophale) SiO2 
 PCOD8212705
Probable space group: P M M A
;
_chemical_formula_sum "Si O2"
_cell_formula_units_Z 48
_cell_length_a 16.027340
_cell_length_b 9.034911
_cell_length_c 16.961844
_cell_angle_alpha 90.000000
_cell_angle_beta 90.000000
_cell_angle_gamma 90.000000
_cell_volume 2456.169836
_symmetry_space_group_name_H-M "P M M A"
_symmetry_group_IT_number 51
_symmetry_cell_setting 'orthorhombic'
loop_
_space_group_symop_operation_xyz
x,y,z
1/2-x,-y,z
1/2+x,-y,-z
-x,y,-z
-x,-y,-z
1/2+x,y,-z
1/2-x,y,z
x,-y,z
loop_
_atom_site_type_symbol
_atom_site_label
_atom_site_fract_x
_atom_site_fract_y
_atom_site_fract_z
Si Si1 0.845807 0.168453 0.697511
Si Si2 0.087843 0.175594 0.468056
Si Si3 0.402818 0.825903 0.840853
Si Si4 0.750000 0.824240 0.262868
Si Si5 0.346979 0.828684 0.016277
Si Si6 0.574258 0.674610 0.838065
Si Si7 0.750000 0.823165 0.440967
O O1 0.750000 0.180609 0.670775
O O2 0.902150 0.220078 0.623610
O O3 0.860454 0.272827 0.772196
O O4 0.867456 0.000000 0.721747
O O5 0.166312 0.239568 0.517402
O O6 0.000000 0.241359 0.500000
O O7 0.087835 0.000000 0.476870
O O8 0.331595 0.766619 0.782379
O O9 0.484906 0.739545 0.815509
O O10 0.418288 0.000000 0.831071
O O11 0.376797 0.786246 0.929446
O O12 0.750000 0.763616 0.351612
O O13 0.750000 0.000000 0.260523
O O14 0.250000 0.792073 0.025088
O O15 0.398889 0.730249 0.076273
O O16 0.365085 0.000000 0.034680
O O17 0.570822 0.500000 0.839399
O O18 0.750000 0.000000 0.443976
#
# Coordination Sequence:
#
# PCOD8212705 Si02
#       7
#     8   8   8   4   8   8   4
#     4  10  20  37  59  83 113 149 192 237 282 333
#     4   9  17  29  50  85 120 147 177 228 293 347
#     4  10  20  38  61  87 114 145 186 233 284 338
#     4   9  18  32  57  90 117 142 178 231 289 339
#     4  10  20  38  62  86 113 146 188 234 282 335
#     4  12  26  38  53  82 116 152 195 234 280 337
#     4   9  16  28  48  84 123 144 174 227 287 349
#
# _framework density 19.542622000000001
#
# number of rings (size 3 to 8) (size 9 to 14) (size 15 to 20)
#    0.000    2.000    1.667    2.500    2.333    5.333 
#    0.000    0.417    0.000    0.500    0.000    0.000 
#    0.000    0.000    0.000    0.000    0.000    0.000 
#
# Total GULP energy -595320.438829 kJ/mol
# GULP energy per Si atom -12402.509142 kJ/mol
# Density = 1.949814 g / cm^3
# Si number density = 19.542622 Si / 1000 Ang^3
#
#
#
# Elastic Constant Matrix: (Units=GPa)
#
#
# Indices 1 2 3 4 5 6 
#
# 1 114.8182 25.3005 43.4663 0.0000 0.0000 0.0000
# 2 25.3005 51.6142 31.2103 0.0000 0.0000 0.0000
# 3 43.4663 31.2103 114.2108 0.0000 0.0000 0.0000
# 4 0.0000 0.0000 0.0000 0.9185 0.0000 0.0000
# 5 0.0000 0.0000 0.0000 0.0000 35.2574 0.0000
# 6 0.0000 0.0000 0.0000 0.0000 0.0000 1.0288
#
#
#
# Elastic Compliance Matrix: (Units=1/GPa)
#
#
# Indices 1 2 3 4 5 6 
#
# 1 0.010628 -0.003311 -0.003140 0.000000 0.000000 0.000000
# 2 -0.003311 0.024241 -0.005364 0.000000 0.000000 0.000000
# 3 -0.003140 -0.005364 0.011417 0.000000 0.000000 0.000000
# 4 0.000000 0.000000 0.000000 1.088679 0.000000 0.000000
# 5 0.000000 0.000000 0.000000 0.000000 0.028363 0.000000
# 6 0.000000 0.000000 0.000000 0.000000 0.000000 0.971968
#
#
# Mechanical properties :
#
#
# Convention : Reuss Voigt Hill
#
# Bulk Modulus (GPa) = 44.13984 53.39969 48.76976
# Shear Modulus (GPa) = 2.30789 19.48538 10.89663
#
# Velocity S-wave (km/s) = 1.08790 3.16107 2.36388
# Velocity P-wave (km/s) = 4.92072 6.38022 5.69740
#
# Compressibility (1/GPa) = 0.02265527
#
# Stress axis : x y z
#
# Youngs Moduli (GPa) = 94.09426 41.25218 87.59161
#
# Poissons Ratio (x) = 0.13658 0.27503
# Poissons Ratio (y) = 0.31153 0.46987
# Poissons Ratio (z) = 0.29545 0.22129
#
# Static dielectric constant tensor:
#      x y z
#    x 3.799410 0.000000 0.000000 
#    y 0.000000 3.027810 0.000000 
#    z 0.000000 0.000000 3.650790 
# 
# 
# High freq. dielectric constant tensor:
#      x y z
#    x 1.777970 0.000000 0.000000 
#    y 0.000000 1.701930 0.000000 
#    z 0.000000 0.000000 1.774450 
# 
# From -- ./inp_files/29513.got.cif
#   From: 2010.03.12/outbox.cif.g09.slc.cpg/sg51_15_cif.got.tgz:29513.got - 2010.04.16 13:43:02.
