data_PCOD8212276
_publ_section_title
;
Structure prediction by ZEFSAII (Michael W. Deem and Ramdas Pophale) SiO2 
 PCOD8212276
Probable space group: P M M A
;
_chemical_formula_sum "Si O2"
_cell_formula_units_Z 48
_cell_length_a 27.631360
_cell_length_b 9.384648
_cell_length_c 10.026651
_cell_angle_alpha 90.000000
_cell_angle_beta 90.000000
_cell_angle_gamma 90.000000
_cell_volume 2600.016760
_symmetry_space_group_name_H-M "P M M A"
_symmetry_group_IT_number 51
_symmetry_cell_setting 'orthorhombic'
loop_
_space_group_symop_operation_xyz
x,y,z
1/2-x,-y,z
1/2+x,-y,-z
-x,y,-z
-x,-y,-z
1/2+x,y,-z
1/2-x,y,z
x,-y,z
loop_
_atom_site_type_symbol
_atom_site_label
_atom_site_fract_x
_atom_site_fract_y
_atom_site_fract_z
Si Si1 0.250000 0.662521 0.094631
Si Si2 0.350497 0.164093 0.479804
Si Si3 0.145003 0.334479 0.998088
Si Si4 0.398442 0.834019 0.753489
Si Si5 0.093971 0.661952 0.268143
Si Si6 0.250000 0.167871 0.365118
Si Si7 0.511561 0.337397 0.349323
O O1 0.250000 0.500000 0.146315
O O2 0.297457 0.692800 0.006183
O O3 0.250000 0.763222 0.221034
O O4 0.360150 0.190062 0.635190
O O5 0.389507 0.249004 0.394976
O O6 0.296595 0.218991 0.448118
O O7 0.356653 0.000000 0.440652
O O8 0.133215 0.500000 0.970399
O O9 0.119236 0.281961 0.133869
O O10 0.123703 0.239341 0.882055
O O11 0.449560 0.765790 0.716020
O O12 0.406967 0.000000 0.782877
O O13 0.110083 0.500000 0.293857
O O14 0.036109 0.675064 0.257316
O O15 0.250000 0.000000 0.343882
O O16 0.500000 0.288267 0.500000
O O17 0.531081 0.500000 0.350499
#
# Coordination Sequence:
#
# PCOD8212276 Si02
#       7
#     4   8   8   8   8   4   8
#     4  10  20  37  62  88 114 148 192 239 288 340
#     4  10  21  36  56  84 115 147 188 236 284 337
#     4  10  22  39  59  85 119 152 189 239 290 345
#     4  11  24  39  57  84 119 159 196 237 288 343
#     4  10  20  36  61  88 112 147 191 238 290 344
#     4  10  20  35  58  86 114 146 186 235 288 342
#     4  10  20  36  61  88 114 150 194 241 297 351
#
# _framework density 18.46142
#
# number of rings (size 3 to 8) (size 9 to 14) (size 15 to 20)
#    0.000    1.833    3.333    0.500    0.000    4.333 
#    0.000    4.167    0.000    0.000    0.000    0.000 
#    0.000    0.000    0.000    0.000    0.000    0.000 
#
# Total GULP energy -595364.855077 kJ/mol
# GULP energy per Si atom -12403.434481 kJ/mol
# Density = 1.841940 g / cm^3
# Si number density = 18.461420 Si / 1000 Ang^3
#
#
#
# Elastic Constant Matrix: (Units=GPa)
#
#
# Indices 1 2 3 4 5 6 
#
# 1 108.1784 38.0533 40.2374 0.0000 0.0000 0.0000
# 2 38.0533 62.4367 43.6121 0.0000 0.0000 0.0000
# 3 40.2374 43.6121 95.4325 0.0000 0.0000 0.0000
# 4 0.0000 0.0000 0.0000 34.5392 0.0000 0.0000
# 5 0.0000 0.0000 0.0000 0.0000 33.5033 0.0000
# 6 0.0000 0.0000 0.0000 0.0000 0.0000 24.0942
#
#
#
# Elastic Compliance Matrix: (Units=1/GPa)
#
#
# Indices 1 2 3 4 5 6 
#
# 1 0.012178 -0.005634 -0.002560 0.000000 0.000000 0.000000
# 2 -0.005634 0.026133 -0.009567 0.000000 0.000000 0.000000
# 3 -0.002560 -0.009567 0.015930 0.000000 0.000000 0.000000
# 4 0.000000 0.000000 0.000000 0.028953 0.000000 0.000000
# 5 0.000000 0.000000 0.000000 0.000000 0.029848 0.000000
# 6 0.000000 0.000000 0.000000 0.000000 0.000000 0.041504
#
#
# Mechanical properties :
#
#
# Convention : Reuss Voigt Hill
#
# Bulk Modulus (GPa) = 53.42237 56.65037 55.03637
# Shear Modulus (GPa) = 25.47044 28.03699 26.75372
#
# Velocity S-wave (km/s) = 3.71840 3.90125 3.81092
# Velocity P-wave (km/s) = 6.88734 7.14461 7.01716
#
# Compressibility (1/GPa) = 0.01871875
#
# Stress axis : x y z
#
# Youngs Moduli (GPa) = 82.11517 38.26652 62.77466
#
# Poissons Ratio (x) = 0.21560 0.16070
# Poissons Ratio (y) = 0.46264 0.60056
# Poissons Ratio (z) = 0.21021 0.36609
#
# Static dielectric constant tensor:
#      x y z
#    x 3.701550 0.000000 0.000000 
#    y 0.000000 3.393470 0.000000 
#    z 0.000000 0.000000 3.305620 
# 
# 
# High freq. dielectric constant tensor:
#      x y z
#    x 1.728970 0.000000 0.000000 
#    y 0.000000 1.714110 0.000000 
#    z 0.000000 0.000000 1.710060 
# 
# From -- ./inp_files/12877.got.cif
#   From: 2010.03.12/outbox.cif.g09.slc.cpg/sg51_7_cif.got.tgz:12877.got - 2010.04.16 13:43:02.
