data_PCOD8212041
_publ_section_title
;
Structure prediction by ZEFSAII (Michael W. Deem and Ramdas Pophale) SiO2 
 PCOD8212041
Probable space group: P M M A
;
_chemical_formula_sum "Si O2"
_cell_formula_units_Z 44
_cell_length_a 8.754156
_cell_length_b 27.162495
_cell_length_c 9.976513
_cell_angle_alpha 90.000000
_cell_angle_beta 90.000000
_cell_angle_gamma 90.000000
_cell_volume 2372.262336
_symmetry_space_group_name_H-M "P M M A"
_symmetry_group_IT_number 51
_symmetry_cell_setting 'orthorhombic'
loop_
_space_group_symop_operation_xyz
x,y,z
1/2-x,-y,z
1/2+x,-y,-z
-x,y,-z
-x,-y,-z
1/2+x,y,-z
1/2-x,y,z
x,-y,z
loop_
_atom_site_type_symbol
_atom_site_label
_atom_site_fract_x
_atom_site_fract_y
_atom_site_fract_z
Si Si1 0.430224 0.762190 0.139421
Si Si2 0.929061 0.688651 0.637939
Si Si3 0.433109 0.500000 0.848920
Si Si4 0.927445 0.943318 0.358435
Si Si5 0.431254 0.424321 0.356652
Si Si6 0.570113 0.126440 0.859669
O O1 0.250000 0.758049 0.128435
O O2 0.496600 0.724512 0.248844
O O3 0.480603 0.817797 0.175848
O O4 0.500000 0.745044 0.000000
O O5 0.750000 0.694855 0.626055
O O6 0.973443 0.632446 0.669492
O O7 0.000000 0.706818 0.500000
O O8 0.250000 0.500000 0.856928
O O9 0.491861 0.452640 0.766989
O O10 0.500000 0.500000 0.000000
O O11 0.750000 0.930534 0.363691
O O12 0.000000 0.930204 0.500000
O O13 0.009242 0.909911 0.251113
O O14 0.956578 0.000000 0.320281
O O15 0.500000 0.441685 0.500000
O O16 0.250000 0.434106 0.358442
O O17 0.750000 0.121742 0.869777
O O18 0.500000 0.109665 0.000000
#
# Coordination Sequence:
#
# PCOD8212041 Si02
#       6
#     8   8   4   8   8   8
#     4   9  19  35  53  77 107 140 176 215 261 311
#     4   9  19  35  55  80 109 139 176 218 259 308
#     4  12  25  40  57  80 110 142 178 222 269 318
#     4  10  21  37  56  78 105 137 174 217 266 318
#     4  10  20  37  59  82 109 143 181 220 263 314
#     4  10  20  35  55  78 107 141 179 220 262 313
#
# _framework density 18.547695999999998
#
# number of rings (size 3 to 8) (size 9 to 14) (size 15 to 20)
#    0.000    2.182    0.000    2.727    0.000    5.091 
#    0.000    3.636    0.000    0.000    0.000    0.000 
#    0.000    0.000    0.000    0.000    0.000    0.000 
#
# Total GULP energy -545654.501443 kJ/mol
# GULP energy per Si atom -12401.238669 kJ/mol
# Density = 1.850548 g / cm^3
# Si number density = 18.547696 Si / 1000 Ang^3
#
#
#
# Elastic Constant Matrix: (Units=GPa)
#
#
# Indices 1 2 3 4 5 6 
#
# 1 73.6219 39.3470 59.4079 0.0000 0.0000 0.0000
# 2 39.3470 98.9868 90.4927 0.0000 0.0000 0.0000
# 3 59.4079 90.4927 163.4284 0.0000 0.0000 0.0000
# 4 0.0000 0.0000 0.0000 3.5730 0.0000 0.0000
# 5 0.0000 0.0000 0.0000 0.0000 38.7446 0.0000
# 6 0.0000 0.0000 0.0000 0.0000 0.0000 12.8362
#
#
#
# Elastic Compliance Matrix: (Units=1/GPa)
#
#
# Indices 1 2 3 4 5 6 
#
# 1 0.019541 -0.002579 -0.005675 0.000000 0.000000 0.000000
# 2 -0.002579 0.020799 -0.010579 0.000000 0.000000 0.000000
# 3 -0.005675 -0.010579 0.014040 0.000000 0.000000 0.000000
# 4 0.000000 0.000000 0.000000 0.279875 0.000000 0.000000
# 5 0.000000 0.000000 0.000000 0.000000 0.025810 0.000000
# 6 0.000000 0.000000 0.000000 0.000000 0.000000 0.077905
#
#
# Mechanical properties :
#
#
# Convention : Reuss Voigt Hill
#
# Bulk Modulus (GPa) = 59.83572 79.39248 69.61410
# Shear Modulus (GPa) = 10.39053 20.81671 15.60362
#
# Velocity S-wave (km/s) = 2.36943 3.35376 2.90361
# Velocity P-wave (km/s) = 6.31000 7.60883 6.98965
#
# Compressibility (1/GPa) = 0.01671242
#
# Stress axis : x y z
#
# Youngs Moduli (GPa) = 51.17488 48.07947 71.22704
#
# Poissons Ratio (x) = 0.12401 0.40422
# Poissons Ratio (y) = 0.13200 0.75351
# Poissons Ratio (z) = 0.29042 0.50863
#
# Static dielectric constant tensor:
#      x y z
#    x 3.466360 0.000000 0.000000 
#    y 0.000000 3.613350 0.000000 
#    z 0.000000 0.000000 3.497490 
# 
# 
# High freq. dielectric constant tensor:
#      x y z
#    x 1.727780 0.000000 0.000000 
#    y 0.000000 1.725890 0.000000 
#    z 0.000000 0.000000 1.724320 
# 
# From -- ./inp_files/5853.got.cif
#   From: 2010.03.12/outbox.cif.g09.slc.cpg/sg51_3_cif.got.tgz:5853.got - 2010.04.16 13:43:02.
