data_PCOD8212059
_publ_section_title
;
Structure prediction by ZEFSAII (Michael W. Deem and Ramdas Pophale) SiO2 
 PCOD8212059
Probable space group: P M M A
;
_chemical_formula_sum "Si O2"
_cell_formula_units_Z 64
_cell_length_a 8.930845
_cell_length_b 23.485748
_cell_length_c 15.265165
_cell_angle_alpha 90.000000
_cell_angle_beta 90.000000
_cell_angle_gamma 90.000000
_cell_volume 3201.831342
_symmetry_space_group_name_H-M "P M M A"
_symmetry_group_IT_number 51
_symmetry_cell_setting 'orthorhombic'
loop_
_space_group_symop_operation_xyz
x,y,z
1/2-x,-y,z
1/2+x,-y,-z
-x,y,-z
-x,-y,-z
1/2+x,y,-z
1/2-x,y,z
x,-y,z
loop_
_atom_site_type_symbol
_atom_site_label
_atom_site_fract_x
_atom_site_fract_y
_atom_site_fract_z
Si Si1 0.914341 0.064816 0.080164
Si Si2 0.427145 0.604402 0.591043
Si Si3 0.078173 0.435077 0.237377
Si Si4 0.574930 0.735204 0.411252
Si Si5 0.926256 0.937095 0.738739
Si Si6 0.925468 0.229273 0.089283
Si Si7 0.573727 0.175239 0.270787
Si Si8 0.927351 0.359253 0.090780
O O1 0.750000 0.093824 0.097709
O O2 0.021800 0.068925 0.162173
O O3 0.883732 0.000000 0.054016
O O4 0.000000 0.095808 0.000000
O O5 0.500000 0.584037 0.500000
O O6 0.250000 0.593781 0.587854
O O7 0.500558 0.568191 0.668057
O O8 0.467752 0.670248 0.609048
O O9 0.250000 0.414572 0.243878
O O10 0.069313 0.500000 0.204821
O O11 0.989101 0.396465 0.169611
O O12 0.500000 0.757241 0.500000
O O13 0.750000 0.742364 0.423718
O O14 0.515067 0.773285 0.331019
O O15 0.750000 0.930602 0.732481
O O16 0.003260 0.883559 0.690626
O O17 0.974924 0.000000 0.701933
O O18 0.750000 0.227285 0.075327
O O19 0.974790 0.188572 0.170185
O O20 0.974404 0.294040 0.109729
O O21 0.000000 0.206821 0.000000
O O22 0.750000 0.169375 0.278399
O O23 0.750000 0.367087 0.085265
O O24 0.000000 0.380354 0.000000
#
# Coordination Sequence:
#
# PCOD8212059 Si02
#       8
#     8   8   8   8   8   8   8   8
#     4   9  16  27  44  64  87 120 163 208 252 298
#     4  10  20  37  61  87 116 149 183 222 274 333
#     4  11  24  39  55  80 114 152 196 240 279 325
#     4   9  19  36  59  87 114 139 172 219 273 329
#     4  10  21  35  49  69  99 135 176 218 260 311
#     4   9  19  35  55  81 111 142 178 222 271 325
#     4  10  20  35  55  79 109 142 175 216 268 323
#     4  10  20  37  60  83 110 146 188 235 287 337
#
# _framework density 19.988562000000002
#
# number of rings (size 3 to 8) (size 9 to 14) (size 15 to 20)
#    0.000    2.250    0.000    2.625    0.000    8.250 
#    0.000    2.500    0.000    0.375    0.000    0.000 
#    0.000    0.000    0.000    0.000    0.000    0.000 
#
# Total GULP energy -793428.721481 kJ/mol
# GULP energy per Si atom -12397.323773 kJ/mol
# Density = 1.994307 g / cm^3
# Si number density = 19.988562 Si / 1000 Ang^3
#
#
#
# Elastic Constant Matrix: (Units=GPa)
#
#
# Indices 1 2 3 4 5 6 
#
# 1 66.2432 31.3175 31.0810 0.0000 0.0000 0.0000
# 2 31.3175 89.2284 28.4411 0.0000 0.0000 0.0000
# 3 31.0810 28.4411 75.9356 0.0000 0.0000 0.0000
# 4 0.0000 0.0000 0.0000 -190.7518 0.0000 0.0000
# 5 0.0000 0.0000 0.0000 0.0000 34.6411 0.0000
# 6 0.0000 0.0000 0.0000 0.0000 0.0000 23.5450
#
#
#
# Elastic Compliance Matrix: (Units=1/GPa)
#
#
# Indices 1 2 3 4 5 6 
#
# 1 0.020579 -0.005153 -0.006493 0.000000 0.000000 0.000000
# 2 -0.005153 0.014017 -0.003141 0.000000 0.000000 0.000000
# 3 -0.006493 -0.003141 0.017003 0.000000 0.000000 0.000000
# 4 0.000000 0.000000 0.000000 -0.005242 0.000000 0.000000
# 5 0.000000 0.000000 0.000000 0.000000 0.028867 0.000000
# 6 0.000000 0.000000 0.000000 0.000000 0.000000 0.042472
#
#
# Mechanical properties :
#
#
# Convention : Reuss Voigt Hill
#
# Bulk Modulus (GPa) = 45.40296 45.89848 45.65072
# Shear Modulus (GPa) = 32.33933 -17.14197 7.59868
#
# Velocity S-wave (km/s) = 4.02667 -2.93164 1.95186
# Velocity P-wave (km/s) = 6.66202 3.39895 5.28845
#
# Compressibility (1/GPa) = 0.02202500
#
# Stress axis : x y z
#
# Youngs Moduli (GPa) = 48.59429 71.34228 58.81321
#
# Poissons Ratio (x) = 0.36763 0.38187
# Poissons Ratio (y) = 0.25041 0.18472
# Poissons Ratio (z) = 0.31552 0.22407
#
# Static dielectric constant tensor:
#      x y z
#    x 3.552600 0.000000 0.000000 
#    y 0.000000 3.923060 0.000000 
#    z 0.000000 0.000000 3.576270 
# 
# 
# High freq. dielectric constant tensor:
#      x y z
#    x 1.782690 0.000000 0.000000 
#    y 0.000000 1.788450 0.000000 
#    z 0.000000 0.000000 1.759540 
# 
# From -- ./inp_files/22386.got.cif
#   From: 2010.03.12/outbox.cif.g09.slc.cpg/sg51_12_cif.got.tgz:22386.got - 2010.04.16 13:43:02.
