data_PCOD8212733
_publ_section_title
;
Structure prediction by ZEFSAII (Michael W. Deem and Ramdas Pophale) SiO2 
 PCOD8212733
Probable space group: P M M A
;
_chemical_formula_sum "Si O2"
_cell_formula_units_Z 48
_cell_length_a 17.368897
_cell_length_b 15.563611
_cell_length_c 8.991462
_cell_angle_alpha 90.000000
_cell_angle_beta 90.000000
_cell_angle_gamma 90.000000
_cell_volume 2430.596792
_symmetry_space_group_name_H-M "P M M A"
_symmetry_group_IT_number 51
_symmetry_cell_setting 'orthorhombic'
loop_
_space_group_symop_operation_xyz
x,y,z
1/2-x,-y,z
1/2+x,-y,-z
-x,y,-z
-x,-y,-z
1/2+x,y,-z
1/2-x,y,z
x,-y,z
loop_
_atom_site_type_symbol
_atom_site_label
_atom_site_fract_x
_atom_site_fract_y
_atom_site_fract_z
Si Si1 0.159873 0.326316 0.941778
Si Si2 0.158985 0.675174 0.602928
Si Si3 0.841651 0.835774 0.861576
Si Si4 0.417679 0.500000 0.934367
Si Si5 0.159123 0.000000 0.619652
Si Si6 0.918685 0.500000 0.417082
Si Si7 0.840532 0.000000 0.049994
Si Si8 0.588771 0.160957 0.542829
O O1 0.250000 0.337635 0.945401
O O2 0.133555 0.307491 0.772955
O O3 0.125136 0.416056 0.996662
O O4 0.133832 0.250155 0.050591
O O5 0.250000 0.678516 0.583176
O O6 0.129331 0.584456 0.538587
O O7 0.120139 0.747577 0.505450
O O8 0.750000 0.836913 0.823286
O O9 0.895225 0.844396 0.718007
O O10 0.866607 0.915195 0.963835
O O11 0.427223 0.500000 0.758806
O O12 0.500000 0.500000 0.000000
O O13 0.122592 0.000000 0.785202
O O14 0.134130 0.915148 0.535065
O O15 0.250000 0.000000 0.627353
O O16 0.000000 0.500000 0.500000
O O17 0.750000 0.000000 0.067890
O O18 0.500000 0.151774 0.500000
#
# Coordination Sequence:
#
# PCOD8212733 Si02
#       8
#     8   8   8   4   4   4   4   8
#     4   9  19  36  59  84 111 145 194 243 283 334
#     4  10  20  38  61  84 111 153 200 240 286 346
#     4  10  20  37  60  86 114 148 188 236 287 338
#     4  10  21  35  55  81 113 152 187 229 292 347
#     4  11  22  41  65  86 111 151 196 235 280 346
#     4  10  21  37  57  85 119 152 190 241 290 337
#     4   9  19  37  64  90 110 139 188 239 280 330
#     4  12  25  39  56  86 123 155 188 234 289 344
#
# _framework density 19.748238000000001
#
# number of rings (size 3 to 8) (size 9 to 14) (size 15 to 20)
#    0.000    1.833    0.000    4.250    0.000    9.333 
#    0.000    3.333    0.000    3.000    0.000    0.000 
#    0.000    0.000    0.000    0.000    0.000    0.000 
#
# Total GULP energy -595235.178428 kJ/mol
# GULP energy per Si atom -12400.732884 kJ/mol
# Density = 1.970329 g / cm^3
# Si number density = 19.748238 Si / 1000 Ang^3
#
#
#
# Elastic Constant Matrix: (Units=GPa)
#
#
# Indices 1 2 3 4 5 6 
#
# 1 57.4476 33.1264 38.9439 0.0000 0.0000 0.0000
# 2 33.1264 169.2183 77.0432 0.0000 0.0000 0.0000
# 3 38.9439 77.0432 118.6063 0.0000 0.0000 0.0000
# 4 0.0000 0.0000 0.0000 31.0210 0.0000 0.0000
# 5 0.0000 0.0000 0.0000 0.0000 29.3271 0.0000
# 6 0.0000 0.0000 0.0000 0.0000 0.0000 17.0156
#
#
#
# Elastic Compliance Matrix: (Units=1/GPa)
#
#
# Indices 1 2 3 4 5 6 
#
# 1 0.022652 -0.001488 -0.006471 0.000000 0.000000 0.000000
# 2 -0.001488 0.008489 -0.005026 0.000000 0.000000 0.000000
# 3 -0.006471 -0.005026 0.013820 0.000000 0.000000 0.000000
# 4 0.000000 0.000000 0.000000 0.032236 0.000000 0.000000
# 5 0.000000 0.000000 0.000000 0.000000 0.034098 0.000000
# 6 0.000000 0.000000 0.000000 0.000000 0.000000 0.058770
#
#
# Mechanical properties :
#
#
# Convention : Reuss Voigt Hill
#
# Bulk Modulus (GPa) = 52.65399 71.49990 62.07695
# Shear Modulus (GPa) = 24.70777 28.54998 26.62888
#
# Velocity S-wave (km/s) = 3.54098 3.80636 3.67606
# Velocity P-wave (km/s) = 6.59079 7.45668 7.03707
#
# Compressibility (1/GPa) = 0.01899191
#
# Stress axis : x y z
#
# Youngs Moduli (GPa) = 44.14617 117.80064 72.35679
#
# Poissons Ratio (x) = 0.17531 0.46822
# Poissons Ratio (y) = 0.06570 0.36363
# Poissons Ratio (z) = 0.28567 0.59201
#
# Static dielectric constant tensor:
#      x y z
#    x 3.783220 0.000000 0.000000 
#    y 0.000000 3.960760 0.000000 
#    z 0.000000 0.000000 3.756670 
# 
# 
# High freq. dielectric constant tensor:
#      x y z
#    x 1.759210 0.000000 0.000000 
#    y 0.000000 1.792890 0.000000 
#    z 0.000000 0.000000 1.771760 
# 
# From -- ./inp_files/9775.got.cif
#   From: 2010.03.12/outbox.cif.g09.slc.cpg/sg51_5_cif.got.tgz:9775.got - 2010.04.16 13:43:02.
