data_PCOD8212564
_publ_section_title
;
Structure prediction by ZEFSAII (Michael W. Deem and Ramdas Pophale) SiO2 
 PCOD8212564
Probable space group: P M M A
;
_chemical_formula_sum "Si O2"
_cell_formula_units_Z 64
_cell_length_a 17.285087
_cell_length_b 21.674512
_cell_length_c 8.894595
_cell_angle_alpha 90.000000
_cell_angle_beta 90.000000
_cell_angle_gamma 90.000000
_cell_volume 3332.322887
_symmetry_space_group_name_H-M "P M M A"
_symmetry_group_IT_number 51
_symmetry_cell_setting 'orthorhombic'
loop_
_space_group_symop_operation_xyz
x,y,z
1/2-x,-y,z
1/2+x,-y,-z
-x,y,-z
-x,-y,-z
1/2+x,y,-z
1/2-x,y,z
x,-y,z
loop_
_atom_site_type_symbol
_atom_site_label
_atom_site_fract_x
_atom_site_fract_y
_atom_site_fract_z
Si Si1 0.424871 0.288597 0.598324
Si Si2 0.158856 0.115451 0.299946
Si Si3 0.158301 0.568593 0.090047
Si Si4 0.995696 0.070159 0.827622
Si Si5 0.664762 0.646507 0.641946
Si Si6 0.164471 0.241507 0.136499
Si Si7 0.579114 0.151570 0.412292
Si Si8 0.578534 0.328382 0.071047
O O1 0.500000 0.279586 0.500000
O O2 0.373854 0.340653 0.517389
O O3 0.388427 0.220330 0.625664
O O4 0.441892 0.318140 0.757433
O O5 0.250000 0.096027 0.275188
O O6 0.093859 0.069961 0.231466
O O7 0.137530 0.178212 0.212021
O O8 0.143882 0.120354 0.479809
O O9 0.250000 0.567373 0.100089
O O10 0.124695 0.500000 0.061963
O O11 0.124766 0.595390 0.249030
O O12 0.137991 0.615126 0.954038
O O13 0.058303 0.111393 0.735383
O O14 0.025103 0.000000 0.813956
O O15 0.000000 0.092859 0.000000
O O16 0.750000 0.622997 0.603714
O O17 0.664945 0.710961 0.727917
O O18 0.250000 0.234838 0.065772
O O19 0.107782 0.264268 0.004188
O O20 0.500000 0.157917 0.500000
O O21 0.500000 0.351755 0.000000
#
# Coordination Sequence:
#
# PCOD8212564 Si02
#       8
#     8   8   8   8   8   8   8   8
#     4  11  21  33  51  82 117 148 182 232 289 343
#     4  10  20  36  59  87 117 151 195 249 301 352
#     4   9  19  39  61  79 107 151 196 233 279 343
#     4  10  23  41  61  84 116 159 205 249 291 352
#     4   9  17  32  55  78 107 142 179 226 280 337
#     4   9  18  34  52  78 113 145 180 227 286 343
#     4   9  20  34  57  82 113 152 192 235 289 354
#     4  11  23  32  54  83 113 151 189 235 283 338
#
# _framework density 19.205822000000001
#
# number of rings (size 3 to 8) (size 9 to 14) (size 15 to 20)
#    0.000    2.250    1.250    2.625    5.250    3.750 
#    0.000    1.250    0.000    3.750    0.000    0.000 
#    0.000    0.000    0.000    0.000    0.000    0.000 
#
# Total GULP energy -792930.337009 kJ/mol
# GULP energy per Si atom -12389.536516 kJ/mol
# Density = 1.916211 g / cm^3
# Si number density = 19.205822 Si / 1000 Ang^3
#
#
#
# Elastic Constant Matrix: (Units=GPa)
#
#
# Indices 1 2 3 4 5 6 
#
# 1 54.9797 8.6665 27.9477 0.0000 0.0000 0.0000
# 2 8.6665 86.8938 44.7172 0.0000 0.0000 0.0000
# 3 27.9477 44.7172 134.2764 0.0000 0.0000 0.0000
# 4 0.0000 0.0000 0.0000 18.1111 0.0000 0.0000
# 5 0.0000 0.0000 0.0000 0.0000 30.4582 0.0000
# 6 0.0000 0.0000 0.0000 0.0000 0.0000 30.5329
#
#
#
# Elastic Compliance Matrix: (Units=1/GPa)
#
#
# Indices 1 2 3 4 5 6 
#
# 1 0.020343 0.000181 -0.004294 0.000000 0.000000 0.000000
# 2 0.000181 0.013890 -0.004663 0.000000 0.000000 0.000000
# 3 -0.004294 -0.004663 0.009894 0.000000 0.000000 0.000000
# 4 0.000000 0.000000 0.000000 0.055215 0.000000 0.000000
# 5 0.000000 0.000000 0.000000 0.000000 0.032832 0.000000
# 6 0.000000 0.000000 0.000000 0.000000 0.000000 0.032752
#
#
# Mechanical properties :
#
#
# Convention : Reuss Voigt Hill
#
# Bulk Modulus (GPa) = 37.63118 48.75698 43.19408
# Shear Modulus (GPa) = 26.13193 28.80834 27.47013
#
# Velocity S-wave (km/s) = 3.69267 3.87716 3.78604
# Velocity P-wave (km/s) = 6.14957 6.74424 6.45376
#
# Compressibility (1/GPa) = 0.02657371
#
# Stress axis : x y z
#
# Youngs Moduli (GPa) = 49.15702 71.99360 101.06959
#
# Poissons Ratio (x) = -0.01303 0.43403
# Poissons Ratio (y) = -0.00890 0.47133
# Poissons Ratio (z) = 0.21110 0.33574
#
# Static dielectric constant tensor:
#      x y z
#    x 3.626400 0.000000 0.000000 
#    y 0.000000 3.603440 0.000000 
#    z 0.000000 0.000000 3.513350 
# 
# 
# High freq. dielectric constant tensor:
#      x y z
#    x 1.733650 0.000000 0.000000 
#    y 0.000000 1.735010 0.000000 
#    z 0.000000 0.000000 1.739570 
# 
# From -- ./inp_files/10030.got.cif
#   From: 2010.03.12/outbox.cif.g09.slc.cpg/sg51_6_cif.got.tgz:10030.got - 2010.04.16 13:43:02.
