data_PCOD8212372
_publ_section_title
;
Structure prediction by ZEFSAII (Michael W. Deem and Ramdas Pophale) SiO2 
 PCOD8212372
Probable space group: P M M A
;
_chemical_formula_sum "Si O2"
_cell_formula_units_Z 44
_cell_length_a 9.364897
_cell_length_b 15.650052
_cell_length_c 15.714733
_cell_angle_alpha 90.000000
_cell_angle_beta 90.000000
_cell_angle_gamma 90.000000
_cell_volume 2303.168948
_symmetry_space_group_name_H-M "P M M A"
_symmetry_group_IT_number 51
_symmetry_cell_setting 'orthorhombic'
loop_
_space_group_symop_operation_xyz
x,y,z
1/2-x,-y,z
1/2+x,-y,-z
-x,y,-z
-x,-y,-z
1/2+x,y,-z
1/2-x,y,z
x,-y,z
loop_
_atom_site_type_symbol
_atom_site_label
_atom_site_fract_x
_atom_site_fract_y
_atom_site_fract_z
Si Si1 0.081011 0.500000 0.829387
Si Si2 0.087061 0.903976 0.660598
Si Si3 0.586424 0.500000 0.372223
Si Si4 0.913376 0.774845 0.761155
Si Si5 0.594287 0.343333 0.612935
Si Si6 0.081015 0.658125 0.086909
Si Si7 0.500000 0.201481 0.500000
O O1 0.250000 0.500000 0.853525
O O2 0.060855 0.500000 0.728412
O O3 0.001166 0.581157 0.867954
O O4 0.250000 0.905124 0.688902
O O5 0.004543 0.858063 0.737661
O O6 0.075759 0.857378 0.569730
O O7 0.026620 0.000000 0.650953
O O8 0.750000 0.500000 0.398965
O O9 0.517042 0.416136 0.414648
O O10 0.750000 0.798584 0.742060
O O11 0.960882 0.695420 0.702121
O O12 0.936024 0.744747 0.857942
O O13 0.750000 0.385651 0.624225
O O14 0.610248 0.265535 0.546007
O O15 0.250000 0.636223 0.074270
O O16 0.000000 0.678017 0.000000
#
# Coordination Sequence:
#
# PCOD8212372 Si02
#       7
#     4   8   4   8   8   8   4
#     4  11  22  36  54  82 113 150 192 234 280 325
#     4  10  21  37  60  88 115 143 178 225 279 335
#     4  11  23  35  53  77 106 145 192 237 277 320
#     4   9  20  37  57  81 111 147 184 224 276 333
#     4  10  20  36  56  76 104 146 190 230 275 326
#     4  11  22  37  57  84 116 151 188 232 278 326
#     4  10  21  37  56  84 112 144 182 227 279 330
#
# _framework density 19.104113000000002
#
# number of rings (size 3 to 8) (size 9 to 14) (size 15 to 20)
#    0.000    1.818    1.818    2.182    0.000    7.273 
#    0.000    0.000    0.000    0.545    0.000    0.000 
#    0.000    0.000    0.000    0.000    0.000    0.000 
#
# Total GULP energy -545451.617201 kJ/mol
# GULP energy per Si atom -12396.627664 kJ/mol
# Density = 1.906063 g / cm^3
# Si number density = 19.104113 Si / 1000 Ang^3
#
#
#
# Elastic Constant Matrix: (Units=GPa)
#
#
# Indices 1 2 3 4 5 6 
#
# 1 111.3025 69.4355 35.2730 0.0000 0.0000 0.0000
# 2 69.4355 139.1236 46.9572 0.0000 0.0000 0.0000
# 3 35.2730 46.9572 86.7036 0.0000 0.0000 0.0000
# 4 0.0000 0.0000 0.0000 18.2547 0.0000 0.0000
# 5 0.0000 0.0000 0.0000 0.0000 24.0490 0.0000
# 6 0.0000 0.0000 0.0000 0.0000 0.0000 32.2798
#
#
#
# Elastic Compliance Matrix: (Units=1/GPa)
#
#
# Indices 1 2 3 4 5 6 
#
# 1 0.013392 -0.005929 -0.002237 0.000000 0.000000 0.000000
# 2 -0.005929 0.011420 -0.003773 0.000000 0.000000 0.000000
# 3 -0.002237 -0.003773 0.014487 0.000000 0.000000 0.000000
# 4 0.000000 0.000000 0.000000 0.054781 0.000000 0.000000
# 5 0.000000 0.000000 0.000000 0.000000 0.041582 0.000000
# 6 0.000000 0.000000 0.000000 0.000000 0.000000 0.030979
#
#
# Mechanical properties :
#
#
# Convention : Reuss Voigt Hill
#
# Bulk Modulus (GPa) = 64.84530 71.16235 68.00383
# Shear Modulus (GPa) = 25.55451 27.28095 26.41773
#
# Velocity S-wave (km/s) = 3.66135 3.78301 3.72268
# Velocity P-wave (km/s) = 7.20353 7.51080 7.35877
#
# Compressibility (1/GPa) = 0.01542132
#
# Stress axis : x y z
#
# Youngs Moduli (GPa) = 74.67019 87.56273 69.02646
#
# Poissons Ratio (x) = 0.51914 0.15443
# Poissons Ratio (y) = 0.44271 0.26044
# Poissons Ratio (z) = 0.16706 0.33038
#
# Static dielectric constant tensor:
#      x y z
#    x 3.513220 0.000000 0.000000 
#    y 0.000000 3.419110 0.000000 
#    z 0.000000 0.000000 3.587490 
# 
# 
# High freq. dielectric constant tensor:
#      x y z
#    x 1.748290 0.000000 0.000000 
#    y 0.000000 1.732390 0.000000 
#    z 0.000000 0.000000 1.737350 
# 
# From -- ./inp_files/27445.got.cif
#   From: 2010.03.12/outbox.cif.g09.slc.cpg/sg51_14_cif.got.tgz:27445.got - 2010.04.16 13:43:02.
