data_PCOD8212898
_publ_section_title
;
Structure prediction by ZEFSAII (Michael W. Deem and Ramdas Pophale) SiO2 
 PCOD8212898
Probable space group: P M M A
;
_chemical_formula_sum "Si O2"
_cell_formula_units_Z 36
_cell_length_a 14.263846
_cell_length_b 13.559919
_cell_length_c 9.532083
_cell_angle_alpha 90.000000
_cell_angle_beta 90.000000
_cell_angle_gamma 90.000000
_cell_volume 1843.663050
_symmetry_space_group_name_H-M "P M M A"
_symmetry_group_IT_number 51
_symmetry_cell_setting 'orthorhombic'
loop_
_space_group_symop_operation_xyz
x,y,z
1/2-x,-y,z
1/2+x,-y,-z
-x,y,-z
-x,-y,-z
1/2+x,y,-z
1/2-x,y,z
x,-y,z
loop_
_atom_site_type_symbol
_atom_site_label
_atom_site_fract_x
_atom_site_fract_y
_atom_site_fract_z
Si Si1 0.500000 0.762133 0.000000
Si Si2 0.860678 0.393449 0.613281
Si Si3 0.361430 0.810684 0.505948
Si Si4 0.641693 0.388218 0.928666
Si Si5 0.503239 0.114441 0.722296
O O1 0.588556 0.690040 0.026861
O O2 0.518281 0.830304 0.867206
O O3 0.750000 0.397766 0.628028
O O4 0.897153 0.500000 0.555322
O O5 0.889701 0.304962 0.510154
O O6 0.898862 0.375550 0.770557
O O7 0.250000 0.828341 0.508919
O O8 0.405738 0.869841 0.375577
O O9 0.407701 0.847765 0.649206
O O10 0.750000 0.360806 0.937401
O O11 0.624143 0.500000 0.981534
O O12 0.491860 0.000000 0.755009
#
# Coordination Sequence:
#
# PCOD8212898 Si02
#       5
#     4   8   8   8   8
#     4  12  22  38  60  84 120 156 192 230 290 350
#     4   8  14  29  56  86 112 141 181 229 279 334
#     4  10  20  40  64  84 111 151 193 237 292 346
#     4   9  18  34  57  86 119 153 189 229 278 344
#     4  11  25  40  57  84 114 150 198 248 289 332
#
# _framework density 19.526346
#
# number of rings (size 3 to 8) (size 9 to 14) (size 15 to 20)
#    0.000    2.222    2.222    3.333    0.000    2.667 
#    0.000    4.444    0.000    6.667    0.000    0.000 
#    0.000    0.000    0.000    0.000    0.000    0.000 
#
# Total GULP energy -446254.362676 kJ/mol
# GULP energy per Si atom -12395.954519 kJ/mol
# Density = 1.948190 g / cm^3
# Si number density = 19.526346 Si / 1000 Ang^3
#
#
#
# Elastic Constant Matrix: (Units=GPa)
#
#
# Indices 1 2 3 4 5 6 
#
# 1 98.5072 38.2556 20.0174 0.0000 0.0000 0.0000
# 2 38.2556 143.3316 21.8176 0.0000 0.0000 0.0000
# 3 20.0174 21.8176 50.6270 0.0000 0.0000 0.0000
# 4 0.0000 0.0000 0.0000 14.5931 0.0000 0.0000
# 5 0.0000 0.0000 0.0000 0.0000 14.9770 0.0000
# 6 0.0000 0.0000 0.0000 0.0000 0.0000 26.1189
#
#
#
# Elastic Compliance Matrix: (Units=1/GPa)
#
#
# Indices 1 2 3 4 5 6 
#
# 1 0.011899 -0.002633 -0.003570 0.000000 0.000000 0.000000
# 2 -0.002633 0.008049 -0.002428 0.000000 0.000000 0.000000
# 3 -0.003570 -0.002428 0.022210 0.000000 0.000000 0.000000
# 4 0.000000 0.000000 0.000000 0.068526 0.000000 0.000000
# 5 0.000000 0.000000 0.000000 0.000000 0.066769 0.000000
# 6 0.000000 0.000000 0.000000 0.000000 0.000000 0.038286
#
#
# Mechanical properties :
#
#
# Convention : Reuss Voigt Hill
#
# Bulk Modulus (GPa) = 40.16521 50.29412 45.22966
# Shear Modulus (GPa) = 20.72107 25.29615 23.00861
#
# Velocity S-wave (km/s) = 3.26112 3.60319 3.43642
# Velocity P-wave (km/s) = 5.89867 6.56686 6.24171
#
# Compressibility (1/GPa) = 0.02489717
#
# Stress axis : x y z
#
# Youngs Moduli (GPa) = 84.03771 124.23885 45.02419
#
# Poissons Ratio (x) = 0.32706 0.16076
# Poissons Ratio (y) = 0.22123 0.10931
# Poissons Ratio (z) = 0.30005 0.30163
#
# Static dielectric constant tensor:
#      x y z
#    x 3.411680 0.000000 0.000000 
#    y 0.000000 3.954380 0.000000 
#    z 0.000000 0.000000 3.354180 
# 
# 
# High freq. dielectric constant tensor:
#      x y z
#    x 1.752570 0.000000 0.000000 
#    y 0.000000 1.778290 0.000000 
#    z 0.000000 0.000000 1.731110 
# 
# From -- ./inp_files/7817.got.cif
#   From: 2010.03.12/outbox.cif.g09.slc.cpg/sg51_4_cif.got.tgz:7817.got - 2010.04.16 13:43:02.
