data_PCOD8212989
_publ_section_title
;
Structure prediction by ZEFSAII (Michael W. Deem and Ramdas Pophale) SiO2 
 PCOD8212989
Probable space group: P M M A
;
_chemical_formula_sum "Si O2"
_cell_formula_units_Z 40
_cell_length_a 16.938972
_cell_length_b 9.572927
_cell_length_c 12.729752
_cell_angle_alpha 90.000000
_cell_angle_beta 90.000000
_cell_angle_gamma 90.000000
_cell_volume 2064.199840
_symmetry_space_group_name_H-M "P M M A"
_symmetry_group_IT_number 51
_symmetry_cell_setting 'orthorhombic'
loop_
_space_group_symop_operation_xyz
x,y,z
1/2-x,-y,z
1/2+x,-y,-z
-x,y,-z
-x,-y,-z
1/2+x,y,-z
1/2-x,y,z
x,-y,z
loop_
_atom_site_type_symbol
_atom_site_label
_atom_site_fract_x
_atom_site_fract_y
_atom_site_fract_z
Si Si1 0.657913 0.154550 0.639777
Si Si2 0.341930 0.345812 0.179235
Si Si3 0.915238 0.664813 0.033297
Si Si4 0.910847 0.661845 0.465942
Si Si5 0.839320 0.664916 0.245431
O O1 0.750000 0.137334 0.659651
O O2 0.619070 0.238598 0.737841
O O3 0.645890 0.241433 0.534098
O O4 0.619073 0.000000 0.632131
O O5 0.250000 0.356707 0.201258
O O6 0.380852 0.500000 0.195954
O O7 0.355466 0.295277 0.060313
O O8 0.922813 0.500000 0.048968
O O9 0.881604 0.729990 0.141816
O O10 0.000000 0.728291 0.000000
O O11 0.889408 0.500000 0.486375
O O12 0.893855 0.703346 0.345303
O O13 0.000000 0.694364 0.500000
O O14 0.750000 0.725586 0.257406
O O15 0.833022 0.500000 0.232656
#
# Coordination Sequence:
#
# PCOD8212989 Si02
#       5
#     8   8   8   8   8
#     4  10  21  36  54  76 105 142 180 218 264 319
#     4   9  17  30  51  77 103 133 171 214 260 314
#     4   9  17  27  46  75 107 136 166 211 265 316
#     4  10  21  34  54  81 108 138 178 225 271 319
#     4   9  17  30  48  73 106 140 172 211 264 322
#
# _framework density 19.377967000000002
#
# number of rings (size 3 to 8) (size 9 to 14) (size 15 to 20)
#    0.000    2.600    0.000    1.800    2.800    4.800 
#    0.000    0.000    0.000    1.800    0.000    2.800 
#    0.000    0.000    0.000    0.000    0.000    0.000 
#
# Total GULP energy -495800.920100 kJ/mol
# GULP energy per Si atom -12395.023003 kJ/mol
# Density = 1.933386 g / cm^3
# Si number density = 19.377967 Si / 1000 Ang^3
#
#
#
# Elastic Constant Matrix: (Units=GPa)
#
#
# Indices 1 2 3 4 5 6 
#
# 1 74.5607 14.5151 46.5430 0.0000 0.0000 0.0000
# 2 14.5151 70.8980 56.4473 0.0000 0.0000 0.0000
# 3 46.5430 56.4473 180.7558 0.0000 0.0000 0.0000
# 4 0.0000 0.0000 0.0000 0.7615 0.0000 0.0000
# 5 0.0000 0.0000 0.0000 0.0000 36.3134 0.0000
# 6 0.0000 0.0000 0.0000 0.0000 0.0000 10.0974
#
#
#
# Elastic Compliance Matrix: (Units=1/GPa)
#
#
# Indices 1 2 3 4 5 6 
#
# 1 0.015981 0.000006 -0.004117 0.000000 0.000000 0.000000
# 2 0.000006 0.018772 -0.005864 0.000000 0.000000 0.000000
# 3 -0.004117 -0.005864 0.008424 0.000000 0.000000 0.000000
# 4 0.000000 0.000000 0.000000 1.313273 0.000000 0.000000
# 5 0.000000 0.000000 0.000000 0.000000 0.027538 0.000000
# 6 0.000000 0.000000 0.000000 0.000000 0.000000 0.099035
#
#
# Mechanical properties :
#
#
# Convention : Reuss Voigt Hill
#
# Bulk Modulus (GPa) = 43.05330 62.35837 52.70584
# Shear Modulus (GPa) = 3.30969 23.34838 13.32904
#
# Velocity S-wave (km/s) = 1.30831 3.47492 2.62552
# Velocity P-wave (km/s) = 4.95461 6.95342 6.03731
#
# Compressibility (1/GPa) = 0.02322702
#
# Stress axis : x y z
#
# Youngs Moduli (GPa) = 62.57623 53.27033 118.71544
#
# Poissons Ratio (x) = -0.00031 0.48871
# Poissons Ratio (y) = -0.00037 0.69612
# Poissons Ratio (z) = 0.25761 0.31237
#
# Static dielectric constant tensor:
#      x y z
#    x 3.448750 0.000000 0.000000 
#    y 0.000000 3.328720 0.000000 
#    z 0.000000 0.000000 3.749500 
# 
# 
# High freq. dielectric constant tensor:
#      x y z
#    x 1.744100 0.000000 0.000000 
#    y 0.000000 1.695700 0.000000 
#    z 0.000000 0.000000 1.770660 
# 
# From -- ./inp_files/17085.got.cif
#   From: 2010.03.12/outbox.cif.g09.slc.cpg/sg51_9_cif.got.tgz:17085.got - 2010.04.16 13:43:02.
