data_PCOD8212594
_publ_section_title
;
Structure prediction by ZEFSAII (Michael W. Deem and Ramdas Pophale) SiO2 
 PCOD8212594
Probable space group: P M M A
;
_chemical_formula_sum "Si O2"
_cell_formula_units_Z 48
_cell_length_a 10.107495
_cell_length_b 8.622147
_cell_length_c 28.812312
_cell_angle_alpha 90.000000
_cell_angle_beta 90.000000
_cell_angle_gamma 90.000000
_cell_volume 2510.944231
_symmetry_space_group_name_H-M "P M M A"
_symmetry_group_IT_number 51
_symmetry_cell_setting 'orthorhombic'
loop_
_space_group_symop_operation_xyz
x,y,z
1/2-x,-y,z
1/2+x,-y,-z
-x,y,-z
-x,-y,-z
1/2+x,y,-z
1/2-x,y,z
x,-y,z
loop_
_atom_site_type_symbol
_atom_site_label
_atom_site_fract_x
_atom_site_fract_y
_atom_site_fract_z
Si Si1 0.900953 0.319623 0.789674
Si Si2 0.250000 0.317655 0.452561
Si Si3 0.901438 0.180077 0.138151
Si Si4 0.750000 0.179357 0.446667
Si Si5 0.596273 0.820396 0.692974
Si Si6 0.099462 0.679063 0.960096
Si Si7 0.496517 0.682119 0.602416
O O1 0.750000 0.274319 0.803223
O O2 0.910815 0.500000 0.777895
O O3 0.948707 0.224928 0.744626
O O4 0.998306 0.279994 0.831471
O O5 0.250000 0.500000 0.447755
O O6 0.250000 0.274422 0.506026
O O7 0.378822 0.252922 0.426563
O O8 0.750000 0.224907 0.150708
O O9 0.929986 0.217297 0.084652
O O10 0.928146 0.000000 0.147233
O O11 0.874878 0.220666 0.415907
O O12 0.750000 0.000000 0.459653
O O13 0.750000 0.780909 0.686450
O O14 0.514745 0.717164 0.656710
O O15 0.565285 0.000000 0.684355
O O16 0.250000 0.703182 0.977502
O O17 0.073353 0.500000 0.947182
O O18 0.000000 0.735790 0.000000
O O19 0.471922 0.500000 0.594880
#
# Coordination Sequence:
#
# PCOD8212594 Si02
#       7
#     8   4   8   4   8   8   8
#     4  10  21  37  59  85 112 145 189 236 281 336
#     4  10  22  40  64  88 112 150 194 234 279 340
#     4  10  21  37  56  81 115 152 190 234 286 341
#     4  12  26  40  56  86 122 152 188 238 287 334
#     4  10  20  36  60  88 117 147 184 232 286 340
#     4   9  18  33  53  77 108 147 190 234 279 332
#     4  11  22  40  63  86 115 152 192 233 281 340
#
# _framework density 19.116315
#
# number of rings (size 3 to 8) (size 9 to 14) (size 15 to 20)
#    0.000    1.833    0.833    3.250    0.000    7.000 
#    1.500    1.667    0.000    0.000    0.000    0.000 
#    0.000    0.000    0.000    0.000    0.000    0.000 
#
# Total GULP energy -595422.377803 kJ/mol
# GULP energy per Si atom -12404.632871 kJ/mol
# Density = 1.907281 g / cm^3
# Si number density = 19.116315 Si / 1000 Ang^3
#
#
#
# Elastic Constant Matrix: (Units=GPa)
#
#
# Indices 1 2 3 4 5 6 
#
# 1 109.5485 19.2240 56.5586 0.0000 0.0000 0.0000
# 2 19.2240 34.1179 7.4642 0.0000 0.0000 0.0000
# 3 56.5586 7.4642 98.7508 0.0000 0.0000 0.0000
# 4 0.0000 0.0000 0.0000 28.0968 0.0000 0.0000
# 5 0.0000 0.0000 0.0000 0.0000 32.2843 0.0000
# 6 0.0000 0.0000 0.0000 0.0000 0.0000 57.6899
#
#
#
# Elastic Compliance Matrix: (Units=1/GPa)
#
#
# Indices 1 2 3 4 5 6 
#
# 1 0.014185 -0.006320 -0.007647 0.000000 0.000000 0.000000
# 2 -0.006320 0.032619 0.001154 0.000000 0.000000 0.000000
# 3 -0.007647 0.001154 0.014419 0.000000 0.000000 0.000000
# 4 0.000000 0.000000 0.000000 0.035591 0.000000 0.000000
# 5 0.000000 0.000000 0.000000 0.000000 0.030975 0.000000
# 6 0.000000 0.000000 0.000000 0.000000 0.000000 0.017334
#
#
# Mechanical properties :
#
#
# Convention : Reuss Voigt Hill
#
# Bulk Modulus (GPa) = 28.09170 45.43453 36.76312
# Shear Modulus (GPa) = 27.38015 34.22559 30.80287
#
# Velocity S-wave (km/s) = 3.78867 4.23589 4.01850
# Velocity P-wave (km/s) = 5.81943 6.90961 6.38782
#
# Compressibility (1/GPa) = 0.03559770
#
# Stress axis : x y z
#
# Youngs Moduli (GPa) = 70.49503 30.65735 69.35329
#
# Poissons Ratio (x) = 0.19375 0.53033
# Poissons Ratio (y) = 0.44552 -0.08004
# Poissons Ratio (z) = 0.53907 -0.03538
#
# Static dielectric constant tensor:
#      x y z
#    x 3.584600 0.000000 0.000000 
#    y 0.000000 3.473540 0.000000 
#    z 0.000000 0.000000 3.429900 
# 
# 
# High freq. dielectric constant tensor:
#      x y z
#    x 1.741270 0.000000 0.000000 
#    y 0.000000 1.747370 0.000000 
#    z 0.000000 0.000000 1.746710 
# 
# From -- ./inp_files/37156.got.cif
#   From: 2010.03.12/outbox.cif.g09.slc.cpg/sg51_19_cif.got.tgz:37156.got - 2010.04.16 13:43:02.
