data_PCOD8212062
_publ_section_title
;
Structure prediction by ZEFSAII (Michael W. Deem and Ramdas Pophale) SiO2 
 PCOD8212062
Probable space group: P M M A
;
_chemical_formula_sum "Si O2"
_cell_formula_units_Z 56
_cell_length_a 16.176558
_cell_length_b 8.895295
_cell_length_c 18.859370
_cell_angle_alpha 90.000000
_cell_angle_beta 90.000000
_cell_angle_gamma 90.000000
_cell_volume 2713.773865
_symmetry_space_group_name_H-M "P M M A"
_symmetry_group_IT_number 51
_symmetry_cell_setting 'orthorhombic'
loop_
_space_group_symop_operation_xyz
x,y,z
1/2-x,-y,z
1/2+x,-y,-z
-x,y,-z
-x,-y,-z
1/2+x,y,-z
1/2-x,y,z
x,-y,z
loop_
_atom_site_type_symbol
_atom_site_label
_atom_site_fract_x
_atom_site_fract_y
_atom_site_fract_z
Si Si1 0.497038 0.324113 0.917601
Si Si2 0.575275 0.173405 0.546233
Si Si3 0.657269 0.824054 0.158992
Si Si4 0.084171 0.821292 0.295318
Si Si5 0.157996 0.324754 0.168764
Si Si6 0.841743 0.170660 0.410192
Si Si7 0.583100 0.323496 0.285390
O O1 0.485080 0.500000 0.902755
O O2 0.415174 0.241925 0.889575
O O3 0.584125 0.267468 0.883148
O O4 0.500000 0.286229 0.000000
O O5 0.500000 0.244935 0.500000
O O6 0.592550 0.244108 0.623861
O O7 0.654324 0.196840 0.495170
O O8 0.554080 0.000000 0.560485
O O9 0.750000 0.793630 0.127849
O O10 0.654639 0.744643 0.236031
O O11 0.642107 0.000000 0.168793
O O12 0.156506 0.760844 0.244642
O O13 0.001705 0.752899 0.260071
O O14 0.083681 0.000000 0.293808
O O15 0.250000 0.293522 0.135854
O O16 0.146314 0.500000 0.183634
O O17 0.750000 0.203763 0.384500
O O18 0.901815 0.281301 0.367536
O O19 0.869026 0.000000 0.392678
O O20 0.577109 0.500000 0.275799
#
# Coordination Sequence:
#
# PCOD8212062 Si02
#       7
#     8   8   8   8   8   8   8
#     4  10  22  41  67  98 130 166 206 246 294 359
#     4   9  17  32  54  79 107 143 192 249 308 361
#     4  11  24  41  63  93 127 163 204 253 306 359
#     4  11  21  36  62  89 115 152 205 259 305 358
#     4  10  22  41  63  90 127 167 204 248 305 364
#     4  10  20  35  55  79 109 148 195 248 303 359
#     4  12  23  36  57  85 119 157 199 248 308 370
#
# _framework density 20.635470000000002
#
# number of rings (size 3 to 8) (size 9 to 14) (size 15 to 20)
#    0.000    1.571    2.857    2.571    0.000    4.857 
#    0.000    5.000    0.000    0.000    0.000    0.000 
#    0.000    0.000    0.000    0.000    0.000    0.000 
#
# Total GULP energy -694038.092822 kJ/mol
# GULP energy per Si atom -12393.537372 kJ/mol
# Density = 2.058850 g / cm^3
# Si number density = 20.635470 Si / 1000 Ang^3
#
#
#
# Elastic Constant Matrix: (Units=GPa)
#
#
# Indices 1 2 3 4 5 6 
#
# 1 130.2486 43.8752 57.7645 0.0000 0.0000 0.0000
# 2 43.8752 70.0438 38.7401 0.0000 0.0000 0.0000
# 3 57.7645 38.7401 117.8074 0.0000 0.0000 0.0000
# 4 0.0000 0.0000 0.0000 21.7505 0.0000 0.0000
# 5 0.0000 0.0000 0.0000 0.0000 23.4484 0.0000
# 6 0.0000 0.0000 0.0000 0.0000 0.0000 26.5690
#
#
#
# Elastic Compliance Matrix: (Units=1/GPa)
#
#
# Indices 1 2 3 4 5 6 
#
# 1 0.010974 -0.004765 -0.003814 0.000000 0.000000 0.000000
# 2 -0.004765 0.019519 -0.004083 0.000000 0.000000 0.000000
# 3 -0.003814 -0.004083 0.011701 0.000000 0.000000 0.000000
# 4 0.000000 0.000000 0.000000 0.045976 0.000000 0.000000
# 5 0.000000 0.000000 0.000000 0.000000 0.042647 0.000000
# 6 0.000000 0.000000 0.000000 0.000000 0.000000 0.037638
#
#
# Mechanical properties :
#
#
# Convention : Reuss Voigt Hill
#
# Bulk Modulus (GPa) = 59.26991 66.53995 62.90493
# Shear Modulus (GPa) = 25.07499 26.20158 25.63829
#
# Velocity S-wave (km/s) = 3.48967 3.56720 3.52865
# Velocity P-wave (km/s) = 6.70982 7.02011 6.86672
#
# Compressibility (1/GPa) = 0.01687197
#
# Stress axis : x y z
#
# Youngs Moduli (GPa) = 91.12288 51.23132 85.46178
#
# Poissons Ratio (x) = 0.24410 0.32596
# Poissons Ratio (y) = 0.43417 0.34890
# Poissons Ratio (z) = 0.34756 0.20915
#
# Static dielectric constant tensor:
#      x y z
#    x 3.858300 0.000000 0.000000 
#    y 0.000000 3.444620 0.000000 
#    z 0.000000 0.000000 3.828720 
# 
# 
# High freq. dielectric constant tensor:
#      x y z
#    x 1.812280 0.000000 0.000000 
#    y 0.000000 1.779080 0.000000 
#    z 0.000000 0.000000 1.807720 
# 
# From -- ./inp_files/33442.got.cif
#   From: 2010.03.12/outbox.cif.g09.slc.cpg/sg51_17_cif.got.tgz:33442.got - 2010.04.16 13:43:02.
