data_PCOD8212772
_publ_section_title
;
Structure prediction by ZEFSAII (Michael W. Deem and Ramdas Pophale) SiO2 
 PCOD8212772
Probable space group: P M M A
;
_chemical_formula_sum "Si O2"
_cell_formula_units_Z 64
_cell_length_a 8.804061
_cell_length_b 18.791090
_cell_length_c 19.816433
_cell_angle_alpha 90.000000
_cell_angle_beta 90.000000
_cell_angle_gamma 90.000000
_cell_volume 3278.389113
_symmetry_space_group_name_H-M "P M M A"
_symmetry_group_IT_number 51
_symmetry_cell_setting 'orthorhombic'
loop_
_space_group_symop_operation_xyz
x,y,z
1/2-x,-y,z
1/2+x,-y,-z
-x,y,-z
-x,-y,-z
1/2+x,y,-z
1/2-x,y,z
x,-y,z
loop_
_atom_site_type_symbol
_atom_site_label
_atom_site_fract_x
_atom_site_fract_y
_atom_site_fract_z
Si Si1 0.929932 0.081428 0.071499
Si Si2 0.419979 0.083853 0.433784
Si Si3 0.428331 0.819103 0.661849
Si Si4 0.930524 0.694511 0.573580
Si Si5 0.929264 0.188068 0.186198
Si Si6 0.930932 0.347449 0.196050
Si Si7 0.429833 0.582937 0.665678
Si Si8 0.918317 0.583721 0.064459
O O1 0.750000 0.088499 0.065829
O O2 0.996690 0.133608 0.130158
O O3 0.976670 0.000000 0.089060
O O4 0.000000 0.104974 0.000000
O O5 0.500000 0.115459 0.500000
O O6 0.250000 0.115995 0.428580
O O7 0.525375 0.106813 0.372091
O O8 0.412939 0.000000 0.436045
O O9 0.250000 0.802640 0.656758
O O10 0.516847 0.754935 0.626131
O O11 0.479715 0.832640 0.738524
O O12 0.750000 0.694337 0.567814
O O13 0.000000 0.709166 0.500000
O O14 0.988517 0.618441 0.601377
O O15 0.750000 0.185448 0.179050
O O16 0.989052 0.268576 0.177569
O O17 0.750000 0.350880 0.201058
O O18 0.993108 0.377744 0.266882
O O19 0.996237 0.395911 0.135306
O O20 0.250000 0.592873 0.657978
O O21 0.474050 0.500000 0.668917
O O22 0.750000 0.616004 0.064126
O O23 0.916626 0.500000 0.057299
O O24 0.000000 0.618538 0.000000
#
# Coordination Sequence:
#
# PCOD8212772 Si02
#       8
#     8   8   8   8   8   8   8   8
#     4   9  18  34  55  80 111 149 191 233 277 326
#     4  10  21  37  56  81 114 150 188 230 278 335
#     4  11  21  37  60  85 114 148 189 237 288 341
#     4  12  25  41  61  84 114 150 189 233 286 346
#     4   9  18  32  55  81 107 140 182 230 275 329
#     4   9  16  31  54  79 106 139 182 227 277 334
#     4  10  20  37  62  87 110 142 187 237 289 346
#     4   9  17  29  47  72 102 137 175 216 263 321
#
# _framework density 19.521782000000002
#
# number of rings (size 3 to 8) (size 9 to 14) (size 15 to 20)
#    0.000    2.125    1.250    2.625    0.000    3.750 
#    0.000    3.125    0.000    3.000    0.000    0.000 
#    0.000    0.000    0.000    0.000    0.000    0.000 
#
# Total GULP energy -793318.890489 kJ/mol
# GULP energy per Si atom -12395.607664 kJ/mol
# Density = 1.947735 g / cm^3
# Si number density = 19.521782 Si / 1000 Ang^3
#
#
#
# Elastic Constant Matrix: (Units=GPa)
#
#
# Indices 1 2 3 4 5 6 
#
# 1 60.9800 29.1760 44.7590 0.0000 0.0000 0.0000
# 2 29.1760 78.0934 56.9857 0.0000 0.0000 0.0000
# 3 44.7590 56.9857 152.8001 0.0000 0.0000 0.0000
# 4 0.0000 0.0000 0.0000 39.9340 0.0000 0.0000
# 5 0.0000 0.0000 0.0000 0.0000 28.4543 0.0000
# 6 0.0000 0.0000 0.0000 0.0000 0.0000 21.4964
#
#
#
# Elastic Compliance Matrix: (Units=1/GPa)
#
#
# Indices 1 2 3 4 5 6 
#
# 1 0.022159 -0.004867 -0.004676 0.000000 0.000000 0.000000
# 2 -0.004867 0.018662 -0.005534 0.000000 0.000000 0.000000
# 3 -0.004676 -0.005534 0.009978 0.000000 0.000000 0.000000
# 4 0.000000 0.000000 0.000000 0.025041 0.000000 0.000000
# 5 0.000000 0.000000 0.000000 0.000000 0.035144 0.000000
# 6 0.000000 0.000000 0.000000 0.000000 0.000000 0.046520
#
#
# Mechanical properties :
#
#
# Convention : Reuss Voigt Hill
#
# Bulk Modulus (GPa) = 48.43664 61.52387 54.98026
# Shear Modulus (GPa) = 25.70166 28.70714 27.20440
#
# Velocity S-wave (km/s) = 3.63238 3.83889 3.73707
# Velocity P-wave (km/s) = 6.51596 7.15775 6.84438
#
# Compressibility (1/GPa) = 0.02064553
#
# Stress axis : x y z
#
# Youngs Moduli (GPa) = 45.12740 53.58555 100.21872
#
# Poissons Ratio (x) = 0.26078 0.46863
# Poissons Ratio (y) = 0.21962 0.55463
# Poissons Ratio (z) = 0.21102 0.29655
#
# Static dielectric constant tensor:
#      x y z
#    x 3.427170 0.000000 0.000000 
#    y 0.000000 3.622390 0.000000 
#    z 0.000000 0.000000 3.877660 
# 
# 
# High freq. dielectric constant tensor:
#      x y z
#    x 1.729540 0.000000 0.000000 
#    y 0.000000 1.760790 0.000000 
#    z 0.000000 0.000000 1.773290 
# 
# From -- ./inp_files/28447.got.cif
#   From: 2010.03.12/outbox.cif.g09.slc.cpg/sg51_15_cif.got.tgz:28447.got - 2010.04.16 13:43:02.
