data_PCOD8212973
_publ_section_title
;
Structure prediction by ZEFSAII (Michael W. Deem and Ramdas Pophale) SiO2 
 PCOD8212973
Probable space group: P M M A
;
_chemical_formula_sum "Si O2"
_cell_formula_units_Z 64
_cell_length_a 17.300695
_cell_length_b 13.798856
_cell_length_c 12.818457
_cell_angle_alpha 90.000000
_cell_angle_beta 90.000000
_cell_angle_gamma 90.000000
_cell_volume 3060.147663
_symmetry_space_group_name_H-M "P M M A"
_symmetry_group_IT_number 51
_symmetry_cell_setting 'orthorhombic'
loop_
_space_group_symop_operation_xyz
x,y,z
1/2-x,-y,z
1/2+x,-y,-z
-x,y,-z
-x,-y,-z
1/2+x,y,-z
1/2-x,y,z
x,-y,z
loop_
_atom_site_type_symbol
_atom_site_label
_atom_site_fract_x
_atom_site_fract_y
_atom_site_fract_z
Si Si1 0.602435 0.612696 0.213500
Si Si2 0.662985 0.612857 0.997347
Si Si3 0.620856 0.892133 0.583514
Si Si4 0.835085 0.303082 0.644081
Si Si5 0.658680 0.389947 0.430007
Si Si6 0.663643 0.113598 0.351080
Si Si7 0.992515 0.110236 0.257564
Si Si8 0.058011 0.700892 0.170509
O O1 0.611962 0.500000 0.235728
O O2 0.624169 0.662377 0.325307
O O3 0.517328 0.635721 0.174295
O O4 0.659741 0.642104 0.119520
O O5 0.750000 0.631585 0.957336
O O6 0.639531 0.500000 0.981870
O O7 0.603746 0.682729 0.936469
O O8 0.670622 0.814129 0.648342
O O9 0.628547 0.860612 0.463582
O O10 0.532672 0.887541 0.627286
O O11 0.655309 0.000000 0.600783
O O12 0.750000 0.348307 0.660140
O O13 0.871443 0.335414 0.533277
O O14 0.889423 0.339957 0.735907
O O15 0.750000 0.382217 0.421287
O O16 0.630469 0.500000 0.440583
O O17 0.750000 0.161115 0.334264
O O18 0.597339 0.145096 0.267792
O O19 0.673691 0.000000 0.340831
O O20 0.035930 0.184957 0.180113
O O21 0.997971 0.000000 0.212731
#
# Coordination Sequence:
#
# PCOD8212973 Si02
#       8
#     8   8   8   8   8   8   8   8
#     4  10  21  38  60  85 110 139 181 234 288 341
#     4  10  21  40  67  92 112 137 178 239 301 347
#     4   9  17  30  49  72 103 146 195 244 286 324
#     4  10  21  34  50  77 115 154 190 226 272 333
#     4   9  19  36  55  76 109 152 190 222 265 332
#     4   9  16  27  45  69  99 141 195 247 286 322
#     4   9  19  34  50  74 112 155 194 233 282 339
#     4  11  22  35  56  86 118 149 188 232 284 342
#
# _framework density 20.914023
#
# number of rings (size 3 to 8) (size 9 to 14) (size 15 to 20)
#    0.000    2.375    0.000    2.250    1.750    6.250 
#    0.000    3.125    0.000    2.625    0.000    0.000 
#    0.000    2.000    0.000    0.000    0.000    0.000 
#
# Total GULP energy -793040.216443 kJ/mol
# GULP energy per Si atom -12391.253382 kJ/mol
# Density = 2.086642 g / cm^3
# Si number density = 20.914023 Si / 1000 Ang^3
#
#
#
# Elastic Constant Matrix: (Units=GPa)
#
#
# Indices 1 2 3 4 5 6 
#
# 1 100.0215 19.3010 27.8689 0.0000 0.0000 0.0000
# 2 19.3010 43.6575 32.0790 0.0000 0.0000 0.0000
# 3 27.8689 32.0790 79.4681 0.0000 0.0000 0.0000
# 4 0.0000 0.0000 0.0000 18.7156 0.0000 0.0000
# 5 0.0000 0.0000 0.0000 0.0000 20.7616 0.0000
# 6 0.0000 0.0000 0.0000 0.0000 0.0000 19.7030
#
#
#
# Elastic Compliance Matrix: (Units=1/GPa)
#
#
# Indices 1 2 3 4 5 6 
#
# 1 0.011346 -0.002975 -0.002778 0.000000 0.000000 0.000000
# 2 -0.002975 0.033345 -0.012417 0.000000 0.000000 0.000000
# 3 -0.002778 -0.012417 0.018570 0.000000 0.000000 0.000000
# 4 0.000000 0.000000 0.000000 0.053431 0.000000 0.000000
# 5 0.000000 0.000000 0.000000 0.000000 0.048166 0.000000
# 6 0.000000 0.000000 0.000000 0.000000 0.000000 0.050754
#
#
# Mechanical properties :
#
#
# Convention : Reuss Voigt Hill
#
# Bulk Modulus (GPa) = 37.14556 42.40497 39.77526
# Shear Modulus (GPa) = 19.16258 21.42926 20.29592
#
# Velocity S-wave (km/s) = 3.03025 3.20447 3.11858
# Velocity P-wave (km/s) = 5.48114 5.83192 5.65925
#
# Compressibility (1/GPa) = 0.02692112
#
# Stress axis : x y z
#
# Youngs Moduli (GPa) = 88.13720 29.98990 53.84933
#
# Poissons Ratio (x) = 0.08921 0.14960
# Poissons Ratio (y) = 0.26218 0.66865
# Poissons Ratio (z) = 0.24486 0.37239
#
# Static dielectric constant tensor:
#      x y z
#    x 3.948640 0.000000 0.000000 
#    y 0.000000 3.760140 0.000000 
#    z 0.000000 0.000000 3.591970 
# 
# 
# High freq. dielectric constant tensor:
#      x y z
#    x 1.820350 0.000000 0.000000 
#    y 0.000000 1.815350 0.000000 
#    z 0.000000 0.000000 1.788830 
# 
# From -- ./inp_files/17518.got.cif
#   From: 2010.03.12/outbox.cif.g09.slc.cpg/sg51_9_cif.got.tgz:17518.got - 2010.04.16 13:43:02.
