data_PCOD8212541
_publ_section_title
;
Structure prediction by ZEFSAII (Michael W. Deem and Ramdas Pophale) SiO2 
 PCOD8212541
Probable space group: P M M A
;
_chemical_formula_sum "Si O2"
_cell_formula_units_Z 48
_cell_length_a 8.681500
_cell_length_b 18.359963
_cell_length_c 15.223612
_cell_angle_alpha 90.000000
_cell_angle_beta 90.000000
_cell_angle_gamma 90.000000
_cell_volume 2426.522250
_symmetry_space_group_name_H-M "P M M A"
_symmetry_group_IT_number 51
_symmetry_cell_setting 'orthorhombic'
loop_
_space_group_symop_operation_xyz
x,y,z
1/2-x,-y,z
1/2+x,-y,-z
-x,y,-z
-x,-y,-z
1/2+x,y,-z
1/2-x,y,z
x,-y,z
loop_
_atom_site_type_symbol
_atom_site_label
_atom_site_fract_x
_atom_site_fract_y
_atom_site_fract_z
Si Si1 0.569299 0.183601 0.091464
Si Si2 0.932196 0.350433 0.092857
Si Si3 0.068408 0.315201 0.592958
Si Si4 0.426324 0.584798 0.262675
Si Si5 0.071482 0.916404 0.751441
Si Si6 0.568678 0.839858 0.592679
O O1 0.750000 0.175297 0.083396
O O2 0.521250 0.266680 0.111330
O O3 0.505658 0.132991 0.169503
O O4 0.500000 0.155965 0.000000
O O5 0.750000 0.361558 0.093346
O O6 0.009006 0.400369 0.166113
O O7 0.000000 0.376243 0.000000
O O8 0.250000 0.307675 0.583891
O O9 0.000000 0.341042 0.500000
O O10 0.028746 0.373867 0.666267
O O11 0.000576 0.237593 0.621872
O O12 0.250000 0.611211 0.268736
O O13 0.440648 0.500000 0.283345
O O14 0.250000 0.898511 0.732953
O O15 0.974572 0.900016 0.664343
O O16 0.047327 0.000000 0.777983
O O17 0.500000 0.865609 0.500000
O O18 0.750000 0.832268 0.583264
#
# Coordination Sequence:
#
# PCOD8212541 Si02
#       6
#     8   8   8   8   8   8
#     4   9  19  35  56  82 110 144 186 233 281 330
#     4  10  20  36  59  84 112 148 193 242 290 341
#     4  11  22  39  63  88 115 148 189 234 282 337
#     4  11  24  40  58  84 118 153 190 234 285 340
#     4  10  21  37  56  81 116 154 190 232 284 339
#     4  11  22  38  61  86 113 146 188 236 284 336
#
# _framework density 19.781396000000001
#
# number of rings (size 3 to 8) (size 9 to 14) (size 15 to 20)
#    0.000    1.667    0.000    6.000    0.000    5.667 
#    0.000    0.000    0.000    0.000    0.000    0.000 
#    0.000    0.000    0.000    0.000    0.000    0.000 
#
# Total GULP energy -595486.605791 kJ/mol
# GULP energy per Si atom -12405.970954 kJ/mol
# Density = 1.973637 g / cm^3
# Si number density = 19.781396 Si / 1000 Ang^3
#
#
#
# Elastic Constant Matrix: (Units=GPa)
#
#
# Indices 1 2 3 4 5 6 
#
# 1 113.6530 23.0016 30.9820 0.0000 0.0000 0.0000
# 2 23.0016 44.5154 24.2138 0.0000 0.0000 0.0000
# 3 30.9820 24.2138 95.8969 0.0000 0.0000 0.0000
# 4 0.0000 0.0000 0.0000 11.2015 0.0000 0.0000
# 5 0.0000 0.0000 0.0000 0.0000 38.9340 0.0000
# 6 0.0000 0.0000 0.0000 0.0000 0.0000 24.8971
#
#
#
# Elastic Compliance Matrix: (Units=1/GPa)
#
#
# Indices 1 2 3 4 5 6 
#
# 1 0.010241 -0.004048 -0.002287 0.000000 0.000000 0.000000
# 2 -0.004048 0.027641 -0.005671 0.000000 0.000000 0.000000
# 3 -0.002287 -0.005671 0.012599 0.000000 0.000000 0.000000
# 4 0.000000 0.000000 0.000000 0.089274 0.000000 0.000000
# 5 0.000000 0.000000 0.000000 0.000000 0.025685 0.000000
# 6 0.000000 0.000000 0.000000 0.000000 0.000000 0.040165
#
#
# Mechanical properties :
#
#
# Convention : Reuss Voigt Hill
#
# Bulk Modulus (GPa) = 37.78062 45.60665 41.69364
# Shear Modulus (GPa) = 20.96971 26.73104 23.85037
#
# Velocity S-wave (km/s) = 3.25941 3.68002 3.47608
# Velocity P-wave (km/s) = 5.77109 6.41577 6.10195
#
# Compressibility (1/GPa) = 0.02646860
#
# Stress axis : x y z
#
# Youngs Moduli (GPa) = 97.64388 36.17849 79.37364
#
# Poissons Ratio (x) = 0.14645 0.18150
# Poissons Ratio (y) = 0.39526 0.45016
# Poissons Ratio (z) = 0.22327 0.20518
#
# Static dielectric constant tensor:
#      x y z
#    x 3.660690 0.000000 0.000000 
#    y 0.000000 3.513580 0.000000 
#    z 0.000000 0.000000 3.997320 
# 
# 
# High freq. dielectric constant tensor:
#      x y z
#    x 1.778530 0.000000 0.000000 
#    y 0.000000 1.762990 0.000000 
#    z 0.000000 0.000000 1.783060 
# 
# From -- ./inp_files/21087.got.cif
#   From: 2010.03.12/outbox.cif.g09.slc.cpg/sg51_11_cif.got.tgz:21087.got - 2010.04.16 13:43:02.
