data_PCOD8212579
_publ_section_title
;
Structure prediction by ZEFSAII (Michael W. Deem and Ramdas Pophale) SiO2 
 PCOD8212579
Probable space group: P M M A
;
_chemical_formula_sum "Si O2"
_cell_formula_units_Z 48
_cell_length_a 9.532991
_cell_length_b 13.952343
_cell_length_c 19.187350
_cell_angle_alpha 90.000000
_cell_angle_beta 90.000000
_cell_angle_gamma 90.000000
_cell_volume 2552.062611
_symmetry_space_group_name_H-M "P M M A"
_symmetry_group_IT_number 51
_symmetry_cell_setting 'orthorhombic'
loop_
_space_group_symop_operation_xyz
x,y,z
1/2-x,-y,z
1/2+x,-y,-z
-x,y,-z
-x,-y,-z
1/2+x,y,-z
1/2-x,y,z
x,-y,z
loop_
_atom_site_type_symbol
_atom_site_label
_atom_site_fract_x
_atom_site_fract_y
_atom_site_fract_z
Si Si1 0.086801 0.892406 0.701074
Si Si2 0.750000 0.109022 0.072685
Si Si3 0.512375 0.796013 0.158217
Si Si4 0.087382 0.610068 0.360994
Si Si5 0.082922 0.767267 0.566349
Si Si6 0.588151 0.391790 0.222036
Si Si7 0.750000 0.888160 0.907566
O O1 0.250000 0.893217 0.718252
O O2 0.055360 0.841046 0.628527
O O3 0.013791 0.836431 0.763525
O O4 0.026811 0.000000 0.696449
O O5 0.617454 0.158868 0.104250
O O6 0.750000 0.000000 0.097628
O O7 0.750000 0.116708 0.990141
O O8 0.539738 0.681534 0.161761
O O9 0.370278 0.824347 0.123578
O O10 0.250000 0.645598 0.357770
O O11 0.082256 0.500000 0.384240
O O12 0.994943 0.667327 0.417073
O O13 0.014524 0.624494 0.286630
O O14 0.250000 0.752331 0.552533
O O15 0.000000 0.810623 0.500000
O O16 0.750000 0.370379 0.244668
O O17 0.574420 0.500000 0.192988
O O18 0.750000 0.000000 0.883194
#
# Coordination Sequence:
#
# PCOD8212579 Si02
#       7
#     8   4   8   8   8   8   4
#     4  10  20  36  60  86 112 151 203 246 287 352
#     4  11  22  40  65  89 124 166 206 245 305 375
#     4  12  21  38  64  91 122 163 205 252 304 358
#     4  10  21  37  59  88 120 154 196 248 307 363
#     4  11  23  39  59  83 118 158 198 248 304 358
#     4  10  20  36  60  91 122 158 207 256 303 358
#     4  11  26  40  57  95 134 162 196 251 311 365
#
# _framework density 18.808315
#
# number of rings (size 3 to 8) (size 9 to 14) (size 15 to 20)
#    0.000    1.333    3.333    3.000    1.167    3.000 
#    1.500    0.000    0.000    3.000    0.000    0.000 
#    0.000    0.000    0.000    0.000    0.000    0.000 
#
# Total GULP energy -595029.156831 kJ/mol
# GULP energy per Si atom -12396.440767 kJ/mol
# Density = 1.876551 g / cm^3
# Si number density = 18.808315 Si / 1000 Ang^3
#
#
#
# Elastic Constant Matrix: (Units=GPa)
#
#
# Indices 1 2 3 4 5 6 
#
# 1 139.6206 49.6221 46.4517 0.0000 0.0000 0.0000
# 2 49.6221 122.3057 49.5570 0.0000 0.0000 0.0000
# 3 46.4517 49.5570 85.9531 0.0000 0.0000 0.0000
# 4 0.0000 0.0000 0.0000 26.2128 0.0000 0.0000
# 5 0.0000 0.0000 0.0000 0.0000 43.7600 0.0000
# 6 0.0000 0.0000 0.0000 0.0000 0.0000 -24.1091
#
#
#
# Elastic Compliance Matrix: (Units=1/GPa)
#
#
# Indices 1 2 3 4 5 6 
#
# 1 0.009178 -0.002237 -0.003671 0.000000 0.000000 0.000000
# 2 -0.002237 0.011214 -0.005257 0.000000 0.000000 0.000000
# 3 -0.003671 -0.005257 0.016649 0.000000 0.000000 0.000000
# 4 0.000000 0.000000 0.000000 0.038149 0.000000 0.000000
# 5 0.000000 0.000000 0.000000 0.000000 0.022852 0.000000
# 6 0.000000 0.000000 0.000000 0.000000 0.000000 -0.041478
#
#
# Mechanical properties :
#
#
# Convention : Reuss Voigt Hill
#
# Bulk Modulus (GPa) = 67.96740 71.01566 69.49153
# Shear Modulus (GPa) = 59.66870 22.65599 41.16234
#
# Velocity S-wave (km/s) = 5.63857 3.47446 4.68324
# Velocity P-wave (km/s) = 8.86604 7.34407 8.14070
#
# Compressibility (1/GPa) = 0.01471294
#
# Stress axis : x y z
#
# Youngs Moduli (GPa) = 108.95135 89.17783 60.06438
#
# Poissons Ratio (x) = 0.19945 0.22049
# Poissons Ratio (y) = 0.24367 0.31573
# Poissons Ratio (z) = 0.39994 0.46877
#
# Static dielectric constant tensor:
#      x y z
#    x 3.579740 0.000000 0.000000 
#    y 0.000000 3.727770 0.000000 
#    z 0.000000 0.000000 3.413080 
# 
# 
# High freq. dielectric constant tensor:
#      x y z
#    x 1.738670 0.000000 0.000000 
#    y 0.000000 1.738090 0.000000 
#    z 0.000000 0.000000 1.721000 
# 
# From -- ./inp_files/27645.got.cif
#   From: 2010.03.12/outbox.cif.g09.slc.cpg/sg51_14_cif.got.tgz:27645.got - 2010.04.16 13:43:02.
