data_PCOD8212784
_publ_section_title
;
Structure prediction by ZEFSAII (Michael W. Deem and Ramdas Pophale) SiO2 
 PCOD8212784
Probable space group: P M M A
;
_chemical_formula_sum "Si O2"
_cell_formula_units_Z 40
_cell_length_a 8.773652
_cell_length_b 12.454775
_cell_length_c 19.186288
_cell_angle_alpha 90.000000
_cell_angle_beta 90.000000
_cell_angle_gamma 90.000000
_cell_volume 2096.559779
_symmetry_space_group_name_H-M "P M M A"
_symmetry_group_IT_number 51
_symmetry_cell_setting 'orthorhombic'
loop_
_space_group_symop_operation_xyz
x,y,z
1/2-x,-y,z
1/2+x,-y,-z
-x,y,-z
-x,-y,-z
1/2+x,y,-z
1/2-x,y,z
x,-y,z
loop_
_atom_site_type_symbol
_atom_site_label
_atom_site_fract_x
_atom_site_fract_y
_atom_site_fract_z
Si Si1 0.925780 0.000000 0.573826
Si Si2 0.429538 0.500000 0.924061
Si Si3 0.569431 0.233123 0.576858
Si Si4 0.927945 0.880402 0.929083
Si Si5 0.928672 0.625594 0.306558
Si Si6 0.571434 0.313425 0.835317
O O1 0.966984 0.886009 0.610915
O O2 0.000000 0.000000 0.500000
O O3 0.750000 0.000000 0.557469
O O4 0.250000 0.500000 0.931625
O O5 0.479600 0.396246 0.881922
O O6 0.500000 0.500000 0.000000
O O7 0.500000 0.241192 0.500000
O O8 0.750000 0.255097 0.574419
O O9 0.487305 0.323222 0.622151
O O10 0.750000 0.883415 0.942336
O O11 0.967894 0.804950 0.863869
O O12 0.991314 0.000000 0.912776
O O13 0.000000 0.833778 0.000000
O O14 0.750000 0.645786 0.297515
O O15 0.967593 0.500000 0.307543
O O16 0.018007 0.682357 0.244007
O O17 0.750000 0.339849 0.840199
#
# Coordination Sequence:
#
# PCOD8212784 Si02
#       6
#     4   4   8   8   8   8
#     4   8  16  32  56  86 116 146 181 228 283 332
#     4  12  24  38  58  86 117 150 193 242 288 340
#     4  10  20  37  62  90 119 152 192 237 285 343
#     4   9  19  36  58  85 115 148 186 232 284 340
#     4  11  24  41  59  81 115 155 194 241 293 343
#     4  11  22  38  60  84 114 152 193 238 291 346
#
# _framework density 19.078873999999999
#
# number of rings (size 3 to 8) (size 9 to 14) (size 15 to 20)
#    0.000    1.800    1.000    3.300    0.000    5.600 
#    1.800    0.000    0.000    0.000    0.000    0.000 
#    0.000    0.000    0.000    0.000    0.000    0.000 
#
# Total GULP energy -495879.661602 kJ/mol
# GULP energy per Si atom -12396.991540 kJ/mol
# Density = 1.903545 g / cm^3
# Si number density = 19.078874 Si / 1000 Ang^3
#
#
#
# Elastic Constant Matrix: (Units=GPa)
#
#
# Indices 1 2 3 4 5 6 
#
# 1 83.4404 52.6019 37.4020 0.0000 0.0000 0.0000
# 2 52.6019 114.1764 61.1969 0.0000 0.0000 0.0000
# 3 37.4020 61.1969 108.2558 0.0000 0.0000 0.0000
# 4 0.0000 0.0000 0.0000 23.5769 0.0000 0.0000
# 5 0.0000 0.0000 0.0000 0.0000 35.9770 0.0000
# 6 0.0000 0.0000 0.0000 0.0000 0.0000 16.5750
#
#
#
# Elastic Compliance Matrix: (Units=1/GPa)
#
#
# Indices 1 2 3 4 5 6 
#
# 1 0.017217 -0.006806 -0.002101 0.000000 0.000000 0.000000
# 2 -0.006806 0.015256 -0.006273 0.000000 0.000000 0.000000
# 3 -0.002101 -0.006273 0.013509 0.000000 0.000000 0.000000
# 4 0.000000 0.000000 0.000000 0.042414 0.000000 0.000000
# 5 0.000000 0.000000 0.000000 0.000000 0.027796 0.000000
# 6 0.000000 0.000000 0.000000 0.000000 0.000000 0.060332
#
#
# Mechanical properties :
#
#
# Convention : Reuss Voigt Hill
#
# Bulk Modulus (GPa) = 64.00897 67.58604 65.79750
# Shear Modulus (GPa) = 23.57482 25.53725 24.55604
#
# Velocity S-wave (km/s) = 3.51900 3.66253 3.59148
# Velocity P-wave (km/s) = 7.08051 7.30664 7.19446
#
# Compressibility (1/GPa) = 0.01562281
#
# Stress axis : x y z
#
# Youngs Moduli (GPa) = 58.08265 65.54803 74.02307
#
# Poissons Ratio (x) = 0.44611 0.15553
# Poissons Ratio (y) = 0.39530 0.46433
# Poissons Ratio (z) = 0.12204 0.41117
#
# Static dielectric constant tensor:
#      x y z
#    x 3.602900 0.000000 0.000000 
#    y 0.000000 4.067800 0.000000 
#    z 0.000000 0.000000 3.301190 
# 
# 
# High freq. dielectric constant tensor:
#      x y z
#    x 1.752610 0.000000 0.000000 
#    y 0.000000 1.756680 0.000000 
#    z 0.000000 0.000000 1.728930 
# 
# From -- ./inp_files/31421.got.cif
#   From: 2010.03.12/outbox.cif.g09.slc.cpg/sg51_16_cif.got.tgz:31421.got - 2010.04.16 13:43:02.
