data_PCOD8212232
_publ_section_title
;
Structure prediction by ZEFSAII (Michael W. Deem and Ramdas Pophale) SiO2 
 PCOD8212232
Probable space group: P M M A
;
_chemical_formula_sum "Si O2"
_cell_formula_units_Z 48
_cell_length_a 8.700888
_cell_length_b 14.134490
_cell_length_c 20.692364
_cell_angle_alpha 90.000000
_cell_angle_beta 90.000000
_cell_angle_gamma 90.000000
_cell_volume 2544.801023
_symmetry_space_group_name_H-M "P M M A"
_symmetry_group_IT_number 51
_symmetry_cell_setting 'orthorhombic'
loop_
_space_group_symop_operation_xyz
x,y,z
1/2-x,-y,z
1/2+x,-y,-z
-x,y,-z
-x,-y,-z
1/2+x,y,-z
1/2-x,y,z
x,-y,z
loop_
_atom_site_type_symbol
_atom_site_label
_atom_site_fract_x
_atom_site_fract_y
_atom_site_fract_z
Si Si1 0.925403 0.894668 0.248185
Si Si2 0.571817 0.107305 0.886951
Si Si3 0.069453 0.288538 0.933570
Si Si4 0.427902 0.389128 0.189693
Si Si5 0.072360 0.705306 0.686736
Si Si6 0.569522 0.393186 0.566725
O O1 0.750000 0.883558 0.223115
O O2 0.959589 0.817188 0.303123
O O3 0.037887 0.875465 0.188509
O O4 0.952823 0.000000 0.276984
O O5 0.750000 0.129735 0.899523
O O6 0.467962 0.176655 0.929893
O O7 0.529567 0.000000 0.906435
O O8 0.250000 0.306668 0.931538
O O9 0.988830 0.340940 0.874764
O O10 0.000000 0.329758 0.000000
O O11 0.250000 0.363281 0.199500
O O12 0.454095 0.500000 0.182976
O O13 0.522228 0.352887 0.250723
O O14 0.250000 0.684296 0.673773
O O15 0.977546 0.674820 0.624605
O O16 0.500000 0.354098 0.500000
O O17 0.750000 0.391887 0.559916
O O18 0.509816 0.500000 0.580451
#
# Coordination Sequence:
#
# PCOD8212232 Si02
#       6
#     8   8   8   8   8   8
#     4   9  18  33  54  82 115 150 187 228 277 331
#     4  10  20  35  57  84 113 145 183 230 283 339
#     4  12  25  41  60  81 109 147 187 234 288 344
#     4  11  24  41  60  83 112 146 187 236 285 336
#     4  11  21  34  58  89 118 152 189 231 279 331
#     4  10  21  37  57  83 117 155 192 234 283 336
#
# _framework density 18.861986000000002
#
# number of rings (size 3 to 8) (size 9 to 14) (size 15 to 20)
#    0.000    1.500    1.667    4.000    0.000    6.667 
#    0.000    0.000    0.000    0.500    0.000    0.000 
#    0.000    0.000    0.000    0.000    0.000    0.000 
#
# Total GULP energy -595364.668510 kJ/mol
# GULP energy per Si atom -12403.430594 kJ/mol
# Density = 1.881906 g / cm^3
# Si number density = 18.861986 Si / 1000 Ang^3
#
#
#
# Elastic Constant Matrix: (Units=GPa)
#
#
# Indices 1 2 3 4 5 6 
#
# 1 36.4491 23.3660 3.2542 0.0000 0.0000 0.0000
# 2 23.3660 78.1435 35.5477 0.0000 0.0000 0.0000
# 3 3.2542 35.5477 103.4816 0.0000 0.0000 0.0000
# 4 0.0000 0.0000 0.0000 22.0365 0.0000 0.0000
# 5 0.0000 0.0000 0.0000 0.0000 36.4575 0.0000
# 6 0.0000 0.0000 0.0000 0.0000 0.0000 28.9117
#
#
#
# Elastic Compliance Matrix: (Units=1/GPa)
#
#
# Indices 1 2 3 4 5 6 
#
# 1 0.034675 -0.011701 0.002929 0.000000 0.000000 0.000000
# 2 -0.011701 0.019115 -0.006198 0.000000 0.000000 0.000000
# 3 0.002929 -0.006198 0.011701 0.000000 0.000000 0.000000
# 4 0.000000 0.000000 0.000000 0.045379 0.000000 0.000000
# 5 0.000000 0.000000 0.000000 0.000000 0.027429 0.000000
# 6 0.000000 0.000000 0.000000 0.000000 0.000000 0.034588
#
#
# Mechanical properties :
#
#
# Convention : Reuss Voigt Hill
#
# Bulk Modulus (GPa) = 28.12902 38.04557 33.08730
# Shear Modulus (GPa) = 23.29069 27.87488 25.58279
#
# Velocity S-wave (km/s) = 3.51778 3.84843 3.68681
# Velocity P-wave (km/s) = 5.60760 6.32151 5.97523
#
# Compressibility (1/GPa) = 0.03555047
#
# Stress axis : x y z
#
# Youngs Moduli (GPa) = 28.83939 52.31395 85.46472
#
# Poissons Ratio (x) = 0.61211 -0.25032
# Poissons Ratio (y) = 0.33744 0.52975
# Poissons Ratio (z) = -0.08447 0.32427
#
# Static dielectric constant tensor:
#      x y z
#    x 3.593650 0.000000 0.000000 
#    y 0.000000 3.693750 0.000000 
#    z 0.000000 0.000000 3.333590 
# 
# 
# High freq. dielectric constant tensor:
#      x y z
#    x 1.746270 0.000000 0.000000 
#    y 0.000000 1.736380 0.000000 
#    z 0.000000 0.000000 1.716900 
# 
# From -- ./inp_files/27546.got.cif
#   From: 2010.03.12/outbox.cif.g09.slc.cpg/sg51_14_cif.got.tgz:27546.got - 2010.04.16 13:43:02.
