data_PCOD8212328
_publ_section_title
;
Structure prediction by ZEFSAII (Michael W. Deem and Ramdas Pophale) SiO2 
 PCOD8212328
Probable space group: P M M A
;
_chemical_formula_sum "Si O2"
_cell_formula_units_Z 40
_cell_length_a 8.785788
_cell_length_b 14.163859
_cell_length_c 15.609306
_cell_angle_alpha 90.000000
_cell_angle_beta 90.000000
_cell_angle_gamma 90.000000
_cell_volume 1942.432379
_symmetry_space_group_name_H-M "P M M A"
_symmetry_group_IT_number 51
_symmetry_cell_setting 'orthorhombic'
loop_
_space_group_symop_operation_xyz
x,y,z
1/2-x,-y,z
1/2+x,-y,-z
-x,y,-z
-x,-y,-z
1/2+x,y,-z
1/2-x,y,z
x,-y,z
loop_
_atom_site_type_symbol
_atom_site_label
_atom_site_fract_x
_atom_site_fract_y
_atom_site_fract_z
Si Si1 0.573343 0.893123 0.647095
Si Si2 0.427153 0.295159 0.910726
Si Si3 0.076541 0.895124 0.825297
Si Si4 0.071276 0.287538 0.586441
Si Si5 0.074294 0.610830 0.252228
O O1 0.750000 0.870308 0.632599
O O2 0.536307 0.877036 0.746793
O O3 0.472993 0.823033 0.589995
O O4 0.532653 0.000000 0.619861
O O5 0.250000 0.319085 0.912982
O O6 0.457489 0.183285 0.896969
O O7 0.502096 0.355976 0.836269
O O8 0.500000 0.326330 0.000000
O O9 0.250000 0.884612 0.791412
O O10 0.049989 0.000000 0.864459
O O11 0.250000 0.300117 0.582770
O O12 0.000000 0.331898 0.500000
O O13 0.008827 0.340431 0.668929
O O14 0.250000 0.640419 0.253955
O O15 0.051464 0.500000 0.261195
#
# Coordination Sequence:
#
# PCOD8212328 Si02
#       5
#     8   8   8   8   8
#     4  10  20  35  59  91 127 168 211 255 305 363
#     4  11  23  39  63  94 128 169 211 259 311 369
#     4   9  18  34  57  87 124 167 211 253 303 363
#     4  12  25  42  66  95 128 167 208 256 309 371
#     4  11  25  46  70  94 123 159 203 261 322 380
#
# _framework density 20.592737
#
# number of rings (size 3 to 8) (size 9 to 14) (size 15 to 20)
#    0.000    1.400    2.000    3.600    0.000    5.200 
#    0.000    0.000    0.000    0.000    0.000    0.000 
#    0.000    0.000    0.000    0.000    0.000    0.000 
#
# Total GULP energy -496131.309671 kJ/mol
# GULP energy per Si atom -12403.282742 kJ/mol
# Density = 2.054587 g / cm^3
# Si number density = 20.592737 Si / 1000 Ang^3
#
#
#
# Elastic Constant Matrix: (Units=GPa)
#
#
# Indices 1 2 3 4 5 6 
#
# 1 152.9003 56.5000 69.1188 0.0000 0.0000 0.0000
# 2 56.5000 78.7486 44.5209 0.0000 0.0000 0.0000
# 3 69.1188 44.5209 143.4149 0.0000 0.0000 0.0000
# 4 0.0000 0.0000 0.0000 6.4643 0.0000 0.0000
# 5 0.0000 0.0000 0.0000 0.0000 38.6115 0.0000
# 6 0.0000 0.0000 0.0000 0.0000 0.0000 26.9923
#
#
#
# Elastic Compliance Matrix: (Units=1/GPa)
#
#
# Indices 1 2 3 4 5 6 
#
# 1 0.009933 -0.005361 -0.003123 0.000000 0.000000 0.000000
# 2 -0.005361 0.018295 -0.003096 0.000000 0.000000 0.000000
# 3 -0.003123 -0.003096 0.009439 0.000000 0.000000 0.000000
# 4 0.000000 0.000000 0.000000 0.154696 0.000000 0.000000
# 5 0.000000 0.000000 0.000000 0.000000 0.025899 0.000000
# 6 0.000000 0.000000 0.000000 0.000000 0.000000 0.037048
#
#
# Mechanical properties :
#
#
# Convention : Reuss Voigt Hill
#
# Bulk Modulus (GPa) = 68.92904 79.48259 74.20581
# Shear Modulus (GPa) = 17.64882 28.07522 22.86202
#
# Velocity S-wave (km/s) = 2.93070 3.69637 3.33558
# Velocity P-wave (km/s) = 6.70799 7.54312 7.13778
#
# Compressibility (1/GPa) = 0.01450767
#
# Stress axis : x y z
#
# Youngs Moduli (GPa) = 100.67486 54.65911 105.94477
#
# Poissons Ratio (x) = 0.29303 0.33086
# Poissons Ratio (y) = 0.53972 0.32797
# Poissons Ratio (z) = 0.31440 0.16921
#
# Static dielectric constant tensor:
#      x y z
#    x 3.831610 0.000000 0.000000 
#    y 0.000000 3.908350 0.000000 
#    z 0.000000 0.000000 3.603060 
# 
# 
# High freq. dielectric constant tensor:
#      x y z
#    x 1.816600 0.000000 0.000000 
#    y 0.000000 1.809220 0.000000 
#    z 0.000000 0.000000 1.798770 
# 
# From -- ./inp_files/20481.got.cif
#   From: 2010.03.12/outbox.cif.g09.slc.cpg/sg51_11_cif.got.tgz:20481.got - 2010.04.16 13:43:02.
