data_PCOD8212444
_publ_section_title
;
Structure prediction by ZEFSAII (Michael W. Deem and Ramdas Pophale) SiO2 
 PCOD8212444
Probable space group: P M M A
;
_chemical_formula_sum "Si O2"
_cell_formula_units_Z 56
_cell_length_a 18.421129
_cell_length_b 17.815149
_cell_length_c 8.928504
_cell_angle_alpha 90.000000
_cell_angle_beta 90.000000
_cell_angle_gamma 90.000000
_cell_volume 2930.113210
_symmetry_space_group_name_H-M "P M M A"
_symmetry_group_IT_number 51
_symmetry_cell_setting 'orthorhombic'
loop_
_space_group_symop_operation_xyz
x,y,z
1/2-x,-y,z
1/2+x,-y,-z
-x,y,-z
-x,-y,-z
1/2+x,y,-z
1/2-x,y,z
x,-y,z
loop_
_atom_site_type_symbol
_atom_site_label
_atom_site_fract_x
_atom_site_fract_y
_atom_site_fract_z
Si Si1 0.391930 0.915511 0.590100
Si Si2 0.836718 0.500000 0.268329
Si Si3 0.663738 0.647594 0.431638
Si Si4 0.578248 0.781027 0.948559
Si Si5 0.168116 0.213930 0.758225
Si Si6 0.451953 0.085380 0.272613
Si Si7 0.836571 0.653068 0.773562
Si Si8 0.664200 0.500000 0.930992
O O1 0.331624 0.859382 0.653191
O O2 0.467612 0.896476 0.670548
O O3 0.397488 0.904402 0.411873
O O4 0.367577 0.000000 0.626929
O O5 0.750000 0.500000 0.266856
O O6 0.867002 0.427654 0.355492
O O7 0.867665 0.500000 0.099316
O O8 0.750000 0.647316 0.430086
O O9 0.633380 0.717271 0.335562
O O10 0.637007 0.653054 0.602056
O O11 0.570336 0.858133 0.857528
O O12 0.620706 0.719134 0.854533
O O13 0.500000 0.749748 0.000000
O O14 0.623616 0.802186 0.093744
O O15 0.250000 0.233646 0.804520
O O16 0.447117 0.000000 0.211336
O O17 0.750000 0.665429 0.789943
O O18 0.861899 0.574247 0.844659
O O19 0.750000 0.500000 0.938191
#
# Coordination Sequence:
#
# PCOD8212444 Si02
#       8
#     8   4   8   8   8   8   8   4
#     4   9  18  36  60  83 106 140 187 234 276 331
#     4   9  15  27  49  79 108 137 179 226 267 319
#     4   9  18  32  53  79 108 143 183 224 268 323
#     4  12  23  36  54  84 113 148 189 233 287 336
#     4  11  22  36  54  81 116 149 182 230 287 339
#     4   9  19  37  60  82 107 143 189 232 274 333
#     4  10  20  36  57  82 112 148 188 231 279 336
#     4   9  17  31  56  85 114 147 182 224 280 342
#
# _framework density 19.111889999999999
#
# number of rings (size 3 to 8) (size 9 to 14) (size 15 to 20)
#    0.000    2.143    1.429    3.429    0.000    5.143 
#    0.000    1.071    0.000    3.000    0.000    3.000 
#    0.000    0.000    0.000    0.000    0.000    0.000 
#
# Total GULP energy -694407.955623 kJ/mol
# GULP energy per Si atom -12400.142065 kJ/mol
# Density = 1.906839 g / cm^3
# Si number density = 19.111890 Si / 1000 Ang^3
#
#
#
# Elastic Constant Matrix: (Units=GPa)
#
#
# Indices 1 2 3 4 5 6 
#
# 1 46.2569 29.9459 33.4124 0.0000 0.0000 0.0000
# 2 29.9459 150.1994 77.3662 0.0000 0.0000 0.0000
# 3 33.4124 77.3662 139.4933 0.0000 0.0000 0.0000
# 4 0.0000 0.0000 0.0000 41.9003 0.0000 0.0000
# 5 0.0000 0.0000 0.0000 0.0000 25.9652 0.0000
# 6 0.0000 0.0000 0.0000 0.0000 0.0000 21.8368
#
#
#
# Elastic Compliance Matrix: (Units=1/GPa)
#
#
# Indices 1 2 3 4 5 6 
#
# 1 0.026998 -0.002872 -0.004874 0.000000 0.000000 0.000000
# 2 -0.002872 0.009626 -0.004651 0.000000 0.000000 0.000000
# 3 -0.004874 -0.004651 0.010916 0.000000 0.000000 0.000000
# 4 0.000000 0.000000 0.000000 0.023866 0.000000 0.000000
# 5 0.000000 0.000000 0.000000 0.000000 0.038513 0.000000
# 6 0.000000 0.000000 0.000000 0.000000 0.000000 0.045794
#
#
# Mechanical properties :
#
#
# Convention : Reuss Voigt Hill
#
# Bulk Modulus (GPa) = 43.96341 68.59984 56.28162
# Shear Modulus (GPa) = 26.58309 30.95548 28.76928
#
# Velocity S-wave (km/s) = 3.73355 4.02891 3.88404
# Velocity P-wave (km/s) = 6.45283 7.59043 7.04463
#
# Compressibility (1/GPa) = 0.02274619
#
# Stress axis : x y z
#
# Youngs Moduli (GPa) = 37.03933 103.88426 91.61144
#
# Poissons Ratio (x) = 0.29839 0.44649
# Poissons Ratio (y) = 0.10639 0.42607
# Poissons Ratio (z) = 0.18052 0.48315
#
# Static dielectric constant tensor:
#      x y z
#    x 3.106570 0.000000 0.000000 
#    y 0.000000 3.645610 0.000000 
#    z 0.000000 0.000000 3.707560 
# 
# 
# High freq. dielectric constant tensor:
#      x y z
#    x 1.698750 0.000000 0.000000 
#    y 0.000000 1.756630 0.000000 
#    z 0.000000 0.000000 1.758590 
# 
# From -- ./inp_files/11055.got.cif
#   From: 2010.03.12/outbox.cif.g09.slc.cpg/sg51_6_cif.got.tgz:11055.got - 2010.04.16 13:43:02.
