data_PCOD8212315
_publ_section_title
;
Structure prediction by ZEFSAII (Michael W. Deem and Ramdas Pophale) SiO2 
 PCOD8212315
Probable space group: P M M A
;
_chemical_formula_sum "Si O2"
_cell_formula_units_Z 44
_cell_length_a 9.474095
_cell_length_b 26.529809
_cell_length_c 9.221727
_cell_angle_alpha 90.000000
_cell_angle_beta 90.000000
_cell_angle_gamma 90.000000
_cell_volume 2317.843556
_symmetry_space_group_name_H-M "P M M A"
_symmetry_group_IT_number 51
_symmetry_cell_setting 'orthorhombic'
loop_
_space_group_symop_operation_xyz
x,y,z
1/2-x,-y,z
1/2+x,-y,-z
-x,y,-z
-x,-y,-z
1/2+x,y,-z
1/2-x,y,z
x,-y,z
loop_
_atom_site_type_symbol
_atom_site_label
_atom_site_fract_x
_atom_site_fract_y
_atom_site_fract_z
Si Si1 0.085715 0.000000 0.644758
Si Si2 0.750000 0.445152 0.844841
Si Si3 0.582423 0.797622 0.147873
Si Si4 0.078228 0.276930 0.348460
Si Si5 0.250000 0.442530 0.811879
Si Si6 0.589535 0.085755 0.138269
Si Si7 0.494957 0.375571 0.171483
O O1 0.041662 0.050370 0.730449
O O2 0.000000 0.000000 0.500000
O O3 0.250000 0.000000 0.607180
O O4 0.750000 0.500000 0.773527
O O5 0.619930 0.415499 0.784365
O O6 0.750000 0.449746 0.017004
O O7 0.750000 0.781728 0.139002
O O8 0.496599 0.771489 0.277486
O O9 0.568246 0.856443 0.183481
O O10 0.500000 0.783776 0.000000
O O11 0.250000 0.270748 0.362626
O O12 0.036683 0.323229 0.247119
O O13 0.000000 0.285677 0.500000
O O14 0.250000 0.500000 0.744176
O O15 0.374565 0.405877 0.763059
O O16 0.750000 0.074632 0.095477
O O17 0.500000 0.070570 0.000000
O O18 0.500000 0.364432 0.000000
#
# Coordination Sequence:
#
# PCOD8212315 Si02
#       7
#     4   4   8   8   4   8   8
#     4  10  21  36  54  82 122 162 203 244 286 342
#     4   9  16  32  55  85 115 143 181 232 281 334
#     4  10  21  39  64  91 119 151 193 244 296 351
#     4  12  26  42  59  82 114 155 198 243 296 351
#     4   9  18  30  55  91 119 141 177 232 287 338
#     4   9  19  36  59  88 118 152 194 242 292 344
#     4  10  20  35  59  86 114 146 187 231 285 344
#
# _framework density 18.983162
#
# number of rings (size 3 to 8) (size 9 to 14) (size 15 to 20)
#    0.000    2.000    0.909    2.455    2.545    4.364 
#    0.000    1.818    0.000    3.273    0.000    0.000 
#    0.000    0.000    0.000    0.000    0.000    0.000 
#
# Total GULP energy -545185.707244 kJ/mol
# GULP energy per Si atom -12390.584256 kJ/mol
# Density = 1.893996 g / cm^3
# Si number density = 18.983162 Si / 1000 Ang^3
#
#
#
# Elastic Constant Matrix: (Units=GPa)
#
#
# Indices 1 2 3 4 5 6 
#
# 1 159.1156 64.5512 60.0892 0.0000 0.0000 0.0000
# 2 64.5512 115.9805 60.5167 0.0000 0.0000 0.0000
# 3 60.0892 60.5167 98.5463 0.0000 0.0000 0.0000
# 4 0.0000 0.0000 0.0000 -4.2135 0.0000 0.0000
# 5 0.0000 0.0000 0.0000 0.0000 32.8272 0.0000
# 6 0.0000 0.0000 0.0000 0.0000 0.0000 37.2673
#
#
#
# Elastic Compliance Matrix: (Units=1/GPa)
#
#
# Indices 1 2 3 4 5 6 
#
# 1 0.008867 -0.003111 -0.003497 0.000000 0.000000 0.000000
# 2 -0.003111 0.013779 -0.006565 0.000000 0.000000 0.000000
# 3 -0.003497 -0.006565 0.016311 0.000000 0.000000 0.000000
# 4 0.000000 0.000000 0.000000 -0.237332 0.000000 0.000000
# 5 0.000000 0.000000 0.000000 0.000000 0.030463 0.000000
# 6 0.000000 0.000000 0.000000 0.000000 0.000000 0.026833
#
#
# Mechanical properties :
#
#
# Convention : Reuss Voigt Hill
#
# Bulk Modulus (GPa) = 79.28364 82.66184 80.97274
# Shear Modulus (GPa) = -45.23598 25.74188 -9.74705
#
# Velocity S-wave (km/s) = -4.88685 3.68644 -2.26842
# Velocity P-wave (km/s) = 3.16453 7.85870 5.99055
#
# Compressibility (1/GPa) = 0.01261294
#
# Stress axis : x y z
#
# Youngs Moduli (GPa) = 112.77535 72.57496 61.30882
#
# Poissons Ratio (x) = 0.22577 0.21437
# Poissons Ratio (y) = 0.35082 0.40247
# Poissons Ratio (z) = 0.39432 0.47643
#
# Static dielectric constant tensor:
#      x y z
#    x 6.139120 0.000000 0.000000 
#    y 0.000000 3.751670 0.000000 
#    z 0.000000 0.000000 3.191200 
# 
# 
# High freq. dielectric constant tensor:
#      x y z
#    x 1.756480 0.000000 0.000000 
#    y 0.000000 1.757000 0.000000 
#    z 0.000000 0.000000 1.708010 
# 
# From -- ./inp_files/5917.got.cif
#   From: 2010.03.12/outbox.cif.g09.slc.cpg/sg51_3_cif.got.tgz:5917.got - 2010.04.16 13:43:02.
