data_PCOD8212694
_publ_section_title
;
Structure prediction by ZEFSAII (Michael W. Deem and Ramdas Pophale) SiO2 
 PCOD8212694
Probable space group: P M M A
;
_chemical_formula_sum "Si O2"
_cell_formula_units_Z 48
_cell_length_a 17.539377
_cell_length_b 14.762853
_cell_length_c 9.949575
_cell_angle_alpha 90.000000
_cell_angle_beta 90.000000
_cell_angle_gamma 90.000000
_cell_volume 2576.255836
_symmetry_space_group_name_H-M "P M M A"
_symmetry_group_IT_number 51
_symmetry_cell_setting 'orthorhombic'
loop_
_space_group_symop_operation_xyz
x,y,z
1/2-x,-y,z
1/2+x,-y,-z
-x,y,-z
-x,-y,-z
1/2+x,y,-z
1/2-x,y,z
x,-y,z
loop_
_atom_site_type_symbol
_atom_site_label
_atom_site_fract_x
_atom_site_fract_y
_atom_site_fract_z
Si Si1 0.840487 0.746498 0.200231
Si Si2 0.457982 0.104973 0.861357
Si Si3 0.088636 0.606227 0.998734
Si Si4 0.439949 0.100411 0.382367
Si Si5 0.160191 0.397547 0.277757
Si Si6 0.339414 0.745791 0.491440
O O1 0.750000 0.758746 0.184380
O O2 0.880590 0.836906 0.143938
O O3 0.865357 0.732287 0.355117
O O4 0.868274 0.658619 0.119725
O O5 0.517473 0.138242 0.748943
O O6 0.435144 0.000000 0.839993
O O7 0.500000 0.122229 0.000000
O O8 0.103005 0.500000 0.973681
O O9 0.121642 0.638088 0.141588
O O10 0.000000 0.631229 0.000000
O O11 0.500000 0.097005 0.500000
O O12 0.370642 0.163420 0.424381
O O13 0.406692 0.000000 0.354329
O O14 0.250000 0.389090 0.257418
O O15 0.134936 0.500000 0.307945
O O16 0.131159 0.339425 0.404521
O O17 0.250000 0.754768 0.482952
#
# Coordination Sequence:
#
# PCOD8212694 Si02
#       6
#     8   8   8   8   8   8
#     4  11  23  37  57  86 117 150 187 233 287 337
#     4  10  22  40  60  84 114 150 191 234 282 338
#     4  10  22  39  59  84 112 147 192 235 279 336
#     4  10  20  37  59  81 110 151 190 228 282 339
#     4   9  19  37  58  80 111 150 186 226 282 339
#     4  10  22  36  55  86 116 148 191 237 283 335
#
# _framework density 18.631689999999999
#
# number of rings (size 3 to 8) (size 9 to 14) (size 15 to 20)
#    0.000    2.000    1.667    1.000    4.667    2.333 
#    0.000    3.333    0.000    6.500    0.000    0.000 
#    0.000    0.000    0.000    0.000    0.000    0.000 
#
# Total GULP energy -595293.468457 kJ/mol
# GULP energy per Si atom -12401.947260 kJ/mol
# Density = 1.858928 g / cm^3
# Si number density = 18.631690 Si / 1000 Ang^3
#
#
#
# Elastic Constant Matrix: (Units=GPa)
#
#
# Indices 1 2 3 4 5 6 
#
# 1 56.5257 48.1064 55.9599 0.0000 0.0000 0.0000
# 2 48.1064 99.4209 60.2325 0.0000 0.0000 0.0000
# 3 55.9599 60.2325 135.0856 0.0000 0.0000 0.0000
# 4 0.0000 0.0000 0.0000 37.6305 0.0000 0.0000
# 5 0.0000 0.0000 0.0000 0.0000 29.4106 0.0000
# 6 0.0000 0.0000 0.0000 0.0000 0.0000 32.5729
#
#
#
# Elastic Compliance Matrix: (Units=1/GPa)
#
#
# Indices 1 2 3 4 5 6 
#
# 1 0.038527 -0.012294 -0.010479 0.000000 0.000000 0.000000
# 2 -0.012294 0.017704 -0.002801 0.000000 0.000000 0.000000
# 3 -0.010479 -0.002801 0.012992 0.000000 0.000000 0.000000
# 4 0.000000 0.000000 0.000000 0.026574 0.000000 0.000000
# 5 0.000000 0.000000 0.000000 0.000000 0.034001 0.000000
# 6 0.000000 0.000000 0.000000 0.000000 0.000000 0.030700
#
#
# Mechanical properties :
#
#
# Convention : Reuss Voigt Hill
#
# Bulk Modulus (GPa) = 55.31961 68.84776 62.08369
# Shear Modulus (GPa) = 22.97033 28.37170 25.67101
#
# Velocity S-wave (km/s) = 3.51502 3.90650 3.71592
# Velocity P-wave (km/s) = 6.79923 7.57495 7.19754
#
# Compressibility (1/GPa) = 0.01807677
#
# Stress axis : x y z
#
# Youngs Moduli (GPa) = 25.95552 56.48510 76.96780
#
# Poissons Ratio (x) = 0.69442 0.80651
# Poissons Ratio (y) = 0.31909 0.21559
# Poissons Ratio (z) = 0.27198 0.15822
#
# Static dielectric constant tensor:
#      x y z
#    x 3.285530 0.000000 0.000000 
#    y 0.000000 3.599830 0.000000 
#    z 0.000000 0.000000 3.689960 
# 
# 
# High freq. dielectric constant tensor:
#      x y z
#    x 1.715080 0.000000 0.000000 
#    y 0.000000 1.727590 0.000000 
#    z 0.000000 0.000000 1.738230 
# 
# From -- ./inp_files/9557.got.cif
#   From: 2010.03.12/outbox.cif.g09.slc.cpg/sg51_5_cif.got.tgz:9557.got - 2010.04.16 13:43:02.
