data_PCOD8212034
_publ_section_title
;
Structure prediction by ZEFSAII (Michael W. Deem and Ramdas Pophale) SiO2 
 PCOD8212034
Probable space group: P M M A
;
_chemical_formula_sum "Si O2"
_cell_formula_units_Z 64
_cell_length_a 19.087787
_cell_length_b 8.820407
_cell_length_c 21.351701
_cell_angle_alpha 90.000000
_cell_angle_beta 90.000000
_cell_angle_gamma 90.000000
_cell_volume 3594.816153
_symmetry_space_group_name_H-M "P M M A"
_symmetry_group_IT_number 51
_symmetry_cell_setting 'orthorhombic'
loop_
_space_group_symop_operation_xyz
x,y,z
1/2-x,-y,z
1/2+x,-y,-z
-x,y,-z
-x,-y,-z
1/2+x,y,-z
1/2-x,y,z
x,-y,z
loop_
_atom_site_type_symbol
_atom_site_label
_atom_site_fract_x
_atom_site_fract_y
_atom_site_fract_z
Si Si1 0.060433 0.819158 0.815441
Si Si2 0.331159 0.177284 0.036026
Si Si3 0.415009 0.321047 0.146312
Si Si4 0.479969 0.833161 0.682834
Si Si5 0.168743 0.674694 0.905110
Si Si6 0.028956 0.321190 0.435314
Si Si7 0.174263 0.675135 0.384249
Si Si8 0.634949 0.168006 0.735614
O O1 0.065964 0.772735 0.741471
O O2 0.127483 0.744585 0.846974
O O3 0.990400 0.757283 0.848035
O O4 0.060570 0.000000 0.822382
O O5 0.250000 0.213357 0.050518
O O6 0.380078 0.273513 0.081441
O O7 0.347593 0.000000 0.043240
O O8 0.350721 0.229438 0.966350
O O9 0.425167 0.500000 0.149050
O O10 0.362966 0.268236 0.201715
O O11 0.478060 0.725637 0.622027
O O12 0.557301 0.842147 0.709739
O O13 0.454693 0.000000 0.661552
O O14 0.250000 0.690749 0.888419
O O15 0.147689 0.500000 0.915937
O O16 0.027599 0.500000 0.440051
O O17 0.109045 0.260987 0.425189
O O18 0.000000 0.249677 0.500000
O O19 0.250000 0.697166 0.418856
O O20 0.159028 0.500000 0.370300
O O21 0.182300 0.757256 0.317698
O O22 0.663624 0.000000 0.751433
#
# Coordination Sequence:
#
# PCOD8212034 Si02
#       8
#     8   8   8   8   8   8   8   8
#     4  10  20  35  55  78 103 131 167 209 252 299
#     4  10  21  37  54  71  96 132 171 210 254 305
#     4  11  21  33  51  75 103 133 167 207 252 299
#     4   8  16  30  48  71  96 122 154 194 236 280
#     4  10  21  37  56  78 102 128 164 210 260 312
#     4   9  17  29  47  71  97 128 164 198 237 290
#     4   9  17  29  45  66  93 125 162 203 243 284
#     4   9  17  30  46  66  94 125 158 195 237 288
#
# _framework density 17.803412999999999
#
# number of rings (size 3 to 8) (size 9 to 14) (size 15 to 20)
#    0.000    2.500    0.000    3.375    0.000    6.500 
#    0.000    2.500    0.000    0.750    0.000    1.750 
#    0.000    0.000    0.000    0.000    0.000    0.000 
#
# Total GULP energy -793323.869115 kJ/mol
# GULP energy per Si atom -12395.685455 kJ/mol
# Density = 1.776289 g / cm^3
# Si number density = 17.803413 Si / 1000 Ang^3
#
#
#
# Elastic Constant Matrix: (Units=GPa)
#
#
# Indices 1 2 3 4 5 6 
#
# 1 68.9926 27.8381 54.2621 0.0000 0.0000 0.0000
# 2 27.8381 64.2985 25.5047 0.0000 0.0000 0.0000
# 3 54.2621 25.5047 112.8809 0.0000 0.0000 0.0000
# 4 0.0000 0.0000 0.0000 26.6369 0.0000 0.0000
# 5 0.0000 0.0000 0.0000 0.0000 21.2576 0.0000
# 6 0.0000 0.0000 0.0000 0.0000 0.0000 21.4474
#
#
#
# Elastic Compliance Matrix: (Units=1/GPa)
#
#
# Indices 1 2 3 4 5 6 
#
# 1 0.025798 -0.006865 -0.010850 0.000000 0.000000 0.000000
# 2 -0.006865 0.018911 -0.000973 0.000000 0.000000 0.000000
# 3 -0.010850 -0.000973 0.014294 0.000000 0.000000 0.000000
# 4 0.000000 0.000000 0.000000 0.037542 0.000000 0.000000
# 5 0.000000 0.000000 0.000000 0.000000 0.047042 0.000000
# 6 0.000000 0.000000 0.000000 0.000000 0.000000 0.046626
#
#
# Mechanical properties :
#
#
# Convention : Reuss Voigt Hill
#
# Bulk Modulus (GPa) = 46.23856 51.26466 48.75161
# Shear Modulus (GPa) = 21.29501 23.10618 22.20060
#
# Velocity S-wave (km/s) = 3.46225 3.60648 3.53510
# Velocity P-wave (km/s) = 6.48159 6.79703 6.64118
#
# Compressibility (1/GPa) = 0.02162697
#
# Stress axis : x y z
#
# Youngs Moduli (GPa) = 38.76305 52.88038 69.95863
#
# Poissons Ratio (x) = 0.36305 0.75904
# Poissons Ratio (y) = 0.26613 0.06803
# Poissons Ratio (z) = 0.42057 0.05143
#
# Static dielectric constant tensor:
#      x y z
#    x 3.234320 0.000000 0.000000 
#    y 0.000000 3.413420 0.000000 
#    z 0.000000 0.000000 3.466610 
# 
# 
# High freq. dielectric constant tensor:
#      x y z
#    x 1.668220 0.000000 0.000000 
#    y 0.000000 1.695670 0.000000 
#    z 0.000000 0.000000 1.679770 
# 
# From -- ./inp_files/33815.got.cif
#   From: 2010.03.12/outbox.cif.g09.slc.cpg/sg51_17_cif.got.tgz:33815.got - 2010.04.16 13:43:02.
