data_PCOD8212288
_publ_section_title
;
Structure prediction by ZEFSAII (Michael W. Deem and Ramdas Pophale) SiO2 
 PCOD8212288
Probable space group: P M M A
;
_chemical_formula_sum "Si O2"
_cell_formula_units_Z 56
_cell_length_a 21.097934
_cell_length_b 14.548051
_cell_length_c 9.123080
_cell_angle_alpha 90.000000
_cell_angle_beta 90.000000
_cell_angle_gamma 90.000000
_cell_volume 2800.181793
_symmetry_space_group_name_H-M "P M M A"
_symmetry_group_IT_number 51
_symmetry_cell_setting 'orthorhombic'
loop_
_space_group_symop_operation_xyz
x,y,z
1/2-x,-y,z
1/2+x,-y,-z
-x,y,-z
-x,-y,-z
1/2+x,y,-z
1/2-x,y,z
x,-y,z
loop_
_atom_site_type_symbol
_atom_site_label
_atom_site_fract_x
_atom_site_fract_y
_atom_site_fract_z
Si Si1 0.571846 0.393513 0.549222
Si Si2 0.005208 0.894836 0.671363
Si Si3 0.149615 0.103957 0.743525
Si Si4 0.902082 0.763334 0.765476
Si Si5 0.677514 0.393244 0.311273
Si Si6 0.320811 0.260885 0.952651
Si Si7 0.179688 0.101758 0.422544
O O1 0.500000 0.373326 0.500000
O O2 0.580742 0.500000 0.590321
O O3 0.584022 0.334809 0.693895
O O4 0.624560 0.363302 0.429622
O O5 0.964628 0.826492 0.773415
O O6 0.000000 0.865714 0.500000
O O7 0.075085 0.881460 0.730266
O O8 0.982205 0.000000 0.690563
O O9 0.179095 0.163344 0.872134
O O10 0.180880 0.134422 0.590589
O O11 0.167445 0.000000 0.782178
O O12 0.853176 0.821962 0.672392
O O13 0.874056 0.740035 0.923354
O O14 0.750000 0.371402 0.365425
O O15 0.670209 0.500000 0.275303
O O16 0.661617 0.340531 0.161795
O O17 0.250000 0.277081 0.017542
O O18 0.250000 0.093190 0.360964
O O19 0.146258 0.000000 0.412898
#
# Coordination Sequence:
#
# PCOD8212288 Si02
#       7
#     8   8   8   8   8   8   8
#     4  10  23  42  65  95 124 152 197 256 309 358
#     4  10  20  37  60  86 115 150 202 253 290 342
#     4  10  21  38  59  81 113 159 204 245 287 342
#     4  12  23  36  59  87 122 158 194 239 308 359
#     4   9  20  42  68  88 114 158 205 246 293 358
#     4  11  25  40  56  86 124 157 194 240 294 359
#     4  10  20  35  58  87 117 155 204 252 298 349
#
# _framework density 19.998702000000002
#
# number of rings (size 3 to 8) (size 9 to 14) (size 15 to 20)
#    0.000    1.714    1.429    2.571    2.000    5.429 
#    0.000    1.429    0.000    2.571    0.000    0.000 
#    0.000    0.000    0.000    0.000    0.000    0.000 
#
# Total GULP energy -694356.531339 kJ/mol
# GULP energy per Si atom -12399.223774 kJ/mol
# Density = 1.995318 g / cm^3
# Si number density = 19.998702 Si / 1000 Ang^3
#
#
#
# Elastic Constant Matrix: (Units=GPa)
#
#
# Indices 1 2 3 4 5 6 
#
# 1 103.4337 33.4890 31.6489 0.0000 0.0000 0.0000
# 2 33.4890 78.7057 43.3783 0.0000 0.0000 0.0000
# 3 31.6489 43.3783 69.0249 0.0000 0.0000 0.0000
# 4 0.0000 0.0000 0.0000 12.8914 0.0000 0.0000
# 5 0.0000 0.0000 0.0000 0.0000 36.0886 0.0000
# 6 0.0000 0.0000 0.0000 0.0000 0.0000 27.9326
#
#
#
# Elastic Compliance Matrix: (Units=1/GPa)
#
#
# Indices 1 2 3 4 5 6 
#
# 1 0.011720 -0.003098 -0.003427 0.000000 0.000000 0.000000
# 2 -0.003098 0.020257 -0.011310 0.000000 0.000000 0.000000
# 3 -0.003427 -0.011310 0.023166 0.000000 0.000000 0.000000
# 4 0.000000 0.000000 0.000000 0.077571 0.000000 0.000000
# 5 0.000000 0.000000 0.000000 0.000000 0.027710 0.000000
# 6 0.000000 0.000000 0.000000 0.000000 0.000000 0.035800
#
#
# Mechanical properties :
#
#
# Convention : Reuss Voigt Hill
#
# Bulk Modulus (GPa) = 51.35112 52.02183 51.68648
# Shear Modulus (GPa) = 20.97446 24.89241 22.93344
#
# Velocity S-wave (km/s) = 3.24202 3.53186 3.39004
# Velocity P-wave (km/s) = 6.30454 6.53461 6.42060
#
# Compressibility (1/GPa) = 0.01947377
#
# Stress axis : x y z
#
# Youngs Moduli (GPa) = 85.32723 49.36502 43.16596
#
# Poissons Ratio (x) = 0.15294 0.14791
# Poissons Ratio (y) = 0.26435 0.48821
# Poissons Ratio (z) = 0.29238 0.55832
#
# Static dielectric constant tensor:
#      x y z
#    x 4.037750 0.000000 0.000000 
#    y 0.000000 3.731320 0.000000 
#    z 0.000000 0.000000 3.218920 
# 
# 
# High freq. dielectric constant tensor:
#      x y z
#    x 1.799270 0.000000 0.000000 
#    y 0.000000 1.790910 0.000000 
#    z 0.000000 0.000000 1.748500 
# 
# From -- ./inp_files/10980.got.cif
#   From: 2010.03.12/outbox.cif.g09.slc.cpg/sg51_6_cif.got.tgz:10980.got - 2010.04.16 13:43:02.
