data_PCOD8212783
_publ_section_title
;
Structure prediction by ZEFSAII (Michael W. Deem and Ramdas Pophale) SiO2 
 PCOD8212783
Probable space group: P M M A
;
_chemical_formula_sum "Si O2"
_cell_formula_units_Z 48
_cell_length_a 18.280912
_cell_length_b 8.515601
_cell_length_c 14.556242
_cell_angle_alpha 90.000000
_cell_angle_beta 90.000000
_cell_angle_gamma 90.000000
_cell_volume 2266.013170
_symmetry_space_group_name_H-M "P M M A"
_symmetry_group_IT_number 51
_symmetry_cell_setting 'orthorhombic'
loop_
_space_group_symop_operation_xyz
x,y,z
1/2-x,-y,z
1/2+x,-y,-z
-x,y,-z
-x,-y,-z
1/2+x,y,-z
1/2-x,y,z
x,-y,z
loop_
_atom_site_type_symbol
_atom_site_label
_atom_site_fract_x
_atom_site_fract_y
_atom_site_fract_z
Si Si1 0.407450 0.180517 0.739963
Si Si2 0.361474 0.183195 0.133544
Si Si3 0.828688 0.682014 0.682859
Si Si4 0.250000 0.818016 0.794419
Si Si5 0.750000 0.315665 0.005291
Si Si6 0.489916 0.682665 0.897584
Si Si7 0.521123 0.315369 0.598547
O O1 0.320980 0.219133 0.731057
O O2 0.426533 0.223367 0.845344
O O3 0.456729 0.280585 0.670764
O O4 0.424465 0.000000 0.719935
O O5 0.315186 0.219037 0.224179
O O6 0.434300 0.283775 0.153412
O O7 0.378826 0.000000 0.123420
O O8 0.321782 0.240730 0.041013
O O9 0.750000 0.699793 0.629284
O O10 0.842741 0.500000 0.707176
O O11 0.898535 0.751064 0.627009
O O12 0.250000 0.714643 0.886301
O O13 0.250000 0.000000 0.824860
O O14 0.750000 0.500000 0.986680
O O15 0.469379 0.500000 0.897546
O O16 0.500000 0.749748 0.000000
O O17 0.500000 0.240224 0.500000
O O18 0.527853 0.500000 0.588673
#
# Coordination Sequence:
#
# PCOD8212783 Si02
#       7
#     8   8   8   4   4   8   8
#     4  11  23  41  65  90 124 167 211 264 322 381
#     4  12  23  35  56  86 122 163 207 254 310 372
#     4  10  20  37  62  89 124 165 202 249 312 377
#     4  10  24  44  62  87 126 169 214 263 319 379
#     4  12  24  38  58  87 126 171 216 265 315 365
#     4  11  23  38  58  86 120 161 210 261 312 374
#     4  10  22  42  67  96 129 164 208 265 325 385
#
# _framework density 21.182577999999999
#
# number of rings (size 3 to 8) (size 9 to 14) (size 15 to 20)
#    0.000    1.167    2.500    4.250    0.000    5.667 
#    1.500    0.000    0.000    0.000    0.000    0.000 
#    0.000    0.000    0.000    0.000    0.000    0.000 
#
# Total GULP energy -595102.474998 kJ/mol
# GULP energy per Si atom -12397.968229 kJ/mol
# Density = 2.113437 g / cm^3
# Si number density = 21.182578 Si / 1000 Ang^3
#
#
#
# Elastic Constant Matrix: (Units=GPa)
#
#
# Indices 1 2 3 4 5 6 
#
# 1 156.6324 12.7964 44.8156 0.0000 0.0000 0.0000
# 2 12.7964 36.4449 9.2729 0.0000 0.0000 0.0000
# 3 44.8156 9.2729 98.3701 0.0000 0.0000 0.0000
# 4 0.0000 0.0000 0.0000 14.9221 0.0000 0.0000
# 5 0.0000 0.0000 0.0000 0.0000 23.7622 0.0000
# 6 0.0000 0.0000 0.0000 0.0000 0.0000 23.6414
#
#
#
# Elastic Compliance Matrix: (Units=1/GPa)
#
#
# Indices 1 2 3 4 5 6 
#
# 1 0.007454 -0.001796 -0.003227 0.000000 0.000000 0.000000
# 2 -0.001796 0.028546 -0.001872 0.000000 0.000000 0.000000
# 3 -0.003227 -0.001872 0.011812 0.000000 0.000000 0.000000
# 4 0.000000 0.000000 0.000000 0.067015 0.000000 0.000000
# 5 0.000000 0.000000 0.000000 0.000000 0.042084 0.000000
# 6 0.000000 0.000000 0.000000 0.000000 0.000000 0.042299
#
#
# Mechanical properties :
#
#
# Convention : Reuss Voigt Hill
#
# Bulk Modulus (GPa) = 29.39336 47.24638 38.31987
# Shear Modulus (GPa) = 22.28747 27.43597 24.86172
#
# Velocity S-wave (km/s) = 3.24722 3.60281 3.42963
# Velocity P-wave (km/s) = 5.28825 6.29760 5.81487
#
# Compressibility (1/GPa) = 0.03402129
#
# Stress axis : x y z
#
# Youngs Moduli (GPa) = 134.14959 35.03133 84.65795
#
# Poissons Ratio (x) = 0.06293 0.27317
# Poissons Ratio (y) = 0.24098 0.15852
# Poissons Ratio (z) = 0.43287 0.06560
#
# Static dielectric constant tensor:
#      x y z
#    x 4.188800 0.000000 0.000000 
#    y 0.000000 3.593730 0.000000 
#    z 0.000000 0.000000 3.704110 
# 
# 
# High freq. dielectric constant tensor:
#      x y z
#    x 1.853190 0.000000 0.000000 
#    y 0.000000 1.818600 0.000000 
#    z 0.000000 0.000000 1.803970 
# 
# From -- ./inp_files/24978.got.cif
#   From: 2010.03.12/outbox.cif.g09.slc.cpg/sg51_13_cif.got.tgz:24978.got - 2010.04.16 13:43:02.
