data_PCOD8212886
_publ_section_title
;
Structure prediction by ZEFSAII (Michael W. Deem and Ramdas Pophale) SiO2 
 PCOD8212886
Probable space group: P M M A
;
_chemical_formula_sum "Si O2"
_cell_formula_units_Z 48
_cell_length_a 16.791141
_cell_length_b 16.678255
_cell_length_c 8.731683
_cell_angle_alpha 90.000000
_cell_angle_beta 90.000000
_cell_angle_gamma 90.000000
_cell_volume 2445.281030
_symmetry_space_group_name_H-M "P M M A"
_symmetry_group_IT_number 51
_symmetry_cell_setting 'orthorhombic'
loop_
_space_group_symop_operation_xyz
x,y,z
1/2-x,-y,z
1/2+x,-y,-z
-x,y,-z
-x,-y,-z
1/2+x,y,-z
1/2-x,y,z
x,-y,z
loop_
_atom_site_type_symbol
_atom_site_label
_atom_site_fract_x
_atom_site_fract_y
_atom_site_fract_z
Si Si1 0.500000 0.809553 0.000000
Si Si2 0.884147 0.687588 0.154767
Si Si3 0.985990 0.594803 0.669089
Si Si4 0.884017 0.088143 0.818180
Si Si5 0.250000 0.096565 0.416979
Si Si6 0.750000 0.779641 0.303195
Si Si7 0.662019 0.592201 0.865220
Si Si8 0.250000 0.915228 0.935550
O O1 0.432309 0.759466 0.918826
O O2 0.539028 0.859201 0.859583
O O3 0.827152 0.722067 0.289345
O O4 0.942384 0.621853 0.224483
O O5 0.836257 0.643619 0.020194
O O6 0.985930 0.500000 0.659995
O O7 0.902496 0.625322 0.742636
O O8 0.000000 0.631660 0.500000
O O9 0.830138 0.119284 0.676602
O O10 0.916641 0.000000 0.777030
O O11 0.829047 0.084656 0.965606
O O12 0.250000 0.159057 0.556059
O O13 0.250000 0.000000 0.457234
O O14 0.750000 0.834683 0.156049
O O15 0.750000 0.599760 0.790324
O O16 0.642461 0.500000 0.906819
O O17 0.250000 0.000000 0.840237
#
# Coordination Sequence:
#
# PCOD8212886 Si02
#       8
#     4   8   8   8   4   4   8   4
#     4  12  21  34  61  88 120 150 196 258 305 358
#     4  12  23  37  58  89 122 161 199 252 310 358
#     4  10  22  42  63  86 121 163 204 247 306 372
#     4   9  19  37  60  85 111 153 205 246 294 359
#     4   9  21  43  65  84 119 166 201 243 307 369
#     4  12  23  38  55  92 123 152 204 249 304 362
#     4  10  20  39  65  89 117 159 212 257 296 358
#     4   9  17  33  57  78 106 148 195 240 280 341
#
# _framework density 19.629645
#
# number of rings (size 3 to 8) (size 9 to 14) (size 15 to 20)
#    0.000    1.667    4.167    2.000    0.000    2.667 
#    1.500    0.000    0.000    2.000    0.000    0.000 
#    0.000    0.000    0.000    0.000    0.000    0.000 
#
# Total GULP energy -594872.322306 kJ/mol
# GULP energy per Si atom -12393.173381 kJ/mol
# Density = 1.958497 g / cm^3
# Si number density = 19.629645 Si / 1000 Ang^3
#
#
#
# Elastic Constant Matrix: (Units=GPa)
#
#
# Indices 1 2 3 4 5 6 
#
# 1 116.7250 27.7796 44.6483 0.0000 0.0000 0.0000
# 2 27.7796 32.4541 26.5379 0.0000 0.0000 0.0000
# 3 44.6483 26.5379 97.5102 0.0000 0.0000 0.0000
# 4 0.0000 0.0000 0.0000 -13.2729 0.0000 0.0000
# 5 0.0000 0.0000 0.0000 0.0000 -74.0884 0.0000
# 6 0.0000 0.0000 0.0000 0.0000 0.0000 93.5302
#
#
#
# Elastic Compliance Matrix: (Units=1/GPa)
#
#
# Indices 1 2 3 4 5 6 
#
# 1 0.011547 -0.007152 -0.003341 0.000000 0.000000 0.000000
# 2 -0.007152 0.044063 -0.008717 0.000000 0.000000 0.000000
# 3 -0.003341 -0.008717 0.014157 0.000000 0.000000 0.000000
# 4 0.000000 0.000000 0.000000 -0.075342 0.000000 0.000000
# 5 0.000000 0.000000 0.000000 0.000000 -0.013497 0.000000
# 6 0.000000 0.000000 0.000000 0.000000 0.000000 0.010692
#
#
# Mechanical properties :
#
#
# Convention : Reuss Voigt Hill
#
# Bulk Modulus (GPa) = 31.90067 49.40232 40.65149
# Shear Modulus (GPa) = 123.49035 11.08203 67.28619
#
# Velocity S-wave (km/s) = 7.94020 2.37862 5.86108
# Velocity P-wave (km/s) = 10.01743 5.72412 8.15826
#
# Compressibility (1/GPa) = 0.03134731
#
# Stress axis : x y z
#
# Youngs Moduli (GPa) = 86.60121 22.69495 70.63460
#
# Poissons Ratio (x) = 0.16232 0.23597
# Poissons Ratio (y) = 0.61939 0.61572
# Poissons Ratio (z) = 0.28931 0.19783
#
# Static dielectric constant tensor:
#      x y z
#    x 3.710120 0.000000 0.000000 
#    y 0.000000 3.730150 0.000000 
#    z 0.000000 0.000000 3.567460 
# 
# 
# High freq. dielectric constant tensor:
#      x y z
#    x 1.771710 0.000000 0.000000 
#    y 0.000000 1.771850 0.000000 
#    z 0.000000 0.000000 1.742190 
# 
# From -- ./inp_files/9771.got.cif
#   From: 2010.03.12/outbox.cif.g09.slc.cpg/sg51_5_cif.got.tgz:9771.got - 2010.04.16 13:43:02.
