data_PCOD8212121
_publ_section_title
;
Structure prediction by ZEFSAII (Michael W. Deem and Ramdas Pophale) SiO2 
 PCOD8212121
Probable space group: P M M A
;
_chemical_formula_sum "Si O2"
_cell_formula_units_Z 48
_cell_length_a 28.099890
_cell_length_b 9.193912
_cell_length_c 10.193124
_cell_angle_alpha 90.000000
_cell_angle_beta 90.000000
_cell_angle_gamma 90.000000
_cell_volume 2633.372342
_symmetry_space_group_name_H-M "P M M A"
_symmetry_group_IT_number 51
_symmetry_cell_setting 'orthorhombic'
loop_
_space_group_symop_operation_xyz
x,y,z
1/2-x,-y,z
1/2+x,-y,-z
-x,y,-z
-x,-y,-z
1/2+x,y,-z
1/2-x,y,z
x,-y,z
loop_
_atom_site_type_symbol
_atom_site_label
_atom_site_fract_x
_atom_site_fract_y
_atom_site_fract_z
Si Si1 0.607890 0.669585 0.525472
Si Si2 0.301649 0.172428 0.103809
Si Si3 0.448677 0.669926 0.218078
Si Si4 0.398794 0.826900 0.983998
Si Si5 0.558687 0.331791 0.256532
Si Si6 0.696552 0.169783 0.599976
O O1 0.617939 0.500000 0.532835
O O2 0.581381 0.723552 0.656778
O O3 0.574857 0.708817 0.402677
O O4 0.658612 0.748477 0.508834
O O5 0.250000 0.228557 0.050718
O O6 0.309314 0.229542 0.251749
O O7 0.300789 0.000000 0.109185
O O8 0.344748 0.226896 0.012886
O O9 0.440507 0.500000 0.189200
O O10 0.503322 0.704010 0.247064
O O11 0.434307 0.761239 0.091194
O O12 0.411788 0.768558 0.841656
O O13 0.403228 0.000000 0.987753
O O14 0.568904 0.500000 0.223228
O O15 0.750000 0.202275 0.548874
O O16 0.685410 0.000000 0.592945
#
# Coordination Sequence:
#
# PCOD8212121 Si02
#       6
#     8   8   8   8   8   8
#     4  10  20  35  56  80 105 137 180 223 260 304
#     4   8  15  30  52  76 102 133 168 209 257 307
#     4  10  20  36  57  77 101 140 184 219 259 313
#     4  11  21  34  55  82 108 136 175 221 264 310
#     4  10  22  38  53  73 108 147 177 212 262 318
#     4   9  17  32  55  80 106 137 172 212 263 318
#
# _framework density 18.22758
#
# number of rings (size 3 to 8) (size 9 to 14) (size 15 to 20)
#    0.000    2.333    1.667    2.500    0.000    5.667 
#    0.000    0.833    0.000    8.000    0.000    0.000 
#    0.000    0.000    0.000    0.000    0.000    0.000 
#
# Total GULP energy -595176.692861 kJ/mol
# GULP energy per Si atom -12399.514435 kJ/mol
# Density = 1.818609 g / cm^3
# Si number density = 18.227580 Si / 1000 Ang^3
#
#
#
# Elastic Constant Matrix: (Units=GPa)
#
#
# Indices 1 2 3 4 5 6 
#
# 1 125.1894 35.5133 26.6259 0.0000 0.0000 0.0000
# 2 35.5133 40.0774 22.9660 0.0000 0.0000 0.0000
# 3 26.6259 22.9660 56.9342 0.0000 0.0000 0.0000
# 4 0.0000 0.0000 0.0000 23.3181 0.0000 0.0000
# 5 0.0000 0.0000 0.0000 0.0000 9.1966 0.0000
# 6 0.0000 0.0000 0.0000 0.0000 0.0000 29.4976
#
#
#
# Elastic Compliance Matrix: (Units=1/GPa)
#
#
# Indices 1 2 3 4 5 6 
#
# 1 0.010773 -0.008662 -0.001544 0.000000 0.000000 0.000000
# 2 -0.008662 0.039417 -0.011849 0.000000 0.000000 0.000000
# 3 -0.001544 -0.011849 0.023066 0.000000 0.000000 0.000000
# 4 0.000000 0.000000 0.000000 0.042885 0.000000 0.000000
# 5 0.000000 0.000000 0.000000 0.000000 0.108736 0.000000
# 6 0.000000 0.000000 0.000000 0.000000 0.000000 0.033901
#
#
# Mechanical properties :
#
#
# Convention : Reuss Voigt Hill
#
# Bulk Modulus (GPa) = 34.30995 43.60127 38.95561
# Shear Modulus (GPa) = 15.99463 21.54217 18.76840
#
# Velocity S-wave (km/s) = 2.96547 3.44153 3.21233
# Velocity P-wave (km/s) = 5.53076 6.30592 5.93101
#
# Compressibility (1/GPa) = 0.02914606
#
# Stress axis : x y z
#
# Youngs Moduli (GPa) = 92.82079 25.36982 43.35363
#
# Poissons Ratio (x) = 0.21974 0.06696
# Poissons Ratio (y) = 0.80397 0.51371
# Poissons Ratio (z) = 0.14336 0.30061
#
# Static dielectric constant tensor:
#      x y z
#    x 3.697870 0.000000 0.000000 
#    y 0.000000 3.141190 0.000000 
#    z 0.000000 0.000000 3.267110 
# 
# 
# High freq. dielectric constant tensor:
#      x y z
#    x 1.723940 0.000000 0.000000 
#    y 0.000000 1.685750 0.000000 
#    z 0.000000 0.000000 1.691270 
# 
# From -- ./inp_files/12776.got.cif
#   From: 2010.03.12/outbox.cif.g09.slc.cpg/sg51_7_cif.got.tgz:12776.got - 2010.04.16 13:43:02.
