data_PCOD8212254
_publ_section_title
;
Structure prediction by ZEFSAII (Michael W. Deem and Ramdas Pophale) SiO2 
 PCOD8212254
Probable space group: P M M A
;
_chemical_formula_sum "Si O2"
_cell_formula_units_Z 52
_cell_length_a 9.344337
_cell_length_b 10.564841
_cell_length_c 28.010534
_cell_angle_alpha 90.000000
_cell_angle_beta 90.000000
_cell_angle_gamma 90.000000
_cell_volume 2765.240102
_symmetry_space_group_name_H-M "P M M A"
_symmetry_group_IT_number 51
_symmetry_cell_setting 'orthorhombic'
loop_
_space_group_symop_operation_xyz
x,y,z
1/2-x,-y,z
1/2+x,-y,-z
-x,y,-z
-x,-y,-z
1/2+x,y,-z
1/2-x,y,z
x,-y,z
loop_
_atom_site_type_symbol
_atom_site_label
_atom_site_fract_x
_atom_site_fract_y
_atom_site_fract_z
Si Si1 0.579558 0.147475 0.141034
Si Si2 0.470947 0.250763 0.603309
Si Si3 0.419140 0.352651 0.205999
Si Si4 0.588232 0.851805 0.955595
Si Si5 0.250000 0.859481 0.534592
Si Si6 0.250000 0.147878 0.429711
Si Si7 0.919036 0.500000 0.450929
Si Si8 0.592356 0.642974 0.298553
O O1 0.750000 0.170828 0.137550
O O2 0.508244 0.249512 0.176183
O O3 0.505328 0.177174 0.090838
O O4 0.550074 0.000000 0.156322
O O5 0.384804 0.161592 0.567725
O O6 0.625276 0.192668 0.604411
O O7 0.470292 0.386228 0.580495
O O8 0.415540 0.258661 0.657539
O O9 0.250000 0.325129 0.201590
O O10 0.452157 0.500000 0.191063
O O11 0.468654 0.329817 0.260319
O O12 0.750000 0.793397 0.951745
O O13 0.604934 0.000000 0.963920
O O14 0.500000 0.791832 0.000000
O O15 0.250000 0.785430 0.483176
O O16 0.250000 0.000000 0.516204
O O17 0.250000 0.000000 0.435046
O O18 0.750000 0.500000 0.459738
O O19 0.000000 0.500000 0.500000
O O20 0.750000 0.659814 0.274846
O O21 0.575226 0.500000 0.318252
#
# Coordination Sequence:
#
# PCOD8212254 Si02
#       8
#     8   8   8   8   4   4   4   8
#     4  10  20  35  57  87 121 158 201 249 297 347
#     4  12  23  39  62  86 115 144 183 232 277 333
#     4  10  22  39  62  88 114 149 195 241 294 358
#     4   9  16  27  47  78 118 162 205 250 300 351
#     4  11  22  41  63  81 109 156 193 223 266 327
#     4  11  26  43  59  83 115 154 195 225 264 329
#     4  12  24  38  58  92 122 142 174 224 287 338
#     4  10  20  39  61  85 112 144 181 229 287 347
#
# _framework density 18.804877000000001
#
# number of rings (size 3 to 8) (size 9 to 14) (size 15 to 20)
#    0.000    1.538    2.308    3.231    2.154    4.923 
#    0.000    1.538    0.000    0.462    0.000    0.000 
#    0.000    0.000    0.000    0.000    0.000    0.000 
#
# Total GULP energy -644286.661908 kJ/mol
# GULP energy per Si atom -12390.128114 kJ/mol
# Density = 1.876208 g / cm^3
# Si number density = 18.804877 Si / 1000 Ang^3
#
#
#
# Elastic Constant Matrix: (Units=GPa)
#
#
# Indices 1 2 3 4 5 6 
#
# 1 137.2092 46.8041 45.1008 0.0000 0.0000 0.0000
# 2 46.8041 77.4347 42.8245 0.0000 0.0000 0.0000
# 3 45.1008 42.8245 100.5898 0.0000 0.0000 0.0000
# 4 0.0000 0.0000 0.0000 25.9273 0.0000 0.0000
# 5 0.0000 0.0000 0.0000 0.0000 36.3724 0.0000
# 6 0.0000 0.0000 0.0000 0.0000 0.0000 31.2538
#
#
#
# Elastic Compliance Matrix: (Units=1/GPa)
#
#
# Indices 1 2 3 4 5 6 
#
# 1 0.009605 -0.004478 -0.002400 0.000000 0.000000 0.000000
# 2 -0.004478 0.018979 -0.006072 0.000000 0.000000 0.000000
# 3 -0.002400 -0.006072 0.013603 0.000000 0.000000 0.000000
# 4 0.000000 0.000000 0.000000 0.038569 0.000000 0.000000
# 5 0.000000 0.000000 0.000000 0.000000 0.027493 0.000000
# 6 0.000000 0.000000 0.000000 0.000000 0.000000 0.031996
#
#
# Mechanical properties :
#
#
# Convention : Reuss Voigt Hill
#
# Bulk Modulus (GPa) = 61.40326 64.96581 63.18454
# Shear Modulus (GPa) = 29.14201 30.74432 29.94316
#
# Velocity S-wave (km/s) = 3.94090 4.04779 3.99470
# Velocity P-wave (km/s) = 7.30967 7.51455 7.41282
#
# Compressibility (1/GPa) = 0.01628578
#
# Stress axis : x y z
#
# Youngs Moduli (GPa) = 104.11774 52.68991 73.51587
#
# Poissons Ratio (x) = 0.23595 0.17643
# Poissons Ratio (y) = 0.46625 0.44640
# Poissons Ratio (z) = 0.24987 0.31994
#
# Static dielectric constant tensor:
#      x y z
#    x 4.109830 0.000000 0.000000 
#    y 0.000000 3.350410 0.000000 
#    z 0.000000 0.000000 3.367450 
# 
# 
# High freq. dielectric constant tensor:
#      x y z
#    x 1.749940 0.000000 0.000000 
#    y 0.000000 1.707440 0.000000 
#    z 0.000000 0.000000 1.726440 
# 
# From -- ./inp_files/36287.got.cif
#   From: 2010.03.12/outbox.cif.g09.slc.cpg/sg51_19_cif.got.tgz:36287.got - 2010.04.16 13:43:02.
