data_PCOD8212091
_publ_section_title
;
Structure prediction by ZEFSAII (Michael W. Deem and Ramdas Pophale) SiO2 
 PCOD8212091
Probable space group: P M M A
;
_chemical_formula_sum "Si O2"
_cell_formula_units_Z 44
_cell_length_a 8.514975
_cell_length_b 28.338045
_cell_length_c 9.252865
_cell_angle_alpha 90.000000
_cell_angle_beta 90.000000
_cell_angle_gamma 90.000000
_cell_volume 2232.695457
_symmetry_space_group_name_H-M "P M M A"
_symmetry_group_IT_number 51
_symmetry_cell_setting 'orthorhombic'
loop_
_space_group_symop_operation_xyz
x,y,z
1/2-x,-y,z
1/2+x,-y,-z
-x,y,-z
-x,-y,-z
1/2+x,y,-z
1/2-x,y,z
x,-y,z
loop_
_atom_site_type_symbol
_atom_site_label
_atom_site_fract_x
_atom_site_fract_y
_atom_site_fract_z
Si Si1 0.936525 0.590403 0.339275
Si Si2 0.564687 0.500000 0.160633
Si Si3 0.435748 0.676891 0.160057
Si Si4 0.564136 0.238272 0.339391
Si Si5 0.436858 0.138607 0.343053
Si Si6 0.435467 0.948110 0.156566
O O1 0.750000 0.594180 0.343003
O O2 0.995653 0.545926 0.245833
O O3 0.000000 0.584466 0.500000
O O4 0.006260 0.636880 0.268228
O O5 0.750000 0.500000 0.151783
O O6 0.500000 0.500000 0.000000
O O7 0.250000 0.676860 0.153573
O O8 0.495887 0.726278 0.221593
O O9 0.500000 0.667750 0.000000
O O10 0.500000 0.248938 0.500000
O O11 0.750000 0.242535 0.344622
O O12 0.512464 0.186755 0.283200
O O13 0.500000 0.128667 0.500000
O O14 0.250000 0.143746 0.341240
O O15 0.500835 0.093817 0.254947
O O16 0.250000 0.946325 0.151964
O O17 0.491580 0.000000 0.212386
O O18 0.500000 0.938002 0.000000
#
# Coordination Sequence:
#
# PCOD8212091 Si02
#       6
#     8   4   8   8   8   8
#     4  11  23  41  63  91 122 159 201 243 290 343
#     4  10  23  40  62  90 124 160 199 244 293 344
#     4  12  25  42  62  88 119 153 193 240 290 343
#     4  11  22  39  61  85 114 150 190 234 285 342
#     4  10  20  35  55  81 112 145 185 232 280 334
#     4   9  19  35  54  77 107 143 183 227 276 332
#
# _framework density 19.707121000000001
#
# number of rings (size 3 to 8) (size 9 to 14) (size 15 to 20)
#    0.000    1.455    0.000    6.818    0.000    5.455 
#    0.000    1.818    0.000    0.000    0.000    0.000 
#    0.000    0.000    0.000    0.000    0.000    0.000 
#
# Total GULP energy -545663.491732 kJ/mol
# GULP energy per Si atom -12401.442994 kJ/mol
# Density = 1.966227 g / cm^3
# Si number density = 19.707121 Si / 1000 Ang^3
#
#
#
# Elastic Constant Matrix: (Units=GPa)
#
#
# Indices 1 2 3 4 5 6 
#
# 1 103.5625 40.9993 47.0635 0.0000 0.0000 0.0000
# 2 40.9993 162.1984 93.0735 0.0000 0.0000 0.0000
# 3 47.0635 93.0735 127.9447 0.0000 0.0000 0.0000
# 4 0.0000 0.0000 0.0000 45.3667 0.0000 0.0000
# 5 0.0000 0.0000 0.0000 0.0000 37.9991 0.0000
# 6 0.0000 0.0000 0.0000 0.0000 0.0000 30.3973
#
#
#
# Elastic Compliance Matrix: (Units=1/GPa)
#
#
# Indices 1 2 3 4 5 6 
#
# 1 0.011660 -0.000834 -0.003682 0.000000 0.000000 0.000000
# 2 -0.000834 0.010643 -0.007435 0.000000 0.000000 0.000000
# 3 -0.003682 -0.007435 0.014579 0.000000 0.000000 0.000000
# 4 0.000000 0.000000 0.000000 0.022043 0.000000 0.000000
# 5 0.000000 0.000000 0.000000 0.000000 0.026316 0.000000
# 6 0.000000 0.000000 0.000000 0.000000 0.000000 0.032898
#
#
# Mechanical properties :
#
#
# Convention : Reuss Voigt Hill
#
# Bulk Modulus (GPa) = 77.05158 83.99757 80.52458
# Shear Modulus (GPa) = 34.16084 36.92392 35.54238
#
# Velocity S-wave (km/s) = 4.16796 4.33324 4.25141
# Velocity P-wave (km/s) = 7.89593 8.23113 8.06527
#
# Compressibility (1/GPa) = 0.01297832
#
# Stress axis : x y z
#
# Youngs Moduli (GPa) = 85.76655 93.96170 68.59266
#
# Poissons Ratio (x) = 0.07841 0.25255
# Poissons Ratio (y) = 0.07157 0.50999
# Poissons Ratio (z) = 0.31578 0.69861
#
# Static dielectric constant tensor:
#      x y z
#    x 3.688550 0.000000 0.000000 
#    y 0.000000 4.103740 0.000000 
#    z 0.000000 0.000000 3.556160 
# 
# 
# High freq. dielectric constant tensor:
#      x y z
#    x 1.778590 0.000000 0.000000 
#    y 0.000000 1.790320 0.000000 
#    z 0.000000 0.000000 1.769990 
# 
# From -- ./inp_files/5884.got.cif
#   From: 2010.03.12/outbox.cif.g09.slc.cpg/sg51_3_cif.got.tgz:5884.got - 2010.04.16 13:43:02.
