data_PCOD8212253
_publ_section_title
;
Structure prediction by ZEFSAII (Michael W. Deem and Ramdas Pophale) SiO2 
 PCOD8212253
Probable space group: P M M A
;
_chemical_formula_sum "Si O2"
_cell_formula_units_Z 48
_cell_length_a 8.692139
_cell_length_b 20.035277
_cell_length_c 14.427437
_cell_angle_alpha 90.000000
_cell_angle_beta 90.000000
_cell_angle_gamma 90.000000
_cell_volume 2512.529679
_symmetry_space_group_name_H-M "P M M A"
_symmetry_group_IT_number 51
_symmetry_cell_setting 'orthorhombic'
loop_
_space_group_symop_operation_xyz
x,y,z
1/2-x,-y,z
1/2+x,-y,-z
-x,y,-z
-x,-y,-z
1/2+x,y,-z
1/2-x,y,z
x,-y,z
loop_
_atom_site_type_symbol
_atom_site_label
_atom_site_fract_x
_atom_site_fract_y
_atom_site_fract_z
Si Si1 0.428974 0.922430 0.401994
Si Si2 0.074225 0.424090 0.716559
Si Si3 0.568847 0.691011 0.601251
Si Si4 0.928230 0.226016 0.903448
Si Si5 0.927682 0.382927 0.903476
Si Si6 0.569235 0.188741 0.283064
O O1 0.500000 0.901467 0.500000
O O2 0.250000 0.903531 0.402381
O O3 0.517580 0.882138 0.323277
O O4 0.456267 0.000000 0.381276
O O5 0.250000 0.399288 0.715369
O O6 0.060256 0.500000 0.681584
O O7 0.977310 0.379108 0.646481
O O8 0.012468 0.420533 0.820889
O O9 0.500000 0.698610 0.500000
O O10 0.750000 0.693898 0.593160
O O11 0.514756 0.751402 0.664844
O O12 0.750000 0.206030 0.899699
O O13 0.951861 0.304513 0.889458
O O14 0.020917 0.188014 0.823909
O O15 0.000000 0.202027 0.000000
O O16 0.750000 0.402965 0.902555
O O17 0.000000 0.407262 0.000000
O O18 0.750000 0.198385 0.293339
#
# Coordination Sequence:
#
# PCOD8212253 Si02
#       6
#     8   8   8   8   8   8
#     4  10  21  38  60  88 124 162 200 242 288 342
#     4  11  24  41  60  83 113 149 190 238 293 352
#     4  12  25  42  62  85 113 148 192 242 291 345
#     4  10  20  35  57  87 119 153 192 238 288 344
#     4  10  20  35  58  84 114 150 188 236 289 347
#     4  12  23  37  61  90 122 157 194 240 288 342
#
# _framework density 19.10425
#
# number of rings (size 3 to 8) (size 9 to 14) (size 15 to 20)
#    0.000    1.167    1.667    5.500    0.000    4.333 
#    0.000    0.000    0.000    0.500    0.000    0.000 
#    0.000    0.000    0.000    0.000    0.000    0.000 
#
# Total GULP energy -595531.196984 kJ/mol
# GULP energy per Si atom -12406.899937 kJ/mol
# Density = 1.906077 g / cm^3
# Si number density = 19.104250 Si / 1000 Ang^3
#
#
#
# Elastic Constant Matrix: (Units=GPa)
#
#
# Indices 1 2 3 4 5 6 
#
# 1 160.6452 42.8433 57.7914 0.0000 0.0000 0.0000
# 2 42.8433 68.2100 43.9491 0.0000 0.0000 0.0000
# 3 57.7914 43.9491 131.9867 0.0000 0.0000 0.0000
# 4 0.0000 0.0000 0.0000 16.2978 0.0000 0.0000
# 5 0.0000 0.0000 0.0000 0.0000 41.6089 0.0000
# 6 0.0000 0.0000 0.0000 0.0000 0.0000 26.0888
#
#
#
# Elastic Compliance Matrix: (Units=1/GPa)
#
#
# Indices 1 2 3 4 5 6 
#
# 1 0.008004 -0.003526 -0.002330 0.000000 0.000000 0.000000
# 2 -0.003526 0.020218 -0.005189 0.000000 0.000000 0.000000
# 3 -0.002330 -0.005189 0.010325 0.000000 0.000000 0.000000
# 4 0.000000 0.000000 0.000000 0.061358 0.000000 0.000000
# 5 0.000000 0.000000 0.000000 0.000000 0.024033 0.000000
# 6 0.000000 0.000000 0.000000 0.000000 0.000000 0.038331
#
#
# Mechanical properties :
#
#
# Convention : Reuss Voigt Hill
#
# Bulk Modulus (GPa) = 60.76388 72.22329 66.49359
# Shear Modulus (GPa) = 26.33755 31.21630 28.77693
#
# Velocity S-wave (km/s) = 3.71701 4.04666 3.88533
# Velocity P-wave (km/s) = 7.09204 7.72793 7.41680
#
# Compressibility (1/GPa) = 0.01645714
#
# Stress axis : x y z
#
# Youngs Moduli (GPa) = 124.94511 49.46051 96.85565
#
# Poissons Ratio (x) = 0.17437 0.22572
# Poissons Ratio (y) = 0.44050 0.50255
# Poissons Ratio (z) = 0.29118 0.25663
#
# Static dielectric constant tensor:
#      x y z
#    x 3.698500 0.000000 0.000000 
#    y 0.000000 3.355110 0.000000 
#    z 0.000000 0.000000 3.504190 
# 
# 
# High freq. dielectric constant tensor:
#      x y z
#    x 1.764980 0.000000 0.000000 
#    y 0.000000 1.726680 0.000000 
#    z 0.000000 0.000000 1.750550 
# 
# From -- ./inp_files/21088.got.cif
#   From: 2010.03.12/outbox.cif.g09.slc.cpg/sg51_11_cif.got.tgz:21088.got - 2010.04.16 13:43:02.
