data_PCOD8212165
_publ_section_title
;
Structure prediction by ZEFSAII (Michael W. Deem and Ramdas Pophale) SiO2 
 PCOD8212165
Probable space group: P M M A
;
_chemical_formula_sum "Si O2"
_cell_formula_units_Z 48
_cell_length_a 23.029081
_cell_length_b 8.900840
_cell_length_c 12.598718
_cell_angle_alpha 90.000000
_cell_angle_beta 90.000000
_cell_angle_gamma 90.000000
_cell_volume 2582.462101
_symmetry_space_group_name_H-M "P M M A"
_symmetry_group_IT_number 51
_symmetry_cell_setting 'orthorhombic'
loop_
_space_group_symop_operation_xyz
x,y,z
1/2-x,-y,z
1/2+x,-y,-z
-x,y,-z
-x,-y,-z
1/2+x,y,-z
1/2-x,y,z
x,-y,z
loop_
_atom_site_type_symbol
_atom_site_label
_atom_site_fract_x
_atom_site_fract_y
_atom_site_fract_z
Si Si1 0.117645 0.827706 0.695384
Si Si2 0.683465 0.172835 0.514323
Si Si3 0.990579 0.172724 0.620043
Si Si4 0.316377 0.674594 0.881617
Si Si5 0.377472 0.323158 0.295886
Si Si6 0.683446 0.823298 0.898290
O O1 0.144833 0.774037 0.584313
O O2 0.048621 0.808810 0.688965
O O3 0.141316 0.722374 0.787440
O O4 0.135512 0.000000 0.718153
O O5 0.750000 0.198002 0.483281
O O6 0.668164 0.272498 0.615313
O O7 0.670382 0.000000 0.543347
O O8 0.000000 0.230432 0.500000
O O9 0.942130 0.271842 0.676096
O O10 0.969654 0.000000 0.616576
O O11 0.250000 0.709891 0.848666
O O12 0.325211 0.500000 0.906187
O O13 0.334111 0.767396 0.985290
O O14 0.375922 0.500000 0.285590
O O15 0.359434 0.253834 0.184048
O O16 0.750000 0.778754 0.872523
O O17 0.674221 0.000000 0.892616
#
# Coordination Sequence:
#
# PCOD8212165 Si02
#       6
#     8   8   8   8   8   8
#     4  10  20  36  60  85 110 147 195 240 279 329
#     4  10  20  35  56  82 113 149 191 236 280 334
#     4  10  20  39  62  81 109 152 199 241 281 331
#     4  10  21  37  58  86 121 154 183 227 289 347
#     4  12  24  36  55  84 119 151 186 234 291 348
#     4  10  21  39  63  86 111 149 196 239 280 335
#
# _framework density 18.586912000000002
#
# number of rings (size 3 to 8) (size 9 to 14) (size 15 to 20)
#    0.000    1.667    1.667    3.500    0.000    6.667 
#    0.000    0.833    0.000    5.000    0.000    0.000 
#    0.000    0.000    0.000    0.000    0.000    0.000 
#
# Total GULP energy -595483.578542 kJ/mol
# GULP energy per Si atom -12405.907886 kJ/mol
# Density = 1.854461 g / cm^3
# Si number density = 18.586912 Si / 1000 Ang^3
#
#
#
# Elastic Constant Matrix: (Units=GPa)
#
#
# Indices 1 2 3 4 5 6 
#
# 1 81.0968 33.4604 39.9629 0.0000 0.0000 0.0000
# 2 33.4604 87.9818 47.1468 0.0000 0.0000 0.0000
# 3 39.9629 47.1468 97.6167 0.0000 0.0000 0.0000
# 4 0.0000 0.0000 0.0000 -9.4557 0.0000 0.0000
# 5 0.0000 0.0000 0.0000 0.0000 27.6871 0.0000
# 6 0.0000 0.0000 0.0000 0.0000 0.0000 24.9758
#
#
#
# Elastic Compliance Matrix: (Units=1/GPa)
#
#
# Indices 1 2 3 4 5 6 
#
# 1 0.016217 -0.003521 -0.004938 0.000000 0.000000 0.000000
# 2 -0.003521 0.016099 -0.006334 0.000000 0.000000 0.000000
# 3 -0.004938 -0.006334 0.015325 0.000000 0.000000 0.000000
# 4 0.000000 0.000000 0.000000 -0.105756 0.000000 0.000000
# 5 0.000000 0.000000 0.000000 0.000000 0.036118 0.000000
# 6 0.000000 0.000000 0.000000 0.000000 0.000000 0.040039
#
#
# Mechanical properties :
#
#
# Convention : Reuss Voigt Hill
#
# Bulk Modulus (GPa) = 55.38870 56.42617 55.90744
# Shear Modulus (GPa) = 93.19988 18.38312 55.79150
#
# Velocity S-wave (km/s) = 7.08884 3.14831 5.48468
# Velocity P-wave (km/s) = 9.84209 6.60603 8.38172
#
# Compressibility (1/GPa) = 0.01805423
#
# Stress axis : x y z
#
# Youngs Moduli (GPa) = 61.66214 62.11398 65.25230
#
# Poissons Ratio (x) = 0.21872 0.32225
# Poissons Ratio (y) = 0.21713 0.41332
# Poissons Ratio (z) = 0.30452 0.39344
#
# Static dielectric constant tensor:
#      x y z
#    x 3.408680 0.000000 0.000000 
#    y 0.000000 3.370550 0.000000 
#    z 0.000000 0.000000 3.393090 
# 
# 
# High freq. dielectric constant tensor:
#      x y z
#    x 1.722760 0.000000 0.000000 
#    y 0.000000 1.719410 0.000000 
#    z 0.000000 0.000000 1.722200 
# 
# From -- ./inp_files/18548.got.cif
#   From: 2010.03.12/outbox.cif.g09.slc.cpg/sg51_10_cif.got.tgz:18548.got - 2010.04.16 13:43:02.
