data_PCOD8212512
_publ_section_title
;
Structure prediction by ZEFSAII (Michael W. Deem and Ramdas Pophale) SiO2 
 PCOD8212512
Probable space group: P M M A
;
_chemical_formula_sum "Si O2"
_cell_formula_units_Z 64
_cell_length_a 28.619984
_cell_length_b 9.030591
_cell_length_c 12.507567
_cell_angle_alpha 90.000000
_cell_angle_beta 90.000000
_cell_angle_gamma 90.000000
_cell_volume 3232.647856
_symmetry_space_group_name_H-M "P M M A"
_symmetry_group_IT_number 51
_symmetry_cell_setting 'orthorhombic'
loop_
_space_group_symop_operation_xyz
x,y,z
1/2-x,-y,z
1/2+x,-y,-z
-x,y,-z
-x,-y,-z
1/2+x,y,-z
1/2-x,y,z
x,-y,z
loop_
_atom_site_type_symbol
_atom_site_label
_atom_site_fract_x
_atom_site_fract_y
_atom_site_fract_z
Si Si1 0.560067 0.172860 0.761761
Si Si2 0.519553 0.672547 0.116620
Si Si3 0.303368 0.171962 0.007366
Si Si4 0.369549 0.672371 0.603598
Si Si5 0.551367 0.828101 0.516821
Si Si6 0.198168 0.675738 0.422305
Si Si7 0.126723 0.672570 0.848809
Si Si8 0.152800 0.324219 0.201981
O O1 0.510033 0.235322 0.797480
O O2 0.567828 0.204249 0.636834
O O3 0.601677 0.257394 0.823247
O O4 0.562160 0.000000 0.789098
O O5 0.513869 0.500000 0.143574
O O6 0.573572 0.720767 0.125970
O O7 0.500000 0.711393 0.000000
O O8 0.250000 0.196972 0.969901
O O9 0.338025 0.230529 0.917144
O O10 0.313798 0.000000 0.028394
O O11 0.310817 0.262204 0.116311
O O12 0.376579 0.500000 0.583419
O O13 0.417121 0.748560 0.569823
O O14 0.327345 0.733048 0.529708
O O15 0.359578 0.707023 0.726742
O O16 0.500000 0.762697 0.500000
O O17 0.552452 0.000000 0.489149
O O18 0.250000 0.745267 0.420990
O O19 0.201453 0.500000 0.421455
O O20 0.170075 0.729631 0.318159
O O21 0.133624 0.500000 0.876799
O O22 0.149924 0.500000 0.192045
#
# Coordination Sequence:
#
# PCOD8212512 Si02
#       8
#     8   8   8   8   8   8   8   8
#     4  11  22  35  56  86 120 158 202 248 300 360
#     4  10  21  37  56  82 116 156 204 254 303 357
#     4  11  25  43  63  89 121 156 197 248 305 365
#     4  10  20  36  58  86 117 151 197 249 297 351
#     4  10  21  36  54  80 117 160 201 240 289 352
#     4   9  18  33  55  84 115 148 189 240 299 355
#     4  10  22  39  61  89 120 158 204 252 303 359
#     4  11  21  37  62  88 118 155 198 249 305 360
#
# _framework density 19.798010999999999
#
# number of rings (size 3 to 8) (size 9 to 14) (size 15 to 20)
#    0.000    1.750    1.250    3.000    0.000    5.000 
#    0.000    1.250    0.000    1.125    0.000    0.000 
#    0.000    0.000    0.000    0.000    0.000    0.000 
#
# Total GULP energy -793839.057399 kJ/mol
# GULP energy per Si atom -12403.735272 kJ/mol
# Density = 1.975295 g / cm^3
# Si number density = 19.798011 Si / 1000 Ang^3
#
#
#
# Elastic Constant Matrix: (Units=GPa)
#
#
# Indices 1 2 3 4 5 6 
#
# 1 149.3848 50.1411 54.3862 0.0000 0.0000 0.0000
# 2 50.1411 73.3497 43.4184 0.0000 0.0000 0.0000
# 3 54.3862 43.4184 96.7585 0.0000 0.0000 0.0000
# 4 0.0000 0.0000 0.0000 22.3502 0.0000 0.0000
# 5 0.0000 0.0000 0.0000 0.0000 36.0376 0.0000
# 6 0.0000 0.0000 0.0000 0.0000 0.0000 24.2596
#
#
#
# Elastic Compliance Matrix: (Units=1/GPa)
#
#
# Indices 1 2 3 4 5 6 
#
# 1 0.009388 -0.004485 -0.003264 0.000000 0.000000 0.000000
# 2 -0.004485 0.020707 -0.006771 0.000000 0.000000 0.000000
# 3 -0.003264 -0.006771 0.015208 0.000000 0.000000 0.000000
# 4 0.000000 0.000000 0.000000 0.044742 0.000000 0.000000
# 5 0.000000 0.000000 0.000000 0.000000 0.027749 0.000000
# 6 0.000000 0.000000 0.000000 0.000000 0.000000 0.041221
#
#
# Mechanical properties :
#
#
# Convention : Reuss Voigt Hill
#
# Bulk Modulus (GPa) = 61.49047 68.37605 64.93326
# Shear Modulus (GPa) = 25.84286 27.96595 26.90440
#
# Velocity S-wave (km/s) = 3.61685 3.76249 3.69039
# Velocity P-wave (km/s) = 6.96911 7.31347 7.14337
#
# Compressibility (1/GPa) = 0.01626268
#
# Stress axis : x y z
#
# Youngs Moduli (GPa) = 106.51893 48.29187 65.75494
#
# Poissons Ratio (x) = 0.21661 0.21463
# Poissons Ratio (y) = 0.47778 0.44522
# Poissons Ratio (z) = 0.34769 0.32698
#
# Static dielectric constant tensor:
#      x y z
#    x 3.752380 0.000000 0.000000 
#    y 0.000000 3.401680 0.000000 
#    z 0.000000 0.000000 3.671670 
# 
# 
# High freq. dielectric constant tensor:
#      x y z
#    x 1.783280 0.000000 0.000000 
#    y 0.000000 1.755950 0.000000 
#    z 0.000000 0.000000 1.778590 
# 
# From -- ./inp_files/19496.got.cif
#   From: 2010.03.12/outbox.cif.g09.slc.cpg/sg51_10_cif.got.tgz:19496.got - 2010.04.16 13:43:02.
