data_PCOD8212798
_publ_section_title
;
Structure prediction by ZEFSAII (Michael W. Deem and Ramdas Pophale) SiO2 
 PCOD8212798
Probable space group: P M M A
;
_chemical_formula_sum "Si O2"
_cell_formula_units_Z 48
_cell_length_a 18.882270
_cell_length_b 18.184113
_cell_length_c 7.456904
_cell_angle_alpha 90.000000
_cell_angle_beta 90.000000
_cell_angle_gamma 90.000000
_cell_volume 2560.382658
_symmetry_space_group_name_H-M "P M M A"
_symmetry_group_IT_number 51
_symmetry_cell_setting 'orthorhombic'
loop_
_space_group_symop_operation_xyz
x,y,z
1/2-x,-y,z
1/2+x,-y,-z
-x,y,-z
-x,-y,-z
1/2+x,y,-z
1/2-x,y,z
x,-y,z
loop_
_atom_site_type_symbol
_atom_site_label
_atom_site_fract_x
_atom_site_fract_y
_atom_site_fract_z
Si Si1 0.922105 0.163477 0.055845
Si Si2 0.424097 0.085511 0.576411
Si Si3 0.332311 0.583744 0.266422
Si Si4 0.831941 0.084740 0.763034
Si Si5 0.580194 0.336865 0.026477
Si Si6 0.829819 0.414169 0.321029
O O1 0.904048 0.133779 0.252375
O O2 0.916744 0.250460 0.054605
O O3 0.864832 0.133191 0.918726
O O4 0.000000 0.135692 0.000000
O O5 0.500000 0.109518 0.500000
O O6 0.365782 0.104022 0.427933
O O7 0.424142 0.000000 0.631518
O O8 0.250000 0.594214 0.222093
O O9 0.354919 0.500000 0.221800
O O10 0.348043 0.602044 0.472781
O O11 0.376307 0.640674 0.149002
O O12 0.750000 0.104191 0.748751
O O13 0.845598 0.000000 0.811803
O O14 0.612637 0.372946 0.203124
O O15 0.500000 0.364310 0.000000
O O16 0.750000 0.386832 0.276593
O O17 0.834976 0.500000 0.279017
#
# Coordination Sequence:
#
# PCOD8212798 Si02
#       6
#     8   8   8   8   8   8
#     4  11  23  39  57  83 118 157 195 230 280 351
#     4  10  20  37  65  88 106 147 201 242 280 339
#     4   9  19  38  62  82 104 143 194 240 280 332
#     4  10  22  39  60  89 119 145 186 246 295 333
#     4  11  24  36  51  84 121 153 181 228 286 339
#     4   9  19  38  62  84 107 144 196 243 280 331
#
# _framework density 18.747197
#
# number of rings (size 3 to 8) (size 9 to 14) (size 15 to 20)
#    0.000    2.000    1.667    2.500    0.000    7.333 
#    0.000    5.000    0.000    0.000    0.000    0.000 
#    0.000    0.000    0.000    0.000    0.000    0.000 
#
# Total GULP energy -595393.441863 kJ/mol
# GULP energy per Si atom -12404.030039 kJ/mol
# Density = 1.870453 g / cm^3
# Si number density = 18.747197 Si / 1000 Ang^3
#
#
#
# Elastic Constant Matrix: (Units=GPa)
#
#
# Indices 1 2 3 4 5 6 
#
# 1 118.9571 50.4828 71.7691 0.0000 0.0000 0.0000
# 2 50.4828 68.4484 60.8482 0.0000 0.0000 0.0000
# 3 71.7691 60.8482 132.5529 0.0000 0.0000 0.0000
# 4 0.0000 0.0000 0.0000 3.1432 0.0000 0.0000
# 5 0.0000 0.0000 0.0000 0.0000 30.4552 0.0000
# 6 0.0000 0.0000 0.0000 0.0000 0.0000 30.0065
#
#
#
# Elastic Compliance Matrix: (Units=1/GPa)
#
#
# Indices 1 2 3 4 5 6 
#
# 1 0.013792 -0.005970 -0.004727 0.000000 0.000000 0.000000
# 2 -0.005970 0.027266 -0.009284 0.000000 0.000000 0.000000
# 3 -0.004727 -0.009284 0.014365 0.000000 0.000000 0.000000
# 4 0.000000 0.000000 0.000000 0.318149 0.000000 0.000000
# 5 0.000000 0.000000 0.000000 0.000000 0.032835 0.000000
# 6 0.000000 0.000000 0.000000 0.000000 0.000000 0.033326
#
#
# Mechanical properties :
#
#
# Convention : Reuss Voigt Hill
#
# Bulk Modulus (GPa) = 64.67784 76.23985 70.45885
# Shear Modulus (GPa) = 10.31252 21.84487 16.07869
#
# Velocity S-wave (km/s) = 2.34793 3.41726 2.93176
# Velocity P-wave (km/s) = 6.47497 7.50505 7.00896
#
# Compressibility (1/GPa) = 0.01546125
#
# Stress axis : x y z
#
# Youngs Moduli (GPa) = 72.50768 36.67634 69.61227
#
# Poissons Ratio (x) = 0.21895 0.32905
# Poissons Ratio (y) = 0.43285 0.64628
# Poissons Ratio (z) = 0.34274 0.34050
#
# Static dielectric constant tensor:
#      x y z
#    x 3.541310 0.000000 0.000000 
#    y 0.000000 3.312530 0.000000 
#    z 0.000000 0.000000 3.573210 
# 
# 
# High freq. dielectric constant tensor:
#      x y z
#    x 1.732130 0.000000 0.000000 
#    y 0.000000 1.719750 0.000000 
#    z 0.000000 0.000000 1.741430 
# 
# From -- ./inp_files/8214.got.cif
#   From: 2010.03.12/outbox.cif.g09.slc.cpg/sg51_5_cif.got.tgz:8214.got - 2010.04.16 13:43:02.
