data_PCOD8212499
_publ_section_title
;
Structure prediction by ZEFSAII (Michael W. Deem and Ramdas Pophale) SiO2 
 PCOD8212499
Probable space group: P M M A
;
_chemical_formula_sum "Si O2"
_cell_formula_units_Z 64
_cell_length_a 9.189899
_cell_length_b 18.344270
_cell_length_c 19.482030
_cell_angle_alpha 90.000000
_cell_angle_beta 90.000000
_cell_angle_gamma 90.000000
_cell_volume 3284.319358
_symmetry_space_group_name_H-M "P M M A"
_symmetry_group_IT_number 51
_symmetry_cell_setting 'orthorhombic'
loop_
_space_group_symop_operation_xyz
x,y,z
1/2-x,-y,z
1/2+x,-y,-z
-x,y,-z
-x,-y,-z
1/2+x,y,-z
1/2-x,y,z
x,-y,z
loop_
_atom_site_type_symbol
_atom_site_label
_atom_site_fract_x
_atom_site_fract_y
_atom_site_fract_z
Si Si1 0.590361 0.085787 0.437301
Si Si2 0.422096 0.691095 0.428485
Si Si3 0.090538 0.414262 0.938453
Si Si4 0.914727 0.830061 0.662095
Si Si5 0.421017 0.914852 0.929126
Si Si6 0.579099 0.584950 0.334456
Si Si7 0.080333 0.812293 0.178613
Si Si8 0.078877 0.336551 0.805234
O O1 0.500000 0.120501 0.500000
O O2 0.750000 0.121015 0.440119
O O3 0.515190 0.105594 0.366111
O O4 0.599675 0.000000 0.444366
O O5 0.500000 0.710484 0.500000
O O6 0.250000 0.681863 0.439973
O O7 0.459327 0.753437 0.372514
O O8 0.488810 0.616049 0.398836
O O9 0.250000 0.380973 0.947694
O O10 0.089977 0.500000 0.946328
O O11 0.034850 0.395465 0.862719
O O12 0.000000 0.377660 0.000000
O O13 0.750000 0.848648 0.642547
O O14 0.940223 0.833095 0.742510
O O15 0.250000 0.895928 0.934757
O O16 0.493937 0.869720 0.867787
O O17 0.444859 0.000000 0.912952
O O18 0.500000 0.893225 0.000000
O O19 0.750000 0.595614 0.348309
O O20 0.540966 0.500000 0.325003
O O21 0.529066 0.629006 0.266736
O O22 0.250000 0.811326 0.157518
O O23 0.012019 0.733038 0.171426
O O24 0.250000 0.317915 0.803357
#
# Coordination Sequence:
#
# PCOD8212499 Si02
#       8
#     8   8   8   8   8   8   8   8
#     4  10  21  36  56  83 114 149 190 235 285 344
#     4  11  23  40  60  85 115 150 195 243 299 360
#     4   9  18  33  53  79 111 147 188 233 281 337
#     4  10  22  39  58  83 116 154 195 241 291 347
#     4  10  22  42  67  94 124 160 203 248 295 348
#     4  10  21  38  61  87 113 148 195 246 304 363
#     4  11  23  39  60  88 122 156 195 241 289 344
#     4  10  20  36  58  83 115 154 195 242 294 348
#
# _framework density 19.486533000000001
#
# number of rings (size 3 to 8) (size 9 to 14) (size 15 to 20)
#    0.000    1.875    1.250    2.250    0.000    8.000 
#    0.000    3.750    0.000    2.250    0.000    0.000 
#    0.000    0.000    0.000    0.000    0.000    0.000 
#
# Total GULP energy -793558.400874 kJ/mol
# GULP energy per Si atom -12399.350014 kJ/mol
# Density = 1.944218 g / cm^3
# Si number density = 19.486533 Si / 1000 Ang^3
#
#
#
# Elastic Constant Matrix: (Units=GPa)
#
#
# Indices 1 2 3 4 5 6 
#
# 1 113.6076 47.0167 73.1720 0.0000 0.0000 0.0000
# 2 47.0167 61.5696 45.0706 0.0000 0.0000 0.0000
# 3 73.1720 45.0706 119.4796 0.0000 0.0000 0.0000
# 4 0.0000 0.0000 0.0000 38.8832 0.0000 0.0000
# 5 0.0000 0.0000 0.0000 0.0000 37.7035 0.0000
# 6 0.0000 0.0000 0.0000 0.0000 0.0000 21.4821
#
#
#
# Elastic Compliance Matrix: (Units=1/GPa)
#
#
# Indices 1 2 3 4 5 6 
#
# 1 0.016573 -0.007220 -0.007426 0.000000 0.000000 0.000000
# 2 -0.007220 0.025583 -0.005229 0.000000 0.000000 0.000000
# 3 -0.007426 -0.005229 0.014890 0.000000 0.000000 0.000000
# 4 0.000000 0.000000 0.000000 0.025718 0.000000 0.000000
# 5 0.000000 0.000000 0.000000 0.000000 0.026523 0.000000
# 6 0.000000 0.000000 0.000000 0.000000 0.000000 0.046550
#
#
# Mechanical properties :
#
#
# Convention : Reuss Voigt Hill
#
# Bulk Modulus (GPa) = 57.81622 69.46394 63.64008
# Shear Modulus (GPa) = 24.83206 28.24027 26.53617
#
# Velocity S-wave (km/s) = 3.57363 3.81099 3.69422
# Velocity P-wave (km/s) = 6.83828 7.42222 7.13623
#
# Compressibility (1/GPa) = 0.01729618
#
# Stress axis : x y z
#
# Youngs Moduli (GPa) = 60.33812 39.08904 67.15809
#
# Poissons Ratio (x) = 0.28221 0.49875
# Poissons Ratio (y) = 0.43562 0.35117
# Poissons Ratio (z) = 0.44810 0.20439
#
# Static dielectric constant tensor:
#      x y z
#    x 3.808800 0.000000 0.000000 
#    y 0.000000 3.393160 0.000000 
#    z 0.000000 0.000000 3.699690 
# 
# 
# High freq. dielectric constant tensor:
#      x y z
#    x 1.764940 0.000000 0.000000 
#    y 0.000000 1.751290 0.000000 
#    z 0.000000 0.000000 1.768120 
# 
# From -- ./inp_files/32447.got.cif
#   From: 2010.03.12/outbox.cif.g09.slc.cpg/sg51_17_cif.got.tgz:32447.got - 2010.04.16 13:43:02.
