data_PCOD8212625
_publ_section_title
;
Structure prediction by ZEFSAII (Michael W. Deem and Ramdas Pophale) SiO2 
 PCOD8212625
Probable space group: P M M A
;
_chemical_formula_sum "Si O2"
_cell_formula_units_Z 48
_cell_length_a 17.027710
_cell_length_b 13.964180
_cell_length_c 10.012306
_cell_angle_alpha 90.000000
_cell_angle_beta 90.000000
_cell_angle_gamma 90.000000
_cell_volume 2380.706170
_symmetry_space_group_name_H-M "P M M A"
_symmetry_group_IT_number 51
_symmetry_cell_setting 'orthorhombic'
loop_
_space_group_symop_operation_xyz
x,y,z
1/2-x,-y,z
1/2+x,-y,-z
-x,y,-z
-x,-y,-z
1/2+x,y,-z
1/2-x,y,z
x,-y,z
loop_
_atom_site_type_symbol
_atom_site_label
_atom_site_fract_x
_atom_site_fract_y
_atom_site_fract_z
Si Si1 0.340337 0.106997 0.812832
Si Si2 0.586663 0.387616 0.794426
Si Si3 0.090825 0.892065 0.529227
Si Si4 0.160423 0.294644 0.955439
Si Si5 0.410795 0.388415 0.707204
Si Si6 0.660265 0.705265 0.545967
O O1 0.250000 0.118448 0.766401
O O2 0.394482 0.129496 0.685470
O O3 0.356560 0.000000 0.868231
O O4 0.359601 0.182554 0.929900
O O5 0.600619 0.500000 0.814634
O O6 0.601831 0.335068 0.934055
O O7 0.498627 0.363597 0.751801
O O8 0.646721 0.348018 0.685128
O O9 0.140588 0.818223 0.439095
O O10 0.000000 0.877141 0.500000
O O11 0.118138 0.000000 0.493411
O O12 0.250000 0.307639 0.003596
O O13 0.149975 0.351927 0.817658
O O14 0.398084 0.500000 0.685116
O O15 0.396263 0.338020 0.566351
O O16 0.750000 0.690698 0.503383
#
# Coordination Sequence:
#
# PCOD8212625 Si02
#       6
#     8   8   8   8   8   8
#     4   9  18  35  61  92 124 160 204 253 305 361
#     4  11  25  43  61  85 125 168 201 250 318 373
#     4  10  20  36  61  92 124 159 200 248 304 363
#     4  11  22  38  62  91 120 159 206 252 306 365
#     4  11  23  40  62  87 117 159 210 256 301 365
#     4  12  24  39  62  93 123 158 204 256 313 366
#
# _framework density 20.162085999999999
#
# number of rings (size 3 to 8) (size 9 to 14) (size 15 to 20)
#    0.000    1.333    1.667    4.500    0.000    7.667 
#    0.000    0.833    0.000    5.000    0.000    0.000 
#    0.000    0.000    0.000    0.000    0.000    0.000 
#
# Total GULP energy -595448.195058 kJ/mol
# GULP energy per Si atom -12405.170730 kJ/mol
# Density = 2.011620 g / cm^3
# Si number density = 20.162086 Si / 1000 Ang^3
#
#
#
# Elastic Constant Matrix: (Units=GPa)
#
#
# Indices 1 2 3 4 5 6 
#
# 1 74.9981 58.2100 22.9020 0.0000 0.0000 0.0000
# 2 58.2100 129.0859 49.9955 0.0000 0.0000 0.0000
# 3 22.9020 49.9955 93.7287 0.0000 0.0000 0.0000
# 4 0.0000 0.0000 0.0000 33.6922 0.0000 0.0000
# 5 0.0000 0.0000 0.0000 0.0000 29.7665 0.0000
# 6 0.0000 0.0000 0.0000 0.0000 0.0000 25.3123
#
#
#
# Elastic Compliance Matrix: (Units=1/GPa)
#
#
# Indices 1 2 3 4 5 6 
#
# 1 0.020514 -0.009212 -0.000098 0.000000 0.000000 0.000000
# 2 -0.009212 0.013901 -0.005164 0.000000 0.000000 0.000000
# 3 -0.000098 -0.005164 0.013448 0.000000 0.000000 0.000000
# 4 0.000000 0.000000 0.000000 0.029680 0.000000 0.000000
# 5 0.000000 0.000000 0.000000 0.000000 0.033595 0.000000
# 6 0.000000 0.000000 0.000000 0.000000 0.000000 0.039507
#
#
# Mechanical properties :
#
#
# Convention : Reuss Voigt Hill
#
# Bulk Modulus (GPa) = 52.87369 62.22529 57.54949
# Shear Modulus (GPa) = 26.89639 28.86786 27.88213
#
# Velocity S-wave (km/s) = 3.65637 3.78800 3.72277
# Velocity P-wave (km/s) = 6.64128 7.07542 6.86178
#
# Compressibility (1/GPa) = 0.01891300
#
# Stress axis : x y z
#
# Youngs Moduli (GPa) = 48.74712 71.93703 74.36265
#
# Poissons Ratio (x) = 0.66272 0.00732
# Poissons Ratio (y) = 0.44908 0.38400
# Poissons Ratio (z) = 0.00480 0.37148
#
# Static dielectric constant tensor:
#      x y z
#    x 3.660790 0.000000 0.000000 
#    y 0.000000 4.035790 0.000000 
#    z 0.000000 0.000000 3.565530 
# 
# 
# High freq. dielectric constant tensor:
#      x y z
#    x 1.790100 0.000000 0.000000 
#    y 0.000000 1.807280 0.000000 
#    z 0.000000 0.000000 1.770060 
# 
# From -- ./inp_files/9618.got.cif
#   From: 2010.03.12/outbox.cif.g09.slc.cpg/sg51_5_cif.got.tgz:9618.got - 2010.04.16 13:43:02.
