data_PCOD8212244
_publ_section_title
;
Structure prediction by ZEFSAII (Michael W. Deem and Ramdas Pophale) SiO2 
 PCOD8212244
Probable space group: P M M A
;
_chemical_formula_sum "Si O2"
_cell_formula_units_Z 40
_cell_length_a 22.499302
_cell_length_b 9.249584
_cell_length_c 10.065310
_cell_angle_alpha 90.000000
_cell_angle_beta 90.000000
_cell_angle_gamma 90.000000
_cell_volume 2094.683449
_symmetry_space_group_name_H-M "P M M A"
_symmetry_group_IT_number 51
_symmetry_cell_setting 'orthorhombic'
loop_
_space_group_symop_operation_xyz
x,y,z
1/2-x,-y,z
1/2+x,-y,-z
-x,y,-z
-x,-y,-z
1/2+x,y,-z
1/2-x,y,z
x,-y,z
loop_
_atom_site_type_symbol
_atom_site_label
_atom_site_fract_x
_atom_site_fract_y
_atom_site_fract_z
Si Si1 0.818876 0.669341 0.008391
Si Si2 0.817497 0.663958 0.526468
Si Si3 0.889300 0.330775 0.271091
Si Si4 0.369606 0.169768 0.238695
Si Si5 0.501222 0.169077 0.651919
O O1 0.750000 0.716101 0.006684
O O2 0.825371 0.500000 0.977595
O O3 0.846354 0.710633 0.150234
O O4 0.856176 0.758171 0.901595
O O5 0.750000 0.670993 0.476990
O O6 0.834631 0.500000 0.566541
O O7 0.857737 0.720643 0.406163
O O8 0.824893 0.766703 0.652537
O O9 0.902498 0.500000 0.272583
O O10 0.951621 0.248146 0.259756
O O11 0.436395 0.207937 0.281277
O O12 0.358826 0.000000 0.227976
O O13 0.500000 0.226150 0.500000
O O14 0.487572 0.000000 0.655268
#
# Coordination Sequence:
#
# PCOD8212244 Si02
#       5
#     8   8   8   8   8
#     4  10  22  41  61  84 119 156 189 234 291 345
#     4  10  20  35  57  85 114 146 188 238 290 339
#     4  10  21  37  61  88 113 148 194 239 283 340
#     4  11  23  38  58  84 115 153 195 237 282 340
#     4  10  21  39  59  82 118 156 190 236 292 340
#
# _framework density 19.095965
#
# number of rings (size 3 to 8) (size 9 to 14) (size 15 to 20)
#    0.000    1.800    2.000    1.800    0.000    9.200 
#    0.000    4.000    0.000    3.600    0.000    0.000 
#    0.000    0.000    0.000    0.000    0.000    0.000 
#
# Total GULP energy -496202.011443 kJ/mol
# GULP energy per Si atom -12405.050286 kJ/mol
# Density = 1.905250 g / cm^3
# Si number density = 19.095965 Si / 1000 Ang^3
#
#
#
# Elastic Constant Matrix: (Units=GPa)
#
#
# Indices 1 2 3 4 5 6 
#
# 1 108.9998 43.3613 39.5403 0.0000 0.0000 0.0000
# 2 43.3613 54.2300 42.6223 0.0000 0.0000 0.0000
# 3 39.5403 42.6223 95.8297 0.0000 0.0000 0.0000
# 4 0.0000 0.0000 0.0000 26.7048 0.0000 0.0000
# 5 0.0000 0.0000 0.0000 0.0000 37.4926 0.0000
# 6 0.0000 0.0000 0.0000 0.0000 0.0000 24.8352
#
#
#
# Elastic Compliance Matrix: (Units=1/GPa)
#
#
# Indices 1 2 3 4 5 6 
#
# 1 0.013541 -0.009895 -0.001186 0.000000 0.000000 0.000000
# 2 -0.009895 0.035581 -0.011743 0.000000 0.000000 0.000000
# 3 -0.001186 -0.011743 0.016147 0.000000 0.000000 0.000000
# 4 0.000000 0.000000 0.000000 0.037447 0.000000 0.000000
# 5 0.000000 0.000000 0.000000 0.000000 0.026672 0.000000
# 6 0.000000 0.000000 0.000000 0.000000 0.000000 0.040265
#
#
# Mechanical properties :
#
#
# Convention : Reuss Voigt Hill
#
# Bulk Modulus (GPa) = 50.96343 56.67859 53.82101
# Shear Modulus (GPa) = 22.53869 26.70888 24.62379
#
# Velocity S-wave (km/s) = 3.43926 3.74393 3.59482
# Velocity P-wave (km/s) = 6.52053 6.95951 6.74359
#
# Compressibility (1/GPa) = 0.01962191
#
# Stress axis : x y z
#
# Youngs Moduli (GPa) = 73.85059 28.10503 61.92937
#
# Poissons Ratio (x) = 0.27809 0.07346
# Poissons Ratio (y) = 0.73073 0.72722
# Poissons Ratio (z) = 0.08760 0.33003
#
# Static dielectric constant tensor:
#      x y z
#    x 3.547170 0.000000 0.000000 
#    y 0.000000 3.404940 0.000000 
#    z 0.000000 0.000000 3.495140 
# 
# 
# High freq. dielectric constant tensor:
#      x y z
#    x 1.754290 0.000000 0.000000 
#    y 0.000000 1.735210 0.000000 
#    z 0.000000 0.000000 1.744760 
# 
# From -- ./inp_files/11411.got.cif
#   From: 2010.03.12/outbox.cif.g09.slc.cpg/sg51_6_cif.got.tgz:11411.got - 2010.04.16 13:43:02.
