data_PCOD8212987
_publ_section_title
;
Structure prediction by ZEFSAII (Michael W. Deem and Ramdas Pophale) SiO2 
 PCOD8212987
Probable space group: P M M A
;
_chemical_formula_sum "Si O2"
_cell_formula_units_Z 48
_cell_length_a 33.919336
_cell_length_b 7.708017
_cell_length_c 9.689902
_cell_angle_alpha 90.000000
_cell_angle_beta 90.000000
_cell_angle_gamma 90.000000
_cell_volume 2533.432809
_symmetry_space_group_name_H-M "P M M A"
_symmetry_group_IT_number 51
_symmetry_cell_setting 'orthorhombic'
loop_
_space_group_symop_operation_xyz
x,y,z
1/2-x,-y,z
1/2+x,-y,-z
-x,y,-z
-x,-y,-z
1/2+x,y,-z
1/2-x,y,z
x,-y,z
loop_
_atom_site_type_symbol
_atom_site_label
_atom_site_fract_x
_atom_site_fract_y
_atom_site_fract_z
Si Si1 0.470858 0.500000 0.298024
Si Si2 0.381878 0.793797 0.668345
Si Si3 0.206401 0.695407 0.155607
Si Si4 0.847200 0.196263 0.612563
Si Si5 0.361649 0.197008 0.967265
Si Si6 0.080319 0.201677 0.196850
Si Si7 0.443065 0.500000 0.610231
O O1 0.457149 0.674724 0.218863
O O2 0.453486 0.500000 0.450471
O O3 0.517907 0.500000 0.296352
O O4 0.349670 0.752584 0.548759
O O5 0.362185 0.728860 0.811921
O O6 0.420364 0.677562 0.645454
O O7 0.392870 0.000000 0.664560
O O8 0.250000 0.780663 0.165118
O O9 0.210255 0.500000 0.105465
O O10 0.185495 0.694348 0.305714
O O11 0.181018 0.790477 0.038299
O O12 0.890953 0.222874 0.672334
O O13 0.833401 0.000000 0.634056
O O14 0.373605 0.000000 0.955109
O O15 0.395742 0.277496 0.064306
O O16 0.066947 0.000000 0.180816
#
# Coordination Sequence:
#
# PCOD8212987 Si02
#       7
#     4   8   8   8   8   8   4
#     4  11  22  35  55  85 110 142 189 222 283 339
#     4  10  21  38  56  82 111 142 187 228 269 328
#     4  10  21  34  53  85 115 141 177 224 272 318
#     4   9  18  33  56  78 102 144 185 220 267 314
#     4   9  20  36  57  80 106 146 187 224 273 324
#     4   9  18  34  55  80 106 142 187 230 268 317
#     4  11  24  35  55  85 110 148 179 226 291 325
#
# _framework density 18.946624
#
# number of rings (size 3 to 8) (size 9 to 14) (size 15 to 20)
#    0.000    2.333    1.667    1.500    7.000    2.000 
#    0.000    4.167    0.000    8.000    0.000    0.000 
#    0.000    0.000    0.000    0.000    0.000    0.000 
#
# Total GULP energy -594849.339974 kJ/mol
# GULP energy per Si atom -12392.694583 kJ/mol
# Density = 1.890350 g / cm^3
# Si number density = 18.946624 Si / 1000 Ang^3
#
#
#
# Elastic Constant Matrix: (Units=GPa)
#
#
# Indices 1 2 3 4 5 6 
#
# 1 103.5329 30.6192 46.0709 0.0000 0.0000 0.0000
# 2 30.6192 64.1367 21.2680 0.0000 0.0000 0.0000
# 3 46.0709 21.2680 139.9400 0.0000 0.0000 0.0000
# 4 0.0000 0.0000 0.0000 16.7073 0.0000 0.0000
# 5 0.0000 0.0000 0.0000 0.0000 16.9196 0.0000
# 6 0.0000 0.0000 0.0000 0.0000 0.0000 19.5747
#
#
#
# Elastic Compliance Matrix: (Units=1/GPa)
#
#
# Indices 1 2 3 4 5 6 
#
# 1 0.012625 -0.004896 -0.003412 0.000000 0.000000 0.000000
# 2 -0.004896 0.018318 -0.001172 0.000000 0.000000 0.000000
# 3 -0.003412 -0.001172 0.008447 0.000000 0.000000 0.000000
# 4 0.000000 0.000000 0.000000 0.059854 0.000000 0.000000
# 5 0.000000 0.000000 0.000000 0.000000 0.059103 0.000000
# 6 0.000000 0.000000 0.000000 0.000000 0.000000 0.051086
#
#
# Mechanical properties :
#
#
# Convention : Reuss Voigt Hill
#
# Bulk Modulus (GPa) = 48.94828 55.94733 52.44780
# Shear Modulus (GPa) = 21.25813 24.61708 22.93761
#
# Velocity S-wave (km/s) = 3.35326 3.60847 3.48320
# Velocity P-wave (km/s) = 6.39401 6.85233 6.62714
#
# Compressibility (1/GPa) = 0.02042973
#
# Stress axis : x y z
#
# Youngs Moduli (GPa) = 79.20718 54.59224 118.37851
#
# Poissons Ratio (x) = 0.26727 0.40395
# Poissons Ratio (y) = 0.38778 0.13876
# Poissons Ratio (z) = 0.27029 0.06399
#
# Static dielectric constant tensor:
#      x y z
#    x 3.308870 0.000000 0.000000 
#    y 0.000000 3.438630 0.000000 
#    z 0.000000 0.000000 3.872720 
# 
# 
# High freq. dielectric constant tensor:
#      x y z
#    x 1.705340 0.000000 0.000000 
#    y 0.000000 1.739800 0.000000 
#    z 0.000000 0.000000 1.739630 
# 
# From -- ./inp_files/12945.got.cif
#   From: 2010.03.12/outbox.cif.g09.slc.cpg/sg51_7_cif.got.tgz:12945.got - 2010.04.16 13:43:02.
