data_PCOD8212555
_publ_section_title
;
Structure prediction by ZEFSAII (Michael W. Deem and Ramdas Pophale) SiO2 
 PCOD8212555
Probable space group: P M M A
;
_chemical_formula_sum "Si O2"
_cell_formula_units_Z 48
_cell_length_a 8.518083
_cell_length_b 30.936293
_cell_length_c 9.117069
_cell_angle_alpha 90.000000
_cell_angle_beta 90.000000
_cell_angle_gamma 90.000000
_cell_volume 2402.510982
_symmetry_space_group_name_H-M "P M M A"
_symmetry_group_IT_number 51
_symmetry_cell_setting 'orthorhombic'
loop_
_space_group_symop_operation_xyz
x,y,z
1/2-x,-y,z
1/2+x,-y,-z
-x,y,-z
-x,-y,-z
1/2+x,y,-z
1/2-x,y,z
x,-y,z
loop_
_atom_site_type_symbol
_atom_site_label
_atom_site_fract_x
_atom_site_fract_y
_atom_site_fract_z
Si Si1 0.431864 0.077840 0.161626
Si Si2 0.932128 0.172673 0.840359
Si Si3 0.064576 0.580705 0.837253
Si Si4 0.435478 0.339360 0.336823
Si Si5 0.434696 0.260134 0.834632
Si Si6 0.567270 0.000000 0.340392
Si Si7 0.564683 0.500000 0.662409
O O1 0.250000 0.066195 0.152096
O O2 0.455961 0.125712 0.235379
O O3 0.516599 0.043403 0.261022
O O4 0.500000 0.075146 0.000000
O O5 0.750000 0.185905 0.847789
O O6 0.027569 0.212415 0.767419
O O7 0.000000 0.166084 0.000000
O O8 0.250000 0.576186 0.840409
O O9 0.016634 0.625970 0.767601
O O10 0.993289 0.542421 0.743184
O O11 0.000000 0.577735 0.000000
O O12 0.500000 0.344420 0.500000
O O13 0.250000 0.346546 0.337526
O O14 0.477561 0.292761 0.272787
O O15 0.250000 0.269319 0.833521
O O16 0.500000 0.264276 0.000000
O O17 0.500000 0.000000 0.500000
O O18 0.750000 0.000000 0.351951
O O19 0.750000 0.500000 0.657709
O O20 0.500000 0.500000 0.500000
#
# Coordination Sequence:
#
# PCOD8212555 Si02
#       7
#     8   8   8   8   8   4   4
#     4  10  20  36  59  86 115 147 189 235 284 339
#     4   9  17  31  54  84 115 148 187 236 286 339
#     4  12  25  44  67  95 126 162 205 252 301 353
#     4  12  25  43  63  88 121 159 201 248 299 355
#     4  11  21  36  59  88 120 156 195 240 290 346
#     4  12  25  40  57  78 110 148 188 234 289 346
#     4  12  25  44  67  96 130 168 206 248 301 358
#
# _framework density 19.979098
#
# number of rings (size 3 to 8) (size 9 to 14) (size 15 to 20)
#    0.000    1.000    0.000    9.500    0.000    2.000 
#    0.000    0.833    0.000    4.000    0.000    0.000 
#    0.000    0.000    0.000    0.000    0.000    0.000 
#
# Total GULP energy -595187.941671 kJ/mol
# GULP energy per Si atom -12399.748785 kJ/mol
# Density = 1.993362 g / cm^3
# Si number density = 19.979098 Si / 1000 Ang^3
#
#
#
# Elastic Constant Matrix: (Units=GPa)
#
#
# Indices 1 2 3 4 5 6 
#
# 1 162.6854 49.2243 56.1850 0.0000 0.0000 0.0000
# 2 49.2243 141.9096 62.7248 0.0000 0.0000 0.0000
# 3 56.1850 62.7248 124.0895 0.0000 0.0000 0.0000
# 4 0.0000 0.0000 0.0000 177.6862 0.0000 0.0000
# 5 0.0000 0.0000 0.0000 0.0000 35.3540 0.0000
# 6 0.0000 0.0000 0.0000 0.0000 0.0000 42.7625
#
#
#
# Elastic Compliance Matrix: (Units=1/GPa)
#
#
# Indices 1 2 3 4 5 6 
#
# 1 0.007501 -0.001417 -0.002680 0.000000 0.000000 0.000000
# 2 -0.001417 0.009342 -0.004080 0.000000 0.000000 0.000000
# 3 -0.002680 -0.004080 0.011335 0.000000 0.000000 0.000000
# 4 0.000000 0.000000 0.000000 0.005628 0.000000 0.000000
# 5 0.000000 0.000000 0.000000 0.000000 0.028285 0.000000
# 6 0.000000 0.000000 0.000000 0.000000 0.000000 0.023385
#
#
# Mechanical properties :
#
#
# Convention : Reuss Voigt Hill
#
# Bulk Modulus (GPa) = 84.58528 84.99476 84.79002
# Shear Modulus (GPa) = 47.27132 68.53056 57.90094
#
# Velocity S-wave (km/s) = 4.86947 5.86307 5.38922
# Velocity P-wave (km/s) = 8.60491 9.40576 9.01423
#
# Compressibility (1/GPa) = 0.01182239
#
# Stress axis : x y z
#
# Youngs Moduli (GPa) = 133.31128 107.04388 88.22495
#
# Poissons Ratio (x) = 0.15173 0.23644
# Poissons Ratio (y) = 0.18896 0.35999
# Poissons Ratio (z) = 0.35726 0.43678
#
# Static dielectric constant tensor:
#      x y z
#    x 3.922070 0.000000 0.000000 
#    y 0.000000 4.500890 0.000000 
#    z 0.000000 0.000000 3.509520 
# 
# 
# High freq. dielectric constant tensor:
#      x y z
#    x 1.804910 0.000000 0.000000 
#    y 0.000000 1.808000 0.000000 
#    z 0.000000 0.000000 1.758790 
# 
# From -- ./inp_files/6095.got.cif
#   From: 2010.03.12/outbox.cif.g09.slc.cpg/sg51_4_cif.got.tgz:6095.got - 2010.04.16 13:43:02.
