data_PCOD8212474
_publ_section_title
;
Structure prediction by ZEFSAII (Michael W. Deem and Ramdas Pophale) SiO2 
 PCOD8212474
Probable space group: P M M A
;
_chemical_formula_sum "Si O2"
_cell_formula_units_Z 40
_cell_length_a 13.631076
_cell_length_b 8.594469
_cell_length_c 18.438670
_cell_angle_alpha 90.000000
_cell_angle_beta 90.000000
_cell_angle_gamma 90.000000
_cell_volume 2160.124489
_symmetry_space_group_name_H-M "P M M A"
_symmetry_group_IT_number 51
_symmetry_cell_setting 'orthorhombic'
loop_
_space_group_symop_operation_xyz
x,y,z
1/2-x,-y,z
1/2+x,-y,-z
-x,y,-z
-x,-y,-z
1/2+x,y,-z
1/2-x,y,z
x,-y,z
loop_
_atom_site_type_symbol
_atom_site_label
_atom_site_fract_x
_atom_site_fract_y
_atom_site_fract_z
Si Si1 0.142643 0.315906 0.538047
Si Si2 0.948975 0.684209 0.612235
Si Si3 0.362892 0.181460 0.243826
Si Si4 0.962832 0.318568 0.894083
Si Si5 0.139261 0.181224 0.970568
O O1 0.250000 0.246841 0.558218
O O2 0.145633 0.500000 0.536096
O O3 0.113018 0.261154 0.457566
O O4 0.062384 0.266176 0.597907
O O5 0.938534 0.500000 0.626994
O O6 0.910120 0.782056 0.679112
O O7 0.250000 0.235222 0.243670
O O8 0.421414 0.277504 0.184111
O O9 0.372350 0.000000 0.226475
O O10 0.983332 0.500000 0.899006
O O11 0.066598 0.232132 0.906264
O O12 0.884970 0.271092 0.955389
O O13 0.250000 0.221089 0.946716
O O14 0.125758 0.000000 0.986773
#
# Coordination Sequence:
#
# PCOD8212474 Si02
#       5
#     8   8   8   8   8
#     4   8  14  27  49  76 104 132 164 206 255 305
#     4   9  17  30  51  77 101 130 170 211 252 303
#     4  11  23  37  52  72 102 137 170 211 265 316
#     4  11  22  35  55  81 107 136 174 218 256 299
#     4  10  20  36  58  81 108 141 172 207 255 308
#
# _framework density 18.51745
#
# number of rings (size 3 to 8) (size 9 to 14) (size 15 to 20)
#    0.000    2.200    0.000    6.600    0.000    6.400 
#    0.000    3.000    0.000    5.400    0.000    0.000 
#    0.000    0.000    0.000    0.000    0.000    0.000 
#
# Total GULP energy -495974.909055 kJ/mol
# GULP energy per Si atom -12399.372726 kJ/mol
# Density = 1.847530 g / cm^3
# Si number density = 18.517450 Si / 1000 Ang^3
#
#
#
# Elastic Constant Matrix: (Units=GPa)
#
#
# Indices 1 2 3 4 5 6 
#
# 1 154.6089 24.6704 44.8493 0.0000 0.0000 0.0000
# 2 24.6704 46.0743 13.9368 0.0000 0.0000 0.0000
# 3 44.8493 13.9368 85.6385 0.0000 0.0000 0.0000
# 4 0.0000 0.0000 0.0000 11.2823 0.0000 0.0000
# 5 0.0000 0.0000 0.0000 0.0000 22.9057 0.0000
# 6 0.0000 0.0000 0.0000 0.0000 0.0000 15.5714
#
#
#
# Elastic Compliance Matrix: (Units=1/GPa)
#
#
# Indices 1 2 3 4 5 6 
#
# 1 0.008049 -0.003192 -0.003696 0.000000 0.000000 0.000000
# 2 -0.003192 0.024094 -0.002249 0.000000 0.000000 0.000000
# 3 -0.003696 -0.002249 0.013979 0.000000 0.000000 0.000000
# 4 0.000000 0.000000 0.000000 0.088634 0.000000 0.000000
# 5 0.000000 0.000000 0.000000 0.000000 0.043657 0.000000
# 6 0.000000 0.000000 0.000000 0.000000 0.000000 0.064220
#
#
# Mechanical properties :
#
#
# Convention : Reuss Voigt Hill
#
# Bulk Modulus (GPa) = 35.91058 50.35940 43.13499
# Shear Modulus (GPa) = 18.50545 23.47623 20.99084
#
# Velocity S-wave (km/s) = 3.16468 3.56447 3.37051
# Velocity P-wave (km/s) = 5.72613 6.64795 6.20418
#
# Compressibility (1/GPa) = 0.02784695
#
# Stress axis : x y z
#
# Youngs Moduli (GPa) = 124.23222 41.50474 71.53747
#
# Poissons Ratio (x) = 0.13249 0.26441
# Poissons Ratio (y) = 0.39656 0.16091
# Poissons Ratio (z) = 0.45917 0.09336
#
# Static dielectric constant tensor:
#      x y z
#    x 3.959820 0.000000 0.000000 
#    y 0.000000 3.258540 0.000000 
#    z 0.000000 0.000000 3.226020 
# 
# 
# High freq. dielectric constant tensor:
#      x y z
#    x 1.732070 0.000000 0.000000 
#    y 0.000000 1.706040 0.000000 
#    z 0.000000 0.000000 1.703820 
# 
# From -- ./inp_files/29254.got.cif
#   From: 2010.03.12/outbox.cif.g09.slc.cpg/sg51_15_cif.got.tgz:29254.got - 2010.04.16 13:43:02.
