data_PCOD8212902
_publ_section_title
;
Structure prediction by ZEFSAII (Michael W. Deem and Ramdas Pophale) SiO2 
 PCOD8212902
Probable space group: P M M A
;
_chemical_formula_sum "Si O2"
_cell_formula_units_Z 48
_cell_length_a 9.756683
_cell_length_b 9.145330
_cell_length_c 28.776865
_cell_angle_alpha 90.000000
_cell_angle_beta 90.000000
_cell_angle_gamma 90.000000
_cell_volume 2567.704578
_symmetry_space_group_name_H-M "P M M A"
_symmetry_group_IT_number 51
_symmetry_cell_setting 'orthorhombic'
loop_
_space_group_symop_operation_xyz
x,y,z
1/2-x,-y,z
1/2+x,-y,-z
-x,y,-z
-x,-y,-z
1/2+x,y,-z
1/2-x,y,z
x,-y,z
loop_
_atom_site_type_symbol
_atom_site_label
_atom_site_fract_x
_atom_site_fract_y
_atom_site_fract_z
Si Si1 0.408117 0.329221 0.043183
Si Si2 0.087175 0.164706 0.134409
Si Si3 0.250000 0.672781 0.432857
Si Si4 0.490215 0.832255 0.599950
Si Si5 0.909043 0.670961 0.774399
Si Si6 0.250000 0.169073 0.530024
Si Si7 0.905818 0.166937 0.296395
O O1 0.250000 0.289931 0.032509
O O2 0.425519 0.500000 0.053393
O O3 0.465530 0.244347 0.088028
O O4 0.500000 0.278289 0.000000
O O5 0.250000 0.167457 0.134550
O O6 0.032847 0.249125 0.179734
O O7 0.029603 0.000000 0.135293
O O8 0.250000 0.500000 0.434554
O O9 0.381142 0.726625 0.404473
O O10 0.250000 0.732327 0.484844
O O11 0.384044 0.792970 0.559519
O O12 0.417966 0.803720 0.648946
O O13 0.538751 0.000000 0.595470
O O14 0.750000 0.708690 0.765857
O O15 0.931842 0.500000 0.781453
O O16 0.992880 0.725092 0.730130
O O17 0.250000 0.000000 0.514963
O O18 0.750000 0.199269 0.281294
O O19 0.946049 0.000000 0.284523
#
# Coordination Sequence:
#
# PCOD8212902 Si02
#       7
#     8   8   4   8   8   4   8
#     4   9  17  30  49  73 103 139 177 218 268 325
#     4   9  17  31  52  77 104 138 182 228 272 315
#     4  12  26  38  54  86 122 148 180 224 271 320
#     4  10  21  40  63  85 109 144 186 227 271 322
#     4  10  21  36  56  83 113 144 181 223 271 329
#     4  10  20  40  66  86 108 144 190 228 267 324
#     4  10  21  39  61  84 109 139 180 227 275 326
#
# _framework density 18.693739000000001
#
# number of rings (size 3 to 8) (size 9 to 14) (size 15 to 20)
#    0.000    2.167    0.833    2.250    1.167    7.000 
#    0.000    0.833    0.000    3.000    0.000    0.000 
#    0.000    0.000    0.000    0.000    0.000    0.000 
#
# Total GULP energy -595360.132303 kJ/mol
# GULP energy per Si atom -12403.336090 kJ/mol
# Density = 1.865119 g / cm^3
# Si number density = 18.693739 Si / 1000 Ang^3
#
#
#
# Elastic Constant Matrix: (Units=GPa)
#
#
# Indices 1 2 3 4 5 6 
#
# 1 76.9112 43.6969 30.0715 0.0000 0.0000 0.0000
# 2 43.6969 97.8863 46.7148 0.0000 0.0000 0.0000
# 3 30.0715 46.7148 96.5972 0.0000 0.0000 0.0000
# 4 0.0000 0.0000 0.0000 29.6049 0.0000 0.0000
# 5 0.0000 0.0000 0.0000 0.0000 31.1405 0.0000
# 6 0.0000 0.0000 0.0000 0.0000 0.0000 11.5879
#
#
#
# Elastic Compliance Matrix: (Units=1/GPa)
#
#
# Indices 1 2 3 4 5 6 
#
# 1 0.017774 -0.006882 -0.002205 0.000000 0.000000 0.000000
# 2 -0.006882 0.015946 -0.005569 0.000000 0.000000 0.000000
# 3 -0.002205 -0.005569 0.013732 0.000000 0.000000 0.000000
# 4 0.000000 0.000000 0.000000 0.033778 0.000000 0.000000
# 5 0.000000 0.000000 0.000000 0.000000 0.032113 0.000000
# 6 0.000000 0.000000 0.000000 0.000000 0.000000 0.086297
#
#
# Mechanical properties :
#
#
# Convention : Reuss Voigt Hill
#
# Bulk Modulus (GPa) = 55.12801 56.92902 56.02851
# Shear Modulus (GPa) = 21.27673 24.52744 22.90209
#
# Velocity S-wave (km/s) = 3.37734 3.62618 3.50397
# Velocity P-wave (km/s) = 6.69049 6.93194 6.81229
#
# Compressibility (1/GPa) = 0.01813960
#
# Stress axis : x y z
#
# Youngs Moduli (GPa) = 56.26116 62.71200 72.82310
#
# Poissons Ratio (x) = 0.43160 0.16058
# Poissons Ratio (y) = 0.38720 0.40555
# Poissons Ratio (z) = 0.12406 0.34924
#
# Static dielectric constant tensor:
#      x y z
#    x 3.328710 0.000000 0.000000 
#    y 0.000000 3.426130 0.000000 
#    z 0.000000 0.000000 3.493300 
# 
# 
# High freq. dielectric constant tensor:
#      x y z
#    x 1.709750 0.000000 0.000000 
#    y 0.000000 1.722750 0.000000 
#    z 0.000000 0.000000 1.735190 
# 
# From -- ./inp_files/37153.got.cif
#   From: 2010.03.12/outbox.cif.g09.slc.cpg/sg51_19_cif.got.tgz:37153.got - 2010.04.16 13:43:02.
