data_PCOD8212685
_publ_section_title
;
Structure prediction by ZEFSAII (Michael W. Deem and Ramdas Pophale) SiO2 
 PCOD8212685
Probable space group: P M M A
;
_chemical_formula_sum "Si O2"
_cell_formula_units_Z 56
_cell_length_a 23.042477
_cell_length_b 8.963659
_cell_length_c 13.539343
_cell_angle_alpha 90.000000
_cell_angle_beta 90.000000
_cell_angle_gamma 90.000000
_cell_volume 2796.482332
_symmetry_space_group_name_H-M "P M M A"
_symmetry_group_IT_number 51
_symmetry_cell_setting 'orthorhombic'
loop_
_space_group_symop_operation_xyz
x,y,z
1/2-x,-y,z
1/2+x,-y,-z
-x,y,-z
-x,-y,-z
1/2+x,y,-z
1/2-x,y,z
x,-y,z
loop_
_atom_site_type_symbol
_atom_site_label
_atom_site_fract_x
_atom_site_fract_y
_atom_site_fract_z
Si Si1 0.149868 0.823262 0.646541
Si Si2 0.406912 0.675300 0.287577
Si Si3 0.815828 0.672830 0.552917
Si Si4 0.947227 0.832344 0.074305
Si Si5 0.250000 0.175739 0.791191
Si Si6 0.962898 0.674935 0.277530
Si Si7 0.371828 0.671248 0.075400
Si Si8 0.750000 0.665356 0.003585
O O1 0.177589 0.767373 0.545664
O O2 0.191682 0.767019 0.735528
O O3 0.085361 0.757742 0.658102
O O4 0.145364 0.000000 0.643860
O O5 0.396662 0.500000 0.279324
O O6 0.361093 0.739374 0.366794
O O7 0.472913 0.713086 0.320376
O O8 0.394066 0.741998 0.178644
O O9 0.750000 0.691043 0.592721
O O10 0.829814 0.500000 0.529939
O O11 0.961563 0.726453 0.164939
O O12 0.933212 0.000000 0.111875
O O13 0.892432 0.767799 0.017265
O O14 0.000000 0.831270 0.000000
O O15 0.250000 0.224107 0.904202
O O16 0.250000 0.000000 0.786941
O O17 0.950594 0.500000 0.282211
O O18 0.393072 0.500000 0.063820
O O19 0.302939 0.686657 0.071295
O O20 0.750000 0.500000 0.050744
#
# Coordination Sequence:
#
# PCOD8212685 Si02
#       8
#     8   8   8   8   4   8   8   4
#     4  11  23  41  63  87 117 153 192 244 306 358
#     4   9  20  37  59  87 120 154 193 242 294 343
#     4  10  21  39  65  92 115 150 198 245 290 348
#     4  11  22  36  56  84 120 159 199 241 286 343
#     4  10  22  40  59  78 112 154 191 234 293 356
#     4  11  22  38  61  89 119 156 199 242 294 355
#     4  10  20  37  58  85 119 158 198 239 290 345
#     4  10  22  34  55  88 118 146 189 244 285 338
#
# _framework density 20.025157
#
# number of rings (size 3 to 8) (size 9 to 14) (size 15 to 20)
#    0.000    1.714    2.143    2.143    1.000    5.143 
#    0.000    5.000    0.000    0.000    0.000    0.000 
#    0.000    0.000    0.000    0.000    0.000    0.000 
#
# Total GULP energy -694449.090461 kJ/mol
# GULP energy per Si atom -12400.876615 kJ/mol
# Density = 1.997958 g / cm^3
# Si number density = 20.025157 Si / 1000 Ang^3
#
#
#
# Elastic Constant Matrix: (Units=GPa)
#
#
# Indices 1 2 3 4 5 6 
#
# 1 133.7294 41.6057 32.7770 0.0000 0.0000 0.0000
# 2 41.6057 59.8844 20.0155 0.0000 0.0000 0.0000
# 3 32.7770 20.0155 68.6732 0.0000 0.0000 0.0000
# 4 0.0000 0.0000 0.0000 -2.0906 0.0000 0.0000
# 5 0.0000 0.0000 0.0000 0.0000 36.9466 0.0000
# 6 0.0000 0.0000 0.0000 0.0000 0.0000 4.9270
#
#
#
# Elastic Compliance Matrix: (Units=1/GPa)
#
#
# Indices 1 2 3 4 5 6 
#
# 1 0.010093 -0.005985 -0.003073 0.000000 0.000000 0.000000
# 2 -0.005985 0.022050 -0.003570 0.000000 0.000000 0.000000
# 3 -0.003073 -0.003570 0.017069 0.000000 0.000000 0.000000
# 4 0.000000 0.000000 0.000000 -0.478335 0.000000 0.000000
# 5 0.000000 0.000000 0.000000 0.000000 0.027066 0.000000
# 6 0.000000 0.000000 0.000000 0.000000 0.000000 0.202961
#
#
# Mechanical properties :
#
#
# Convention : Reuss Voigt Hill
#
# Bulk Modulus (GPa) = 41.74326 50.12037 45.93182
# Shear Modulus (GPa) = -30.14708 19.14920 -5.49894
#
# Velocity S-wave (km/s) = -3.88424 3.09570 -1.65891
# Velocity P-wave (km/s) = 0.87993 6.15311 4.39517
#
# Compressibility (1/GPa) = 0.02395596
#
# Stress axis : x y z
#
# Youngs Moduli (GPa) = 99.07786 45.35047 58.58602
#
# Poissons Ratio (x) = 0.27143 0.18003
# Poissons Ratio (y) = 0.59301 0.20916
# Poissons Ratio (z) = 0.30445 0.16191
#
# Static dielectric constant tensor:
#      x y z
#    x 4.127030 0.000000 0.000000 
#    y 0.000000 3.539890 0.000000 
#    z 0.000000 0.000000 3.571200 
# 
# 
# High freq. dielectric constant tensor:
#      x y z
#    x 1.800990 0.000000 0.000000 
#    y 0.000000 1.762110 0.000000 
#    z 0.000000 0.000000 1.774580 
# 
# From -- ./inp_files/25821.got.cif
#   From: 2010.03.12/outbox.cif.g09.slc.cpg/sg51_13_cif.got.tgz:25821.got - 2010.04.16 13:43:02.
