data_PCOD8212552
_publ_section_title
;
Structure prediction by ZEFSAII (Michael W. Deem and Ramdas Pophale) SiO2 
 PCOD8212552
Probable space group: P M M A
;
_chemical_formula_sum "Si O2"
_cell_formula_units_Z 64
_cell_length_a 9.035190
_cell_length_b 15.207644
_cell_length_c 23.790326
_cell_angle_alpha 90.000000
_cell_angle_beta 90.000000
_cell_angle_gamma 90.000000
_cell_volume 3268.884835
_symmetry_space_group_name_H-M "P M M A"
_symmetry_group_IT_number 51
_symmetry_cell_setting 'orthorhombic'
loop_
_space_group_symop_operation_xyz
x,y,z
1/2-x,-y,z
1/2+x,-y,-z
-x,y,-z
-x,-y,-z
1/2+x,y,-z
1/2-x,y,z
x,-y,z
loop_
_atom_site_type_symbol
_atom_site_label
_atom_site_fract_x
_atom_site_fract_y
_atom_site_fract_z
Si Si1 0.419092 0.404356 0.742315
Si Si2 0.581318 0.402731 0.947545
Si Si3 0.079958 0.678187 0.168158
Si Si4 0.577060 0.599596 0.558197
Si Si5 0.583786 0.102790 0.944645
Si Si6 0.922756 0.722874 0.659857
Si Si7 0.919635 0.096875 0.715662
Si Si8 0.074571 0.146028 0.826961
O O1 0.250000 0.384941 0.757918
O O2 0.435633 0.500000 0.713242
O O3 0.519631 0.406568 0.798606
O O4 0.479321 0.327607 0.704183
O O5 0.750000 0.412955 0.963671
O O6 0.515998 0.500000 0.933766
O O7 0.558351 0.335537 0.897473
O O8 0.500000 0.358859 0.000000
O O9 0.250000 0.697841 0.183799
O O10 0.972538 0.755451 0.187562
O O11 0.500000 0.622501 0.500000
O O12 0.750000 0.601829 0.547325
O O13 0.531673 0.500000 0.579075
O O14 0.531286 0.679233 0.600272
O O15 0.750000 0.144514 0.940684
O O16 0.497933 0.118593 0.886207
O O17 0.599424 0.000000 0.953867
O O18 0.500000 0.142344 0.000000
O O19 0.750000 0.704780 0.670826
O O20 0.961064 0.826970 0.669340
O O21 0.750000 0.111720 0.734372
O O22 0.016669 0.093105 0.772688
O O23 0.939598 0.000000 0.687096
O O24 0.250000 0.134062 0.832241
#
# Coordination Sequence:
#
# PCOD8212552 Si02
#       8
#     8   8   8   8   8   8   8   8
#     4  11  23  36  53  82 117 150 185 231 288 345
#     4   9  19  35  54  74  95 126 171 220 271 329
#     4  11  22  37  55  75 104 141 183 230 280 340
#     4   9  18  33  55  86 122 161 204 243 286 340
#     4  10  21  38  59  81 105 135 176 228 289 359
#     4  10  20  36  59  85 116 156 199 242 287 342
#     4  10  21  38  60  85 113 150 197 247 298 352
#     4  12  24  37  55  80 111 144 184 235 295 357
#
# _framework density 19.578541000000001
#
# number of rings (size 3 to 8) (size 9 to 14) (size 15 to 20)
#    0.000    1.750    1.250    3.375    0.000    6.500 
#    0.000    3.750    0.000    0.375    0.000    0.000 
#    0.000    0.000    0.000    0.000    0.000    0.000 
#
# Total GULP energy -793009.537562 kJ/mol
# GULP energy per Si atom -12390.774024 kJ/mol
# Density = 1.953398 g / cm^3
# Si number density = 19.578541 Si / 1000 Ang^3
#
#
#
# Elastic Constant Matrix: (Units=GPa)
#
#
# Indices 1 2 3 4 5 6 
#
# 1 91.1901 42.3600 50.9566 0.0000 0.0000 0.0000
# 2 42.3600 116.1201 53.1635 0.0000 0.0000 0.0000
# 3 50.9566 53.1635 116.2840 0.0000 0.0000 0.0000
# 4 0.0000 0.0000 0.0000 51.6711 0.0000 0.0000
# 5 0.0000 0.0000 0.0000 0.0000 32.2816 0.0000
# 6 0.0000 0.0000 0.0000 0.0000 0.0000 36.1878
#
#
#
# Elastic Compliance Matrix: (Units=1/GPa)
#
#
# Indices 1 2 3 4 5 6 
#
# 1 0.015408 -0.003199 -0.005289 0.000000 0.000000 0.000000
# 2 -0.003199 0.011556 -0.003881 0.000000 0.000000 0.000000
# 3 -0.005289 -0.003881 0.012692 0.000000 0.000000 0.000000
# 4 0.000000 0.000000 0.000000 0.019353 0.000000 0.000000
# 5 0.000000 0.000000 0.000000 0.000000 0.030977 0.000000
# 6 0.000000 0.000000 0.000000 0.000000 0.000000 0.027634
#
#
# Mechanical properties :
#
#
# Convention : Reuss Voigt Hill
#
# Bulk Modulus (GPa) = 67.04111 68.50604 67.77358
# Shear Modulus (GPa) = 33.93725 35.83573 34.88649
#
# Velocity S-wave (km/s) = 4.16792 4.28291 4.22580
# Velocity P-wave (km/s) = 7.58146 7.71519 7.64861
#
# Compressibility (1/GPa) = 0.01491622
#
# Stress axis : x y z
#
# Youngs Moduli (GPa) = 64.90240 86.53706 78.79048
#
# Poissons Ratio (x) = 0.27684 0.41674
# Poissons Ratio (y) = 0.20763 0.30581
# Poissons Ratio (z) = 0.34328 0.33587
#
# Static dielectric constant tensor:
#      x y z
#    x 3.636380 0.000000 0.000000 
#    y 0.000000 3.845200 0.000000 
#    z 0.000000 0.000000 3.599350 
# 
# 
# High freq. dielectric constant tensor:
#      x y z
#    x 1.763640 0.000000 0.000000 
#    y 0.000000 1.766100 0.000000 
#    z 0.000000 0.000000 1.741180 
# 
# From -- ./inp_files/35022.got.cif
#   From: 2010.03.12/outbox.cif.g09.slc.cpg/sg51_18_cif.got.tgz:35022.got - 2010.04.16 13:43:02.
