data_PCOD8212092
_publ_section_title
;
Structure prediction by ZEFSAII (Michael W. Deem and Ramdas Pophale) SiO2 
 PCOD8212092
Probable space group: P M M A
;
_chemical_formula_sum "Si O2"
_cell_formula_units_Z 64
_cell_length_a 15.171030
_cell_length_b 8.940417
_cell_length_c 24.003096
_cell_angle_alpha 90.000000
_cell_angle_beta 90.000000
_cell_angle_gamma 90.000000
_cell_volume 3255.667955
_symmetry_space_group_name_H-M "P M M A"
_symmetry_group_IT_number 51
_symmetry_cell_setting 'orthorhombic'
loop_
_space_group_symop_operation_xyz
x,y,z
1/2-x,-y,z
1/2+x,-y,-z
-x,y,-z
-x,-y,-z
1/2+x,y,-z
1/2-x,y,z
x,-y,z
loop_
_atom_site_type_symbol
_atom_site_label
_atom_site_fract_x
_atom_site_fract_y
_atom_site_fract_z
Si Si1 0.085248 0.175622 0.611081
Si Si2 0.148364 0.668534 0.505235
Si Si3 0.595203 0.324326 0.617521
Si Si4 0.489638 0.822725 0.791333
Si Si5 0.495011 0.822190 0.916492
Si Si6 0.148698 0.822454 0.003781
Si Si7 0.345892 0.170134 0.279638
Si Si8 0.848945 0.669412 0.285937
O O1 0.096240 0.225044 0.547067
O O2 0.153124 0.254185 0.653024
O O3 0.990033 0.226511 0.631610
O O4 0.097382 0.000000 0.615489
O O5 0.250000 0.677524 0.520670
O O6 0.112354 0.500000 0.512904
O O7 0.134382 0.722627 0.442182
O O8 0.574995 0.500000 0.619651
O O9 0.661421 0.276459 0.666116
O O10 0.489066 0.758281 0.853994
O O11 0.581307 0.771209 0.763564
O O12 0.408393 0.756607 0.757689
O O13 0.479641 0.000000 0.791260
O O14 0.587730 0.767311 0.944213
O O15 0.496772 0.000000 0.916798
O O16 0.406624 0.768616 0.949244
O O17 0.250000 0.756484 0.005199
O O18 0.156285 0.000000 0.004198
O O19 0.250000 0.178462 0.250259
O O20 0.367163 0.000000 0.298119
O O21 0.750000 0.673132 0.262479
O O22 0.883437 0.500000 0.292321
#
# Coordination Sequence:
#
# PCOD8212092 Si02
#       8
#     8   8   8   8   8   8   8   8
#     4  12  24  38  58  84 111 141 180 228 286 343
#     4  10  22  39  57  80 109 141 181 227 276 337
#     4  11  22  38  60  82 107 144 188 230 279 339
#     4  10  20  35  55  81 114 150 188 234 286 336
#     4   8  15  26  42  70 107 145 186 227 271 327
#     4   8  13  23  41  68 106 149 187 226 272 320
#     4  10  21  36  54  79 112 148 187 235 289 341
#     4  11  24  41  60  81 108 146 189 234 284 340
#
# _framework density 19.658024999999999
#
# number of rings (size 3 to 8) (size 9 to 14) (size 15 to 20)
#    0.000    2.000    1.250    3.750    0.000    7.000 
#    0.000    3.750    0.000    0.000    0.000    1.750 
#    0.000    1.000    0.000    0.000    0.000    0.000 
#
# Total GULP energy -793391.951020 kJ/mol
# GULP energy per Si atom -12396.749235 kJ/mol
# Density = 1.961328 g / cm^3
# Si number density = 19.658025 Si / 1000 Ang^3
#
#
#
# Elastic Constant Matrix: (Units=GPa)
#
#
# Indices 1 2 3 4 5 6 
#
# 1 123.5384 20.5476 48.3580 0.0000 0.0000 0.0000
# 2 20.5476 48.1606 32.9447 0.0000 0.0000 0.0000
# 3 48.3580 32.9447 144.5380 0.0000 0.0000 0.0000
# 4 0.0000 0.0000 0.0000 6.5834 0.0000 0.0000
# 5 0.0000 0.0000 0.0000 0.0000 17.5434 0.0000
# 6 0.0000 0.0000 0.0000 0.0000 0.0000 17.5363
#
#
#
# Elastic Compliance Matrix: (Units=1/GPa)
#
#
# Indices 1 2 3 4 5 6 
#
# 1 0.009512 -0.002229 -0.002674 0.000000 0.000000 0.000000
# 2 -0.002229 0.025122 -0.004980 0.000000 0.000000 0.000000
# 3 -0.002674 -0.004980 0.008949 0.000000 0.000000 0.000000
# 4 0.000000 0.000000 0.000000 0.151897 0.000000 0.000000
# 5 0.000000 0.000000 0.000000 0.000000 0.057002 0.000000
# 6 0.000000 0.000000 0.000000 0.000000 0.000000 0.057024
#
#
# Mechanical properties :
#
#
# Convention : Reuss Voigt Hill
#
# Bulk Modulus (GPa) = 41.99011 57.77086 49.88049
# Shear Modulus (GPa) = 14.82749 22.62506 18.72627
#
# Velocity S-wave (km/s) = 2.74938 3.39622 3.08977
# Velocity P-wave (km/s) = 5.61119 6.69558 6.17723
#
# Compressibility (1/GPa) = 0.02381513
#
# Stress axis : x y z
#
# Youngs Moduli (GPa) = 105.12731 39.80639 111.74987
#
# Poissons Ratio (x) = 0.08872 0.29887
# Poissons Ratio (y) = 0.23432 0.55654
# Poissons Ratio (z) = 0.28116 0.19825
#
# Static dielectric constant tensor:
#      x y z
#    x 3.740670 0.000000 0.000000 
#    y 0.000000 3.234500 0.000000 
#    z 0.000000 0.000000 3.724610 
# 
# 
# High freq. dielectric constant tensor:
#      x y z
#    x 1.778350 0.000000 0.000000 
#    y 0.000000 1.730290 0.000000 
#    z 0.000000 0.000000 1.762790 
# 
# From -- ./inp_files/35767.got.cif
#   From: 2010.03.12/outbox.cif.g09.slc.cpg/sg51_18_cif.got.tgz:35767.got - 2010.04.16 13:43:02.
