data_PCOD8212259
_publ_section_title
;
Structure prediction by ZEFSAII (Michael W. Deem and Ramdas Pophale) SiO2 
 PCOD8212259
Probable space group: P M M A
;
_chemical_formula_sum "Si O2"
_cell_formula_units_Z 36
_cell_length_a 19.974317
_cell_length_b 9.109863
_cell_length_c 10.766760
_cell_angle_alpha 90.000000
_cell_angle_beta 90.000000
_cell_angle_gamma 90.000000
_cell_volume 1959.155087
_symmetry_space_group_name_H-M "P M M A"
_symmetry_group_IT_number 51
_symmetry_cell_setting 'orthorhombic'
loop_
_space_group_symop_operation_xyz
x,y,z
1/2-x,-y,z
1/2+x,-y,-z
-x,y,-z
-x,-y,-z
1/2+x,y,-z
1/2-x,y,z
x,-y,z
loop_
_atom_site_type_symbol
_atom_site_label
_atom_site_fract_x
_atom_site_fract_y
_atom_site_fract_z
Si Si1 0.562316 0.164002 0.738260
Si Si2 0.437684 0.335998 0.738260
Si Si3 0.827365 0.171226 0.127816
Si Si4 0.000000 0.750000 0.500000
Si Si5 0.827365 0.671226 0.872183
O O1 0.500000 0.250000 0.803413
O O2 0.548343 0.153684 0.589550
O O3 0.629986 0.254758 0.762579
O O4 0.568530 0.000000 0.792778
O O5 0.431470 0.500000 0.792778
O O6 0.370014 0.245242 0.762579
O O7 0.451657 0.346316 0.589550
O O8 0.750000 0.197232 0.160564
O O9 0.844571 0.000000 0.117128
O O10 0.847115 0.250000 0.000000
O O11 0.750000 0.697232 0.839436
O O12 0.844571 0.500000 0.882872
#
# Coordination Sequence:
#
# PCOD8212259 Si02
#       5
#     8   8   8   4   8
#     4  10  20  35  58  82 110 144 182 226 272 321
#     4  10  20  35  58  82 110 144 182 226 272 321
#     4  10  21  37  57  82 113 145 180 223 272 326
#     4   8  22  36  58  80 110 144 180 230 270 320
#     4  10  21  37  57  82 113 145 180 223 272 326
#
# _framework density 18.375268999999999
#
# number of rings (size 3 to 8) (size 9 to 14) (size 15 to 20)
#    1.333    0.889    0.000    3.333    0.000    3.556 
#    0.000    5.556    0.000    0.000    0.000    0.000 
#    0.000    0.000    0.000    0.000    0.000    0.000 
#
# Total GULP energy -446110.955579 kJ/mol
# GULP energy per Si atom -12391.970988 kJ/mol
# Density = 1.833345 g / cm^3
# Si number density = 18.375269 Si / 1000 Ang^3
#
#
#
# Elastic Constant Matrix: (Units=GPa)
#
#
# Indices 1 2 3 4 5 6 
#
# 1 107.9617 72.9782 54.1462 0.0000 0.0000 0.0000
# 2 72.9782 166.9122 40.7563 0.0000 0.0000 0.0000
# 3 54.1462 40.7563 76.7746 0.0000 0.0000 0.0000
# 4 0.0000 0.0000 0.0000 25.7650 0.0000 0.0000
# 5 0.0000 0.0000 0.0000 0.0000 33.3578 0.0000
# 6 0.0000 0.0000 0.0000 0.0000 0.0000 31.9923
#
#
#
# Elastic Compliance Matrix: (Units=1/GPa)
#
#
# Indices 1 2 3 4 5 6 
#
# 1 0.017760 -0.005408 -0.009655 0.000000 0.000000 0.000000
# 2 -0.005408 0.008530 -0.000714 0.000000 0.000000 0.000000
# 3 -0.009655 -0.000714 0.020214 0.000000 0.000000 0.000000
# 4 0.000000 0.000000 0.000000 0.038812 0.000000 0.000000
# 5 0.000000 0.000000 0.000000 0.000000 0.029978 0.000000
# 6 0.000000 0.000000 0.000000 0.000000 0.000000 0.031258
#
#
# Mechanical properties :
#
#
# Convention : Reuss Voigt Hill
#
# Bulk Modulus (GPa) = 66.89010 76.37889 71.63449
# Shear Modulus (GPa) = 27.30915 30.47419 28.89167
#
# Velocity S-wave (km/s) = 3.85930 4.07681 3.96954
# Velocity P-wave (km/s) = 7.50601 7.98854 7.75103
#
# Compressibility (1/GPa) = 0.01494990
#
# Stress axis : x y z
#
# Youngs Moduli (GPa) = 56.30571 117.23356 49.47168
#
# Poissons Ratio (x) = 0.63396 0.47764
# Poissons Ratio (y) = 0.30448 0.03534
# Poissons Ratio (z) = 0.54363 0.08375
#
# Static dielectric constant tensor:
#      x y z
#    x 3.293870 0.000000 0.000000 
#    y 0.000000 3.381100 0.000000 
#    z 0.000000 0.000000 3.035160 
# 
# 
# High freq. dielectric constant tensor:
#      x y z
#    x 1.708310 0.000000 0.000000 
#    y 0.000000 1.727830 0.000000 
#    z 0.000000 0.000000 1.682510 
# 
# From -- ./inp_files/17800.got.cif
#   From: 2010.03.12/outbox.cif.g09.slc.cpg/sg51_9_cif.got.tgz:17800.got - 2010.04.16 13:43:02.
