data_PCOD8212004
_publ_section_title
;
Structure prediction by ZEFSAII (Michael W. Deem and Ramdas Pophale) SiO2 
 PCOD8212004
Probable space group: P M M A
;
_chemical_formula_sum "Si O2"
_cell_formula_units_Z 64
_cell_length_a 27.660683
_cell_length_b 9.084761
_cell_length_c 12.982819
_cell_angle_alpha 90.000000
_cell_angle_beta 90.000000
_cell_angle_gamma 90.000000
_cell_volume 3262.461599
_symmetry_space_group_name_H-M "P M M A"
_symmetry_group_IT_number 51
_symmetry_cell_setting 'orthorhombic'
loop_
_space_group_symop_operation_xyz
x,y,z
1/2-x,-y,z
1/2+x,-y,-z
-x,y,-z
-x,-y,-z
1/2+x,y,-z
1/2-x,y,z
x,-y,z
loop_
_atom_site_type_symbol
_atom_site_label
_atom_site_fract_x
_atom_site_fract_y
_atom_site_fract_z
Si Si1 0.196551 0.326558 0.112641
Si Si2 0.848831 0.831885 0.301907
Si Si3 0.136154 0.674636 0.305472
Si Si4 0.556446 0.168020 0.193230
Si Si5 0.947123 0.173417 0.787681
Si Si6 0.804877 0.674316 0.495502
Si Si7 0.442654 0.665142 0.006957
Si Si8 0.807440 0.664257 0.113772
O O1 0.250000 0.255007 0.121388
O O2 0.201651 0.500000 0.126678
O O3 0.163997 0.264419 0.204896
O O4 0.172515 0.292186 0.000528
O O5 0.906811 0.814482 0.288817
O O6 0.831359 0.732959 0.394991
O O7 0.823663 0.783473 0.196302
O O8 0.834397 0.000000 0.323741
O O9 0.129141 0.500000 0.305367
O O10 0.083553 0.752334 0.304653
O O11 0.165778 0.728349 0.404937
O O12 0.503195 0.217584 0.229916
O O13 0.554199 0.000000 0.153603
O O14 0.577195 0.265875 0.099243
O O15 0.927092 0.238445 0.895274
O O16 0.939422 0.000000 0.786959
O O17 0.750000 0.734636 0.501423
O O18 0.804323 0.500000 0.488797
O O19 0.421735 0.500000 0.020087
O O20 0.500000 0.663703 0.000000
O O21 0.750000 0.663355 0.105597
O O22 0.825425 0.500000 0.145036
#
# Coordination Sequence:
#
# PCOD8212004 Si02
#       8
#     8   8   8   8   8   8   8   8
#     4   8  15  30  53  80 109 140 173 215 272 335
#     4  11  23  37  56  81 109 144 191 237 279 327
#     4  10  20  35  58  86 111 139 186 236 277 327
#     4   9  20  37  53  75 111 154 192 228 275 333
#     4  10  20  35  54  77 113 154 188 224 275 336
#     4  10  22  41  63  85 111 145 185 231 285 344
#     4   9  17  30  51  79 109 144 187 232 273 318
#     4   9  18  33  53  79 111 144 177 216 273 343
#
# _framework density 19.617087999999999
#
# number of rings (size 3 to 8) (size 9 to 14) (size 15 to 20)
#    0.000    2.500    0.000    2.625    1.750    7.000 
#    0.000    0.625    0.000    5.625    0.000    0.000 
#    0.000    0.000    0.000    0.000    0.000    0.000 
#
# Total GULP energy -793554.737154 kJ/mol
# GULP energy per Si atom -12399.292768 kJ/mol
# Density = 1.957244 g / cm^3
# Si number density = 19.617088 Si / 1000 Ang^3
#
#
#
# Elastic Constant Matrix: (Units=GPa)
#
#
# Indices 1 2 3 4 5 6 
#
# 1 77.8420 25.0821 53.7845 0.0000 0.0000 0.0000
# 2 25.0821 40.6296 22.6772 0.0000 0.0000 0.0000
# 3 53.7845 22.6772 115.9193 0.0000 0.0000 0.0000
# 4 0.0000 0.0000 0.0000 16.7780 0.0000 0.0000
# 5 0.0000 0.0000 0.0000 0.0000 32.8366 0.0000
# 6 0.0000 0.0000 0.0000 0.0000 0.0000 24.8106
#
#
#
# Elastic Compliance Matrix: (Units=1/GPa)
#
#
# Indices 1 2 3 4 5 6 
#
# 1 0.021263 -0.008554 -0.008192 0.000000 0.000000 0.000000
# 2 -0.008554 0.031071 -0.002109 0.000000 0.000000 0.000000
# 3 -0.008192 -0.002109 0.012840 0.000000 0.000000 0.000000
# 4 0.000000 0.000000 0.000000 0.059602 0.000000 0.000000
# 5 0.000000 0.000000 0.000000 0.000000 0.030454 0.000000
# 6 0.000000 0.000000 0.000000 0.000000 0.000000 0.040305
#
#
# Mechanical properties :
#
#
# Convention : Reuss Voigt Hill
#
# Bulk Modulus (GPa) = 36.41292 48.60873 42.51083
# Shear Modulus (GPa) = 20.62697 23.74152 22.18424
#
# Velocity S-wave (km/s) = 3.24617 3.48263 3.36648
# Velocity P-wave (km/s) = 5.71422 6.40345 6.06863
#
# Compressibility (1/GPa) = 0.02746278
#
# Stress axis : x y z
#
# Youngs Moduli (GPa) = 47.02949 32.18469 77.87880
#
# Poissons Ratio (x) = 0.27531 0.63801
# Poissons Ratio (y) = 0.40229 0.16428
# Poissons Ratio (z) = 0.38528 0.06789
#
# Static dielectric constant tensor:
#      x y z
#    x 3.806830 0.000000 0.000000 
#    y 0.000000 3.419740 0.000000 
#    z 0.000000 0.000000 3.498710 
# 
# 
# High freq. dielectric constant tensor:
#      x y z
#    x 1.778790 0.000000 0.000000 
#    y 0.000000 1.744480 0.000000 
#    z 0.000000 0.000000 1.747030 
# 
# From -- ./inp_files/19559.got.cif
#   From: 2010.03.12/outbox.cif.g09.slc.cpg/sg51_10_cif.got.tgz:19559.got - 2010.04.16 13:43:02.
