data_PCOD8212115
_publ_section_title
;
Structure prediction by ZEFSAII (Michael W. Deem and Ramdas Pophale) SiO2 
 PCOD8212115
Probable space group: P M M A
;
_chemical_formula_sum "Si O2"
_cell_formula_units_Z 64
_cell_length_a 18.375934
_cell_length_b 8.938515
_cell_length_c 20.332606
_cell_angle_alpha 90.000000
_cell_angle_beta 90.000000
_cell_angle_gamma 90.000000
_cell_volume 3339.702954
_symmetry_space_group_name_H-M "P M M A"
_symmetry_group_IT_number 51
_symmetry_cell_setting 'orthorhombic'
loop_
_space_group_symop_operation_xyz
x,y,z
1/2-x,-y,z
1/2+x,-y,-z
-x,y,-z
-x,-y,-z
1/2+x,y,-z
1/2-x,y,z
x,-y,z
loop_
_atom_site_type_symbol
_atom_site_label
_atom_site_fract_x
_atom_site_fract_y
_atom_site_fract_z
Si Si1 0.924990 0.324449 0.766252
Si Si2 0.666202 0.326203 0.120967
Si Si3 0.416027 0.175955 0.993967
Si Si4 0.833862 0.828119 0.508782
Si Si5 0.913004 0.325706 0.251985
Si Si6 0.928544 0.823499 0.385170
Si Si7 0.667050 0.321913 0.886627
Si Si8 0.918048 0.323959 0.619560
O O1 0.921084 0.500000 0.775928
O O2 0.874745 0.253141 0.823118
O O3 0.895564 0.279090 0.694070
O O4 0.008276 0.269782 0.774304
O O5 0.750000 0.283272 0.108652
O O6 0.651825 0.500000 0.104583
O O7 0.647346 0.292742 0.196970
O O8 0.614057 0.225147 0.076747
O O9 0.369291 0.259544 0.048250
O O10 0.406509 0.000000 0.002715
O O11 0.500000 0.224365 0.000000
O O12 0.750000 0.802568 0.492932
O O13 0.877322 0.773853 0.444919
O O14 0.854530 0.729273 0.571665
O O15 0.851597 0.000000 0.525279
O O16 0.917500 0.500000 0.270346
O O17 0.892510 0.237563 0.318107
O O18 0.007008 0.754712 0.400052
O O19 0.935934 0.000000 0.379676
O O20 0.750000 0.266548 0.883033
O O21 0.662966 0.500000 0.889368
O O22 0.929886 0.500000 0.613558
#
# Coordination Sequence:
#
# PCOD8212115 Si02
#       8
#     8   8   8   8   8   8   8   8
#     4   8  16  32  53  77 105 137 173 213 258 311
#     4  10  21  37  58  84 112 143 179 219 269 328
#     4  11  24  39  55  78 108 142 182 226 268 313
#     4  10  22  38  53  74 108 146 182 221 268 325
#     4   9  18  34  55  79 108 140 177 223 267 309
#     4  10  20  35  56  79 106 144 185 222 265 321
#     4  10  20  35  57  82 107 139 177 215 262 322
#     4  10  20  35  57  83 108 137 179 228 273 318
#
# _framework density 19.163381999999999
#
# number of rings (size 3 to 8) (size 9 to 14) (size 15 to 20)
#    0.000    2.250    0.000    3.375    0.000    8.250 
#    0.000    5.625    0.000    0.000    0.000    0.000 
#    0.000    0.000    0.000    0.000    0.000    0.000 
#
# Total GULP energy -793716.208406 kJ/mol
# GULP energy per Si atom -12401.815756 kJ/mol
# Density = 1.911977 g / cm^3
# Si number density = 19.163382 Si / 1000 Ang^3
#
#
#
# Elastic Constant Matrix: (Units=GPa)
#
#
# Indices 1 2 3 4 5 6 
#
# 1 78.5701 21.8671 37.0507 0.0000 0.0000 0.0000
# 2 21.8671 38.8511 27.2178 0.0000 0.0000 0.0000
# 3 37.0507 27.2178 97.9943 0.0000 0.0000 0.0000
# 4 0.0000 0.0000 0.0000 15.8485 0.0000 0.0000
# 5 0.0000 0.0000 0.0000 0.0000 27.2636 0.0000
# 6 0.0000 0.0000 0.0000 0.0000 0.0000 22.9080
#
#
#
# Elastic Compliance Matrix: (Units=1/GPa)
#
#
# Indices 1 2 3 4 5 6 
#
# 1 0.016590 -0.006137 -0.004568 0.000000 0.000000 0.000000
# 2 -0.006137 0.034228 -0.007186 0.000000 0.000000 0.000000
# 3 -0.004568 -0.007186 0.013928 0.000000 0.000000 0.000000
# 4 0.000000 0.000000 0.000000 0.063098 0.000000 0.000000
# 5 0.000000 0.000000 0.000000 0.000000 0.036679 0.000000
# 6 0.000000 0.000000 0.000000 0.000000 0.000000 0.043653
#
#
# Mechanical properties :
#
#
# Convention : Reuss Voigt Hill
#
# Bulk Modulus (GPa) = 34.52728 43.07628 38.80178
# Shear Modulus (GPa) = 19.71518 21.82269 20.76893
#
# Velocity S-wave (km/s) = 3.21096 3.37823 3.29566
# Velocity P-wave (km/s) = 5.63946 6.14360 5.89692
#
# Compressibility (1/GPa) = 0.02896260
#
# Stress axis : x y z
#
# Youngs Moduli (GPa) = 60.27900 29.21572 71.79942
#
# Poissons Ratio (x) = 0.17931 0.32796
# Poissons Ratio (y) = 0.36995 0.51598
# Poissons Ratio (z) = 0.27534 0.20995
#
# Static dielectric constant tensor:
#      x y z
#    x 3.565430 0.000000 0.000000 
#    y 0.000000 3.354350 0.000000 
#    z 0.000000 0.000000 3.695680 
# 
# 
# High freq. dielectric constant tensor:
#      x y z
#    x 1.745330 0.000000 0.000000 
#    y 0.000000 1.728310 0.000000 
#    z 0.000000 0.000000 1.758990 
# 
# From -- ./inp_files/33843.got.cif
#   From: 2010.03.12/outbox.cif.g09.slc.cpg/sg51_17_cif.got.tgz:33843.got - 2010.04.16 13:43:02.
