data_PCOD8212110
_publ_section_title
;
Structure prediction by ZEFSAII (Michael W. Deem and Ramdas Pophale) SiO2 
 PCOD8212110
Probable space group: P M M A
;
_chemical_formula_sum "Si O2"
_cell_formula_units_Z 64
_cell_length_a 15.280575
_cell_length_b 9.269526
_cell_length_c 23.980813
_cell_angle_alpha 90.000000
_cell_angle_beta 90.000000
_cell_angle_gamma 90.000000
_cell_volume 3396.730777
_symmetry_space_group_name_H-M "P M M A"
_symmetry_group_IT_number 51
_symmetry_cell_setting 'orthorhombic'
loop_
_space_group_symop_operation_xyz
x,y,z
1/2-x,-y,z
1/2+x,-y,-z
-x,y,-z
-x,-y,-z
1/2+x,y,-z
1/2-x,y,z
x,-y,z
loop_
_atom_site_type_symbol
_atom_site_label
_atom_site_fract_x
_atom_site_fract_y
_atom_site_fract_z
Si Si1 0.594900 0.329944 0.938492
Si Si2 0.648984 0.668831 0.443701
Si Si3 0.650747 0.166108 0.555760
Si Si4 0.845969 0.164555 0.164554
Si Si5 0.395129 0.670330 0.940186
Si Si6 0.151667 0.333031 0.179510
Si Si7 0.497600 0.829759 0.241749
Si Si8 0.512149 0.831769 0.369264
O O1 0.599014 0.500000 0.942582
O O2 0.495073 0.281687 0.931177
O O3 0.647460 0.274372 0.884435
O O4 0.634221 0.274804 0.997781
O O5 0.750000 0.699757 0.428353
O O6 0.628918 0.500000 0.446543
O O7 0.625423 0.735992 0.503399
O O8 0.588680 0.740715 0.397348
O O9 0.750000 0.198604 0.576480
O O10 0.583159 0.203383 0.604954
O O11 0.641667 0.000000 0.537090
O O12 0.750000 0.176684 0.193059
O O13 0.839696 0.251599 0.107015
O O14 0.918467 0.226927 0.206993
O O15 0.869003 0.000000 0.150155
O O16 0.381574 0.500000 0.933495
O O17 0.250000 0.312818 0.201481
O O18 0.122534 0.500000 0.181129
O O19 0.089955 0.242955 0.219492
O O20 0.510232 0.782835 0.305342
O O21 0.485991 0.000000 0.236640
O O22 0.534995 0.000000 0.375828
#
# Coordination Sequence:
#
# PCOD8212110 Si02
#       8
#     8   8   8   8   8   8   8   8
#     4   8  15  29  51  79 106 130 164 214 266 317
#     4  10  21  36  55  83 117 147 175 213 264 318
#     4   9  18  34  56  82 112 143 176 218 265 313
#     4  10  21  36  52  73 104 139 175 219 272 324
#     4   9  16  30  54  79 101 131 171 216 265 320
#     4  10  20  35  56  79 105 139 176 218 269 321
#     4  10  22  39  56  76 105 142 182 225 268 310
#     4  10  21  36  57  82 106 141 188 227 262 308
#
# _framework density 18.841645
#
# number of rings (size 3 to 8) (size 9 to 14) (size 15 to 20)
#    0.000    2.500    1.250    1.500    0.000    5.250 
#    0.000    5.625    0.000    1.500    0.000    0.000 
#    0.000    0.000    0.000    0.000    0.000    0.000 
#
# Total GULP energy -793428.714549 kJ/mol
# GULP energy per Si atom -12397.323665 kJ/mol
# Density = 1.879876 g / cm^3
# Si number density = 18.841645 Si / 1000 Ang^3
#
#
#
# Elastic Constant Matrix: (Units=GPa)
#
#
# Indices 1 2 3 4 5 6 
#
# 1 101.1886 39.7254 67.3440 0.0000 0.0000 0.0000
# 2 39.7254 52.1316 50.5122 0.0000 0.0000 0.0000
# 3 67.3440 50.5122 140.2925 0.0000 0.0000 0.0000
# 4 0.0000 0.0000 0.0000 18.1125 0.0000 0.0000
# 5 0.0000 0.0000 0.0000 0.0000 10.7616 0.0000
# 6 0.0000 0.0000 0.0000 0.0000 0.0000 27.6171
#
#
#
# Elastic Compliance Matrix: (Units=1/GPa)
#
#
# Indices 1 2 3 4 5 6 
#
# 1 0.016180 -0.007378 -0.005111 0.000000 0.000000 0.000000
# 2 -0.007378 0.032824 -0.008277 0.000000 0.000000 0.000000
# 3 -0.005111 -0.008277 0.012561 0.000000 0.000000 0.000000
# 4 0.000000 0.000000 0.000000 0.055211 0.000000 0.000000
# 5 0.000000 0.000000 0.000000 0.000000 0.092923 0.000000
# 6 0.000000 0.000000 0.000000 0.000000 0.000000 0.036209
#
#
# Mechanical properties :
#
#
# Convention : Reuss Voigt Hill
#
# Bulk Modulus (GPa) = 49.91234 67.64177 58.77705
# Shear Modulus (GPa) = 17.00007 20.36697 18.68352
#
# Velocity S-wave (km/s) = 3.00702 3.29136 3.15240
# Velocity P-wave (km/s) = 6.21323 7.10085 6.67182
#
# Compressibility (1/GPa) = 0.02003512
#
# Stress axis : x y z
#
# Youngs Moduli (GPa) = 61.80383 30.46562 79.61065
#
# Poissons Ratio (x) = 0.22477 0.40685
# Poissons Ratio (y) = 0.45598 0.65891
# Poissons Ratio (z) = 0.31585 0.25215
#
# Static dielectric constant tensor:
#      x y z
#    x 3.471670 0.000000 0.000000 
#    y 0.000000 3.241040 0.000000 
#    z 0.000000 0.000000 2.806550 
# 
# 
# High freq. dielectric constant tensor:
#      x y z
#    x 1.738880 0.000000 0.000000 
#    y 0.000000 1.708220 0.000000 
#    z 0.000000 0.000000 1.729520 
# 
# From -- ./inp_files/35721.got.cif
#   From: 2010.03.12/outbox.cif.g09.slc.cpg/sg51_18_cif.got.tgz:35721.got - 2010.04.16 13:43:02.
