data_PCOD8212495
_publ_section_title
;
Structure prediction by ZEFSAII (Michael W. Deem and Ramdas Pophale) SiO2 
 PCOD8212495
Probable space group: P M M A
;
_chemical_formula_sum "Si O2"
_cell_formula_units_Z 40
_cell_length_a 16.544731
_cell_length_b 13.155671
_cell_length_c 9.106406
_cell_angle_alpha 90.000000
_cell_angle_beta 90.000000
_cell_angle_gamma 90.000000
_cell_volume 1982.073355
_symmetry_space_group_name_H-M "P M M A"
_symmetry_group_IT_number 51
_symmetry_cell_setting 'orthorhombic'
loop_
_space_group_symop_operation_xyz
x,y,z
1/2-x,-y,z
1/2+x,-y,-z
-x,y,-z
-x,-y,-z
1/2+x,y,-z
1/2-x,y,z
x,-y,z
loop_
_atom_site_type_symbol
_atom_site_label
_atom_site_fract_x
_atom_site_fract_y
_atom_site_fract_z
Si Si1 0.907131 0.824508 0.550433
Si Si2 0.341152 0.000000 0.640961
Si Si3 0.918316 0.387175 0.914265
Si Si4 0.584711 0.393847 0.574320
Si Si5 0.342825 0.817896 0.132877
Si Si6 0.407726 0.000000 0.952778
O O1 0.853140 0.901438 0.459608
O O2 0.872152 0.709748 0.519846
O O3 0.898544 0.843551 0.725290
O O4 0.000000 0.835845 0.500000
O O5 0.250000 0.000000 0.701165
O O6 0.402946 0.000000 0.776251
O O7 0.884193 0.500000 0.960620
O O8 0.937847 0.385967 0.743772
O O9 0.856484 0.293860 0.940212
O O10 0.000000 0.362500 0.000000
O O11 0.500000 0.403632 0.500000
O O12 0.634647 0.500000 0.543854
O O13 0.250000 0.825865 0.181892
O O14 0.362801 0.899856 0.009337
O O15 0.500000 0.000000 0.000000
#
# Coordination Sequence:
#
# PCOD8212495 Si02
#       6
#     8   4   8   8   8   4
#     4  10  20  36  58  83 111 149 191 227 270 335
#     4  12  24  38  56  80 110 142 182 234 286 330
#     4   9  18  33  54  81 112 148 190 230 270 325
#     4   8  15  29  51  80 109 137 176 224 266 309
#     4  11  22  37  57  84 117 149 184 234 295 343
#     4  12  25  42  61  80 106 144 190 236 283 346
#
# _framework density 20.180886999999998
#
# number of rings (size 3 to 8) (size 9 to 14) (size 15 to 20)
#    0.000    2.000    0.000    4.200    0.000    3.600 
#    0.000    0.000    0.000    1.800    0.000    0.000 
#    0.000    8.000    0.000    0.000    0.000    0.000 
#
# Total GULP energy -495533.570162 kJ/mol
# GULP energy per Si atom -12388.339254 kJ/mol
# Density = 2.013495 g / cm^3
# Si number density = 20.180887 Si / 1000 Ang^3
#
#
#
# Elastic Constant Matrix: (Units=GPa)
#
#
# Indices 1 2 3 4 5 6 
#
# 1 78.1870 37.2042 14.4013 0.0000 0.0000 0.0000
# 2 37.2042 189.8754 63.0776 0.0000 0.0000 0.0000
# 3 14.4013 63.0776 60.2652 0.0000 0.0000 0.0000
# 4 0.0000 0.0000 0.0000 18.1175 0.0000 0.0000
# 5 0.0000 0.0000 0.0000 0.0000 25.8692 0.0000
# 6 0.0000 0.0000 0.0000 0.0000 0.0000 21.2293
#
#
#
# Elastic Compliance Matrix: (Units=1/GPa)
#
#
# Indices 1 2 3 4 5 6 
#
# 1 0.014126 -0.002524 -0.000734 0.000000 0.000000 0.000000
# 2 -0.002524 0.008525 -0.008320 0.000000 0.000000 0.000000
# 3 -0.000734 -0.008320 0.025477 0.000000 0.000000 0.000000
# 4 0.000000 0.000000 0.000000 0.055195 0.000000 0.000000
# 5 0.000000 0.000000 0.000000 0.000000 0.038656 0.000000
# 6 0.000000 0.000000 0.000000 0.000000 0.000000 0.047105
#
#
# Mechanical properties :
#
#
# Convention : Reuss Voigt Hill
#
# Bulk Modulus (GPa) = 40.04382 61.96597 51.00490
# Shear Modulus (GPa) = 22.66928 27.28618 24.97773
#
# Velocity S-wave (km/s) = 3.35521 3.68105 3.52190
# Velocity P-wave (km/s) = 5.90724 6.98848 6.47048
#
# Compressibility (1/GPa) = 0.02497264
#
# Stress axis : x y z
#
# Youngs Moduli (GPa) = 70.79110 117.30161 39.25170
#
# Poissons Ratio (x) = 0.29608 0.02880
# Poissons Ratio (y) = 0.17869 0.32656
# Poissons Ratio (z) = 0.05194 0.97591
#
# Static dielectric constant tensor:
#      x y z
#    x 3.301890 0.000000 0.000000 
#    y 0.000000 4.779500 0.000000 
#    z 0.000000 0.000000 3.561910 
# 
# 
# High freq. dielectric constant tensor:
#      x y z
#    x 1.749130 0.000000 0.000000 
#    y 0.000000 1.825450 0.000000 
#    z 0.000000 0.000000 1.781210 
# 
# From -- ./inp_files/7985.got.cif
#   From: 2010.03.12/outbox.cif.g09.slc.cpg/sg51_4_cif.got.tgz:7985.got - 2010.04.16 13:43:02.
