data_PCOD8212353
_publ_section_title
;
Structure prediction by ZEFSAII (Michael W. Deem and Ramdas Pophale) SiO2 
 PCOD8212353
Probable space group: P M M A
;
_chemical_formula_sum "Si O2"
_cell_formula_units_Z 64
_cell_length_a 33.250054
_cell_length_b 8.777093
_cell_length_c 10.706915
_cell_angle_alpha 90.000000
_cell_angle_beta 90.000000
_cell_angle_gamma 90.000000
_cell_volume 3124.693399
_symmetry_space_group_name_H-M "P M M A"
_symmetry_group_IT_number 51
_symmetry_cell_setting 'orthorhombic'
loop_
_space_group_symop_operation_xyz
x,y,z
1/2-x,-y,z
1/2+x,-y,-z
-x,y,-z
-x,-y,-z
1/2+x,y,-z
1/2-x,y,z
x,-y,z
loop_
_atom_site_type_symbol
_atom_site_label
_atom_site_fract_x
_atom_site_fract_y
_atom_site_fract_z
Si Si1 0.582541 0.168982 0.244579
Si Si2 0.007615 0.331683 0.856767
Si Si3 0.296912 0.819841 0.469109
Si Si4 0.705052 0.680804 0.025170
Si Si5 0.044428 0.831278 0.488734
Si Si6 0.338516 0.681908 0.223625
Si Si7 0.427273 0.677634 0.262483
Si Si8 0.834314 0.679557 0.280594
O O1 0.547550 0.231793 0.156003
O O2 0.564746 0.156504 0.380141
O O3 0.619661 0.283513 0.249508
O O4 0.595601 0.000000 0.198278
O O5 0.014422 0.500000 0.795896
O O6 0.967675 0.249928 0.798839
O O7 0.000000 0.353078 0.000000
O O8 0.250000 0.772733 0.472779
O O9 0.316916 0.750797 0.345074
O O10 0.318571 0.760649 0.594433
O O11 0.302484 0.000000 0.464610
O O12 0.750000 0.741375 0.009248
O O13 0.702484 0.500000 0.025219
O O14 0.681089 0.743178 0.904668
O O15 0.689341 0.741012 0.158636
O O16 0.071951 0.718704 0.408234
O O17 0.000000 0.759572 0.500000
O O18 0.041767 0.000000 0.426926
O O19 0.335724 0.500000 0.236792
O O20 0.384715 0.739264 0.211509
O O21 0.428798 0.500000 0.237559
O O22 0.828880 0.500000 0.299609
#
# Coordination Sequence:
#
# PCOD8212353 Si02
#       8
#     8   8   8   8   8   8   8   8
#     4  11  23  39  59  85 119 155 199 246 297 358
#     4  10  22  38  58  82 115 158 201 245 296 351
#     4  11  24  42  63  90 126 164 202 248 304 365
#     4   9  19  37  63  93 121 152 195 248 303 361
#     4  10  20  36  55  76 107 149 192 237 288 342
#     4  10  21  38  63  93 123 156 199 250 301 359
#     4  10  21  35  56  87 117 148 191 242 293 347
#     4  11  23  39  64  93 124 160 204 254 307 365
#
# _framework density 20.482009999999999
#
# number of rings (size 3 to 8) (size 9 to 14) (size 15 to 20)
#    0.000    1.750    1.250    2.625    1.750    6.000 
#    0.000    1.250    0.000    3.000    0.000    0.000 
#    0.000    0.000    0.000    0.000    0.000    0.000 
#
# Total GULP energy -793355.004616 kJ/mol
# GULP energy per Si atom -12396.171947 kJ/mol
# Density = 2.043539 g / cm^3
# Si number density = 20.482010 Si / 1000 Ang^3
#
#
#
# Elastic Constant Matrix: (Units=GPa)
#
#
# Indices 1 2 3 4 5 6 
#
# 1 116.2442 20.4000 25.8743 0.0000 0.0000 0.0000
# 2 20.4000 40.3600 20.3814 0.0000 0.0000 0.0000
# 3 25.8743 20.3814 105.6733 0.0000 0.0000 0.0000
# 4 0.0000 0.0000 0.0000 7.5266 0.0000 0.0000
# 5 0.0000 0.0000 0.0000 0.0000 33.6459 0.0000
# 6 0.0000 0.0000 0.0000 0.0000 0.0000 21.6889
#
#
#
# Elastic Compliance Matrix: (Units=1/GPa)
#
#
# Indices 1 2 3 4 5 6 
#
# 1 0.009672 -0.004091 -0.001579 0.000000 0.000000 0.000000
# 2 -0.004091 0.029181 -0.004626 0.000000 0.000000 0.000000
# 3 -0.001579 -0.004626 0.010742 0.000000 0.000000 0.000000
# 4 0.000000 0.000000 0.000000 0.132862 0.000000 0.000000
# 5 0.000000 0.000000 0.000000 0.000000 0.029721 0.000000
# 6 0.000000 0.000000 0.000000 0.000000 0.000000 0.046107
#
#
# Mechanical properties :
#
#
# Convention : Reuss Voigt Hill
#
# Bulk Modulus (GPa) = 34.48085 43.95431 39.21758
# Shear Modulus (GPa) = 17.32825 25.61373 21.47099
#
# Velocity S-wave (km/s) = 2.91180 3.54014 3.24124
# Velocity P-wave (km/s) = 5.30811 6.18197 5.76163
#
# Compressibility (1/GPa) = 0.02900161
#
# Stress axis : x y z
#
# Youngs Moduli (GPa) = 103.39049 34.26856 93.09172
#
# Poissons Ratio (x) = 0.14020 0.14700
# Poissons Ratio (y) = 0.42300 0.43069
# Poissons Ratio (z) = 0.16327 0.15854
#
# Static dielectric constant tensor:
#      x y z
#    x 3.942300 0.000000 0.000000 
#    y 0.000000 3.819890 0.000000 
#    z 0.000000 0.000000 3.755760 
# 
# 
# High freq. dielectric constant tensor:
#      x y z
#    x 1.818120 0.000000 0.000000 
#    y 0.000000 1.779940 0.000000 
#    z 0.000000 0.000000 1.806320 
# 
# From -- ./inp_files/19653.got.cif
#   From: 2010.03.12/outbox.cif.g09.slc.cpg/sg51_10_cif.got.tgz:19653.got - 2010.04.16 13:43:02.
