data_PCOD8212558
_publ_section_title
;
Structure prediction by ZEFSAII (Michael W. Deem and Ramdas Pophale) SiO2 
 PCOD8212558
Probable space group: P M M A
;
_chemical_formula_sum "Si O2"
_cell_formula_units_Z 64
_cell_length_a 30.826359
_cell_length_b 9.036821
_cell_length_c 11.864386
_cell_angle_alpha 90.000000
_cell_angle_beta 90.000000
_cell_angle_gamma 90.000000
_cell_volume 3305.089158
_symmetry_space_group_name_H-M "P M M A"
_symmetry_group_IT_number 51
_symmetry_cell_setting 'orthorhombic'
loop_
_space_group_symop_operation_xyz
x,y,z
1/2-x,-y,z
1/2+x,-y,-z
-x,y,-z
-x,-y,-z
1/2+x,y,-z
1/2-x,y,z
x,-y,z
loop_
_atom_site_type_symbol
_atom_site_label
_atom_site_fract_x
_atom_site_fract_y
_atom_site_fract_z
Si Si1 0.672732 0.174189 0.500553
Si Si2 0.701582 0.328891 0.719952
Si Si3 0.954393 0.828056 0.258970
Si Si4 0.378171 0.673434 0.874838
Si Si5 0.041433 0.324675 0.272068
Si Si6 0.298846 0.668307 0.720544
Si Si7 0.623804 0.675387 0.871140
Si Si8 0.073399 0.828942 0.488551
O O1 0.699188 0.244316 0.602362
O O2 0.693333 0.225122 0.383993
O O3 0.622897 0.225145 0.506355
O O4 0.677129 0.000000 0.507713
O O5 0.750000 0.308329 0.770011
O O6 0.691306 0.500000 0.695489
O O7 0.666814 0.263045 0.808577
O O8 0.913997 0.760884 0.193988
O O9 0.948625 0.802235 0.391604
O O10 0.998132 0.746361 0.219595
O O11 0.957800 0.000000 0.229051
O O12 0.389482 0.500000 0.871224
O O13 0.331159 0.707445 0.822278
O O14 0.377597 0.736432 0.001887
O O15 0.036804 0.500000 0.270919
O O16 0.081483 0.269510 0.195771
O O17 0.047926 0.270125 0.399335
O O18 0.250000 0.691106 0.766110
O O19 0.306346 0.500000 0.679774
O O20 0.625899 0.500000 0.874551
O O21 0.069912 0.000000 0.452010
#
# Coordination Sequence:
#
# PCOD8212558 Si02
#       8
#     8   8   8   8   8   8   8   8
#     4  11  21  35  57  84 116 152 187 226 280 340
#     4  10  20  36  59  86 116 150 189 233 282 335
#     4  11  23  40  59  83 117 149 186 232 284 337
#     4  10  21  39  61  82 110 149 194 235 278 332
#     4  11  22  37  60  87 115 147 187 230 281 341
#     4  10  21  36  57  86 116 146 185 234 281 329
#     4   9  20  38  58  83 113 147 187 236 284 328
#     4  10  21  37  57  82 114 150 183 228 284 336
#
# _framework density 19.364076000000001
#
# number of rings (size 3 to 8) (size 9 to 14) (size 15 to 20)
#    0.000    1.750    2.500    1.875    0.000    6.000 
#    0.000    6.875    0.000    0.000    0.000    1.750 
#    0.000    0.000    0.000    0.000    0.000    0.000 
#
# Total GULP energy -793849.958408 kJ/mol
# GULP energy per Si atom -12403.905600 kJ/mol
# Density = 1.932000 g / cm^3
# Si number density = 19.364076 Si / 1000 Ang^3
#
#
#
# Elastic Constant Matrix: (Units=GPa)
#
#
# Indices 1 2 3 4 5 6 
#
# 1 155.1955 51.5435 49.1834 0.0000 0.0000 0.0000
# 2 51.5435 66.9198 43.3169 0.0000 0.0000 0.0000
# 3 49.1834 43.3169 106.0219 0.0000 0.0000 0.0000
# 4 0.0000 0.0000 0.0000 6.6289 0.0000 0.0000
# 5 0.0000 0.0000 0.0000 0.0000 -45.6310 0.0000
# 6 0.0000 0.0000 0.0000 0.0000 0.0000 24.3871
#
#
#
# Elastic Compliance Matrix: (Units=1/GPa)
#
#
# Indices 1 2 3 4 5 6 
#
# 1 0.008906 -0.005690 -0.001807 0.000000 0.000000 0.000000
# 2 -0.005690 0.023952 -0.007146 0.000000 0.000000 0.000000
# 3 -0.001807 -0.007146 0.013190 0.000000 0.000000 0.000000
# 4 0.000000 0.000000 0.000000 0.150855 0.000000 0.000000
# 5 0.000000 0.000000 0.000000 0.000000 -0.021915 0.000000
# 6 0.000000 0.000000 0.000000 0.000000 0.000000 0.041005
#
#
# Mechanical properties :
#
#
# Convention : Reuss Voigt Hill
#
# Bulk Modulus (GPa) = 59.66073 68.46941 64.06507
# Shear Modulus (GPa) = 19.93096 9.34989 14.64043
#
# Velocity S-wave (km/s) = 3.21171 2.19976 2.75264
# Velocity P-wave (km/s) = 6.68060 6.47207 6.57716
#
# Compressibility (1/GPa) = 0.01676144
#
# Stress axis : x y z
#
# Youngs Moduli (GPa) = 112.28618 41.75079 75.81623
#
# Poissons Ratio (x) = 0.23757 0.13697
# Poissons Ratio (y) = 0.63892 0.54180
# Poissons Ratio (z) = 0.20286 0.29836
#
# Static dielectric constant tensor:
#      x y z
#    x 3.794840 0.000000 0.000000 
#    y 0.000000 3.377890 0.000000 
#    z 0.000000 0.000000 3.537760 
# 
# 
# High freq. dielectric constant tensor:
#      x y z
#    x 1.773380 0.000000 0.000000 
#    y 0.000000 1.738550 0.000000 
#    z 0.000000 0.000000 1.745730 
# 
# From -- ./inp_files/19458.got.cif
#   From: 2010.03.12/outbox.cif.g09.slc.cpg/sg51_10_cif.got.tgz:19458.got - 2010.04.16 13:43:02.
