data_PCOD8212204
_publ_section_title
;
Structure prediction by ZEFSAII (Michael W. Deem and Ramdas Pophale) SiO2 
 PCOD8212204
Probable space group: P M M A
;
_chemical_formula_sum "Si O2"
_cell_formula_units_Z 56
_cell_length_a 19.255627
_cell_length_b 9.361264
_cell_length_c 17.228294
_cell_angle_alpha 90.000000
_cell_angle_beta 90.000000
_cell_angle_gamma 90.000000
_cell_volume 3105.520726
_symmetry_space_group_name_H-M "P M M A"
_symmetry_group_IT_number 51
_symmetry_cell_setting 'orthorhombic'
loop_
_space_group_symop_operation_xyz
x,y,z
1/2-x,-y,z
1/2+x,-y,-z
-x,y,-z
-x,-y,-z
1/2+x,y,-z
1/2-x,y,z
x,-y,z
loop_
_atom_site_type_symbol
_atom_site_label
_atom_site_fract_x
_atom_site_fract_y
_atom_site_fract_z
Si Si1 0.418618 0.668904 0.738275
Si Si2 0.056905 0.165609 0.890039
Si Si3 0.831036 0.835462 0.382490
Si Si4 0.575694 0.833564 0.527935
Si Si5 0.071326 0.667875 0.318778
Si Si6 0.903119 0.835415 0.939854
Si Si7 0.828919 0.335042 0.817411
O O1 0.408579 0.500000 0.744037
O O2 0.411341 0.735056 0.823679
O O3 0.358279 0.734838 0.685796
O O4 0.492684 0.710679 0.701670
O O5 0.977687 0.210181 0.905951
O O6 0.061769 0.000000 0.865217
O O7 0.100874 0.193425 0.968152
O O8 0.750000 0.807044 0.394028
O O9 0.868531 0.794430 0.462491
O O10 0.846665 0.000000 0.360686
O O11 0.500000 0.783731 0.500000
O O12 0.596335 0.746578 0.604053
O O13 0.576054 0.000000 0.548945
O O14 0.079490 0.500000 0.332110
O O15 0.121210 0.723202 0.250287
O O16 0.843724 0.745135 0.897884
O O17 0.889332 0.000000 0.922101
O O18 0.750000 0.307532 0.791795
O O19 0.844225 0.500000 0.832892
#
# Coordination Sequence:
#
# PCOD8212204 Si02
#       7
#     8   8   8   8   8   8   8
#     4  11  21  34  56  85 113 143 184 229 270 323
#     4   9  18  33  55  82 110 141 179 227 278 323
#     4  10  22  40  59  80 110 146 181 223 279 332
#     4  10  20  35  57  83 107 138 180 224 269 320
#     4  10  21  35  53  81 112 144 183 224 270 322
#     4   9  18  33  54  81 109 139 182 230 273 323
#     4  10  21  37  54  76 113 154 185 220 274 331
#
# _framework density 18.032402999999999
#
# number of rings (size 3 to 8) (size 9 to 14) (size 15 to 20)
#    0.000    2.143    2.857    1.286    0.000    3.714 
#    0.000    2.143    0.000    0.857    0.000    0.000 
#    0.000    0.000    0.000    0.000    0.000    0.000 
#
# Total GULP energy -694612.402595 kJ/mol
# GULP energy per Si atom -12403.792903 kJ/mol
# Density = 1.799136 g / cm^3
# Si number density = 18.032403 Si / 1000 Ang^3
#
#
#
# Elastic Constant Matrix: (Units=GPa)
#
#
# Indices 1 2 3 4 5 6 
#
# 1 96.9612 41.6990 54.8738 0.0000 0.0000 0.0000
# 2 41.6990 65.6599 63.8223 0.0000 0.0000 0.0000
# 3 54.8738 63.8223 133.0175 0.0000 0.0000 0.0000
# 4 0.0000 0.0000 0.0000 30.5662 0.0000 0.0000
# 5 0.0000 0.0000 0.0000 0.0000 28.7536 0.0000
# 6 0.0000 0.0000 0.0000 0.0000 0.0000 23.9549
#
#
#
# Elastic Compliance Matrix: (Units=1/GPa)
#
#
# Indices 1 2 3 4 5 6 
#
# 1 0.014797 -0.006491 -0.002990 0.000000 0.000000 0.000000
# 2 -0.006491 0.031388 -0.012382 0.000000 0.000000 0.000000
# 3 -0.002990 -0.012382 0.014692 0.000000 0.000000 0.000000
# 4 0.000000 0.000000 0.000000 0.032716 0.000000 0.000000
# 5 0.000000 0.000000 0.000000 0.000000 0.034778 0.000000
# 6 0.000000 0.000000 0.000000 0.000000 0.000000 0.041745
#
#
# Mechanical properties :
#
#
# Convention : Reuss Voigt Hill
#
# Bulk Modulus (GPa) = 58.30581 68.49210 63.39896
# Shear Modulus (GPa) = 22.77279 25.67118 24.22198
#
# Velocity S-wave (km/s) = 3.55756 3.77717 3.66901
# Velocity P-wave (km/s) = 7.01991 7.55566 7.29270
#
# Compressibility (1/GPa) = 0.01715095
#
# Stress axis : x y z
#
# Youngs Moduli (GPa) = 67.58144 31.85903 68.06281
#
# Poissons Ratio (x) = 0.20680 0.20349
# Poissons Ratio (y) = 0.43868 0.84278
# Poissons Ratio (z) = 0.20205 0.39449
#
# Static dielectric constant tensor:
#      x y z
#    x 3.205800 0.000000 0.000000 
#    y 0.000000 3.224980 0.000000 
#    z 0.000000 0.000000 3.341190 
# 
# 
# High freq. dielectric constant tensor:
#      x y z
#    x 1.684190 0.000000 0.000000 
#    y 0.000000 1.694490 0.000000 
#    z 0.000000 0.000000 1.705600 
# 
# From -- ./inp_files/25722.got.cif
#   From: 2010.03.12/outbox.cif.g09.slc.cpg/sg51_13_cif.got.tgz:25722.got - 2010.04.16 13:43:02.
