data_PCOD8212632
_publ_section_title
;
Structure prediction by ZEFSAII (Michael W. Deem and Ramdas Pophale) SiO2 
 PCOD8212632
Probable space group: P M M A
;
_chemical_formula_sum "Si O2"
_cell_formula_units_Z 48
_cell_length_a 18.015447
_cell_length_b 15.050150
_cell_length_c 8.932666
_cell_angle_alpha 90.000000
_cell_angle_beta 90.000000
_cell_angle_gamma 90.000000
_cell_volume 2421.960001
_symmetry_space_group_name_H-M "P M M A"
_symmetry_group_IT_number 51
_symmetry_cell_setting 'orthorhombic'
loop_
_space_group_symop_operation_xyz
x,y,z
1/2-x,-y,z
1/2+x,-y,-z
-x,y,-z
-x,-y,-z
1/2+x,y,-z
1/2-x,y,z
x,-y,z
loop_
_atom_site_type_symbol
_atom_site_label
_atom_site_fract_x
_atom_site_fract_y
_atom_site_fract_z
Si Si1 0.835806 0.500000 0.687721
Si Si2 0.667453 0.839099 0.778694
Si Si3 0.920852 0.000000 0.289202
Si Si4 0.075365 0.159237 0.928851
Si Si5 0.542002 0.684831 0.284239
Si Si6 0.408944 0.000000 0.378316
Si Si7 0.007110 0.500000 0.173030
Si Si8 0.617912 0.686989 0.581782
O O1 0.750000 0.500000 0.751458
O O2 0.903072 0.500000 0.807320
O O3 0.849002 0.411987 0.590186
O O4 0.750000 0.875079 0.801371
O O5 0.672109 0.752789 0.670991
O O6 0.619103 0.912127 0.699026
O O7 0.636104 0.821234 0.944502
O O8 0.898064 0.087141 0.193922
O O9 0.879249 0.000000 0.449658
O O10 0.004307 0.000000 0.347552
O O11 0.059362 0.255027 0.858002
O O12 0.000000 0.120059 0.000000
O O13 0.537844 0.581772 0.242344
O O14 0.607157 0.704257 0.404843
O O15 0.461293 0.707827 0.345206
O O16 0.000000 0.500000 0.000000
#
# Coordination Sequence:
#
# PCOD8212632 Si02
#       8
#     4   8   4   8   8   4   4   8
#     4  10  21  37  59  85 119 163 200 240 302 361
#     4  12  25  40  59  87 124 163 196 241 308 367
#     4  11  22  38  66  93 114 146 205 255 295 338
#     4  12  21  38  62  91 122 155 198 250 295 356
#     4  10  20  36  62  91 116 150 204 256 297 332
#     4  11  22  41  63  90 115 152 200 252 294 356
#     4  10  21  35  61  93 126 154 201 257 297 351
#     4  10  20  38  61  88 116 154 204 252 291 353
#
# _framework density 19.818660000000001
#
# number of rings (size 3 to 8) (size 9 to 14) (size 15 to 20)
#    0.000    1.167    3.333    3.500    2.333    4.667 
#    0.000    5.000    0.000    3.000    0.000    0.000 
#    0.000    0.000    0.000    0.000    0.000    0.000 
#
# Total GULP energy -594924.249725 kJ/mol
# GULP energy per Si atom -12394.255203 kJ/mol
# Density = 1.977355 g / cm^3
# Si number density = 19.818660 Si / 1000 Ang^3
#
#
#
# Elastic Constant Matrix: (Units=GPa)
#
#
# Indices 1 2 3 4 5 6 
#
# 1 59.4378 12.2148 27.9245 0.0000 0.0000 0.0000
# 2 12.2148 117.5593 40.8128 0.0000 0.0000 0.0000
# 3 27.9245 40.8128 128.3089 0.0000 0.0000 0.0000
# 4 0.0000 0.0000 0.0000 193.7100 0.0000 0.0000
# 5 0.0000 0.0000 0.0000 0.0000 17.1647 0.0000
# 6 0.0000 0.0000 0.0000 0.0000 0.0000 -20.3943
#
#
#
# Elastic Compliance Matrix: (Units=1/GPa)
#
#
# Indices 1 2 3 4 5 6 
#
# 1 0.018778 -0.000598 -0.003896 0.000000 0.000000 0.000000
# 2 -0.000598 0.009581 -0.002917 0.000000 0.000000 0.000000
# 3 -0.003896 -0.002917 0.009570 0.000000 0.000000 0.000000
# 4 0.000000 0.000000 0.000000 0.005162 0.000000 0.000000
# 5 0.000000 0.000000 0.000000 0.000000 0.058259 0.000000
# 6 0.000000 0.000000 0.000000 0.000000 0.000000 -0.049033
#
#
# Mechanical properties :
#
#
# Convention : Reuss Voigt Hill
#
# Bulk Modulus (GPa) = 43.28166 51.91226 47.59696
# Shear Modulus (GPa) = 66.80644 53.05300 59.92972
#
# Velocity S-wave (km/s) = 5.81223 5.17951 5.50497
# Velocity P-wave (km/s) = 8.18101 7.87529 8.02961
#
# Compressibility (1/GPa) = 0.02310447
#
# Stress axis : x y z
#
# Youngs Moduli (GPa) = 53.25425 104.36933 104.49690
#
# Poissons Ratio (x) = 0.06245 0.40716
# Poissons Ratio (y) = 0.03187 0.30486
# Poissons Ratio (z) = 0.20750 0.30449
#
# Static dielectric constant tensor:
#      x y z
#    x 3.412170 0.000000 0.000000 
#    y 0.000000 3.772950 0.000000 
#    z 0.000000 0.000000 3.742570 
# 
# 
# High freq. dielectric constant tensor:
#      x y z
#    x 1.746960 0.000000 0.000000 
#    y 0.000000 1.787460 0.000000 
#    z 0.000000 0.000000 1.779620 
# 
# From -- ./inp_files/9731.got.cif
#   From: 2010.03.12/outbox.cif.g09.slc.cpg/sg51_5_cif.got.tgz:9731.got - 2010.04.16 13:43:02.
