data_PCOD8212975
_publ_section_title
;
Structure prediction by ZEFSAII (Michael W. Deem and Ramdas Pophale) SiO2 
 PCOD8212975
Probable space group: P M M A
;
_chemical_formula_sum "Si O2"
_cell_formula_units_Z 48
_cell_length_a 16.102531
_cell_length_b 8.926995
_cell_length_c 17.159369
_cell_angle_alpha 90.000000
_cell_angle_beta 90.000000
_cell_angle_gamma 90.000000
_cell_volume 2466.611483
_symmetry_space_group_name_H-M "P M M A"
_symmetry_group_IT_number 51
_symmetry_cell_setting 'orthorhombic'
loop_
_space_group_symop_operation_xyz
x,y,z
1/2-x,-y,z
1/2+x,-y,-z
-x,y,-z
-x,-y,-z
1/2+x,y,-z
1/2-x,y,z
x,-y,z
loop_
_atom_site_type_symbol
_atom_site_label
_atom_site_fract_x
_atom_site_fract_y
_atom_site_fract_z
Si Si1 0.588265 0.672561 0.811438
Si Si2 0.750000 0.677552 0.075256
Si Si3 0.108911 0.174365 0.658883
Si Si4 0.841689 0.335876 0.489062
Si Si5 0.250000 0.320545 0.101268
Si Si6 0.439709 0.326227 0.361352
Si Si7 0.099801 0.321820 0.817947
O O1 0.584812 0.500000 0.834942
O O2 0.665487 0.745512 0.858901
O O3 0.609468 0.695025 0.719956
O O4 0.495447 0.738448 0.832276
O O5 0.750000 0.500000 0.077223
O O6 0.664509 0.734159 0.116054
O O7 0.750000 0.737560 0.987320
O O8 0.161604 0.226336 0.584598
O O9 0.136541 0.259796 0.736999
O O10 0.015250 0.213168 0.638618
O O11 0.122308 0.000000 0.672766
O O12 0.750000 0.354663 0.521494
O O13 0.877488 0.500000 0.464660
O O14 0.890203 0.271269 0.563238
O O15 0.250000 0.500000 0.107573
O O16 0.467607 0.500000 0.368193
O O17 0.097653 0.500000 0.811509
#
# Coordination Sequence:
#
# PCOD8212975 Si02
#       7
#     8   4   8   8   4   8   8
#     4   8  15  27  47  74 107 136 164 205 258 308
#     4   9  18  30  49  76 107 136 168 207 263 321
#     4  11  22  35  52  74 101 136 177 222 266 306
#     4  10  21  34  51  76 105 139 176 214 256 307
#     4   9  16  26  46  82 113 132 156 209 271 317
#     4   9  18  34  54  76 102 137 176 211 252 311
#     4   9  18  34  52  74 102 139 177 215 257 312
#
# _framework density 19.459894999999999
#
# number of rings (size 3 to 8) (size 9 to 14) (size 15 to 20)
#    0.000    2.667    0.000    3.000    2.333    3.667 
#    0.000    3.333    0.000    0.000    0.000   14.000 
#    0.000    0.000    0.000    0.000    0.000    0.000 
#
# Total GULP energy -594700.750835 kJ/mol
# GULP energy per Si atom -12389.598976 kJ/mol
# Density = 1.941560 g / cm^3
# Si number density = 19.459895 Si / 1000 Ang^3
#
#
#
# Elastic Constant Matrix: (Units=GPa)
#
#
# Indices 1 2 3 4 5 6 
#
# 1 111.4379 13.0839 71.7785 0.0000 0.0000 0.0000
# 2 13.0839 33.5302 14.7992 0.0000 0.0000 0.0000
# 3 71.7785 14.7992 135.3338 0.0000 0.0000 0.0000
# 4 0.0000 0.0000 0.0000 4.7872 0.0000 0.0000
# 5 0.0000 0.0000 0.0000 0.0000 39.9903 0.0000
# 6 0.0000 0.0000 0.0000 0.0000 0.0000 -6.6931
#
#
#
# Elastic Compliance Matrix: (Units=1/GPa)
#
#
# Indices 1 2 3 4 5 6 
#
# 1 0.013791 -0.002262 -0.007067 0.000000 0.000000 0.000000
# 2 -0.002262 0.031707 -0.002267 0.000000 0.000000 0.000000
# 3 -0.007067 -0.002267 0.011385 0.000000 0.000000 0.000000
# 4 0.000000 0.000000 0.000000 0.208890 0.000000 0.000000
# 5 0.000000 0.000000 0.000000 0.000000 0.025006 0.000000
# 6 0.000000 0.000000 0.000000 0.000000 0.000000 -0.149407
#
#
# Mechanical properties :
#
#
# Convention : Reuss Voigt Hill
#
# Bulk Modulus (GPa) = 29.68225 53.29167 41.48696
# Shear Modulus (GPa) = 28.44195 19.65957 24.05076
#
# Velocity S-wave (km/s) = 3.82719 3.18191 3.51937
# Velocity P-wave (km/s) = 5.90051 6.39877 6.15468
#
# Compressibility (1/GPa) = 0.03369017
#
# Stress axis : x y z
#
# Youngs Moduli (GPa) = 72.50926 31.53842 87.83151
#
# Poissons Ratio (x) = 0.07135 0.62073
# Poissons Ratio (y) = 0.16404 0.19915
# Poissons Ratio (z) = 0.51244 0.07151
#
# Static dielectric constant tensor:
#      x y z
#    x 3.799310 0.000000 0.000000 
#    y 0.000000 2.993270 0.000000 
#    z 0.000000 0.000000 3.710590 
# 
# 
# High freq. dielectric constant tensor:
#      x y z
#    x 1.765590 0.000000 0.000000 
#    y 0.000000 1.696790 0.000000 
#    z 0.000000 0.000000 1.760970 
# 
# From -- ./inp_files/24912.got.cif
#   From: 2010.03.12/outbox.cif.g09.slc.cpg/sg51_13_cif.got.tgz:24912.got - 2010.04.16 13:43:02.
