data_PCOD8212029
_publ_section_title
;
Structure prediction by ZEFSAII (Michael W. Deem and Ramdas Pophale) SiO2 
 PCOD8212029
Probable space group: P M M A
;
_chemical_formula_sum "Si O2"
_cell_formula_units_Z 64
_cell_length_a 8.985844
_cell_length_b 14.944335
_cell_length_c 23.661951
_cell_angle_alpha 90.000000
_cell_angle_beta 90.000000
_cell_angle_gamma 90.000000
_cell_volume 3177.503369
_symmetry_space_group_name_H-M "P M M A"
_symmetry_group_IT_number 51
_symmetry_cell_setting 'orthorhombic'
loop_
_space_group_symop_operation_xyz
x,y,z
1/2-x,-y,z
1/2+x,-y,-z
-x,y,-z
-x,-y,-z
1/2+x,y,-z
1/2-x,y,z
x,-y,z
loop_
_atom_site_type_symbol
_atom_site_label
_atom_site_fract_x
_atom_site_fract_y
_atom_site_fract_z
Si Si1 0.921453 0.100554 0.053435
Si Si2 0.414385 0.604134 0.945327
Si Si3 0.574333 0.102524 0.560001
Si Si4 0.575442 0.600623 0.704388
Si Si5 0.089057 0.159813 0.154148
Si Si6 0.925808 0.770661 0.347733
Si Si7 0.580703 0.901661 0.728263
Si Si8 0.084334 0.639372 0.171181
O O1 0.750000 0.101648 0.041547
O O2 0.958838 0.157293 0.108497
O O3 0.982920 0.000000 0.062402
O O4 0.000000 0.146143 0.000000
O O5 0.250000 0.648607 0.943284
O O6 0.398213 0.500000 0.956545
O O7 0.490934 0.617982 0.884711
O O8 0.500000 0.646416 0.000000
O O9 0.500000 0.119332 0.500000
O O10 0.750000 0.118293 0.555349
O O11 0.506603 0.177760 0.601078
O O12 0.541054 0.000000 0.580369
O O13 0.750000 0.625808 0.703436
O O14 0.548228 0.500000 0.680619
O O15 0.488310 0.670555 0.663959
O O16 0.518202 0.600511 0.770000
O O17 0.250000 0.140624 0.125136
O O18 0.061670 0.089865 0.204308
O O19 0.089220 0.255849 0.182937
O O20 0.750000 0.764465 0.358990
O O21 0.959844 0.831155 0.293234
O O22 0.750000 0.871698 0.712340
O O23 0.549791 0.000000 0.702513
O O24 0.250000 0.600486 0.160676
#
# Coordination Sequence:
#
# PCOD8212029 Si02
#       8
#     8   8   8   8   8   8   8   8
#     4  10  21  36  53  72  96 130 176 227 280 343
#     4  10  21  36  54  76 102 133 173 224 286 358
#     4  10  21  39  65  97 135 177 219 260 302 352
#     4  10  21  40  65  88 115 157 208 259 310 366
#     4  10  20  35  55  77 104 137 178 229 284 345
#     4  12  24  37  58  90 130 168 206 253 300 354
#     4  10  20  36  58  82 113 155 199 243 292 348
#     4  10  20  36  58  81 107 140 183 236 295 360
#
# _framework density 20.141601000000001
#
# number of rings (size 3 to 8) (size 9 to 14) (size 15 to 20)
#    0.000    1.750    1.250    3.375    0.000    7.250 
#    0.000    0.000    0.000    0.375    0.000    0.000 
#    0.000    0.000    0.000    0.000    0.000    0.000 
#
# Total GULP energy -793199.611135 kJ/mol
# GULP energy per Si atom -12393.743924 kJ/mol
# Density = 2.009576 g / cm^3
# Si number density = 20.141601 Si / 1000 Ang^3
#
#
#
# Elastic Constant Matrix: (Units=GPa)
#
#
# Indices 1 2 3 4 5 6 
#
# 1 121.0154 44.0075 59.0924 0.0000 0.0000 0.0000
# 2 44.0075 103.3975 44.6715 0.0000 0.0000 0.0000
# 3 59.0924 44.6715 112.6486 0.0000 0.0000 0.0000
# 4 0.0000 0.0000 0.0000 28.2423 0.0000 0.0000
# 5 0.0000 0.0000 0.0000 0.0000 35.2027 0.0000
# 6 0.0000 0.0000 0.0000 0.0000 0.0000 25.0923
#
#
#
# Elastic Compliance Matrix: (Units=1/GPa)
#
#
# Indices 1 2 3 4 5 6 
#
# 1 0.011754 -0.002822 -0.005047 0.000000 0.000000 0.000000
# 2 -0.002822 0.012349 -0.003416 0.000000 0.000000 0.000000
# 3 -0.005047 -0.003416 0.012879 0.000000 0.000000 0.000000
# 4 0.000000 0.000000 0.000000 0.035408 0.000000 0.000000
# 5 0.000000 0.000000 0.000000 0.000000 0.028407 0.000000
# 6 0.000000 0.000000 0.000000 0.000000 0.000000 0.039853
#
#
# Mechanical properties :
#
#
# Convention : Reuss Voigt Hill
#
# Bulk Modulus (GPa) = 69.39047 70.28938 69.83992
# Shear Modulus (GPa) = 29.75761 30.32680 30.04221
#
# Velocity S-wave (km/s) = 3.84789 3.88452 3.86625
# Velocity P-wave (km/s) = 7.36667 7.42244 7.39461
#
# Compressibility (1/GPa) = 0.01441120
#
# Stress axis : x y z
#
# Youngs Moduli (GPa) = 85.07696 80.98039 77.64406
#
# Poissons Ratio (x) = 0.22856 0.39184
# Poissons Ratio (y) = 0.24012 0.26526
# Poissons Ratio (z) = 0.42935 0.27666
#
# Static dielectric constant tensor:
#      x y z
#    x 3.687190 0.000000 0.000000 
#    y 0.000000 3.761950 0.000000 
#    z 0.000000 0.000000 3.529330 
# 
# 
# High freq. dielectric constant tensor:
#      x y z
#    x 1.778850 0.000000 0.000000 
#    y 0.000000 1.786880 0.000000 
#    z 0.000000 0.000000 1.772920 
# 
# From -- ./inp_files/34965.got.cif
#   From: 2010.03.12/outbox.cif.g09.slc.cpg/sg51_18_cif.got.tgz:34965.got - 2010.04.16 13:43:02.
