data_PCOD8212348
_publ_section_title
;
Structure prediction by ZEFSAII (Michael W. Deem and Ramdas Pophale) SiO2 
 PCOD8212348
Probable space group: P M M A
;
_chemical_formula_sum "Si O2"
_cell_formula_units_Z 64
_cell_length_a 9.551120
_cell_length_b 24.643324
_cell_length_c 14.936667
_cell_angle_alpha 90.000000
_cell_angle_beta 90.000000
_cell_angle_gamma 90.000000
_cell_volume 3515.663397
_symmetry_space_group_name_H-M "P M M A"
_symmetry_group_IT_number 51
_symmetry_cell_setting 'orthorhombic'
loop_
_space_group_symop_operation_xyz
x,y,z
1/2-x,-y,z
1/2+x,-y,-z
-x,y,-z
-x,-y,-z
1/2+x,y,-z
1/2-x,y,z
x,-y,z
loop_
_atom_site_type_symbol
_atom_site_label
_atom_site_fract_x
_atom_site_fract_y
_atom_site_fract_z
Si Si1 0.094144 0.581770 0.579622
Si Si2 0.085686 0.439232 0.777194
Si Si3 0.594946 0.291079 0.421921
Si Si4 0.082535 0.343544 0.906901
Si Si5 0.411208 0.062866 0.916646
Si Si6 0.412897 0.061957 0.587811
Si Si7 0.416246 0.253668 0.767406
Si Si8 0.916361 0.132160 0.246937
O O1 0.250000 0.555985 0.574027
O O2 0.024316 0.569178 0.676804
O O3 0.105474 0.645328 0.564603
O O4 0.000000 0.556186 0.500000
O O5 0.250000 0.429359 0.768516
O O6 0.048958 0.500000 0.811294
O O7 0.029681 0.395608 0.849181
O O8 0.500000 0.264814 0.500000
O O9 0.750000 0.264781 0.429053
O O10 0.527339 0.279498 0.324935
O O11 0.250000 0.345148 0.924043
O O12 0.035496 0.289530 0.852406
O O13 0.000000 0.343784 0.000000
O O14 0.250000 0.076424 0.935917
O O15 0.472188 0.095071 0.832829
O O16 0.434352 0.000000 0.896328
O O17 0.500000 0.083209 0.000000
O O18 0.500000 0.074898 0.500000
O O19 0.250000 0.071155 0.566722
O O20 0.468948 0.104658 0.661404
O O21 0.438000 0.000000 0.620934
O O22 0.250000 0.254271 0.765953
O O23 0.476221 0.192509 0.770311
O O24 0.750000 0.132887 0.247697
#
# Coordination Sequence:
#
# PCOD8212348 Si02
#       8
#     8   8   8   8   8   8   8   8
#     4   9  16  28  47  71  97 126 157 188 225 271
#     4   9  17  31  52  74  97 128 163 195 232 286
#     4   9  16  28  47  69  92 121 154 187 223 267
#     4  10  20  36  55  73  94 123 160 201 243 288
#     4   9  17  30  48  69  92 118 150 189 233 279
#     4   9  17  30  48  70  97 129 165 202 238 278
#     4   9  17  31  50  70  94 125 160 193 232 284
#     4   9  17  29  48  71  93 123 161 196 230 278
#
# _framework density 18.204245
#
# number of rings (size 3 to 8) (size 9 to 14) (size 15 to 20)
#    0.000    2.875    1.250    0.375    0.000    3.000 
#    0.000    1.875    0.000    5.250    0.000    0.000 
#    0.000    0.000    0.000    0.000    0.000    0.000 
#
# Total GULP energy -793216.044437 kJ/mol
# GULP energy per Si atom -12394.000694 kJ/mol
# Density = 1.816281 g / cm^3
# Si number density = 18.204245 Si / 1000 Ang^3
#
#
#
# Elastic Constant Matrix: (Units=GPa)
#
#
# Indices 1 2 3 4 5 6 
#
# 1 39.5213 26.6859 49.5700 0.0000 0.0000 0.0000
# 2 26.6859 106.6818 76.3374 0.0000 0.0000 0.0000
# 3 49.5700 76.3374 175.2668 0.0000 0.0000 0.0000
# 4 0.0000 0.0000 0.0000 10.4776 0.0000 0.0000
# 5 0.0000 0.0000 0.0000 0.0000 32.8813 0.0000
# 6 0.0000 0.0000 0.0000 0.0000 0.0000 -9.7334
#
#
#
# Elastic Compliance Matrix: (Units=1/GPa)
#
#
# Indices 1 2 3 4 5 6 
#
# 1 0.039765 -0.002759 -0.010045 0.000000 0.000000 0.000000
# 2 -0.002759 0.013809 -0.005234 0.000000 0.000000 0.000000
# 3 -0.010045 -0.005234 0.010826 0.000000 0.000000 0.000000
# 4 0.000000 0.000000 0.000000 0.095441 0.000000 0.000000
# 5 0.000000 0.000000 0.000000 0.000000 0.030412 0.000000
# 6 0.000000 0.000000 0.000000 0.000000 0.000000 -0.102739
#
#
# Mechanical properties :
#
#
# Convention : Reuss Voigt Hill
#
# Bulk Modulus (GPa) = 35.30611 69.62850 52.46731
# Shear Modulus (GPa) = 37.58490 17.98355 27.78423
#
# Velocity S-wave (km/s) = 4.54874 3.14646 3.91096
# Velocity P-wave (km/s) = 6.85745 7.17857 7.01984
#
# Compressibility (1/GPa) = 0.02832371
#
# Stress axis : x y z
#
# Youngs Moduli (GPa) = 25.14805 72.41486 92.36820
#
# Poissons Ratio (x) = 0.19982 0.92780
# Poissons Ratio (y) = 0.06939 0.48348
# Poissons Ratio (z) = 0.25260 0.37904
#
# Static dielectric constant tensor:
#      x y z
#    x 3.099480 0.000000 0.000000 
#    y 0.000000 3.486540 0.000000 
#    z 0.000000 0.000000 3.488080 
# 
# 
# High freq. dielectric constant tensor:
#      x y z
#    x 1.654520 0.000000 0.000000 
#    y 0.000000 1.708710 0.000000 
#    z 0.000000 0.000000 1.711730 
# 
# From -- ./inp_files/15701.got.cif
#   From: 2010.03.12/outbox.cif.g09.slc.cpg/sg51_8_cif.got.tgz:15701.got - 2010.04.16 13:43:02.
