data_PCOD8212903
_publ_section_title
;
Structure prediction by ZEFSAII (Michael W. Deem and Ramdas Pophale) SiO2 
 PCOD8212903
Probable space group: P M M A
;
_chemical_formula_sum "Si O2"
_cell_formula_units_Z 48
_cell_length_a 9.559510
_cell_length_b 9.129515
_cell_length_c 28.453281
_cell_angle_alpha 90.000000
_cell_angle_beta 90.000000
_cell_angle_gamma 90.000000
_cell_volume 2483.222824
_symmetry_space_group_name_H-M "P M M A"
_symmetry_group_IT_number 51
_symmetry_cell_setting 'orthorhombic'
loop_
_space_group_symop_operation_xyz
x,y,z
1/2-x,-y,z
1/2+x,-y,-z
-x,y,-z
-x,-y,-z
1/2+x,y,-z
1/2-x,y,z
x,-y,z
loop_
_atom_site_type_symbol
_atom_site_label
_atom_site_fract_x
_atom_site_fract_y
_atom_site_fract_z
Si Si1 0.908625 0.665348 0.292814
Si Si2 0.410225 0.326865 0.124818
Si Si3 0.411598 0.168031 0.220178
Si Si4 0.250000 0.827926 0.431699
Si Si5 0.750000 0.668376 0.470218
Si Si6 0.413301 0.829464 0.953653
Si Si7 0.489185 0.332018 0.602544
O O1 0.750000 0.685107 0.275763
O O2 0.960849 0.500000 0.282564
O O3 0.003444 0.779456 0.265218
O O4 0.914534 0.698832 0.348101
O O5 0.250000 0.281269 0.112182
O O6 0.426356 0.500000 0.126320
O O7 0.453701 0.263612 0.175185
O O8 0.519577 0.263609 0.087847
O O9 0.250000 0.188752 0.232695
O O10 0.448252 0.000000 0.209145
O O11 0.250000 0.766560 0.484053
O O12 0.118286 0.775800 0.401882
O O13 0.250000 0.000000 0.435170
O O14 0.750000 0.500000 0.486236
O O15 0.614717 0.705266 0.439693
O O16 0.250000 0.787244 0.960426
O O17 0.429396 0.000000 0.941418
O O18 0.500000 0.788746 0.000000
O O19 0.539587 0.500000 0.599140
#
# Coordination Sequence:
#
# PCOD8212903 Si02
#       7
#     8   8   8   4   4   8   8
#     4  10  21  39  62  87 113 144 188 239 288 339
#     4  10  21  38  60  86 116 153 198 245 293 341
#     4  10  22  39  60  87 119 154 192 234 286 348
#     4  12  26  38  54  86 122 152 186 230 283 342
#     4  10  20  40  66  86 110 146 194 238 279 338
#     4  10  21  37  59  87 119 158 201 244 294 351
#     4  10  21  40  63  86 111 147 192 236 283 337
#
# _framework density 19.329719999999998
#
# number of rings (size 3 to 8) (size 9 to 14) (size 15 to 20)
#    0.000    1.833    0.833    2.750    1.167    7.667 
#    0.000    0.000    0.000    0.000    0.000    0.000 
#    0.000    0.000    0.000    0.000    0.000    0.000 
#
# Total GULP energy -595388.782512 kJ/mol
# GULP energy per Si atom -12403.932969 kJ/mol
# Density = 1.928572 g / cm^3
# Si number density = 19.329720 Si / 1000 Ang^3
#
#
#
# Elastic Constant Matrix: (Units=GPa)
#
#
# Indices 1 2 3 4 5 6 
#
# 1 103.3605 53.6668 41.8721 0.0000 0.0000 0.0000
# 2 53.6668 85.8413 42.6558 0.0000 0.0000 0.0000
# 3 41.8721 42.6558 89.5640 0.0000 0.0000 0.0000
# 4 0.0000 0.0000 0.0000 1036.6377 0.0000 0.0000
# 5 0.0000 0.0000 0.0000 0.0000 35.8729 0.0000
# 6 0.0000 0.0000 0.0000 0.0000 0.0000 9.5524
#
#
#
# Elastic Compliance Matrix: (Units=1/GPa)
#
#
# Indices 1 2 3 4 5 6 
#
# 1 0.015054 -0.007748 -0.003348 0.000000 0.000000 0.000000
# 2 -0.007748 0.019249 -0.005545 0.000000 0.000000 0.000000
# 3 -0.003348 -0.005545 0.015371 0.000000 0.000000 0.000000
# 4 0.000000 0.000000 0.000000 0.000965 0.000000 0.000000
# 5 0.000000 0.000000 0.000000 0.000000 0.027876 0.000000
# 6 0.000000 0.000000 0.000000 0.000000 0.000000 0.104686
#
#
# Mechanical properties :
#
#
# Convention : Reuss Voigt Hill
#
# Bulk Modulus (GPa) = 61.00497 61.68391 61.34444
# Shear Modulus (GPa) = 22.52788 225.78400 124.15594
#
# Velocity S-wave (km/s) = 3.41758 10.81944 8.02309
# Velocity P-wave (km/s) = 6.87036 13.71353 10.84580
#
# Compressibility (1/GPa) = 0.01639211
#
# Stress axis : x y z
#
# Youngs Moduli (GPa) = 66.42747 51.95127 65.05629
#
# Poissons Ratio (x) = 0.40252 0.21780
# Poissons Ratio (y) = 0.51468 0.36075
# Poissons Ratio (z) = 0.22239 0.28808
#
# Static dielectric constant tensor:
#      x y z
#    x 3.641660 0.000000 0.000000 
#    y 0.000000 3.481960 0.000000 
#    z 0.000000 0.000000 3.507480 
# 
# 
# High freq. dielectric constant tensor:
#      x y z
#    x 1.759030 0.000000 0.000000 
#    y 0.000000 1.748040 0.000000 
#    z 0.000000 0.000000 1.758490 
# 
# From -- ./inp_files/37135.got.cif
#   From: 2010.03.12/outbox.cif.g09.slc.cpg/sg51_19_cif.got.tgz:37135.got - 2010.04.16 13:43:02.
