data_PCOD8212266
_publ_section_title
;
Structure prediction by ZEFSAII (Michael W. Deem and Ramdas Pophale) SiO2 
 PCOD8212266
Probable space group: P M M A
;
_chemical_formula_sum "Si O2"
_cell_formula_units_Z 64
_cell_length_a 14.069191
_cell_length_b 8.963705
_cell_length_c 25.724668
_cell_angle_alpha 90.000000
_cell_angle_beta 90.000000
_cell_angle_gamma 90.000000
_cell_volume 3244.191330
_symmetry_space_group_name_H-M "P M M A"
_symmetry_group_IT_number 51
_symmetry_cell_setting 'orthorhombic'
loop_
_space_group_symop_operation_xyz
x,y,z
1/2-x,-y,z
1/2+x,-y,-z
-x,y,-z
-x,-y,-z
1/2+x,y,-z
1/2-x,y,z
x,-y,z
loop_
_atom_site_type_symbol
_atom_site_label
_atom_site_fract_x
_atom_site_fract_y
_atom_site_fract_z
Si Si1 0.361950 0.662449 0.029919
Si Si2 0.858343 0.824383 0.579547
Si Si3 0.360527 0.326128 0.728451
Si Si4 0.642141 0.321912 0.856690
Si Si5 0.462975 0.176456 0.822873
Si Si6 0.359579 0.677422 0.917637
Si Si7 0.026111 0.324143 0.626800
Si Si8 0.640052 0.327796 0.473756
O O1 0.250000 0.641814 0.023390
O O2 0.409892 0.500000 0.034148
O O3 0.382195 0.743726 0.085023
O O4 0.396416 0.734668 0.975054
O O5 0.750000 0.773975 0.589936
O O6 0.923138 0.754498 0.625051
O O7 0.894066 0.763785 0.523885
O O8 0.868866 0.000000 0.579946
O O9 0.250000 0.293196 0.718594
O O10 0.377618 0.500000 0.740229
O O11 0.396018 0.231321 0.776835
O O12 0.418202 0.272416 0.677977
O O13 0.750000 0.278911 0.841016
O O14 0.630048 0.500000 0.855392
O O15 0.569516 0.244055 0.816678
O O16 0.421661 0.233552 0.876918
O O17 0.468114 0.000000 0.821855
O O18 0.250000 0.719393 0.908239
O O19 0.374529 0.500000 0.911575
O O20 0.011817 0.500000 0.626789
O O21 0.085094 0.269923 0.576768
O O22 0.750000 0.300564 0.461987
O O23 0.617766 0.500000 0.485387
#
# Coordination Sequence:
#
# PCOD8212266 Si02
#       8
#     8   8   8   8   8   8   8   8
#     4   7  12  26  51  81 106 131 171 222 268 310
#     4  10  21  35  51  77 116 157 190 218 254 308
#     4  10  22  42  65  85 106 135 177 229 277 321
#     4   9  18  36  61  83 104 135 179 227 269 315
#     4  12  25  37  52  78 112 146 179 218 269 328
#     4   9  17  32  55  80 107 141 181 223 266 315
#     4  10  20  35  58  85 108 136 180 231 280 324
#     4   9  17  31  53  82 115 147 179 220 271 322
#
# _framework density 19.727568000000002
#
# number of rings (size 3 to 8) (size 9 to 14) (size 15 to 20)
#    0.000    2.500    0.000    4.125    0.000    7.500 
#    0.000    3.750    0.000    5.250    0.000    0.000 
#    0.000    0.000    0.000    0.000    0.000    0.000 
#
# Total GULP energy -793281.865747 kJ/mol
# GULP energy per Si atom -12395.029152 kJ/mol
# Density = 1.968267 g / cm^3
# Si number density = 19.727568 Si / 1000 Ang^3
#
#
#
# Elastic Constant Matrix: (Units=GPa)
#
#
# Indices 1 2 3 4 5 6 
#
# 1 88.9342 36.0800 45.5356 0.0000 0.0000 0.0000
# 2 36.0800 53.8325 27.9489 0.0000 0.0000 0.0000
# 3 45.5356 27.9489 73.5524 0.0000 0.0000 0.0000
# 4 0.0000 0.0000 0.0000 -5.9065 0.0000 0.0000
# 5 0.0000 0.0000 0.0000 0.0000 35.3476 0.0000
# 6 0.0000 0.0000 0.0000 0.0000 0.0000 14.0773
#
#
#
# Elastic Compliance Matrix: (Units=1/GPa)
#
#
# Indices 1 2 3 4 5 6 
#
# 1 0.019017 -0.008264 -0.008633 0.000000 0.000000 0.000000
# 2 -0.008264 0.026732 -0.005042 0.000000 0.000000 0.000000
# 3 -0.008633 -0.005042 0.020856 0.000000 0.000000 0.000000
# 4 0.000000 0.000000 0.000000 -0.169305 0.000000 0.000000
# 5 0.000000 0.000000 0.000000 0.000000 0.028290 0.000000
# 6 0.000000 0.000000 0.000000 0.000000 0.000000 0.071036
#
#
# Mechanical properties :
#
#
# Convention : Reuss Voigt Hill
#
# Bulk Modulus (GPa) = 43.99830 48.38314 46.19072
# Shear Modulus (GPa) = 103.99056 15.82064 59.90560
#
# Velocity S-wave (km/s) = 7.26827 2.83496 5.51655
# Velocity P-wave (km/s) = 9.63267 5.94095 8.00260
#
# Compressibility (1/GPa) = 0.02272815
#
# Stress axis : x y z
#
# Youngs Moduli (GPa) = 52.58421 37.40790 47.94682
#
# Poissons Ratio (x) = 0.30912 0.41394
# Poissons Ratio (y) = 0.43453 0.24175
# Poissons Ratio (z) = 0.45397 0.18861
#
# Static dielectric constant tensor:
#      x y z
#    x 3.784800 0.000000 0.000000 
#    y 0.000000 3.230740 0.000000 
#    z 0.000000 0.000000 3.677420 
# 
# 
# High freq. dielectric constant tensor:
#      x y z
#    x 1.785040 0.000000 0.000000 
#    y 0.000000 1.730280 0.000000 
#    z 0.000000 0.000000 1.759430 
# 
# From -- ./inp_files/35794.got.cif
#   From: 2010.03.12/outbox.cif.g09.slc.cpg/sg51_18_cif.got.tgz:35794.got - 2010.04.16 13:43:02.
