data_PCOD8212520
_publ_section_title
;
Structure prediction by ZEFSAII (Michael W. Deem and Ramdas Pophale) SiO2 
 PCOD8212520
Probable space group: P M M A
;
_chemical_formula_sum "Si O2"
_cell_formula_units_Z 56
_cell_length_a 14.522705
_cell_length_b 8.898048
_cell_length_c 22.275953
_cell_angle_alpha 90.000000
_cell_angle_beta 90.000000
_cell_angle_gamma 90.000000
_cell_volume 2878.581651
_symmetry_space_group_name_H-M "P M M A"
_symmetry_group_IT_number 51
_symmetry_cell_setting 'orthorhombic'
loop_
_space_group_symop_operation_xyz
x,y,z
1/2-x,-y,z
1/2+x,-y,-z
-x,y,-z
-x,-y,-z
1/2+x,y,-z
1/2-x,y,z
x,-y,z
loop_
_atom_site_type_symbol
_atom_site_label
_atom_site_fract_x
_atom_site_fract_y
_atom_site_fract_z
Si Si1 0.750000 0.677415 0.388239
Si Si2 0.250000 0.171457 0.486083
Si Si3 0.551859 0.174129 0.559302
Si Si4 0.359195 0.669365 0.014486
Si Si5 0.441073 0.322366 0.661956
Si Si6 0.858656 0.174439 0.106100
Si Si7 0.985011 0.678206 0.203650
Si Si8 0.643656 0.176777 0.863872
O O1 0.750000 0.500000 0.382640
O O2 0.750000 0.719745 0.457560
O O3 0.840948 0.743520 0.356124
O O4 0.339274 0.203560 0.445751
O O5 0.250000 0.000000 0.509737
O O6 0.500000 0.236192 0.500000
O O7 0.518855 0.260739 0.617857
O O8 0.527782 0.000000 0.567655
O O9 0.250000 0.668591 0.012649
O O10 0.398434 0.500000 0.017440
O O11 0.392768 0.761097 0.072483
O O12 0.397019 0.750582 0.954989
O O13 0.441724 0.500000 0.656604
O O14 0.463255 0.269653 0.729013
O O15 0.750000 0.198677 0.112680
O O16 0.905917 0.253910 0.162050
O O17 0.885333 0.000000 0.104826
O O18 0.985790 0.500000 0.196496
O O19 0.085166 0.744128 0.188036
O O20 0.750000 0.218222 0.852878
O O21 0.627020 0.000000 0.862816
#
# Coordination Sequence:
#
# PCOD8212520 Si02
#       8
#     4   4   8   8   8   8   8   8
#     4  10  20  36  60  88 116 150 187 228 281 338
#     4  10  20  36  58  90 120 150 187 230 287 338
#     4  10  20  36  60  87 119 152 188 236 283 335
#     4   9  17  32  57  87 116 148 188 237 293 349
#     4  10  23  40  59  85 117 153 192 235 282 336
#     4  10  21  37  57  85 120 154 191 238 290 346
#     4  11  24  40  59  83 114 154 197 240 286 344
#     4  10  21  39  62  85 112 148 191 243 297 348
#
# _framework density 19.454024
#
# number of rings (size 3 to 8) (size 9 to 14) (size 15 to 20)
#    0.000    2.000    1.429    1.714    1.000    6.000 
#    1.286    2.857    0.000    0.000    0.000    0.000 
#    0.000    0.000    0.000    0.000    0.000    0.000 
#
# Total GULP energy -694591.923492 kJ/mol
# GULP energy per Si atom -12403.427205 kJ/mol
# Density = 1.940975 g / cm^3
# Si number density = 19.454024 Si / 1000 Ang^3
#
#
#
# Elastic Constant Matrix: (Units=GPa)
#
#
# Indices 1 2 3 4 5 6 
#
# 1 111.9664 31.8454 60.5017 0.0000 0.0000 0.0000
# 2 31.8454 76.5927 49.7161 0.0000 0.0000 0.0000
# 3 60.5017 49.7161 150.0211 0.0000 0.0000 0.0000
# 4 0.0000 0.0000 0.0000 21.1451 0.0000 0.0000
# 5 0.0000 0.0000 0.0000 0.0000 19.9026 0.0000
# 6 0.0000 0.0000 0.0000 0.0000 0.0000 27.7428
#
#
#
# Elastic Compliance Matrix: (Units=1/GPa)
#
#
# Indices 1 2 3 4 5 6 
#
# 1 0.011730 -0.002302 -0.003968 0.000000 0.000000 0.000000
# 2 -0.002302 0.017086 -0.004734 0.000000 0.000000 0.000000
# 3 -0.003968 -0.004734 0.009835 0.000000 0.000000 0.000000
# 4 0.000000 0.000000 0.000000 0.047292 0.000000 0.000000
# 5 0.000000 0.000000 0.000000 0.000000 0.050245 0.000000
# 6 0.000000 0.000000 0.000000 0.000000 0.000000 0.036045
#
#
# Mechanical properties :
#
#
# Convention : Reuss Voigt Hill
#
# Bulk Modulus (GPa) = 60.08237 69.18961 64.63599
# Shear Modulus (GPa) = 25.02662 26.85922 25.94292
#
# Velocity S-wave (km/s) = 3.59060 3.71974 3.65574
# Velocity P-wave (km/s) = 6.93839 7.35470 7.14957
#
# Compressibility (1/GPa) = 0.01664382
#
# Stress axis : x y z
#
# Youngs Moduli (GPa) = 85.25241 58.52820 101.68073
#
# Poissons Ratio (x) = 0.13470 0.40345
# Poissons Ratio (y) = 0.19621 0.48135
# Poissons Ratio (z) = 0.33827 0.27707
#
# Static dielectric constant tensor:
#      x y z
#    x 3.669110 0.000000 0.000000 
#    y 0.000000 3.556110 0.000000 
#    z 0.000000 0.000000 3.526530 
# 
# 
# High freq. dielectric constant tensor:
#      x y z
#    x 1.767750 0.000000 0.000000 
#    y 0.000000 1.759190 0.000000 
#    z 0.000000 0.000000 1.751620 
# 
# From -- ./inp_files/33506.got.cif
#   From: 2010.03.12/outbox.cif.g09.slc.cpg/sg51_17_cif.got.tgz:33506.got - 2010.04.16 13:43:02.
