data_PCOD8212238
_publ_section_title
;
Structure prediction by ZEFSAII (Michael W. Deem and Ramdas Pophale) SiO2 
 PCOD8212238
Probable space group: P M M A
;
_chemical_formula_sum "Si O2"
_cell_formula_units_Z 44
_cell_length_a 9.728021
_cell_length_b 8.051216
_cell_length_c 29.178588
_cell_angle_alpha 90.000000
_cell_angle_beta 90.000000
_cell_angle_gamma 90.000000
_cell_volume 2285.336992
_symmetry_space_group_name_H-M "P M M A"
_symmetry_group_IT_number 51
_symmetry_cell_setting 'orthorhombic'
loop_
_space_group_symop_operation_xyz
x,y,z
1/2-x,-y,z
1/2+x,-y,-z
-x,y,-z
-x,-y,-z
1/2+x,y,-z
1/2-x,y,z
x,-y,z
loop_
_atom_site_type_symbol
_atom_site_label
_atom_site_fract_x
_atom_site_fract_y
_atom_site_fract_z
Si Si1 0.588950 0.500000 0.454696
Si Si2 0.596842 0.189615 0.781902
Si Si3 0.091699 0.689387 0.314795
Si Si4 0.406805 0.195712 0.958705
Si Si5 0.407659 0.813334 0.607413
Si Si6 0.593798 0.308562 0.139782
O O1 0.750000 0.500000 0.467063
O O2 0.500000 0.500000 0.500000
O O3 0.548178 0.668843 0.427856
O O4 0.750000 0.249894 0.796013
O O5 0.543666 0.292519 0.737981
O O6 0.498257 0.207563 0.825084
O O7 0.599145 0.000000 0.766352
O O8 0.250000 0.746350 0.319549
O O9 0.071816 0.500000 0.330155
O O10 0.999134 0.803464 0.347097
O O11 0.250000 0.246481 0.969261
O O12 0.459214 0.279479 0.911850
O O13 0.423735 0.000000 0.953163
O O14 0.500000 0.264443 0.000000
O O15 0.250000 0.784792 0.621921
O O16 0.427329 0.000000 0.586351
O O17 0.750000 0.242993 0.143761
O O18 0.582919 0.500000 0.152696
#
# Coordination Sequence:
#
# PCOD8212238 Si02
#       6
#     4   8   8   8   8   8
#     4  10  22  40  60  86 120 154 194 242 287 338
#     4  10  21  36  54  78 108 142 181 225 272 324
#     4  10  20  35  57  84 114 148 187 231 280 333
#     4   9  18  33  52  73  98 129 167 212 261 315
#     4  10  21  38  60  86 117 154 194 237 286 338
#     4  10  21  36  53  75 104 138 176 218 265 320
#
# _framework density 19.253177999999998
#
# number of rings (size 3 to 8) (size 9 to 14) (size 15 to 20)
#    0.000    2.182    0.909    1.636    0.000    6.182 
#    0.000    1.818    0.000    0.000    0.000    0.000 
#    0.000    0.000    0.000    0.000    0.000    0.000 
#
# Total GULP energy -545648.514954 kJ/mol
# GULP energy per Si atom -12401.102613 kJ/mol
# Density = 1.920936 g / cm^3
# Si number density = 19.253178 Si / 1000 Ang^3
#
#
#
# Elastic Constant Matrix: (Units=GPa)
#
#
# Indices 1 2 3 4 5 6 
#
# 1 76.8078 31.1175 72.3458 0.0000 0.0000 0.0000
# 2 31.1175 86.0084 42.4753 0.0000 0.0000 0.0000
# 3 72.3458 42.4753 127.8272 0.0000 0.0000 0.0000
# 4 0.0000 0.0000 0.0000 29.0831 0.0000 0.0000
# 5 0.0000 0.0000 0.0000 0.0000 41.5748 0.0000
# 6 0.0000 0.0000 0.0000 0.0000 0.0000 22.1376
#
#
#
# Elastic Compliance Matrix: (Units=1/GPa)
#
#
# Indices 1 2 3 4 5 6 
#
# 1 0.028437 -0.002800 -0.015164 0.000000 0.000000 0.000000
# 2 -0.002800 0.014185 -0.003129 0.000000 0.000000 0.000000
# 3 -0.015164 -0.003129 0.017445 0.000000 0.000000 0.000000
# 4 0.000000 0.000000 0.000000 0.034384 0.000000 0.000000
# 5 0.000000 0.000000 0.000000 0.000000 0.024053 0.000000
# 6 0.000000 0.000000 0.000000 0.000000 0.000000 0.045172
#
#
# Mechanical properties :
#
#
# Convention : Reuss Voigt Hill
#
# Bulk Modulus (GPa) = 55.92319 64.72449 60.32384
# Shear Modulus (GPa) = 23.60477 28.20610 25.90544
#
# Velocity S-wave (km/s) = 3.50525 3.83170 3.67211
# Velocity P-wave (km/s) = 6.74475 7.29838 7.02702
#
# Compressibility (1/GPa) = 0.01788167
#
# Stress axis : x y z
#
# Youngs Moduli (GPa) = 35.16576 70.49748 57.32279
#
# Poissons Ratio (x) = 0.19736 0.86924
# Poissons Ratio (y) = 0.09845 0.17936
# Poissons Ratio (z) = 0.53325 0.22059
#
# Static dielectric constant tensor:
#      x y z
#    x 4.309630 0.000000 0.000000 
#    y 0.000000 3.599730 0.000000 
#    z 0.000000 0.000000 3.353940 
# 
# 
# High freq. dielectric constant tensor:
#      x y z
#    x 1.742480 0.000000 0.000000 
#    y 0.000000 1.757700 0.000000 
#    z 0.000000 0.000000 1.740970 
# 
# From -- ./inp_files/36807.got.cif
#   From: 2010.03.12/outbox.cif.g09.slc.cpg/sg51_19_cif.got.tgz:36807.got - 2010.04.16 13:43:02.
