data_PCOD8212765
_publ_section_title
;
Structure prediction by ZEFSAII (Michael W. Deem and Ramdas Pophale) SiO2 
 PCOD8212765
Probable space group: P M M A
;
_chemical_formula_sum "Si O2"
_cell_formula_units_Z 48
_cell_length_a 14.992643
_cell_length_b 8.989641
_cell_length_c 18.870095
_cell_angle_alpha 90.000000
_cell_angle_beta 90.000000
_cell_angle_gamma 90.000000
_cell_volume 2543.282688
_symmetry_space_group_name_H-M "P M M A"
_symmetry_group_IT_number 51
_symmetry_cell_setting 'orthorhombic'
loop_
_space_group_symop_operation_xyz
x,y,z
1/2-x,-y,z
1/2+x,-y,-z
-x,y,-z
-x,-y,-z
1/2+x,y,-z
1/2-x,y,z
x,-y,z
loop_
_atom_site_type_symbol
_atom_site_label
_atom_site_fract_x
_atom_site_fract_y
_atom_site_fract_z
Si Si1 0.852672 0.827605 0.168815
Si Si2 0.250000 0.175884 0.577399
Si Si3 0.250000 0.671405 0.428299
Si Si4 0.497178 0.326555 0.082503
Si Si5 0.587917 0.174094 0.327774
Si Si6 0.095133 0.674103 0.320596
Si Si7 0.647426 0.172446 0.824643
O O1 0.750000 0.784690 0.156882
O O2 0.879610 0.791000 0.248843
O O3 0.910934 0.728535 0.116506
O O4 0.869664 0.000000 0.151725
O O5 0.250000 0.229083 0.497468
O O6 0.337598 0.233831 0.618007
O O7 0.250000 0.000000 0.579909
O O8 0.250000 0.500000 0.451082
O O9 0.163057 0.711740 0.383205
O O10 0.486333 0.500000 0.098118
O O11 0.412088 0.243129 0.114196
O O12 0.500000 0.290074 0.000000
O O13 0.500024 0.266561 0.345590
O O14 0.568379 0.000000 0.337903
O O15 0.090782 0.500000 0.304492
O O16 0.127409 0.753846 0.250073
O O17 0.750000 0.196923 0.845898
O O18 0.622602 0.000000 0.817826
#
# Coordination Sequence:
#
# PCOD8212765 Si02
#       7
#     8   4   4   8   8   8   8
#     4  10  20  37  63  91 120 156 199 249 300 354
#     4  10  22  40  62  88 123 160 199 246 301 355
#     4  10  24  42  58  84 125 162 197 244 303 359
#     4  11  25  42  60  88 126 162 199 247 301 357
#     4  10  20  37  61  90 119 153 198 247 298 353
#     4  11  22  38  61  89 120 158 200 246 300 359
#     4  11  23  39  63  92 119 154 203 252 299 359
#
# _framework density 18.873245000000001
#
# number of rings (size 3 to 8) (size 9 to 14) (size 15 to 20)
#    0.000    1.500    3.333    1.500    0.000    6.000 
#    0.000    6.667    0.000    0.000    0.000    0.000 
#    0.000    0.000    0.000    0.000    0.000    0.000 
#
# Total GULP energy -595446.412856 kJ/mol
# GULP energy per Si atom -12405.133601 kJ/mol
# Density = 1.883029 g / cm^3
# Si number density = 18.873245 Si / 1000 Ang^3
#
#
#
# Elastic Constant Matrix: (Units=GPa)
#
#
# Indices 1 2 3 4 5 6 
#
# 1 162.3598 71.7477 72.8587 0.0000 0.0000 0.0000
# 2 71.7477 90.2791 62.1739 0.0000 0.0000 0.0000
# 3 72.8587 62.1739 115.8912 0.0000 0.0000 0.0000
# 4 0.0000 0.0000 0.0000 31.9427 0.0000 0.0000
# 5 0.0000 0.0000 0.0000 0.0000 38.7412 0.0000
# 6 0.0000 0.0000 0.0000 0.0000 0.0000 26.8748
#
#
#
# Elastic Compliance Matrix: (Units=1/GPa)
#
#
# Indices 1 2 3 4 5 6 
#
# 1 0.010223 -0.005866 -0.003280 0.000000 0.000000 0.000000
# 2 -0.005866 0.020933 -0.007542 0.000000 0.000000 0.000000
# 3 -0.003280 -0.007542 0.014738 0.000000 0.000000 0.000000
# 4 0.000000 0.000000 0.000000 0.031306 0.000000 0.000000
# 5 0.000000 0.000000 0.000000 0.000000 0.025812 0.000000
# 6 0.000000 0.000000 0.000000 0.000000 0.000000 0.037210
#
#
# Mechanical properties :
#
#
# Convention : Reuss Voigt Hill
#
# Bulk Modulus (GPa) = 79.89401 86.89895 83.39648
# Shear Modulus (GPa) = 28.12613 30.29506 29.21059
#
# Velocity S-wave (km/s) = 3.86458 4.01082 3.93838
# Velocity P-wave (km/s) = 7.89539 8.22146 8.06007
#
# Compressibility (1/GPa) = 0.01251658
#
# Stress axis : x y z
#
# Youngs Moduli (GPa) = 97.81605 47.77204 67.85403
#
# Poissons Ratio (x) = 0.28021 0.22259
# Poissons Ratio (y) = 0.57375 0.51179
# Poissons Ratio (z) = 0.32087 0.36032
#
# Static dielectric constant tensor:
#      x y z
#    x 3.782970 0.000000 0.000000 
#    y 0.000000 3.474830 0.000000 
#    z 0.000000 0.000000 3.390500 
# 
# 
# High freq. dielectric constant tensor:
#      x y z
#    x 1.753200 0.000000 0.000000 
#    y 0.000000 1.735770 0.000000 
#    z 0.000000 0.000000 1.732280 
# 
# From -- ./inp_files/29537.got.cif
#   From: 2010.03.12/outbox.cif.g09.slc.cpg/sg51_15_cif.got.tgz:29537.got - 2010.04.16 13:43:02.
