data_PCOD8212959
_publ_section_title
;
Structure prediction by ZEFSAII (Michael W. Deem and Ramdas Pophale) SiO2 
 PCOD8212959
Probable space group: P M M A
;
_chemical_formula_sum "Si O2"
_cell_formula_units_Z 44
_cell_length_a 9.091113
_cell_length_b 28.434116
_cell_length_c 9.771474
_cell_angle_alpha 90.000000
_cell_angle_beta 90.000000
_cell_angle_gamma 90.000000
_cell_volume 2525.904157
_symmetry_space_group_name_H-M "P M M A"
_symmetry_group_IT_number 51
_symmetry_cell_setting 'orthorhombic'
loop_
_space_group_symop_operation_xyz
x,y,z
1/2-x,-y,z
1/2+x,-y,-z
-x,y,-z
-x,-y,-z
1/2+x,y,-z
1/2-x,y,z
x,-y,z
loop_
_atom_site_type_symbol
_atom_site_label
_atom_site_fract_x
_atom_site_fract_y
_atom_site_fract_z
Si Si1 0.578069 0.448833 0.353529
Si Si2 0.077312 0.184531 0.138391
Si Si3 0.422055 0.922471 0.139559
Si Si4 0.423200 0.000000 0.353694
Si Si5 0.421505 0.637992 0.354325
Si Si6 0.920733 0.258536 0.643010
O O1 0.500000 0.451043 0.500000
O O2 0.750000 0.438141 0.371312
O O3 0.555067 0.500000 0.280662
O O4 0.500604 0.405223 0.271008
O O5 0.250000 0.190704 0.117751
O O6 0.035435 0.131045 0.176966
O O7 0.016662 0.218896 0.255833
O O8 0.000000 0.200365 0.000000
O O9 0.250000 0.928597 0.112989
O O10 0.473083 0.954293 0.267104
O O11 0.500000 0.938943 0.000000
O O12 0.500000 0.000000 0.500000
O O13 0.250000 0.000000 0.379670
O O14 0.500000 0.640272 0.500000
O O15 0.250000 0.626417 0.369869
O O16 0.445950 0.689669 0.288270
O O17 0.750000 0.250391 0.613899
O O18 0.000000 0.252668 0.500000
#
# Coordination Sequence:
#
# PCOD8212959 Si02
#       6
#     8   8   8   4   8   8
#     4   9  15  21  30  46  70 101 136 173 211 253
#     4   9  18  33  50  69  93 120 152 191 230 269
#     4   9  18  33  52  71  93 122 156 192 229 270
#     4  10  21  34  48  72 102 128 155 190 230 270
#     4   9  15  23  35  51  74 105 138 173 213 258
#     4   9  18  30  44  64  90 118 149 185 225 270
#
# _framework density 17.419504
#
# number of rings (size 3 to 8) (size 9 to 14) (size 15 to 20)
#    0.000    2.909    0.000    2.455    0.000    4.000 
#    0.000    0.000    0.000    0.000    0.000    0.000 
#    0.000    0.727    0.000    1.636    0.000    9.273 
#
# Total GULP energy -545135.483563 kJ/mol
# GULP energy per Si atom -12389.442808 kJ/mol
# Density = 1.737986 g / cm^3
# Si number density = 17.419504 Si / 1000 Ang^3
#
#
#
# Elastic Constant Matrix: (Units=GPa)
#
#
# Indices 1 2 3 4 5 6 
#
# 1 70.1352 53.1135 37.3711 0.0000 0.0000 0.0000
# 2 53.1135 155.8342 76.4734 0.0000 0.0000 0.0000
# 3 37.3711 76.4734 89.2767 0.0000 0.0000 0.0000
# 4 0.0000 0.0000 0.0000 6.3288 0.0000 0.0000
# 5 0.0000 0.0000 0.0000 0.0000 22.0551 0.0000
# 6 0.0000 0.0000 0.0000 0.0000 0.0000 24.5287
#
#
#
# Elastic Compliance Matrix: (Units=1/GPa)
#
#
# Indices 1 2 3 4 5 6 
#
# 1 0.020177 -0.004714 -0.004408 0.000000 0.000000 0.000000
# 2 -0.004714 0.012172 -0.008453 0.000000 0.000000 0.000000
# 3 -0.004408 -0.008453 0.020287 0.000000 0.000000 0.000000
# 4 0.000000 0.000000 0.000000 0.158008 0.000000 0.000000
# 5 0.000000 0.000000 0.000000 0.000000 0.045341 0.000000
# 6 0.000000 0.000000 0.000000 0.000000 0.000000 0.040769
#
#
# Mechanical properties :
#
#
# Convention : Reuss Voigt Hill
#
# Bulk Modulus (GPa) = 57.18948 72.12912 64.65930
# Shear Modulus (GPa) = 14.80460 20.46839 17.63649
#
# Velocity S-wave (km/s) = 2.91844 3.43159 3.18536
# Velocity P-wave (km/s) = 6.65270 7.56294 7.12237
#
# Compressibility (1/GPa) = 0.01748573
#
# Stress axis : x y z
#
# Youngs Moduli (GPa) = 49.56208 82.15631 49.29161
#
# Poissons Ratio (x) = 0.38725 0.21730
# Poissons Ratio (y) = 0.23361 0.41667
# Poissons Ratio (z) = 0.21849 0.69449
#
# Static dielectric constant tensor:
#      x y z
#    x 3.238630 0.000000 0.000000 
#    y 0.000000 4.381720 0.000000 
#    z 0.000000 0.000000 2.797800 
# 
# 
# High freq. dielectric constant tensor:
#      x y z
#    x 1.676690 0.000000 0.000000 
#    y 0.000000 1.703330 0.000000 
#    z 0.000000 0.000000 1.609080 
# 
# From -- ./inp_files/5768.got.cif
#   From: 2010.03.12/outbox.cif.g09.slc.cpg/sg51_3_cif.got.tgz:5768.got - 2010.04.16 13:43:02.
