data_PCOD8212124
_publ_section_title
;
Structure prediction by ZEFSAII (Michael W. Deem and Ramdas Pophale) SiO2 
 PCOD8212124
Probable space group: P M M A
;
_chemical_formula_sum "Si O2"
_cell_formula_units_Z 64
_cell_length_a 22.154073
_cell_length_b 9.209513
_cell_length_c 16.730408
_cell_angle_alpha 90.000000
_cell_angle_beta 90.000000
_cell_angle_gamma 90.000000
_cell_volume 3413.475419
_symmetry_space_group_name_H-M "P M M A"
_symmetry_group_IT_number 51
_symmetry_cell_setting 'orthorhombic'
loop_
_space_group_symop_operation_xyz
x,y,z
1/2-x,-y,z
1/2+x,-y,-z
-x,y,-z
-x,-y,-z
1/2+x,y,-z
1/2-x,y,z
x,-y,z
loop_
_atom_site_type_symbol
_atom_site_label
_atom_site_fract_x
_atom_site_fract_y
_atom_site_fract_z
Si Si1 0.817331 0.341810 0.703756
Si Si2 0.819739 0.331310 0.400892
Si Si3 0.929030 0.670026 0.291429
Si Si4 0.035537 0.328409 0.881406
Si Si5 0.850610 0.165432 0.559536
Si Si6 0.089347 0.328159 0.045963
Si Si7 0.821621 0.834662 0.851748
Si Si8 0.012336 0.835209 0.412671
O O1 0.750000 0.370635 0.733587
O O2 0.850236 0.500000 0.695889
O O3 0.810937 0.260690 0.619148
O O4 0.847938 0.242421 0.771665
O O5 0.750000 0.290817 0.381942
O O6 0.825097 0.500000 0.425517
O O7 0.861110 0.297500 0.323175
O O8 0.846478 0.233650 0.471712
O O9 0.942209 0.500000 0.292279
O O10 0.937640 0.734256 0.201870
O O11 0.979671 0.740794 0.346592
O O12 0.038043 0.500000 0.879826
O O13 0.966319 0.280766 0.896584
O O14 0.076445 0.275550 0.955438
O O15 0.916335 0.170878 0.599423
O O16 0.826962 0.000000 0.554708
O O17 0.100278 0.500000 0.050506
O O18 0.149438 0.245183 0.072430
O O19 0.750000 0.825287 0.860103
O O20 0.843544 0.000000 0.848130
O O21 0.000000 0.768641 0.500000
O O22 0.987320 0.000000 0.408329
#
# Coordination Sequence:
#
# PCOD8212124 Si02
#       8
#     8   8   8   8   8   8   8   8
#     4  10  21  36  53  75 105 140 179 219 259 311
#     4  10  21  36  53  74 103 139 180 226 269 313
#     4  10  20  35  56  80 106 139 181 222 269 320
#     4   8  17  34  56  83 110 137 172 223 275 321
#     4  11  22  35  53  76 104 139 177 218 266 318
#     4   9  17  34  58  81 109 141 177 218 267 326
#     4  10  21  36  53  77 112 147 180 221 267 319
#     4  10  21  37  52  73 108 141 171 214 265 317
#
# _framework density 18.749220999999999
#
# number of rings (size 3 to 8) (size 9 to 14) (size 15 to 20)
#    0.000    2.250    1.250    2.250    1.750    4.500 
#    0.000    2.500    0.000    2.250    0.000    0.000 
#    0.000    0.000    0.000    0.000    0.000    0.000 
#
# Total GULP energy -793346.446886 kJ/mol
# GULP energy per Si atom -12396.038233 kJ/mol
# Density = 1.870655 g / cm^3
# Si number density = 18.749221 Si / 1000 Ang^3
#
#
#
# Elastic Constant Matrix: (Units=GPa)
#
#
# Indices 1 2 3 4 5 6 
#
# 1 69.7240 34.4935 48.4186 0.0000 0.0000 0.0000
# 2 34.4935 93.5470 55.2895 0.0000 0.0000 0.0000
# 3 48.4186 55.2895 150.3485 0.0000 0.0000 0.0000
# 4 0.0000 0.0000 0.0000 13.6391 0.0000 0.0000
# 5 0.0000 0.0000 0.0000 0.0000 29.2641 0.0000
# 6 0.0000 0.0000 0.0000 0.0000 0.0000 22.2888
#
#
#
# Elastic Compliance Matrix: (Units=1/GPa)
#
#
# Indices 1 2 3 4 5 6 
#
# 1 0.019870 -0.004529 -0.004733 0.000000 0.000000 0.000000
# 2 -0.004529 0.014691 -0.003944 0.000000 0.000000 0.000000
# 3 -0.004733 -0.003944 0.009626 0.000000 0.000000 0.000000
# 4 0.000000 0.000000 0.000000 0.073319 0.000000 0.000000
# 5 0.000000 0.000000 0.000000 0.000000 0.034172 0.000000
# 6 0.000000 0.000000 0.000000 0.000000 0.000000 0.044866
#
#
# Mechanical properties :
#
#
# Convention : Reuss Voigt Hill
#
# Bulk Modulus (GPa) = 56.26218 65.55808 60.91013
# Shear Modulus (GPa) = 21.84555 24.73292 23.28923
#
# Velocity S-wave (km/s) = 3.41712 3.63594 3.52823
# Velocity P-wave (km/s) = 6.75588 7.25730 7.01107
#
# Compressibility (1/GPa) = 0.01777393
#
# Stress axis : x y z
#
# Youngs Moduli (GPa) = 50.32741 68.07002 103.88616
#
# Poissons Ratio (x) = 0.30829 0.49174
# Poissons Ratio (y) = 0.22793 0.40972
# Poissons Ratio (z) = 0.23822 0.26846
#
# Static dielectric constant tensor:
#      x y z
#    x 3.372080 0.000000 0.000000 
#    y 0.000000 3.422090 0.000000 
#    z 0.000000 0.000000 3.649280 
# 
# 
# High freq. dielectric constant tensor:
#      x y z
#    x 1.720340 0.000000 0.000000 
#    y 0.000000 1.718250 0.000000 
#    z 0.000000 0.000000 1.723820 
# 
# From -- ./inp_files/26261.got.cif
#   From: 2010.03.12/outbox.cif.g09.slc.cpg/sg51_14_cif.got.tgz:26261.got - 2010.04.16 13:43:02.
