data_PCOD8212724
_publ_section_title
;
Structure prediction by ZEFSAII (Michael W. Deem and Ramdas Pophale) SiO2 
 PCOD8212724
Probable space group: P M M A
;
_chemical_formula_sum "Si O2"
_cell_formula_units_Z 40
_cell_length_a 25.664189
_cell_length_b 8.397864
_cell_length_c 9.473221
_cell_angle_alpha 90.000000
_cell_angle_beta 90.000000
_cell_angle_gamma 90.000000
_cell_volume 2041.709977
_symmetry_space_group_name_H-M "P M M A"
_symmetry_group_IT_number 51
_symmetry_cell_setting 'orthorhombic'
loop_
_space_group_symop_operation_xyz
x,y,z
1/2-x,-y,z
1/2+x,-y,-z
-x,y,-z
-x,-y,-z
1/2+x,y,-z
1/2-x,y,z
x,-y,z
loop_
_atom_site_type_symbol
_atom_site_label
_atom_site_fract_x
_atom_site_fract_y
_atom_site_fract_z
Si Si1 0.951231 0.811023 0.410245
Si Si2 0.750000 0.682584 0.895179
Si Si3 0.750000 0.185847 0.587232
Si Si4 0.161827 0.813824 0.910447
Si Si5 0.954598 0.188097 0.094662
Si Si6 0.341124 0.685770 0.599741
O O1 0.962993 0.751394 0.252824
O O2 0.897888 0.730129 0.462253
O O3 0.000000 0.749894 0.500000
O O4 0.943943 0.000000 0.420862
O O5 0.750000 0.500000 0.847856
O O6 0.750000 0.789248 0.755318
O O7 0.800486 0.715280 0.989736
O O8 0.800834 0.265068 0.520364
O O9 0.750000 0.000000 0.553907
O O10 0.103234 0.764229 0.956784
O O11 0.171145 0.777015 0.745519
O O12 0.172305 0.000000 0.933270
O O13 0.960253 0.000000 0.090545
O O14 0.000000 0.267875 0.000000
O O15 0.336888 0.500000 0.631070
#
# Coordination Sequence:
#
# PCOD8212724 Si02
#       6
#     8   4   4   8   8   8
#     4   9  18  33  54  80 110 147 191 233 275 331
#     4  12  25  40  57  84 118 146 180 232 291 338
#     4  12  25  42  61  82 110 146 190 236 285 344
#     4  10  20  37  60  84 111 150 195 230 271 336
#     4   8  15  29  51  79 107 137 179 228 269 311
#     4  11  22  38  59  84 115 150 189 237 291 339
#
# _framework density 19.591422000000001
#
# number of rings (size 3 to 8) (size 9 to 14) (size 15 to 20)
#    0.000    2.000    0.000    6.000    0.000    2.000 
#    0.000    4.000    0.000   15.000    0.000    0.000 
#    0.000    0.000    0.000    0.000    0.000    0.000 
#
# Total GULP energy -496023.959642 kJ/mol
# GULP energy per Si atom -12400.598991 kJ/mol
# Density = 1.954683 g / cm^3
# Si number density = 19.591422 Si / 1000 Ang^3
#
#
#
# Elastic Constant Matrix: (Units=GPa)
#
#
# Indices 1 2 3 4 5 6 
#
# 1 166.8083 27.1402 71.6320 0.0000 0.0000 0.0000
# 2 27.1402 62.9947 9.3629 0.0000 0.0000 0.0000
# 3 71.6320 9.3629 71.2248 0.0000 0.0000 0.0000
# 4 0.0000 0.0000 0.0000 22.5154 0.0000 0.0000
# 5 0.0000 0.0000 0.0000 0.0000 41.4133 0.0000
# 6 0.0000 0.0000 0.0000 0.0000 0.0000 12.4832
#
#
#
# Elastic Compliance Matrix: (Units=1/GPa)
#
#
# Indices 1 2 3 4 5 6 
#
# 1 0.011151 -0.003200 -0.010794 0.000000 0.000000 0.000000
# 2 -0.003200 0.017109 0.000969 0.000000 0.000000 0.000000
# 3 -0.010794 0.000969 0.024768 0.000000 0.000000 0.000000
# 4 0.000000 0.000000 0.000000 0.044414 0.000000 0.000000
# 5 0.000000 0.000000 0.000000 0.000000 0.024147 0.000000
# 6 0.000000 0.000000 0.000000 0.000000 0.000000 0.080107
#
#
# Mechanical properties :
#
#
# Convention : Reuss Voigt Hill
#
# Bulk Modulus (GPa) = 37.06639 57.47754 47.27196
# Shear Modulus (GPa) = 21.12041 28.14191 24.63116
#
# Velocity S-wave (km/s) = 3.28692 3.79415 3.54961
# Velocity P-wave (km/s) = 5.77632 6.97108 6.40163
#
# Compressibility (1/GPa) = 0.02697862
#
# Stress axis : x y z
#
# Youngs Moduli (GPa) = 89.68084 58.44909 40.37442
#
# Poissons Ratio (x) = 0.18702 0.43579
# Poissons Ratio (y) = 0.28696 -0.03912
# Poissons Ratio (z) = 0.96799 -0.05664
#
# Static dielectric constant tensor:
#      x y z
#    x 3.905160 0.000000 0.000000 
#    y 0.000000 3.370080 0.000000 
#    z 0.000000 0.000000 3.582500 
# 
# 
# High freq. dielectric constant tensor:
#      x y z
#    x 1.780320 0.000000 0.000000 
#    y 0.000000 1.749570 0.000000 
#    z 0.000000 0.000000 1.755190 
# 
# From -- ./inp_files/12179.got.cif
#   From: 2010.03.12/outbox.cif.g09.slc.cpg/sg51_7_cif.got.tgz:12179.got - 2010.04.16 13:43:02.
