data_PCOD8212803
_publ_section_title
;
Structure prediction by ZEFSAII (Michael W. Deem and Ramdas Pophale) SiO2 
 PCOD8212803
Probable space group: P M M A
;
_chemical_formula_sum "Si O2"
_cell_formula_units_Z 40
_cell_length_a 14.276735
_cell_length_b 9.101261
_cell_length_c 17.240596
_cell_angle_alpha 90.000000
_cell_angle_beta 90.000000
_cell_angle_gamma 90.000000
_cell_volume 2240.179107
_symmetry_space_group_name_H-M "P M M A"
_symmetry_group_IT_number 51
_symmetry_cell_setting 'orthorhombic'
loop_
_space_group_symop_operation_xyz
x,y,z
1/2-x,-y,z
1/2+x,-y,-z
-x,y,-z
-x,-y,-z
1/2+x,y,-z
1/2-x,y,z
x,-y,z
loop_
_atom_site_type_symbol
_atom_site_label
_atom_site_fract_x
_atom_site_fract_y
_atom_site_fract_z
Si Si1 0.750000 0.325511 0.479517
Si Si2 0.250000 0.172874 0.355244
Si Si3 0.068158 0.829594 0.569791
Si Si4 0.444815 0.830212 0.281537
Si Si5 0.013467 0.673749 0.123750
Si Si6 0.645993 0.325356 0.011222
O O1 0.750000 0.500000 0.483550
O O2 0.750000 0.260818 0.565351
O O3 0.659700 0.270697 0.432590
O O4 0.159356 0.218640 0.305973
O O5 0.250000 0.000000 0.375795
O O6 0.000000 0.784786 0.500000
O O7 0.016203 0.795390 0.649652
O O8 0.097132 0.000000 0.562408
O O9 0.478441 0.740773 0.208006
O O10 0.445471 0.000000 0.259336
O O11 0.015224 0.500000 0.131932
O O12 0.916015 0.726586 0.084510
O O13 0.098838 0.728051 0.069130
O O14 0.750000 0.256829 0.017931
O O15 0.650164 0.500000 0.010677
#
# Coordination Sequence:
#
# PCOD8212803 Si02
#       6
#     4   4   8   8   8   8
#     4  12  24  36  56  86 113 138 179 238 285 316
#     4  10  20  38  58  78 107 146 187 216 267 342
#     4  10  20  39  62  77 103 152 193 218 262 332
#     4  10  21  36  57  81 107 141 181 227 268 319
#     4   9  18  32  53  79 106 136 175 221 267 321
#     4   8  15  31  53  75 103 143 179 207 257 329
#
# _framework density 17.855715
#
# number of rings (size 3 to 8) (size 9 to 14) (size 15 to 20)
#    0.000    2.400    2.000    2.100    1.400    2.000 
#    1.800    2.000    0.000    1.200    0.000    0.000 
#    0.000    0.000    0.000    0.000    0.000    0.000 
#
# Total GULP energy -495995.528802 kJ/mol
# GULP energy per Si atom -12399.888220 kJ/mol
# Density = 1.781507 g / cm^3
# Si number density = 17.855715 Si / 1000 Ang^3
#
#
#
# Elastic Constant Matrix: (Units=GPa)
#
#
# Indices 1 2 3 4 5 6 
#
# 1 158.8291 44.5922 72.8687 0.0000 0.0000 0.0000
# 2 44.5922 50.2099 42.4804 0.0000 0.0000 0.0000
# 3 72.8687 42.4804 128.5793 0.0000 0.0000 0.0000
# 4 0.0000 0.0000 0.0000 26.7412 0.0000 0.0000
# 5 0.0000 0.0000 0.0000 0.0000 20.0913 0.0000
# 6 0.0000 0.0000 0.0000 0.0000 0.0000 14.6842
#
#
#
# Elastic Compliance Matrix: (Units=1/GPa)
#
#
# Indices 1 2 3 4 5 6 
#
# 1 0.009443 -0.005356 -0.003582 0.000000 0.000000 0.000000
# 2 -0.005356 0.030681 -0.007101 0.000000 0.000000 0.000000
# 3 -0.003582 -0.007101 0.012153 0.000000 0.000000 0.000000
# 4 0.000000 0.000000 0.000000 0.037396 0.000000 0.000000
# 5 0.000000 0.000000 0.000000 0.000000 0.049773 0.000000
# 6 0.000000 0.000000 0.000000 0.000000 0.000000 0.068101
#
#
# Mechanical properties :
#
#
# Convention : Reuss Voigt Hill
#
# Bulk Modulus (GPa) = 49.50682 73.05564 61.28123
# Shear Modulus (GPa) = 20.29564 24.14847 22.22205
#
# Velocity S-wave (km/s) = 3.37508 3.68152 3.53162
# Velocity P-wave (km/s) = 6.55549 7.68601 7.14315
#
# Compressibility (1/GPa) = 0.02019924
#
# Stress axis : x y z
#
# Youngs Moduli (GPa) = 105.89574 32.59336 82.28084
#
# Poissons Ratio (x) = 0.17457 0.29474
# Poissons Ratio (y) = 0.56718 0.58429
# Poissons Ratio (z) = 0.37934 0.23145
#
# Static dielectric constant tensor:
#      x y z
#    x 3.559920 0.000000 0.000000 
#    y 0.000000 2.994570 0.000000 
#    z 0.000000 0.000000 3.258520 
# 
# 
# High freq. dielectric constant tensor:
#      x y z
#    x 1.704530 0.000000 0.000000 
#    y 0.000000 1.661290 0.000000 
#    z 0.000000 0.000000 1.692310 
# 
# From -- ./inp_files/23741.got.cif
#   From: 2010.03.12/outbox.cif.g09.slc.cpg/sg51_12_cif.got.tgz:23741.got - 2010.04.16 13:43:02.
