data_PCOD8212283
_publ_section_title
;
Structure prediction by ZEFSAII (Michael W. Deem and Ramdas Pophale) SiO2 
 PCOD8212283
Probable space group: P M M A
;
_chemical_formula_sum "Si O2"
_cell_formula_units_Z 64
_cell_length_a 28.777336
_cell_length_b 8.831701
_cell_length_c 12.604269
_cell_angle_alpha 90.000000
_cell_angle_beta 90.000000
_cell_angle_gamma 90.000000
_cell_volume 3203.410600
_symmetry_space_group_name_H-M "P M M A"
_symmetry_group_IT_number 51
_symmetry_cell_setting 'orthorhombic'
loop_
_space_group_symop_operation_xyz
x,y,z
1/2-x,-y,z
1/2+x,-y,-z
-x,y,-z
-x,-y,-z
1/2+x,y,-z
1/2-x,y,z
x,-y,z
loop_
_atom_site_type_symbol
_atom_site_label
_atom_site_fract_x
_atom_site_fract_y
_atom_site_fract_z
Si Si1 0.801287 0.320483 0.500213
Si Si2 0.559005 0.822796 0.255340
Si Si3 0.122990 0.319689 0.336755
Si Si4 0.861978 0.325939 0.900681
Si Si5 0.652277 0.321645 0.285743
Si Si6 0.050122 0.672772 0.960492
Si Si7 0.695906 0.823379 0.079053
Si Si8 0.519801 0.320618 0.613101
O O1 0.750000 0.256378 0.527194
O O2 0.801764 0.500000 0.510880
O O3 0.838823 0.252096 0.582091
O O4 0.812916 0.274176 0.379582
O O5 0.602915 0.751889 0.316436
O O6 0.566051 0.784656 0.131927
O O7 0.511130 0.751244 0.294815
O O8 0.558188 0.000000 0.274237
O O9 0.122115 0.500000 0.339883
O O10 0.136886 0.263709 0.219422
O O11 0.072266 0.259801 0.371895
O O12 0.845391 0.500000 0.905327
O O13 0.914226 0.309641 0.943296
O O14 0.825897 0.226559 0.967366
O O15 0.645008 0.500000 0.278574
O O16 0.671823 0.266080 0.174105
O O17 0.049031 0.500000 0.917920
O O18 0.000000 0.724898 0.000000
O O19 0.750000 0.782723 0.076738
O O20 0.687100 0.000000 0.097005
O O21 0.500000 0.266461 0.500000
O O22 0.517302 0.500000 0.624737
#
# Coordination Sequence:
#
# PCOD8212283 Si02
#       8
#     8   8   8   8   8   8   8   8
#     4   9  18  33  57  90 121 147 185 246 308 358
#     4  12  24  36  55  85 121 158 197 245 305 361
#     4   9  18  34  57  88 122 153 191 241 297 354
#     4  10  20  35  58  86 116 154 196 240 287 350
#     4  11  21  37  61  88 118 155 202 250 302 362
#     4  10  20  36  58  84 115 153 197 244 292 346
#     4  11  24  40  58  83 118 157 196 248 310 361
#     4  10  20  37  61  87 117 159 206 249 300 360
#
# _framework density 19.978705999999999
#
# number of rings (size 3 to 8) (size 9 to 14) (size 15 to 20)
#    0.000    1.750    1.250    3.750    0.000    6.500 
#    0.000    3.125    0.000    1.500    0.000    1.750 
#    0.000    0.000    0.000    0.000    0.000    0.000 
#
# Total GULP energy -793815.364632 kJ/mol
# GULP energy per Si atom -12403.365072 kJ/mol
# Density = 1.993323 g / cm^3
# Si number density = 19.978706 Si / 1000 Ang^3
#
#
#
# Elastic Constant Matrix: (Units=GPa)
#
#
# Indices 1 2 3 4 5 6 
#
# 1 155.8397 27.0437 56.9047 0.0000 0.0000 0.0000
# 2 27.0437 39.9338 19.0302 0.0000 0.0000 0.0000
# 3 56.9047 19.0302 126.1755 0.0000 0.0000 0.0000
# 4 0.0000 0.0000 0.0000 2.5005 0.0000 0.0000
# 5 0.0000 0.0000 0.0000 0.0000 36.7604 0.0000
# 6 0.0000 0.0000 0.0000 0.0000 0.0000 18.8010
#
#
#
# Elastic Compliance Matrix: (Units=1/GPa)
#
#
# Indices 1 2 3 4 5 6 
#
# 1 0.008266 -0.004117 -0.003107 0.000000 0.000000 0.000000
# 2 -0.004117 0.029031 -0.002522 0.000000 0.000000 0.000000
# 3 -0.003107 -0.002522 0.009707 0.000000 0.000000 0.000000
# 4 0.000000 0.000000 0.000000 0.399920 0.000000 0.000000
# 5 0.000000 0.000000 0.000000 0.000000 0.027203 0.000000
# 6 0.000000 0.000000 0.000000 0.000000 0.000000 0.053189
#
#
# Mechanical properties :
#
#
# Convention : Reuss Voigt Hill
#
# Bulk Modulus (GPa) = 36.34707 58.65627 47.50167
# Shear Modulus (GPa) = 8.99316 26.21040 17.60178
#
# Velocity S-wave (km/s) = 2.12395 3.62597 2.97143
# Velocity P-wave (km/s) = 4.92415 6.85225 5.96660
#
# Compressibility (1/GPa) = 0.02751254
#
# Stress axis : x y z
#
# Youngs Moduli (GPa) = 120.98042 34.44549 103.01835
#
# Poissons Ratio (x) = 0.14182 0.32007
# Poissons Ratio (y) = 0.49809 0.25979
# Poissons Ratio (z) = 0.37587 0.08686
#
# Static dielectric constant tensor:
#      x y z
#    x 3.910520 0.000000 0.000000 
#    y 0.000000 3.278970 0.000000 
#    z 0.000000 0.000000 3.697460 
# 
# 
# High freq. dielectric constant tensor:
#      x y z
#    x 1.795510 0.000000 0.000000 
#    y 0.000000 1.742640 0.000000 
#    z 0.000000 0.000000 1.785750 
# 
# From -- ./inp_files/19625.got.cif
#   From: 2010.03.12/outbox.cif.g09.slc.cpg/sg51_10_cif.got.tgz:19625.got - 2010.04.16 13:43:02.
