data_PCOD8212851
_publ_section_title
;
Structure prediction by ZEFSAII (Michael W. Deem and Ramdas Pophale) SiO2 
 PCOD8212851
Probable space group: P M M A
;
_chemical_formula_sum "Si O2"
_cell_formula_units_Z 52
_cell_length_a 20.761541
_cell_length_b 23.199279
_cell_length_c 5.284451
_cell_angle_alpha 90.000000
_cell_angle_beta 90.000000
_cell_angle_gamma 90.000000
_cell_volume 2545.270526
_symmetry_space_group_name_H-M "P M M A"
_symmetry_group_IT_number 51
_symmetry_cell_setting 'orthorhombic'
loop_
_space_group_symop_operation_xyz
x,y,z
1/2-x,-y,z
1/2+x,-y,-z
-x,y,-z
-x,-y,-z
1/2+x,y,-z
1/2-x,y,z
x,-y,z
loop_
_atom_site_type_symbol
_atom_site_label
_atom_site_fract_x
_atom_site_fract_y
_atom_site_fract_z
Si Si1 0.500000 0.848223 0.000000
Si Si2 0.826695 0.371061 0.581900
Si Si3 0.826784 0.434720 0.082605
Si Si4 0.175311 0.759210 0.394982
Si Si5 0.323544 0.935001 0.716133
Si Si6 0.870030 0.179633 0.104593
Si Si7 0.436463 0.937552 0.333275
O O1 0.552130 0.813605 0.168861
O O2 0.446242 0.886626 0.138288
O O3 0.750000 0.372714 0.577599
O O4 0.853809 0.402585 0.331580
O O5 0.851821 0.305539 0.582388
O O6 0.853209 0.403019 0.831850
O O7 0.750000 0.433897 0.083198
O O8 0.852675 0.500000 0.083311
O O9 0.250000 0.758688 0.326036
O O10 0.166059 0.790409 0.663322
O O11 0.139791 0.790002 0.163968
O O12 0.250000 0.927200 0.622743
O O13 0.342488 0.886296 0.920720
O O14 0.371303 0.924285 0.482891
O O15 0.333302 0.000000 0.827865
O O16 0.500000 0.938273 0.500000
O O17 0.430333 0.000000 0.197305
#
# Coordination Sequence:
#
# PCOD8212851 Si02
#       7
#     4   8   8   8   8   8   8
#     4  12  25  38  60  84 112 144 193 242 298 358
#     4   9  17  29  46  70 105 148 191 228 270 330
#     4   9  15  24  42  71 107 148 190 228 267 319
#     4  11  23  40  60  83 113 155 199 239 287 348
#     4  10  21  39  62  89 118 147 186 244 309 363
#     4  12  25  40  62  84 112 150 194 246 297 356
#     4  10  20  38  63  86 112 148 185 227 287 373
#
# _framework density 20.430047999999999
#
# number of rings (size 3 to 8) (size 9 to 14) (size 15 to 20)
#    0.000    1.692    1.538    3.923    0.000    4.923 
#    0.000    2.308    0.000    8.308    0.000    0.000 
#    0.000    0.000    0.000   48.462    0.000   21.538 
#
# Total GULP energy -644436.725865 kJ/mol
# GULP energy per Si atom -12393.013959 kJ/mol
# Density = 2.038355 g / cm^3
# Si number density = 20.430048 Si / 1000 Ang^3
#
#
#
# Elastic Constant Matrix: (Units=GPa)
#
#
# Indices 1 2 3 4 5 6 
#
# 1 101.6493 22.0420 15.7969 0.0000 0.0000 0.0000
# 2 22.0420 147.9866 55.5262 0.0000 0.0000 0.0000
# 3 15.7969 55.5262 118.1056 0.0000 0.0000 0.0000
# 4 0.0000 0.0000 0.0000 47.2186 0.0000 0.0000
# 5 0.0000 0.0000 0.0000 0.0000 25.1903 0.0000
# 6 0.0000 0.0000 0.0000 0.0000 0.0000 -0.7845
#
#
#
# Elastic Compliance Matrix: (Units=1/GPa)
#
#
# Indices 1 2 3 4 5 6 
#
# 1 0.010227 -0.001226 -0.000791 0.000000 0.000000 0.000000
# 2 -0.001226 0.008352 -0.003762 0.000000 0.000000 0.000000
# 3 -0.000791 -0.003762 0.010342 0.000000 0.000000 0.000000
# 4 0.000000 0.000000 0.000000 0.021178 0.000000 0.000000
# 5 0.000000 0.000000 0.000000 0.000000 0.039698 0.000000
# 6 0.000000 0.000000 0.000000 0.000000 0.000000 -1.274693
#
#
# Mechanical properties :
#
#
# Convention : Reuss Voigt Hill
#
# Bulk Modulus (GPa) = 57.60383 61.60794 59.60589
# Shear Modulus (GPa) = -4.28247 32.61664 14.16708
#
# Velocity S-wave (km/s) = -1.44938 3.99996 2.63619
# Velocity P-wave (km/s) = 5.04538 7.18011 6.20523
#
# Compressibility (1/GPa) = 0.01735996
#
# Stress axis : x y z
#
# Youngs Moduli (GPa) = 97.78384 119.73556 96.69569
#
# Poissons Ratio (x) = 0.14683 0.07652
# Poissons Ratio (y) = 0.11991 0.36381
# Poissons Ratio (z) = 0.07738 0.45050
#
# Static dielectric constant tensor:
#      x y z
#    x 3.468590 0.000000 0.000000 
#    y 0.000000 4.018360 0.000000 
#    z 0.000000 0.000000 3.719450 
# 
# 
# High freq. dielectric constant tensor:
#      x y z
#    x 1.765020 0.000000 0.000000 
#    y 0.000000 1.800890 0.000000 
#    z 0.000000 0.000000 1.799080 
# 
# From -- ./inp_files/2594.got.cif
#   From: 2010.03.12/outbox.cif.g09.slc.cpg/sg51_2_cif.got.tgz:2594.got - 2010.04.16 13:43:02.
