data_PCOD8212938
_publ_section_title
;
Structure prediction by ZEFSAII (Michael W. Deem and Ramdas Pophale) SiO2 
 PCOD8212938
Probable space group: P M M A
;
_chemical_formula_sum "Si O2"
_cell_formula_units_Z 56
_cell_length_a 9.579584
_cell_length_b 14.480489
_cell_length_c 23.310966
_cell_angle_alpha 90.000000
_cell_angle_beta 90.000000
_cell_angle_gamma 90.000000
_cell_volume 3233.628686
_symmetry_space_group_name_H-M "P M M A"
_symmetry_group_IT_number 51
_symmetry_cell_setting 'orthorhombic'
loop_
_space_group_symop_operation_xyz
x,y,z
1/2-x,-y,z
1/2+x,-y,-z
-x,y,-z
-x,-y,-z
1/2+x,y,-z
1/2-x,y,z
x,-y,z
loop_
_atom_site_type_symbol
_atom_site_label
_atom_site_fract_x
_atom_site_fract_y
_atom_site_fract_z
Si Si1 0.089781 0.393041 0.834371
Si Si2 0.587579 0.893427 0.555933
Si Si3 0.089403 0.892682 0.225918
Si Si4 0.912410 0.603966 0.724023
Si Si5 0.410598 0.282359 0.945883
Si Si6 0.590239 0.896470 0.117471
Si Si7 0.913312 0.215104 0.664922
O O1 0.250000 0.368992 0.819723
O O2 0.070102 0.500000 0.848959
O O3 0.037990 0.336836 0.889658
O O4 0.997170 0.364583 0.779939
O O5 0.500000 0.868023 0.500000
O O6 0.750000 0.873737 0.543109
O O7 0.525786 0.827247 0.606127
O O8 0.565114 0.000000 0.574078
O O9 0.250000 0.866157 0.214429
O O10 0.025421 0.837918 0.279901
O O11 0.003409 0.863080 0.170234
O O12 0.071503 0.000000 0.239522
O O13 0.750000 0.609672 0.740484
O O14 0.953762 0.500000 0.704367
O O15 0.946133 0.675241 0.672012
O O16 0.250000 0.305661 0.959097
O O17 0.433775 0.172934 0.935437
O O18 0.500000 0.315117 0.000000
O O19 0.750000 0.891935 0.138363
O O20 0.549539 0.000000 0.097324
O O21 0.750000 0.194462 0.663199
#
# Coordination Sequence:
#
# PCOD8212938 Si02
#       7
#     8   8   8   8   8   8   8
#     4   9  18  33  50  67  90 117 141 172 221 272
#     4   9  17  30  47  66  91 124 158 189 221 257
#     4   9  16  26  43  67  89 110 141 177 213 260
#     4   9  17  29  47  71  93 114 145 181 215 258
#     4  10  21  34  47  64  85 111 145 181 216 258
#     4   9  18  32  46  61  86 116 141 172 218 264
#     4   9  16  27  45  67  92 120 147 180 222 261
#
# _framework density 17.318004999999999
#
# number of rings (size 3 to 8) (size 9 to 14) (size 15 to 20)
#    0.000    2.857    0.000    1.286    0.000    3.429 
#    0.000    1.429    0.000    3.857    0.000    0.000 
#    0.000    0.000    0.000    0.000    0.000    0.000 
#
# Total GULP energy -694277.547191 kJ/mol
# GULP energy per Si atom -12397.813343 kJ/mol
# Density = 1.727859 g / cm^3
# Si number density = 17.318005 Si / 1000 Ang^3
#
#
#
# Elastic Constant Matrix: (Units=GPa)
#
#
# Indices 1 2 3 4 5 6 
#
# 1 46.3423 26.6798 42.9177 0.0000 0.0000 0.0000
# 2 26.6798 80.4059 56.1982 0.0000 0.0000 0.0000
# 3 42.9177 56.1982 102.8503 0.0000 0.0000 0.0000
# 4 0.0000 0.0000 0.0000 26.0113 0.0000 0.0000
# 5 0.0000 0.0000 0.0000 0.0000 26.8126 0.0000
# 6 0.0000 0.0000 0.0000 0.0000 0.0000 17.4369
#
#
#
# Elastic Compliance Matrix: (Units=1/GPa)
#
#
# Indices 1 2 3 4 5 6 
#
# 1 0.035431 -0.002302 -0.013527 0.000000 0.000000 0.000000
# 2 -0.002302 0.020271 -0.010115 0.000000 0.000000 0.000000
# 3 -0.013527 -0.010115 0.020895 0.000000 0.000000 0.000000
# 4 0.000000 0.000000 0.000000 0.038445 0.000000 0.000000
# 5 0.000000 0.000000 0.000000 0.000000 0.037296 0.000000
# 6 0.000000 0.000000 0.000000 0.000000 0.000000 0.057350
#
#
# Mechanical properties :
#
#
# Convention : Reuss Voigt Hill
#
# Bulk Modulus (GPa) = 40.47354 53.46556 46.96955
# Shear Modulus (GPa) = 18.53142 20.97235 19.75188
#
# Velocity S-wave (km/s) = 3.27474 3.48374 3.38085
# Velocity P-wave (km/s) = 6.14167 6.86453 6.51313
#
# Compressibility (1/GPa) = 0.02470750
#
# Stress axis : x y z
#
# Youngs Moduli (GPa) = 28.22365 49.33199 47.85923
#
# Poissons Ratio (x) = 0.11357 0.64739
# Poissons Ratio (y) = 0.06498 0.48412
# Poissons Ratio (z) = 0.38178 0.49902
#
# Static dielectric constant tensor:
#      x y z
#    x 3.114100 0.000000 0.000000 
#    y 0.000000 3.402590 0.000000 
#    z 0.000000 0.000000 3.092200 
# 
# 
# High freq. dielectric constant tensor:
#      x y z
#    x 1.650830 0.000000 0.000000 
#    y 0.000000 1.677530 0.000000 
#    z 0.000000 0.000000 1.647140 
# 
# From -- ./inp_files/23320.got.cif
#   From: 2010.03.12/outbox.cif.g09.slc.cpg/sg51_12_cif.got.tgz:23320.got - 2010.04.16 13:43:02.
