data_PCOD8212671
_publ_section_title
;
Structure prediction by ZEFSAII (Michael W. Deem and Ramdas Pophale) SiO2 
 PCOD8212671
Probable space group: P M M A
;
_chemical_formula_sum "Si O2"
_cell_formula_units_Z 40
_cell_length_a 9.093169
_cell_length_b 9.919781
_cell_length_c 24.399076
_cell_angle_alpha 90.000000
_cell_angle_beta 90.000000
_cell_angle_gamma 90.000000
_cell_volume 2200.851433
_symmetry_space_group_name_H-M "P M M A"
_symmetry_group_IT_number 51
_symmetry_cell_setting 'orthorhombic'
loop_
_space_group_symop_operation_xyz
x,y,z
1/2-x,-y,z
1/2+x,-y,-z
-x,y,-z
-x,-y,-z
1/2+x,y,-z
1/2-x,y,z
x,-y,z
loop_
_atom_site_type_symbol
_atom_site_label
_atom_site_fract_x
_atom_site_fract_y
_atom_site_fract_z
Si Si1 0.419018 0.000000 0.442189
Si Si2 0.923842 0.154950 0.837382
Si Si3 0.078943 0.269799 0.379527
Si Si4 0.577110 0.500000 0.442373
Si Si5 0.084601 0.160157 0.947242
Si Si6 0.577066 0.651973 0.741584
O O1 0.500000 0.000000 0.500000
O O2 0.459784 0.125343 0.404109
O O3 0.250000 0.000000 0.458384
O O4 0.750000 0.168472 0.845169
O O5 0.985392 0.251755 0.789368
O O6 0.000150 0.206288 0.892759
O O7 0.966194 0.000000 0.823618
O O8 0.250000 0.309353 0.388922
O O9 0.038700 0.275131 0.315500
O O10 0.970957 0.369664 0.409730
O O11 0.750000 0.500000 0.451274
O O12 0.500000 0.500000 0.500000
O O13 0.250000 0.218210 0.946324
O O14 0.087379 0.000000 0.950853
O O15 0.000000 0.219997 0.000000
O O16 0.750000 0.640080 0.748520
O O17 0.509158 0.500000 0.744232
#
# Coordination Sequence:
#
# PCOD8212671 Si02
#       6
#     4   8   8   4   8   8
#     4  10  22  36  56  82 110 140 173 214 267 322
#     4   9  17  28  47  76 104 132 170 212 252 302
#     4  10  20  37  58  82 109 141 178 220 266 318
#     4  12  24  38  58  82 106 138 179 222 267 318
#     4   9  16  27  45  70 102 136 169 209 257 305
#     4   9  17  31  53  77 102 134 173 214 256 303
#
# _framework density 18.174783999999999
#
# number of rings (size 3 to 8) (size 9 to 14) (size 15 to 20)
#    0.000    2.400    1.000    2.100    1.400    4.800 
#    0.000    1.000    0.000    0.600    0.000    0.000 
#    0.000    0.000    0.000    0.000    0.000    0.000 
#
# Total GULP energy -495924.704250 kJ/mol
# GULP energy per Si atom -12398.117606 kJ/mol
# Density = 1.813342 g / cm^3
# Si number density = 18.174784 Si / 1000 Ang^3
#
#
#
# Elastic Constant Matrix: (Units=GPa)
#
#
# Indices 1 2 3 4 5 6 
#
# 1 77.8079 40.7324 60.2136 0.0000 0.0000 0.0000
# 2 40.7324 116.1779 81.5637 0.0000 0.0000 0.0000
# 3 60.2136 81.5637 190.6935 0.0000 0.0000 0.0000
# 4 0.0000 0.0000 0.0000 26.7632 0.0000 0.0000
# 5 0.0000 0.0000 0.0000 0.0000 29.7591 0.0000
# 6 0.0000 0.0000 0.0000 0.0000 0.0000 19.9669
#
#
#
# Elastic Compliance Matrix: (Units=1/GPa)
#
#
# Indices 1 2 3 4 5 6 
#
# 1 0.017846 -0.003288 -0.004229 0.000000 0.000000 0.000000
# 2 -0.003288 0.012907 -0.004482 0.000000 0.000000 0.000000
# 3 -0.004229 -0.004482 0.008497 0.000000 0.000000 0.000000
# 4 0.000000 0.000000 0.000000 0.037365 0.000000 0.000000
# 5 0.000000 0.000000 0.000000 0.000000 0.033603 0.000000
# 6 0.000000 0.000000 0.000000 0.000000 0.000000 0.050083
#
#
# Mechanical properties :
#
#
# Convention : Reuss Voigt Hill
#
# Bulk Modulus (GPa) = 65.56824 83.29982 74.43403
# Shear Modulus (GPa) = 26.40156 28.77580 27.58868
#
# Velocity S-wave (km/s) = 3.81550 3.98336 3.90033
# Velocity P-wave (km/s) = 7.45423 8.19075 7.83115
#
# Compressibility (1/GPa) = 0.01525129
#
# Stress axis : x y z
#
# Youngs Moduli (GPa) = 56.03519 77.47586 117.69533
#
# Poissons Ratio (x) = 0.25475 0.49769
# Poissons Ratio (y) = 0.18425 0.52757
# Poissons Ratio (z) = 0.23695 0.34728
#
# Static dielectric constant tensor:
#      x y z
#    x 3.186590 0.000000 0.000000 
#    y 0.000000 3.216410 0.000000 
#    z 0.000000 0.000000 3.833190 
# 
# 
# High freq. dielectric constant tensor:
#      x y z
#    x 1.680560 0.000000 0.000000 
#    y 0.000000 1.686350 0.000000 
#    z 0.000000 0.000000 1.720240 
# 
# From -- ./inp_files/36002.got.cif
#   From: 2010.03.12/outbox.cif.g09.slc.cpg/sg51_19_cif.got.tgz:36002.got - 2010.04.16 13:43:02.
