data_PCOD8212007
_publ_section_title
;
Structure prediction by ZEFSAII (Michael W. Deem and Ramdas Pophale) SiO2 
 PCOD8212007
Probable space group: P M M A
;
_chemical_formula_sum "Si O2"
_cell_formula_units_Z 48
_cell_length_a 8.465700
_cell_length_b 29.406194
_cell_length_c 10.135000
_cell_angle_alpha 90.000000
_cell_angle_beta 90.000000
_cell_angle_gamma 90.000000
_cell_volume 2523.047608
_symmetry_space_group_name_H-M "P M M A"
_symmetry_group_IT_number 51
_symmetry_cell_setting 'orthorhombic'
loop_
_space_group_symop_operation_xyz
x,y,z
1/2-x,-y,z
1/2+x,-y,-z
-x,y,-z
-x,-y,-z
1/2+x,y,-z
1/2-x,y,z
x,-y,z
loop_
_atom_site_type_symbol
_atom_site_label
_atom_site_fract_x
_atom_site_fract_y
_atom_site_fract_z
Si Si1 0.564672 0.718519 0.141508
Si Si2 0.567149 0.946673 0.859463
Si Si3 0.937094 0.448790 0.639618
Si Si4 0.935053 0.115773 0.361286
Si Si5 0.064196 0.786008 0.356407
Si Si6 0.063302 0.620532 0.142575
O O1 0.750000 0.712517 0.129411
O O2 0.522774 0.755775 0.249048
O O3 0.491834 0.670518 0.185026
O O4 0.500000 0.734638 0.000000
O O5 0.750000 0.932936 0.849162
O O6 0.466186 0.921925 0.748209
O O7 0.541641 0.000000 0.839117
O O8 0.500000 0.930857 0.000000
O O9 0.750000 0.447580 0.637253
O O10 0.999158 0.500000 0.666674
O O11 0.004332 0.415790 0.752880
O O12 0.000000 0.430679 0.500000
O O13 0.750000 0.126275 0.373308
O O14 0.000000 0.096699 0.500000
O O15 0.026086 0.161777 0.323554
O O16 0.250000 0.777446 0.349819
O O17 0.000000 0.772410 0.500000
O O18 0.250000 0.619728 0.139183
O O19 0.000000 0.606406 0.000000
#
# Coordination Sequence:
#
# PCOD8212007 Si02
#       6
#     8   8   8   8   8   8
#     4  11  22  38  58  82 111 144 183 226 274 325
#     4  10  21  38  59  84 114 148 187 231 278 328
#     4   9  19  35  54  77 106 139 177 221 267 318
#     4  11  22  38  59  84 114 148 186 228 276 327
#     4  11  22  39  60  84 113 145 183 226 274 326
#     4  10  20  35  54  78 108 141 179 222 269 321
#
# _framework density 19.024611
#
# number of rings (size 3 to 8) (size 9 to 14) (size 15 to 20)
#    0.000    1.667    0.000    7.500    0.000    4.333 
#    0.000    5.000    0.000    0.000    0.000    0.000 
#    0.000    0.000    0.000    0.000    0.000    0.000 
#
# Total GULP energy -595409.708433 kJ/mol
# GULP energy per Si atom -12404.368926 kJ/mol
# Density = 1.898131 g / cm^3
# Si number density = 19.024611 Si / 1000 Ang^3
#
#
#
# Elastic Constant Matrix: (Units=GPa)
#
#
# Indices 1 2 3 4 5 6 
#
# 1 66.0224 9.7377 20.0492 0.0000 0.0000 0.0000
# 2 9.7377 72.5581 74.2337 0.0000 0.0000 0.0000
# 3 20.0492 74.2337 136.8579 0.0000 0.0000 0.0000
# 4 0.0000 0.0000 0.0000 25.1452 0.0000 0.0000
# 5 0.0000 0.0000 0.0000 0.0000 35.0743 0.0000
# 6 0.0000 0.0000 0.0000 0.0000 0.0000 99.4150
#
#
#
# Elastic Compliance Matrix: (Units=1/GPa)
#
#
# Indices 1 2 3 4 5 6 
#
# 1 0.015862 0.000559 -0.002627 0.000000 0.000000 0.000000
# 2 0.000559 0.030986 -0.016889 0.000000 0.000000 0.000000
# 3 -0.002627 -0.016889 0.016853 0.000000 0.000000 0.000000
# 4 0.000000 0.000000 0.000000 0.039769 0.000000 0.000000
# 5 0.000000 0.000000 0.000000 0.000000 0.028511 0.000000
# 6 0.000000 0.000000 0.000000 0.000000 0.000000 0.010059
#
#
# Mechanical properties :
#
#
# Convention : Reuss Voigt Hill
#
# Bulk Modulus (GPa) = 38.78083 53.71996 46.25039
# Shear Modulus (GPa) = 26.51823 43.35474 34.93649
#
# Velocity S-wave (km/s) = 3.73754 4.77894 4.28995
# Velocity P-wave (km/s) = 6.24935 7.66481 6.99299
#
# Compressibility (1/GPa) = 0.02578594
#
# Stress axis : x y z
#
# Youngs Moduli (GPa) = 63.04524 32.27223 59.33786
#
# Poissons Ratio (x) = -0.01803 0.15586
# Poissons Ratio (y) = -0.03522 1.00217
# Poissons Ratio (z) = 0.16560 0.54506
#
# Static dielectric constant tensor:
#      x y z
#    x 3.570930 0.000000 0.000000 
#    y 0.000000 3.517630 0.000000 
#    z 0.000000 0.000000 3.574990 
# 
# 
# High freq. dielectric constant tensor:
#      x y z
#    x 1.755360 0.000000 0.000000 
#    y 0.000000 1.737180 0.000000 
#    z 0.000000 0.000000 1.748030 
# 
# From -- ./inp_files/6032.got.cif
#   From: 2010.03.12/outbox.cif.g09.slc.cpg/sg51_4_cif.got.tgz:6032.got - 2010.04.16 13:43:02.
