data_PCOD8212920
_publ_section_title
;
Structure prediction by ZEFSAII (Michael W. Deem and Ramdas Pophale) SiO2 
 PCOD8212920
Probable space group: P M M A
;
_chemical_formula_sum "Si O2"
_cell_formula_units_Z 48
_cell_length_a 17.714942
_cell_length_b 10.257157
_cell_length_c 14.905053
_cell_angle_alpha 90.000000
_cell_angle_beta 90.000000
_cell_angle_gamma 90.000000
_cell_volume 2708.321781
_symmetry_space_group_name_H-M "P M M A"
_symmetry_group_IT_number 51
_symmetry_cell_setting 'orthorhombic'
loop_
_space_group_symop_operation_xyz
x,y,z
1/2-x,-y,z
1/2+x,-y,-z
-x,y,-z
-x,-y,-z
1/2+x,y,-z
1/2-x,y,z
x,-y,z
loop_
_atom_site_type_symbol
_atom_site_label
_atom_site_fract_x
_atom_site_fract_y
_atom_site_fract_z
Si Si1 0.092810 0.652665 0.415210
Si Si2 0.424239 0.652100 0.616881
Si Si3 0.164209 0.346345 0.787525
Si Si4 0.662259 0.859029 0.705871
Si Si5 0.913983 0.650435 0.027722
Si Si6 0.161005 0.856202 0.096677
O O1 0.103537 0.500000 0.393042
O O2 0.111776 0.679383 0.519586
O O3 0.150403 0.739401 0.360389
O O4 0.010028 0.703921 0.386142
O O5 0.429654 0.500000 0.634797
O O6 0.374006 0.714911 0.697010
O O7 0.250000 0.289780 0.800339
O O8 0.171216 0.500000 0.776314
O O9 0.107877 0.312435 0.869805
O O10 0.750000 0.874189 0.719985
O O11 0.627058 0.829622 0.803981
O O12 0.630801 0.000000 0.670160
O O13 0.893143 0.500000 0.009227
O O14 0.863819 0.740945 0.966818
O O15 0.000000 0.677964 0.000000
O O16 0.250000 0.853206 0.098150
O O17 0.133452 0.000000 0.063462
#
# Coordination Sequence:
#
# PCOD8212920 Si02
#       6
#     8   8   8   8   8   8
#     4   9  17  30  51  76 101 128 166 213 251 290
#     4   8  16  30  47  72 103 133 163 203 253 299
#     4   9  17  30  48  70 101 138 167 197 250 314
#     4   9  19  34  50  71 101 135 167 203 253 306
#     4  10  21  33  50  79 105 129 168 217 260 300
#     4   9  19  36  54  71  98 137 173 206 252 308
#
# _framework density 17.723151999999999
#
# number of rings (size 3 to 8) (size 9 to 14) (size 15 to 20)
#    0.000    3.000    0.000    2.500    2.333    3.000 
#    0.000    5.000    0.000    1.000    0.000    2.333 
#    0.000    0.000    0.000    0.000    0.000    0.000 
#
# Total GULP energy -594636.312254 kJ/mol
# GULP energy per Si atom -12388.256505 kJ/mol
# Density = 1.768281 g / cm^3
# Si number density = 17.723152 Si / 1000 Ang^3
#
#
#
# Elastic Constant Matrix: (Units=GPa)
#
#
# Indices 1 2 3 4 5 6 
#
# 1 66.0942 20.4501 53.8582 0.0000 0.0000 0.0000
# 2 20.4501 66.1372 53.9359 0.0000 0.0000 0.0000
# 3 53.8582 53.9359 130.4229 0.0000 0.0000 0.0000
# 4 0.0000 0.0000 0.0000 -12.0422 0.0000 0.0000
# 5 0.0000 0.0000 0.0000 0.0000 34.4212 0.0000
# 6 0.0000 0.0000 0.0000 0.0000 0.0000 14.7830
#
#
#
# Elastic Compliance Matrix: (Units=1/GPa)
#
#
# Indices 1 2 3 4 5 6 
#
# 1 0.022843 0.000950 -0.009826 0.000000 0.000000 0.000000
# 2 0.000950 0.022854 -0.009843 0.000000 0.000000 0.000000
# 3 -0.009826 -0.009843 0.015796 0.000000 0.000000 0.000000
# 4 0.000000 0.000000 0.000000 -0.083041 0.000000 0.000000
# 5 0.000000 0.000000 0.000000 0.000000 0.029052 0.000000
# 6 0.000000 0.000000 0.000000 0.000000 0.000000 0.067645
#
#
# Mechanical properties :
#
#
# Convention : Reuss Voigt Hill
#
# Bulk Modulus (GPa) = 41.57364 57.68251 49.62808
# Shear Modulus (GPa) = 41.45805 16.39309 28.92557
#
# Velocity S-wave (km/s) = 4.84178 3.04460 4.04428
# Velocity P-wave (km/s) = 7.40036 6.70646 7.06193
#
# Compressibility (1/GPa) = 0.02405370
#
# Stress axis : x y z
#
# Youngs Moduli (GPa) = 43.77766 43.75647 63.30876
#
# Poissons Ratio (x) = -0.04157 0.62206
# Poissons Ratio (y) = -0.04159 0.62317
# Poissons Ratio (z) = 0.43015 0.43071
#
# Static dielectric constant tensor:
#      x y z
#    x 3.557300 0.000000 0.000000 
#    y 0.000000 3.030920 0.000000 
#    z 0.000000 0.000000 3.594090 
# 
# 
# High freq. dielectric constant tensor:
#      x y z
#    x 1.675250 0.000000 0.000000 
#    y 0.000000 1.652850 0.000000 
#    z 0.000000 0.000000 1.692850 
# 
# From -- ./inp_files/25459.got.cif
#   From: 2010.03.12/outbox.cif.g09.slc.cpg/sg51_13_cif.got.tgz:25459.got - 2010.04.16 13:43:02.
