data_PCOD8212240
_publ_section_title
;
Structure prediction by ZEFSAII (Michael W. Deem and Ramdas Pophale) SiO2 
 PCOD8212240
Probable space group: P M M A
;
_chemical_formula_sum "Si O2"
_cell_formula_units_Z 48
_cell_length_a 9.105199
_cell_length_b 7.811962
_cell_length_c 33.787491
_cell_angle_alpha 90.000000
_cell_angle_beta 90.000000
_cell_angle_gamma 90.000000
_cell_volume 2403.286280
_symmetry_space_group_name_H-M "P M M A"
_symmetry_group_IT_number 51
_symmetry_cell_setting 'orthorhombic'
loop_
_space_group_symop_operation_xyz
x,y,z
1/2-x,-y,z
1/2+x,-y,-z
-x,y,-z
-x,-y,-z
1/2+x,y,-z
1/2-x,y,z
x,-y,z
loop_
_atom_site_type_symbol
_atom_site_label
_atom_site_fract_x
_atom_site_fract_y
_atom_site_fract_z
Si Si1 0.420568 0.199744 0.673306
Si Si2 0.081745 0.809484 0.096505
Si Si3 0.576739 0.500000 0.958167
Si Si4 0.415779 0.694663 0.829283
Si Si5 0.919294 0.798721 0.752442
Si Si6 0.077355 0.000000 0.458261
Si Si7 0.081817 0.308404 0.402888
O O1 0.250000 0.242219 0.678276
O O2 0.503213 0.264778 0.712415
O O3 0.483325 0.301162 0.636104
O O4 0.449882 0.000000 0.666259
O O5 0.250000 0.768475 0.107704
O O6 0.024311 0.669800 0.065181
O O7 0.989515 0.807606 0.136755
O O8 0.066123 0.000000 0.077951
O O9 0.750000 0.500000 0.964866
O O10 0.500000 0.500000 0.000000
O O11 0.250000 0.760567 0.822219
O O12 0.417302 0.500000 0.844077
O O13 0.505000 0.705369 0.788843
O O14 0.750000 0.744480 0.750570
O O15 0.939416 0.000000 0.758132
O O16 0.026240 0.830010 0.434801
O O17 0.000000 0.000000 0.500000
O O18 0.250000 0.000000 0.465507
O O19 0.250000 0.267191 0.391156
O O20 0.067297 0.500000 0.420915
#
# Coordination Sequence:
#
# PCOD8212240 Si02
#       7
#     8   8   4   8   8   4   8
#     4  10  20  35  57  84 116 154 196 244 298 349
#     4  10  21  39  63  88 116 156 200 240 292 355
#     4  10  22  40  62  90 124 156 194 246 294 352
#     4  11  23  37  55  82 117 155 197 246 299 350
#     4  10  21  36  56  82 113 154 201 246 293 349
#     4  10  22  40  62  88 120 154 194 244 294 354
#     4  10  21  38  61  87 116 155 198 239 290 352
#
# _framework density 19.972650000000002
#
# number of rings (size 3 to 8) (size 9 to 14) (size 15 to 20)
#    0.000    1.833    1.667    2.000    0.000    8.000 
#    0.000    0.000    0.000    0.000    0.000    0.000 
#    0.000    0.000    0.000    0.000    0.000    0.000 
#
# Total GULP energy -595397.556225 kJ/mol
# GULP energy per Si atom -12404.115755 kJ/mol
# Density = 1.992719 g / cm^3
# Si number density = 19.972650 Si / 1000 Ang^3
#
#
#
# Elastic Constant Matrix: (Units=GPa)
#
#
# Indices 1 2 3 4 5 6 
#
# 1 100.9911 38.7342 58.7024 0.0000 0.0000 0.0000
# 2 38.7342 113.6863 59.5169 0.0000 0.0000 0.0000
# 3 58.7024 59.5169 146.5581 0.0000 0.0000 0.0000
# 4 0.0000 0.0000 0.0000 26.1455 0.0000 0.0000
# 5 0.0000 0.0000 0.0000 0.0000 42.5330 0.0000
# 6 0.0000 0.0000 0.0000 0.0000 0.0000 18.2589
#
#
#
# Elastic Compliance Matrix: (Units=1/GPa)
#
#
# Indices 1 2 3 4 5 6 
#
# 1 0.013333 -0.002219 -0.004440 0.000000 0.000000 0.000000
# 2 -0.002219 0.011540 -0.003798 0.000000 0.000000 0.000000
# 3 -0.004440 -0.003798 0.010144 0.000000 0.000000 0.000000
# 4 0.000000 0.000000 0.000000 0.038248 0.000000 0.000000
# 5 0.000000 0.000000 0.000000 0.000000 0.023511 0.000000
# 6 0.000000 0.000000 0.000000 0.000000 0.000000 0.054768
#
#
# Mechanical properties :
#
#
# Convention : Reuss Voigt Hill
#
# Bulk Modulus (GPa) = 70.89519 75.01585 72.95552
# Shear Modulus (GPa) = 28.22345 31.00628 29.61487
#
# Velocity S-wave (km/s) = 3.76321 3.94437 3.85485
# Velocity P-wave (km/s) = 7.37940 7.64100 7.51134
#
# Compressibility (1/GPa) = 0.01410533
#
# Stress axis : x y z
#
# Youngs Moduli (GPa) = 74.99992 86.65300 98.58299
#
# Poissons Ratio (x) = 0.19225 0.43766
# Poissons Ratio (y) = 0.16640 0.37440
# Poissons Ratio (z) = 0.33297 0.32909
#
# Static dielectric constant tensor:
#      x y z
#    x 3.597560 0.000000 0.000000 
#    y 0.000000 3.731480 0.000000 
#    z 0.000000 0.000000 3.452790 
# 
# 
# High freq. dielectric constant tensor:
#      x y z
#    x 1.780320 0.000000 0.000000 
#    y 0.000000 1.786570 0.000000 
#    z 0.000000 0.000000 1.768970 
# 
# From -- ./inp_files/37150.got.cif
#   From: 2010.03.12/outbox.cif.g09.slc.cpg/sg51_19_cif.got.tgz:37150.got - 2010.04.16 13:43:02.
