data_PCOD8212017
_publ_section_title
;
Structure prediction by ZEFSAII (Michael W. Deem and Ramdas Pophale) SiO2 
 PCOD8212017
Probable space group: P M M A
;
_chemical_formula_sum "Si O2"
_cell_formula_units_Z 64
_cell_length_a 17.644327
_cell_length_b 14.474863
_cell_length_c 12.423800
_cell_angle_alpha 90.000000
_cell_angle_beta 90.000000
_cell_angle_gamma 90.000000
_cell_volume 3173.028780
_symmetry_space_group_name_H-M "P M M A"
_symmetry_group_IT_number 51
_symmetry_cell_setting 'orthorhombic'
loop_
_space_group_symop_operation_xyz
x,y,z
1/2-x,-y,z
1/2+x,-y,-z
-x,y,-z
-x,-y,-z
1/2+x,y,-z
1/2-x,y,z
x,-y,z
loop_
_atom_site_type_symbol
_atom_site_label
_atom_site_fract_x
_atom_site_fract_y
_atom_site_fract_z
Si Si1 0.448170 0.398383 0.590373
Si Si2 0.435305 0.212562 0.842975
Si Si3 0.335298 0.784681 0.400155
Si Si4 0.514526 0.397996 0.821540
Si Si5 0.836862 0.894789 0.991563
Si Si6 0.581965 0.894538 0.776432
Si Si7 0.165240 0.604737 0.274385
Si Si8 0.337368 0.248599 0.639028
O O1 0.500000 0.346835 0.500000
O O2 0.427078 0.500000 0.548579
O O3 0.499398 0.401198 0.695336
O O4 0.368769 0.350440 0.616550
O O5 0.463039 0.317193 0.873665
O O6 0.388634 0.176778 0.944184
O O7 0.506760 0.148204 0.825980
O O8 0.384362 0.203391 0.735895
O O9 0.250000 0.814818 0.369260
O O10 0.394822 0.843957 0.332865
O O11 0.347023 0.675727 0.373699
O O12 0.348375 0.806437 0.526737
O O13 0.496519 0.500000 0.873400
O O14 0.605225 0.375749 0.823524
O O15 0.750000 0.870130 0.014558
O O16 0.855195 0.000000 0.027950
O O17 0.851880 0.883968 0.864585
O O18 0.565678 0.000000 0.747268
O O19 0.250000 0.617577 0.225993
O O20 0.154128 0.500000 0.318126
O O21 0.250000 0.254593 0.673496
#
# Coordination Sequence:
#
# PCOD8212017 Si02
#       8
#     8   8   8   8   8   8   8   8
#     4   9  17  28  47  74 109 152 199 245 284 324
#     4  11  21  37  61  87 119 153 191 237 289 347
#     4  10  20  35  54  82 119 157 193 236 289 344
#     4   9  17  30  49  79 115 154 194 232 280 337
#     4  10  22  42  68  92 112 138 183 245 303 352
#     4  11  23  40  63  89 111 141 188 246 302 352
#     4   9  16  28  49  78 115 158 203 246 285 332
#     4  10  22  35  52  80 119 161 196 230 280 347
#
# _framework density 20.170002
#
# number of rings (size 3 to 8) (size 9 to 14) (size 15 to 20)
#    0.000    2.125    1.250    2.250    1.750    3.500 
#    0.000    3.125    0.000    4.875    0.000    0.000 
#    0.000    0.000    0.000    0.000    0.000    0.000 
#
# Total GULP energy -793275.654000 kJ/mol
# GULP energy per Si atom -12394.932094 kJ/mol
# Density = 2.012409 g / cm^3
# Si number density = 20.170002 Si / 1000 Ang^3
#
#
#
# Elastic Constant Matrix: (Units=GPa)
#
#
# Indices 1 2 3 4 5 6 
#
# 1 103.2874 43.8256 25.4413 0.0000 0.0000 0.0000
# 2 43.8256 103.0741 26.5283 0.0000 0.0000 0.0000
# 3 25.4413 26.5283 51.5695 0.0000 0.0000 0.0000
# 4 0.0000 0.0000 0.0000 22.7846 0.0000 0.0000
# 5 0.0000 0.0000 0.0000 0.0000 32.4914 0.0000
# 6 0.0000 0.0000 0.0000 0.0000 0.0000 27.2647
#
#
#
# Elastic Compliance Matrix: (Units=1/GPa)
#
#
# Indices 1 2 3 4 5 6 
#
# 1 0.012473 -0.004287 -0.003948 0.000000 0.000000 0.000000
# 2 -0.004287 0.012656 -0.004395 0.000000 0.000000 0.000000
# 3 -0.003948 -0.004395 0.023600 0.000000 0.000000 0.000000
# 4 0.000000 0.000000 0.000000 0.043889 0.000000 0.000000
# 5 0.000000 0.000000 0.000000 0.000000 0.030777 0.000000
# 6 0.000000 0.000000 0.000000 0.000000 0.000000 0.036677
#
#
# Mechanical properties :
#
#
# Convention : Reuss Voigt Hill
#
# Bulk Modulus (GPa) = 42.61155 49.94682 46.27919
# Shear Modulus (GPa) = 25.88561 27.31722 26.60142
#
# Velocity S-wave (km/s) = 3.58630 3.68414 3.63555
# Velocity P-wave (km/s) = 6.19038 6.55087 6.37317
#
# Compressibility (1/GPa) = 0.02346781
#
# Stress axis : x y z
#
# Youngs Moduli (GPa) = 80.17091 79.01446 42.37271
#
# Poissons Ratio (x) = 0.33876 0.16729
# Poissons Ratio (y) = 0.34372 0.18624
# Poissons Ratio (z) = 0.31652 0.34729
#
# Static dielectric constant tensor:
#      x y z
#    x 3.868980 0.000000 0.000000 
#    y 0.000000 3.729310 0.000000 
#    z 0.000000 0.000000 3.416220 
# 
# 
# High freq. dielectric constant tensor:
#      x y z
#    x 1.800410 0.000000 0.000000 
#    y 0.000000 1.777140 0.000000 
#    z 0.000000 0.000000 1.764230 
# 
# From -- ./inp_files/17517.got.cif
#   From: 2010.03.12/outbox.cif.g09.slc.cpg/sg51_9_cif.got.tgz:17517.got - 2010.04.16 13:43:02.
