data_PCOD8212031
_publ_section_title
;
Structure prediction by ZEFSAII (Michael W. Deem and Ramdas Pophale) SiO2 
 PCOD8212031
Probable space group: P M M A
;
_chemical_formula_sum "Si O2"
_cell_formula_units_Z 64
_cell_length_a 18.800426
_cell_length_b 9.377203
_cell_length_c 20.110518
_cell_angle_alpha 90.000000
_cell_angle_beta 90.000000
_cell_angle_gamma 90.000000
_cell_volume 3545.392038
_symmetry_space_group_name_H-M "P M M A"
_symmetry_group_IT_number 51
_symmetry_cell_setting 'orthorhombic'
loop_
_space_group_symop_operation_xyz
x,y,z
1/2-x,-y,z
1/2+x,-y,-z
-x,y,-z
-x,-y,-z
1/2+x,y,-z
1/2-x,y,z
x,-y,z
loop_
_atom_site_type_symbol
_atom_site_label
_atom_site_fract_x
_atom_site_fract_y
_atom_site_fract_z
Si Si1 0.063257 0.666836 0.818238
Si Si2 0.834581 0.158255 0.422117
Si Si3 0.420142 0.166865 0.199960
Si Si4 0.666616 0.164473 0.273206
Si Si5 0.667963 0.835346 0.669949
Si Si6 0.831817 0.166660 0.929127
Si Si7 0.665178 0.339756 0.543813
Si Si8 0.424566 0.334412 0.972590
O O1 0.055510 0.500000 0.803550
O O2 0.128221 0.730117 0.777008
O O3 0.079926 0.696730 0.894867
O O4 0.991502 0.743441 0.796331
O O5 0.750000 0.155319 0.425113
O O6 0.858217 0.204628 0.348095
O O7 0.865713 0.266386 0.477034
O O8 0.863770 0.000000 0.438009
O O9 0.374993 0.206231 0.264644
O O10 0.374841 0.214155 0.136076
O O11 0.438809 0.000000 0.197357
O O12 0.750000 0.189824 0.264462
O O13 0.647120 0.000000 0.257943
O O14 0.750000 0.799655 0.684444
O O15 0.637678 0.743934 0.608578
O O16 0.658200 0.000000 0.650840
O O17 0.750000 0.208247 0.918007
O O18 0.840678 0.000000 0.942892
O O19 0.860970 0.249321 0.992982
O O20 0.750000 0.336674 0.542088
O O21 0.635609 0.500000 0.546589
O O22 0.415200 0.500000 0.989901
O O23 0.500000 0.277969 0.000000
#
# Coordination Sequence:
#
# PCOD8212031 Si02
#       8
#     8   8   8   8   8   8   8   8
#     4  11  23  37  56  79 106 141 179 217 260 315
#     4   8  14  27  48  72  99 133 171 211 258 313
#     4  10  20  35  55  77 105 141 179 218 263 315
#     4   9  19  36  57  81 108 137 173 219 268 318
#     4   9  17  30  49  73 103 139 177 218 263 312
#     4  10  21  36  57  86 112 135 173 225 273 314
#     4   9  16  25  41  70 105 138 173 214 259 307
#     4  10  21  39  57  75 105 143 181 216 257 317
#
# _framework density 18.051601000000002
#
# number of rings (size 3 to 8) (size 9 to 14) (size 15 to 20)
#    0.000    2.500    1.250    1.875    0.000    6.250 
#    0.000    3.750    0.000    3.000    0.000    5.250 
#    0.000    0.000    0.000    0.000    0.000    0.000 
#
# Total GULP energy -793668.386078 kJ/mol
# GULP energy per Si atom -12401.068532 kJ/mol
# Density = 1.801051 g / cm^3
# Si number density = 18.051601 Si / 1000 Ang^3
#
#
#
# Elastic Constant Matrix: (Units=GPa)
#
#
# Indices 1 2 3 4 5 6 
#
# 1 64.5269 41.1768 47.0433 0.0000 0.0000 0.0000
# 2 41.1768 88.9974 75.0542 0.0000 0.0000 0.0000
# 3 47.0433 75.0542 139.6728 0.0000 0.0000 0.0000
# 4 0.0000 0.0000 0.0000 29.9057 0.0000 0.0000
# 5 0.0000 0.0000 0.0000 0.0000 15.0408 0.0000
# 6 0.0000 0.0000 0.0000 0.0000 0.0000 22.8941
#
#
#
# Elastic Compliance Matrix: (Units=1/GPa)
#
#
# Indices 1 2 3 4 5 6 
#
# 1 0.022994 -0.007511 -0.003708 0.000000 0.000000 0.000000
# 2 -0.007511 0.023002 -0.009830 0.000000 0.000000 0.000000
# 3 -0.003708 -0.009830 0.013691 0.000000 0.000000 0.000000
# 4 0.000000 0.000000 0.000000 0.033438 0.000000 0.000000
# 5 0.000000 0.000000 0.000000 0.000000 0.066486 0.000000
# 6 0.000000 0.000000 0.000000 0.000000 0.000000 0.043679
#
#
# Mechanical properties :
#
#
# Convention : Reuss Voigt Hill
#
# Bulk Modulus (GPa) = 56.86057 68.86065 62.86061
# Shear Modulus (GPa) = 19.90022 22.22961 21.06492
#
# Velocity S-wave (km/s) = 3.32385 3.51301 3.41974
# Velocity P-wave (km/s) = 6.80426 7.39489 7.10571
#
# Compressibility (1/GPa) = 0.01758688
#
# Stress axis : x y z
#
# Youngs Moduli (GPa) = 43.48891 43.47486 73.04079
#
# Poissons Ratio (x) = 0.32656 0.27086
# Poissons Ratio (y) = 0.32667 0.71801
# Poissons Ratio (z) = 0.16127 0.42737
#
# Static dielectric constant tensor:
#      x y z
#    x 3.041300 0.000000 0.000000 
#    y 0.000000 3.387200 0.000000 
#    z 0.000000 0.000000 3.501700 
# 
# 
# High freq. dielectric constant tensor:
#      x y z
#    x 1.670000 0.000000 0.000000 
#    y 0.000000 1.697530 0.000000 
#    z 0.000000 0.000000 1.712410 
# 
# From -- ./inp_files/33752.got.cif
#   From: 2010.03.12/outbox.cif.g09.slc.cpg/sg51_17_cif.got.tgz:33752.got - 2010.04.16 13:43:02.
