data_PCOD8212738
_publ_section_title
;
Structure prediction by ZEFSAII (Michael W. Deem and Ramdas Pophale) SiO2 
 PCOD8212738
Probable space group: P M M A
;
_chemical_formula_sum "Si O2"
_cell_formula_units_Z 64
_cell_length_a 23.754075
_cell_length_b 8.869292
_cell_length_c 15.408438
_cell_angle_alpha 90.000000
_cell_angle_beta 90.000000
_cell_angle_gamma 90.000000
_cell_volume 3246.277875
_symmetry_space_group_name_H-M "P M M A"
_symmetry_group_IT_number 51
_symmetry_cell_setting 'orthorhombic'
loop_
_space_group_symop_operation_xyz
x,y,z
1/2-x,-y,z
1/2+x,-y,-z
-x,y,-z
-x,-y,-z
1/2+x,y,-z
1/2-x,y,z
x,-y,z
loop_
_atom_site_type_symbol
_atom_site_label
_atom_site_fract_x
_atom_site_fract_y
_atom_site_fract_z
Si Si1 0.109038 0.328501 0.399431
Si Si2 0.386046 0.177527 0.091099
Si Si3 0.107522 0.325717 0.594464
Si Si4 0.997837 0.674208 0.848565
Si Si5 0.686816 0.320637 0.252453
Si Si6 0.499373 0.823204 0.663343
Si Si7 0.379049 0.674156 0.915664
Si Si8 0.314456 0.674793 0.240072
O O1 0.087502 0.500000 0.386077
O O2 0.131614 0.305669 0.497328
O O3 0.160276 0.292292 0.334996
O O4 0.058105 0.215548 0.381754
O O5 0.448705 0.240571 0.101466
O O6 0.346989 0.227513 0.169848
O O7 0.389154 0.000000 0.089738
O O8 0.359757 0.235715 0.000843
O O9 0.093120 0.500000 0.614883
O O10 0.153877 0.263734 0.662116
O O11 0.050837 0.228662 0.600874
O O12 0.980744 0.500000 0.841311
O O13 0.007085 0.737064 0.753237
O O14 0.054605 0.696633 0.902409
O O15 0.750000 0.254482 0.254450
O O16 0.688070 0.500000 0.251662
O O17 0.655044 0.260530 0.166698
O O18 0.496334 0.000000 0.680513
O O19 0.363917 0.500000 0.929978
O O20 0.250000 0.726617 0.241813
O O21 0.320601 0.500000 0.214943
#
# Coordination Sequence:
#
# PCOD8212738 Si02
#       8
#     8   8   8   8   8   8   8   8
#     4  10  21  37  61  88 119 155 195 244 294 348
#     4  12  25  39  59  90 123 155 193 240 299 356
#     4  10  20  37  60  89 120 156 196 240 294 349
#     4  11  21  38  63  88 118 154 195 241 294 355
#     4   9  18  35  60  88 116 149 196 248 290 334
#     4  12  23  35  57  88 122 158 194 238 295 353
#     4  10  21  38  61  88 118 156 197 238 290 349
#     4  10  22  41  63  86 115 157 206 250 292 344
#
# _framework density 19.714887000000001
#
# number of rings (size 3 to 8) (size 9 to 14) (size 15 to 20)
#    0.000    1.500    2.500    3.375    0.000    5.750 
#    0.000    3.750    0.000    1.125    0.000    1.750 
#    0.000    0.000    0.000    0.000    0.000    0.000 
#
# Total GULP energy -793869.915357 kJ/mol
# GULP energy per Si atom -12404.217427 kJ/mol
# Density = 1.967001 g / cm^3
# Si number density = 19.714887 Si / 1000 Ang^3
#
#
#
# Elastic Constant Matrix: (Units=GPa)
#
#
# Indices 1 2 3 4 5 6 
#
# 1 98.7405 46.7954 33.5351 0.0000 0.0000 0.0000
# 2 46.7954 70.5425 54.9816 0.0000 0.0000 0.0000
# 3 33.5351 54.9816 141.9295 0.0000 0.0000 0.0000
# 4 0.0000 0.0000 0.0000 4.1256 0.0000 0.0000
# 5 0.0000 0.0000 0.0000 0.0000 11.7307 0.0000
# 6 0.0000 0.0000 0.0000 0.0000 0.0000 2.0458
#
#
#
# Elastic Compliance Matrix: (Units=1/GPa)
#
#
# Indices 1 2 3 4 5 6 
#
# 1 0.014790 -0.010153 0.000439 0.000000 0.000000 0.000000
# 2 -0.010153 0.027277 -0.008168 0.000000 0.000000 0.000000
# 3 0.000439 -0.008168 0.010106 0.000000 0.000000 0.000000
# 4 0.000000 0.000000 0.000000 0.242391 0.000000 0.000000
# 5 0.000000 0.000000 0.000000 0.000000 0.085246 0.000000
# 6 0.000000 0.000000 0.000000 0.000000 0.000000 0.488811
#
#
# Mechanical properties :
#
#
# Convention : Reuss Voigt Hill
#
# Bulk Modulus (GPa) = 60.94270 64.64851 62.79560
# Shear Modulus (GPa) = 5.49537 15.30712 10.40124
#
# Velocity S-wave (km/s) = 1.67137 2.78946 2.29941
# Velocity P-wave (km/s) = 5.89099 6.57554 6.24265
#
# Compressibility (1/GPa) = 0.01640886
#
# Stress axis : x y z
#
# Youngs Moduli (GPa) = 67.61105 36.66056 98.94876
#
# Poissons Ratio (x) = 0.37223 -0.04339
# Poissons Ratio (y) = 0.68647 0.80820
# Poissons Ratio (z) = -0.02965 0.29944
#
# Static dielectric constant tensor:
#      x y z
#    x 3.636400 0.000000 0.000000 
#    y 0.000000 3.377080 0.000000 
#    z 0.000000 0.000000 3.756420 
# 
# 
# High freq. dielectric constant tensor:
#      x y z
#    x 1.762170 0.000000 0.000000 
#    y 0.000000 1.744920 0.000000 
#    z 0.000000 0.000000 1.786360 
# 
# From -- ./inp_files/26237.got.cif
#   From: 2010.03.12/outbox.cif.g09.slc.cpg/sg51_14_cif.got.tgz:26237.got - 2010.04.16 13:43:02.
