data_PCOD8212260
_publ_section_title
;
Structure prediction by ZEFSAII (Michael W. Deem and Ramdas Pophale) SiO2 
 PCOD8212260
Probable space group: P M M A
;
_chemical_formula_sum "Si O2"
_cell_formula_units_Z 48
_cell_length_a 16.239876
_cell_length_b 8.478123
_cell_length_c 18.025171
_cell_angle_alpha 90.000000
_cell_angle_beta 90.000000
_cell_angle_gamma 90.000000
_cell_volume 2481.771628
_symmetry_space_group_name_H-M "P M M A"
_symmetry_group_IT_number 51
_symmetry_cell_setting 'orthorhombic'
loop_
_space_group_symop_operation_xyz
x,y,z
1/2-x,-y,z
1/2+x,-y,-z
-x,y,-z
-x,-y,-z
1/2+x,y,-z
1/2-x,y,z
x,-y,z
loop_
_atom_site_type_symbol
_atom_site_label
_atom_site_fract_x
_atom_site_fract_y
_atom_site_fract_z
Si Si1 0.161163 0.184798 0.330447
Si Si2 0.412779 0.683374 0.029456
Si Si3 0.750000 0.812246 0.218287
Si Si4 0.005923 0.187981 0.415691
Si Si5 0.750000 0.185384 0.048332
Si Si6 0.917800 0.685572 0.279006
Si Si7 0.565214 0.182871 0.813382
O O1 0.250000 0.264434 0.345666
O O2 0.135804 0.219384 0.246193
O O3 0.093834 0.253068 0.386976
O O4 0.167116 0.000000 0.343886
O O5 0.408557 0.500000 0.011357
O O6 0.410291 0.712231 0.116894
O O7 0.500000 0.754180 0.000000
O O8 0.333477 0.759312 0.991122
O O9 0.750000 0.754449 0.133015
O O10 0.826793 0.740014 0.260895
O O11 0.750000 0.000000 0.224339
O O12 0.935927 0.264672 0.364111
O O13 0.000000 0.246126 0.500000
O O14 0.998110 0.000000 0.408689
O O15 0.750000 0.000000 0.045288
O O16 0.928206 0.500000 0.269369
O O17 0.977243 0.772062 0.220700
O O18 0.562678 0.000000 0.836466
#
# Coordination Sequence:
#
# PCOD8212260 Si02
#       7
#     8   8   4   8   4   8   8
#     4   8  15  29  51  79 108 140 183 233 279 323
#     4  11  24  40  58  84 119 156 194 244 308 365
#     4  11  23  41  63  85 112 147 200 251 289 343
#     4   9  18  35  57  83 116 152 194 238 283 337
#     4  11  25  41  61  87 116 155 202 253 303 355
#     4  11  22  37  59  86 117 155 194 236 298 355
#     4  10  20  35  58  82 111 149 196 243 286 343
#
# _framework density 19.341021000000001
#
# number of rings (size 3 to 8) (size 9 to 14) (size 15 to 20)
#    0.000    2.000    0.000    5.000    1.167    5.667 
#    1.500    0.000    0.000    4.500    0.000    0.000 
#    0.000    0.000    0.000    0.000    0.000    0.000 
#
# Total GULP energy -595162.526182 kJ/mol
# GULP energy per Si atom -12399.219295 kJ/mol
# Density = 1.929700 g / cm^3
# Si number density = 19.341021 Si / 1000 Ang^3
#
#
#
# Elastic Constant Matrix: (Units=GPa)
#
#
# Indices 1 2 3 4 5 6 
#
# 1 159.5524 22.7760 69.6775 0.0000 0.0000 0.0000
# 2 22.7760 36.1064 23.1616 0.0000 0.0000 0.0000
# 3 69.6775 23.1616 140.6423 0.0000 0.0000 0.0000
# 4 0.0000 0.0000 0.0000 19.8519 0.0000 0.0000
# 5 0.0000 0.0000 0.0000 0.0000 81.0677 0.0000
# 6 0.0000 0.0000 0.0000 0.0000 0.0000 20.7325
#
#
#
# Elastic Compliance Matrix: (Units=1/GPa)
#
#
# Indices 1 2 3 4 5 6 
#
# 1 0.008259 -0.002890 -0.003616 0.000000 0.000000 0.000000
# 2 -0.002890 0.031979 -0.003834 0.000000 0.000000 0.000000
# 3 -0.003616 -0.003834 0.009533 0.000000 0.000000 0.000000
# 4 0.000000 0.000000 0.000000 0.050373 0.000000 0.000000
# 5 0.000000 0.000000 0.000000 0.000000 0.012335 0.000000
# 6 0.000000 0.000000 0.000000 0.000000 0.000000 0.048234
#
#
# Mechanical properties :
#
#
# Convention : Reuss Voigt Hill
#
# Bulk Modulus (GPa) = 34.37623 63.05902 48.71762
# Shear Modulus (GPa) = 26.16553 39.04281 32.60417
#
# Velocity S-wave (km/s) = 3.68210 4.49782 4.11025
# Velocity P-wave (km/s) = 5.99079 7.72323 6.91151
#
# Compressibility (1/GPa) = 0.02908987
#
# Stress axis : x y z
#
# Youngs Moduli (GPa) = 121.07749 31.27053 104.89825
#
# Poissons Ratio (x) = 0.09039 0.37929
# Poissons Ratio (y) = 0.34997 0.40223
# Poissons Ratio (z) = 0.43779 0.11990
#
# Static dielectric constant tensor:
#      x y z
#    x 3.872910 0.000000 0.000000 
#    y 0.000000 3.394960 0.000000 
#    z 0.000000 0.000000 3.629770 
# 
# 
# High freq. dielectric constant tensor:
#      x y z
#    x 1.763860 0.000000 0.000000 
#    y 0.000000 1.740800 0.000000 
#    z 0.000000 0.000000 1.754830 
# 
# From -- ./inp_files/29584.got.cif
#   From: 2010.03.12/outbox.cif.g09.slc.cpg/sg51_15_cif.got.tgz:29584.got - 2010.04.16 13:43:02.
