data_PCOD8212832
_publ_section_title
;
Structure prediction by ZEFSAII (Michael W. Deem and Ramdas Pophale) SiO2 
 PCOD8212832
Probable space group: P M M A
;
_chemical_formula_sum "Si O2"
_cell_formula_units_Z 48
_cell_length_a 16.678602
_cell_length_b 15.441137
_cell_length_c 8.895025
_cell_angle_alpha 90.000000
_cell_angle_beta 90.000000
_cell_angle_gamma 90.000000
_cell_volume 2290.794304
_symmetry_space_group_name_H-M "P M M A"
_symmetry_group_IT_number 51
_symmetry_cell_setting 'orthorhombic'
loop_
_space_group_symop_operation_xyz
x,y,z
1/2-x,-y,z
1/2+x,-y,-z
-x,y,-z
-x,-y,-z
1/2+x,y,-z
1/2-x,y,z
x,-y,z
loop_
_atom_site_type_symbol
_atom_site_label
_atom_site_fract_x
_atom_site_fract_y
_atom_site_fract_z
Si Si1 0.155928 0.320549 0.935806
Si Si2 0.155617 0.680493 0.596358
Si Si3 0.844404 0.839985 0.871081
Si Si4 0.413711 0.500000 0.933872
Si Si5 0.159372 0.000000 0.636927
Si Si6 0.914574 0.500000 0.421279
Si Si7 0.592530 0.000000 0.045254
Si Si8 0.590107 0.152182 0.546499
O O1 0.250000 0.313323 0.928460
O O2 0.123149 0.306388 0.766546
O O3 0.132125 0.415402 0.994792
O O4 0.123274 0.248006 0.050058
O O5 0.250000 0.694540 0.584385
O O6 0.134361 0.585644 0.531237
O O7 0.110699 0.749583 0.494065
O O8 0.750000 0.834339 0.830920
O O9 0.897410 0.857919 0.724351
O O10 0.860390 0.916596 0.986762
O O11 0.422112 0.500000 0.756526
O O12 0.500000 0.500000 0.000000
O O13 0.148150 0.085471 0.537038
O O14 0.250000 0.000000 0.698731
O O15 0.097473 0.000000 0.774636
O O16 0.000000 0.500000 0.500000
O O17 0.500000 0.000000 0.000000
O O18 0.500000 0.128936 0.500000
#
# Coordination Sequence:
#
# PCOD8212832 Si02
#       8
#     8   8   8   4   4   4   4   8
#     4   9  20  38  61  85 114 152 199 246 292 350
#     4  10  20  38  61  86 116 158 205 249 301 368
#     4  11  23  41  63  89 121 160 202 249 301 359
#     4  10  21  35  57  85 117 154 191 239 298 353
#     4  12  24  42  66  90 118 160 206 244 290 364
#     4  10  21  37  57  85 119 156 200 251 302 353
#     4  12  25  42  65  94 124 156 196 248 303 356
#     4  12  25  41  61  90 125 159 197 250 308 360
#
# _framework density 20.953430999999998
#
# number of rings (size 3 to 8) (size 9 to 14) (size 15 to 20)
#    0.000    1.333    0.000    6.000    0.000    8.000 
#    0.000    0.000    0.000    3.000    0.000    0.000 
#    0.000    0.000    0.000    0.000    0.000    0.000 
#
# Total GULP energy -595408.557875 kJ/mol
# GULP energy per Si atom -12404.344956 kJ/mol
# Density = 2.090574 g / cm^3
# Si number density = 20.953431 Si / 1000 Ang^3
#
#
#
# Elastic Constant Matrix: (Units=GPa)
#
#
# Indices 1 2 3 4 5 6 
#
# 1 65.3771 12.7953 15.0620 0.0000 0.0000 0.0000
# 2 12.7953 150.2053 50.8976 0.0000 0.0000 0.0000
# 3 15.0620 50.8976 90.4287 0.0000 0.0000 0.0000
# 4 0.0000 0.0000 0.0000 23.0099 0.0000 0.0000
# 5 0.0000 0.0000 0.0000 0.0000 36.9133 0.0000
# 6 0.0000 0.0000 0.0000 0.0000 0.0000 20.8013
#
#
#
# Elastic Compliance Matrix: (Units=1/GPa)
#
#
# Indices 1 2 3 4 5 6 
#
# 1 0.015945 -0.000566 -0.002337 0.000000 0.000000 0.000000
# 2 -0.000566 0.008247 -0.004547 0.000000 0.000000 0.000000
# 3 -0.002337 -0.004547 0.014007 0.000000 0.000000 0.000000
# 4 0.000000 0.000000 0.000000 0.043460 0.000000 0.000000
# 5 0.000000 0.000000 0.000000 0.000000 0.027090 0.000000
# 6 0.000000 0.000000 0.000000 0.000000 0.000000 0.048074
#
#
# Mechanical properties :
#
#
# Convention : Reuss Voigt Hill
#
# Bulk Modulus (GPa) = 42.92308 51.50232 47.21270
# Shear Modulus (GPa) = 27.85667 31.29532 29.57599
#
# Velocity S-wave (km/s) = 3.65013 3.86886 3.76108
# Velocity P-wave (km/s) = 6.18822 6.67759 6.43756
#
# Compressibility (1/GPa) = 0.02329749
#
# Stress axis : x y z
#
# Youngs Moduli (GPa) = 62.71495 121.26117 71.39225
#
# Poissons Ratio (x) = 0.06868 0.16685
# Poissons Ratio (y) = 0.03552 0.32464
# Poissons Ratio (z) = 0.14657 0.55141
#
# Static dielectric constant tensor:
#      x y z
#    x 3.679490 0.000000 0.000000 
#    y 0.000000 4.070130 0.000000 
#    z 0.000000 0.000000 3.795040 
# 
# 
# High freq. dielectric constant tensor:
#      x y z
#    x 1.818890 0.000000 0.000000 
#    y 0.000000 1.841320 0.000000 
#    z 0.000000 0.000000 1.816960 
# 
# From -- ./inp_files/9774.got.cif
#   From: 2010.03.12/outbox.cif.g09.slc.cpg/sg51_5_cif.got.tgz:9774.got - 2010.04.16 13:43:02.
