data_PCOD8212294
_publ_section_title
;
Structure prediction by ZEFSAII (Michael W. Deem and Ramdas Pophale) SiO2 
 PCOD8212294
Probable space group: P M M A
;
_chemical_formula_sum "Si O2"
_cell_formula_units_Z 56
_cell_length_a 21.721186
_cell_length_b 8.912274
_cell_length_c 14.748343
_cell_angle_alpha 90.000000
_cell_angle_beta 90.000000
_cell_angle_gamma 90.000000
_cell_volume 2855.060358
_symmetry_space_group_name_H-M "P M M A"
_symmetry_group_IT_number 51
_symmetry_cell_setting 'orthorhombic'
loop_
_space_group_symop_operation_xyz
x,y,z
1/2-x,-y,z
1/2+x,-y,-z
-x,y,-z
-x,-y,-z
1/2+x,y,-z
1/2-x,y,z
x,-y,z
loop_
_atom_site_type_symbol
_atom_site_label
_atom_site_fract_x
_atom_site_fract_y
_atom_site_fract_z
Si Si1 0.250000 0.677118 0.559548
Si Si2 0.552044 0.177561 0.287630
Si Si3 0.873390 0.172318 0.462163
Si Si4 0.250000 0.322329 0.763316
Si Si5 0.416400 0.172173 0.343339
Si Si6 0.820745 0.823193 0.967737
Si Si7 0.179484 0.325823 0.220063
Si Si8 0.371327 0.678330 0.862117
O O1 0.250000 0.500000 0.552633
O O2 0.311482 0.738127 0.512829
O O3 0.250000 0.739272 0.661916
O O4 0.593312 0.236656 0.372079
O O5 0.481938 0.224800 0.305182
O O6 0.571161 0.257295 0.193976
O O7 0.558725 0.000000 0.277698
O O8 0.918567 0.191235 0.547881
O O9 0.855767 0.000000 0.446593
O O10 0.250000 0.500000 0.764642
O O11 0.189764 0.260560 0.812686
O O12 0.363208 0.275908 0.302685
O O13 0.402656 0.000000 0.317199
O O14 0.750000 0.775750 0.988937
O O15 0.839386 0.768649 0.868183
O O16 0.829620 0.000000 0.974033
O O17 0.868216 0.743927 0.036614
O O18 0.250000 0.293251 0.247910
O O19 0.169345 0.500000 0.198400
O O20 0.375920 0.500000 0.866274
#
# Coordination Sequence:
#
# PCOD8212294 Si02
#       8
#     4   8   8   4   8   8   8   8
#     4  11  21  35  53  82 119 152 187 235 288 336
#     4  10  21  38  58  83 115 153 195 238 281 335
#     4  10  21  37  58  84 114 152 195 237 285 338
#     4   9  18  31  49  76 115 154 185 223 276 332
#     4  10  22  40  61  82 111 151 195 241 287 335
#     4  10  20  35  58  88 117 148 188 234 285 341
#     4  10  22  40  61  86 115 147 186 237 291 342
#     4  11  20  34  56  84 119 156 189 229 282 341
#
# _framework density 19.614294999999998
#
# number of rings (size 3 to 8) (size 9 to 14) (size 15 to 20)
#    0.000    1.857    2.143    1.929    1.000    4.286 
#    0.000    0.714    0.000    6.857    0.000    0.000 
#    0.000    0.000    0.000    0.000    0.000    0.000 
#
# Total GULP energy -694587.650793 kJ/mol
# GULP energy per Si atom -12403.350907 kJ/mol
# Density = 1.956965 g / cm^3
# Si number density = 19.614295 Si / 1000 Ang^3
#
#
#
# Elastic Constant Matrix: (Units=GPa)
#
#
# Indices 1 2 3 4 5 6 
#
# 1 93.6697 34.7442 31.1913 0.0000 0.0000 0.0000
# 2 34.7442 67.2215 28.5667 0.0000 0.0000 0.0000
# 3 31.1913 28.5667 83.5743 0.0000 0.0000 0.0000
# 4 0.0000 0.0000 0.0000 29.7746 0.0000 0.0000
# 5 0.0000 0.0000 0.0000 0.0000 29.7067 0.0000
# 6 0.0000 0.0000 0.0000 0.0000 0.0000 23.8378
#
#
#
# Elastic Compliance Matrix: (Units=1/GPa)
#
#
# Indices 1 2 3 4 5 6 
#
# 1 0.013902 -0.005827 -0.003197 0.000000 0.000000 0.000000
# 2 -0.005827 0.019847 -0.004609 0.000000 0.000000 0.000000
# 3 -0.003197 -0.004609 0.014734 0.000000 0.000000 0.000000
# 4 0.000000 0.000000 0.000000 0.033586 0.000000 0.000000
# 5 0.000000 0.000000 0.000000 0.000000 0.033662 0.000000
# 6 0.000000 0.000000 0.000000 0.000000 0.000000 0.041950
#
#
# Mechanical properties :
#
#
# Convention : Reuss Voigt Hill
#
# Bulk Modulus (GPa) = 47.13212 48.16331 47.64772
# Shear Modulus (GPa) = 26.03929 26.66137 26.35033
#
# Velocity S-wave (km/s) = 3.64753 3.69084 3.66925
# Velocity P-wave (km/s) = 6.46691 6.54000 6.50356
#
# Compressibility (1/GPa) = 0.02121695
#
# Stress axis : x y z
#
# Youngs Moduli (GPa) = 71.93453 50.38667 67.87067
#
# Poissons Ratio (x) = 0.29359 0.21696
# Poissons Ratio (y) = 0.41914 0.31283
# Poissons Ratio (z) = 0.22995 0.23224
#
# Static dielectric constant tensor:
#      x y z
#    x 3.473670 0.000000 0.000000 
#    y 0.000000 3.376760 0.000000 
#    z 0.000000 0.000000 3.547670 
# 
# 
# High freq. dielectric constant tensor:
#      x y z
#    x 1.752300 0.000000 0.000000 
#    y 0.000000 1.757030 0.000000 
#    z 0.000000 0.000000 1.767780 
# 
# From -- ./inp_files/25799.got.cif
#   From: 2010.03.12/outbox.cif.g09.slc.cpg/sg51_13_cif.got.tgz:25799.got - 2010.04.16 13:43:02.
