data_PCOD8212799
_publ_section_title
;
Structure prediction by ZEFSAII (Michael W. Deem and Ramdas Pophale) SiO2 
 PCOD8212799
Probable space group: P M M A
;
_chemical_formula_sum "Si O2"
_cell_formula_units_Z 36
_cell_length_a 13.739405
_cell_length_b 15.336764
_cell_length_c 8.626859
_cell_angle_alpha 90.000000
_cell_angle_beta 90.000000
_cell_angle_gamma 90.000000
_cell_volume 1817.834578
_symmetry_space_group_name_H-M "P M M A"
_symmetry_group_IT_number 51
_symmetry_cell_setting 'orthorhombic'
loop_
_space_group_symop_operation_xyz
x,y,z
1/2-x,-y,z
1/2+x,-y,-z
-x,y,-z
-x,-y,-z
1/2+x,y,-z
1/2-x,y,z
x,-y,z
loop_
_atom_site_type_symbol
_atom_site_label
_atom_site_fract_x
_atom_site_fract_y
_atom_site_fract_z
Si Si1 0.959784 0.679542 0.670852
Si Si2 0.453194 0.000000 0.337584
Si Si3 0.750000 0.000000 0.529854
Si Si4 0.250000 0.833210 0.692971
Si Si5 0.954728 0.500000 0.825803
Si Si6 0.750000 0.500000 0.682475
Si Si7 0.042122 0.160700 0.832855
Si Si8 0.750000 0.687060 0.569264
O O1 0.989881 0.584899 0.733544
O O2 0.846200 0.707447 0.669370
O O3 0.000000 0.690613 0.500000
O O4 0.012407 0.743139 0.786855
O O5 0.500000 0.000000 0.500000
O O6 0.489305 0.911828 0.264469
O O7 0.337795 0.000000 0.349683
O O8 0.750000 0.913104 0.426600
O O9 0.341471 0.842807 0.808772
O O10 0.250000 0.741319 0.594012
O O11 0.837608 0.500000 0.808275
O O12 0.000000 0.500000 0.000000
O O13 0.750000 0.580604 0.558858
O O14 0.000000 0.141438 0.000000
#
# Coordination Sequence:
#
# PCOD8212799 Si02
#       8
#     8   4   2   4   4   2   8   4
#     4  11  21  40  64  93 122 168 217 260 306 375
#     4  12  23  44  67  97 123 167 215 261 307 375
#     4  12  24  38  74  96 122 162 216 266 304 368
#     4  12  22  42  65  93 125 166 211 263 319 370
#     4  10  21  39  61  92 129 165 203 264 322 364
#     4   8  20  38  62  96 126 162 216 260 306 382
#     4  12  26  42  64  95 134 166 207 263 323 382
#     4  10  20  37  67  91 123 162 217 268 305 366
#
# _framework density 19.803782000000002
#
# number of rings (size 3 to 8) (size 9 to 14) (size 15 to 20)
#    0.000    0.889    4.444    3.333    0.000    1.778 
#    0.000    4.444    0.000    0.000    0.000    0.000 
#    0.000    0.000    0.000    0.000    0.000    0.000 
#
# Total GULP energy -446027.091877 kJ/mol
# GULP energy per Si atom -12389.641441 kJ/mol
# Density = 1.975871 g / cm^3
# Si number density = 19.803782 Si / 1000 Ang^3
#
#
#
# Elastic Constant Matrix: (Units=GPa)
#
#
# Indices 1 2 3 4 5 6 
#
# 1 170.1604 50.2962 50.5225 0.0000 0.0000 0.0000
# 2 50.2962 117.5483 34.8453 0.0000 0.0000 0.0000
# 3 50.5225 34.8453 105.9921 0.0000 0.0000 0.0000
# 4 0.0000 0.0000 0.0000 26.3904 0.0000 0.0000
# 5 0.0000 0.0000 0.0000 0.0000 25.0352 0.0000
# 6 0.0000 0.0000 0.0000 0.0000 0.0000 32.7518
#
#
#
# Elastic Compliance Matrix: (Units=1/GPa)
#
#
# Indices 1 2 3 4 5 6 
#
# 1 0.007387 -0.002345 -0.002750 0.000000 0.000000 0.000000
# 2 -0.002345 0.010170 -0.002226 0.000000 0.000000 0.000000
# 3 -0.002750 -0.002226 0.011477 0.000000 0.000000 0.000000
# 4 0.000000 0.000000 0.000000 0.037893 0.000000 0.000000
# 5 0.000000 0.000000 0.000000 0.000000 0.039944 0.000000
# 6 0.000000 0.000000 0.000000 0.000000 0.000000 0.030533
#
#
# Mechanical properties :
#
#
# Convention : Reuss Voigt Hill
#
# Bulk Modulus (GPa) = 69.48117 73.89211 71.68664
# Shear Modulus (GPa) = 31.87919 34.03793 32.95856
#
# Velocity S-wave (km/s) = 4.01653 4.15029 4.08396
# Velocity P-wave (km/s) = 7.52801 7.76915 7.64953
#
# Compressibility (1/GPa) = 0.01439239
#
# Stress axis : x y z
#
# Youngs Moduli (GPa) = 135.38191 98.32436 87.13021
#
# Poissons Ratio (x) = 0.23061 0.23959
# Poissons Ratio (y) = 0.31752 0.19392
# Poissons Ratio (z) = 0.37228 0.21883
#
# Static dielectric constant tensor:
#      x y z
#    x 5.528870 0.000000 0.000000 
#    y 0.000000 3.941940 0.000000 
#    z 0.000000 0.000000 3.750260 
# 
# 
# High freq. dielectric constant tensor:
#      x y z
#    x 1.790960 0.000000 0.000000 
#    y 0.000000 1.797750 0.000000 
#    z 0.000000 0.000000 1.752550 
# 
# From -- ./inp_files/7881.got.cif
#   From: 2010.03.12/outbox.cif.g09.slc.cpg/sg51_4_cif.got.tgz:7881.got - 2010.04.16 13:43:02.
