data_PCOD8212223
_publ_section_title
;
Structure prediction by ZEFSAII (Michael W. Deem and Ramdas Pophale) SiO2 
 PCOD8212223
Probable space group: P M M A
;
_chemical_formula_sum "Si O2"
_cell_formula_units_Z 36
_cell_length_a 8.769936
_cell_length_b 14.346549
_cell_length_c 14.497929
_cell_angle_alpha 90.000000
_cell_angle_beta 90.000000
_cell_angle_gamma 90.000000
_cell_volume 1824.105020
_symmetry_space_group_name_H-M "P M M A"
_symmetry_group_IT_number 51
_symmetry_cell_setting 'orthorhombic'
loop_
_space_group_symop_operation_xyz
x,y,z
1/2-x,-y,z
1/2+x,-y,-z
-x,y,-z
-x,-y,-z
1/2+x,y,-z
1/2-x,y,z
x,-y,z
loop_
_atom_site_type_symbol
_atom_site_label
_atom_site_fract_x
_atom_site_fract_y
_atom_site_fract_z
Si Si1 0.072421 0.000000 0.900818
Si Si2 0.428812 0.349075 0.230919
Si Si3 0.429670 0.851522 0.753097
Si Si4 0.429442 0.000000 0.601801
Si Si5 0.431283 0.500000 0.899002
Si Si6 0.916423 0.605685 0.414316
O O1 0.023292 0.090392 0.843224
O O2 0.250000 0.000000 0.915824
O O3 0.000000 0.000000 0.000000
O O4 0.250000 0.358815 0.213502
O O5 0.475951 0.242050 0.236109
O O6 0.514714 0.405580 0.151055
O O7 0.473302 0.394101 0.327500
O O8 0.250000 0.830720 0.751107
O O9 0.477920 0.907914 0.660233
O O10 0.500000 0.000000 0.500000
O O11 0.250000 0.000000 0.589895
O O12 0.250000 0.500000 0.902719
O O13 0.500000 0.500000 0.000000
O O14 0.750000 0.653229 0.394634
O O15 0.885441 0.500000 0.443186
O O16 0.000000 0.657583 0.500000
#
# Coordination Sequence:
#
# PCOD8212223 Si02
#       6
#     4   8   8   4   4   8
#     4   9  19  37  62  86 112 147 187 239 297 354
#     4  12  24  39  61  90 123 160 202 249 300 360
#     4   9  20  39  59  84 119 159 198 240 297 360
#     4   9  19  37  62  88 120 161 203 247 299 356
#     4  12  26  46  67  88 117 158 204 256 310 364
#     4  10  20  35  57  83 114 154 196 241 290 339
#
# _framework density 19.735704999999999
#
# number of rings (size 3 to 8) (size 9 to 14) (size 15 to 20)
#    0.000    1.778    1.111    5.000    0.000    4.444 
#    0.000    6.667    0.000    0.000    0.000    0.000 
#    0.000    0.000    0.000    0.000    0.000    0.000 
#
# Total GULP energy -446250.621506 kJ/mol
# GULP energy per Si atom -12395.850597 kJ/mol
# Density = 1.969079 g / cm^3
# Si number density = 19.735705 Si / 1000 Ang^3
#
#
#
# Elastic Constant Matrix: (Units=GPa)
#
#
# Indices 1 2 3 4 5 6 
#
# 1 130.7968 54.2171 62.5249 0.0000 0.0000 0.0000
# 2 54.2171 111.6591 58.5002 0.0000 0.0000 0.0000
# 3 62.5249 58.5002 183.1657 0.0000 0.0000 0.0000
# 4 0.0000 0.0000 0.0000 -73.1354 0.0000 0.0000
# 5 0.0000 0.0000 0.0000 0.0000 39.7876 0.0000
# 6 0.0000 0.0000 0.0000 0.0000 0.0000 29.1401
#
#
#
# Elastic Compliance Matrix: (Units=1/GPa)
#
#
# Indices 1 2 3 4 5 6 
#
# 1 0.010326 -0.003804 -0.002310 0.000000 0.000000 0.000000
# 2 -0.003804 0.012157 -0.002584 0.000000 0.000000 0.000000
# 3 -0.002310 -0.002584 0.007073 0.000000 0.000000 0.000000
# 4 0.000000 0.000000 0.000000 -0.013673 0.000000 0.000000
# 5 0.000000 0.000000 0.000000 0.000000 0.025133 0.000000
# 6 0.000000 0.000000 0.000000 0.000000 0.000000 0.034317
#
#
# Mechanical properties :
#
#
# Convention : Reuss Voigt Hill
#
# Bulk Modulus (GPa) = 82.23428 86.23401 84.23415
# Shear Modulus (GPa) = 51.66168 15.85043 33.75605
#
# Velocity S-wave (km/s) = 5.12187 2.83704 4.14019
# Velocity P-wave (km/s) = 8.75993 7.38383 8.10115
#
# Compressibility (1/GPa) = 0.01216038
#
# Stress axis : x y z
#
# Youngs Moduli (GPa) = 96.83829 82.25911 141.37316
#
# Poissons Ratio (x) = 0.31290 0.32659
# Poissons Ratio (y) = 0.36835 0.36534
# Poissons Ratio (z) = 0.22371 0.21257
#
# Static dielectric constant tensor:
#      x y z
#    x 3.726080 0.000000 0.000000 
#    y 0.000000 3.469700 0.000000 
#    z 0.000000 0.000000 3.821600 
# 
# 
# High freq. dielectric constant tensor:
#      x y z
#    x 1.774260 0.000000 0.000000 
#    y 0.000000 1.763640 0.000000 
#    z 0.000000 0.000000 1.776710 
# 
# From -- ./inp_files/20417.got.cif
#   From: 2010.03.12/outbox.cif.g09.slc.cpg/sg51_11_cif.got.tgz:20417.got - 2010.04.16 13:43:02.
