data_PCOD8212773
_publ_section_title
;
Structure prediction by ZEFSAII (Michael W. Deem and Ramdas Pophale) SiO2 
 PCOD8212773
Probable space group: P M M A
;
_chemical_formula_sum "Si O2"
_cell_formula_units_Z 48
_cell_length_a 9.326401
_cell_length_b 9.144499
_cell_length_c 29.068837
_cell_angle_alpha 90.000000
_cell_angle_beta 90.000000
_cell_angle_gamma 90.000000
_cell_volume 2479.143456
_symmetry_space_group_name_H-M "P M M A"
_symmetry_group_IT_number 51
_symmetry_cell_setting 'orthorhombic'
loop_
_space_group_symop_operation_xyz
x,y,z
1/2-x,-y,z
1/2+x,-y,-z
-x,y,-z
-x,-y,-z
1/2+x,y,-z
1/2-x,y,z
x,-y,z
loop_
_atom_site_type_symbol
_atom_site_label
_atom_site_fract_x
_atom_site_fract_y
_atom_site_fract_z
Si Si1 0.000201 0.332829 0.394882
Si Si2 0.917464 0.668250 0.952702
Si Si3 0.750000 0.339622 0.466616
Si Si4 0.415822 0.326967 0.208495
Si Si5 0.750000 0.170535 0.559504
Si Si6 0.917098 0.826813 0.127368
Si Si7 0.407248 0.672960 0.704829
O O1 0.055725 0.500000 0.390107
O O2 0.118583 0.222378 0.410736
O O3 0.884266 0.320610 0.434267
O O4 0.945463 0.271567 0.346073
O O5 0.750000 0.711557 0.957954
O O6 0.931043 0.500000 0.936639
O O7 0.994173 0.771451 0.916227
O O8 0.000000 0.694100 0.000000
O O9 0.750000 0.500000 0.489887
O O10 0.750000 0.225265 0.507376
O O11 0.250000 0.279420 0.203625
O O12 0.432477 0.500000 0.201120
O O13 0.514067 0.245299 0.172027
O O14 0.472952 0.276910 0.258551
O O15 0.750000 0.000000 0.555600
O O16 0.750000 0.780810 0.123251
O O17 0.933203 0.000000 0.130741
O O18 0.250000 0.735518 0.718629
O O19 0.399028 0.500000 0.703618
#
# Coordination Sequence:
#
# PCOD8212773 Si02
#       7
#     8   8   4   8   4   8   8
#     4  10  20  37  62  87 111 142 185 237 286 335
#     4  10  21  38  62  91 121 155 198 248 301 353
#     4  10  20  38  62  88 110 140 188 238 285 336
#     4  10  21  36  59  91 120 148 185 233 291 350
#     4  12  26  38  52  80 118 156 190 224 275 340
#     4  11  24  40  58  83 118 161 205 244 287 341
#     4   9  17  33  59  89 114 139 180 235 289 340
#
# _framework density 19.361526000000001
#
# number of rings (size 3 to 8) (size 9 to 14) (size 15 to 20)
#    0.000    1.833    0.833    3.250    1.167    8.333 
#    0.000    0.833    0.000    1.000    0.000    0.000 
#    0.000    0.000    0.000    0.000    0.000    0.000 
#
# Total GULP energy -595126.162515 kJ/mol
# GULP energy per Si atom -12398.461719 kJ/mol
# Density = 1.931746 g / cm^3
# Si number density = 19.361526 Si / 1000 Ang^3
#
#
#
# Elastic Constant Matrix: (Units=GPa)
#
#
# Indices 1 2 3 4 5 6 
#
# 1 161.6107 58.6271 67.8850 0.0000 0.0000 0.0000
# 2 58.6271 75.1882 42.4261 0.0000 0.0000 0.0000
# 3 67.8850 42.4261 120.0411 0.0000 0.0000 0.0000
# 4 0.0000 0.0000 0.0000 -9.1413 0.0000 0.0000
# 5 0.0000 0.0000 0.0000 0.0000 26.1947 0.0000
# 6 0.0000 0.0000 0.0000 0.0000 0.0000 1.1763
#
#
#
# Elastic Compliance Matrix: (Units=1/GPa)
#
#
# Indices 1 2 3 4 5 6 
#
# 1 0.009681 -0.005570 -0.003506 0.000000 0.000000 0.000000
# 2 -0.005570 0.019818 -0.003854 0.000000 0.000000 0.000000
# 3 -0.003506 -0.003854 0.011675 0.000000 0.000000 0.000000
# 4 0.000000 0.000000 0.000000 -0.109393 0.000000 0.000000
# 5 0.000000 0.000000 0.000000 0.000000 0.038176 0.000000
# 6 0.000000 0.000000 0.000000 0.000000 0.000000 0.850154
#
#
# Mechanical properties :
#
#
# Convention : Reuss Voigt Hill
#
# Bulk Modulus (GPa) = 65.30235 77.19073 71.24654
# Shear Modulus (GPa) = 5.87491 16.17270 11.02380
#
# Velocity S-wave (km/s) = 1.74382 2.89329 2.38873
# Velocity P-wave (km/s) = 6.15269 7.14956 6.66978
#
# Compressibility (1/GPa) = 0.01531339
#
# Stress axis : x y z
#
# Youngs Moduli (GPa) = 103.29250 50.45859 85.64999
#
# Poissons Ratio (x) = 0.28108 0.30030
# Poissons Ratio (y) = 0.57539 0.33011
# Poissons Ratio (z) = 0.36216 0.19448
#
# Static dielectric constant tensor:
#      x y z
#    x 3.777960 0.000000 0.000000 
#    y 0.000000 3.299290 0.000000 
#    z 0.000000 0.000000 3.779850 
# 
# 
# High freq. dielectric constant tensor:
#      x y z
#    x 1.772890 0.000000 0.000000 
#    y 0.000000 1.723070 0.000000 
#    z 0.000000 0.000000 1.769870 
# 
# From -- ./inp_files/37122.got.cif
#   From: 2010.03.12/outbox.cif.g09.slc.cpg/sg51_19_cif.got.tgz:37122.got - 2010.04.16 13:43:02.
