data_PCOD8212468
_publ_section_title
;
Structure prediction by ZEFSAII (Michael W. Deem and Ramdas Pophale) SiO2 
 PCOD8212468
Probable space group: P M M A
;
_chemical_formula_sum "Si O2"
_cell_formula_units_Z 64
_cell_length_a 14.009424
_cell_length_b 9.370909
_cell_length_c 26.371223
_cell_angle_alpha 90.000000
_cell_angle_beta 90.000000
_cell_angle_gamma 90.000000
_cell_volume 3462.041514
_symmetry_space_group_name_H-M "P M M A"
_symmetry_group_IT_number 51
_symmetry_cell_setting 'orthorhombic'
loop_
_space_group_symop_operation_xyz
x,y,z
1/2-x,-y,z
1/2+x,-y,-z
-x,y,-z
-x,-y,-z
1/2+x,y,-z
1/2-x,y,z
x,-y,z
loop_
_atom_site_type_symbol
_atom_site_label
_atom_site_fract_x
_atom_site_fract_y
_atom_site_fract_z
Si Si1 0.639598 0.164751 0.865837
Si Si2 0.144884 0.341481 0.870974
Si Si3 0.959251 0.830877 0.578979
Si Si4 0.144424 0.168772 0.522403
Si Si5 0.359398 0.665610 0.332948
Si Si6 0.439121 0.166714 0.243304
Si Si7 0.521339 0.332673 0.943798
Si Si8 0.352947 0.166067 0.770908
O O1 0.750000 0.197262 0.854778
O O2 0.580213 0.208314 0.815319
O O3 0.607789 0.254209 0.915058
O O4 0.622282 0.000000 0.878621
O O5 0.250000 0.337878 0.895201
O O6 0.119648 0.500000 0.850881
O O7 0.136970 0.235157 0.825061
O O8 0.074752 0.293447 0.914714
O O9 0.891599 0.781297 0.532761
O O10 0.928879 0.745608 0.628364
O O11 0.068547 0.786170 0.565611
O O12 0.950974 0.000000 0.589146
O O13 0.250000 0.233875 0.533542
O O14 0.149828 0.000000 0.521494
O O15 0.250000 0.684529 0.350210
O O16 0.387940 0.500000 0.330198
O O17 0.371718 0.736685 0.277996
O O18 0.549822 0.202363 0.259585
O O19 0.415041 0.000000 0.252319
O O20 0.545702 0.500000 0.944949
O O21 0.500000 0.274032 0.000000
O O22 0.250000 0.212227 0.745060
O O23 0.351391 0.000000 0.781322
#
# Coordination Sequence:
#
# PCOD8212468 Si02
#       8
#     8   8   8   8   8   8   8   8
#     4  10  21  37  56  79 106 135 171 216 264 313
#     4   9  17  30  49  72  98 128 162 201 245 295
#     4   9  17  31  54  81 108 143 184 224 268 315
#     4   8  14  27  51  83 113 141 180 227 269 313
#     4  11  24  38  52  75 107 141 179 224 270 315
#     4  10  20  36  58  80 104 136 174 216 261 313
#     4  10  21  35  52  76 105 138 173 208 250 306
#     4   9  17  31  54  81 102 122 156 203 253 303
#
# _framework density 18.486203
#
# number of rings (size 3 to 8) (size 9 to 14) (size 15 to 20)
#    0.000    2.500    1.250    1.875    0.000    4.000 
#    0.000    3.125    0.000    6.375    0.000    0.000 
#    0.000    0.000    0.000    0.000    0.000    0.000 
#
# Total GULP energy -793165.452141 kJ/mol
# GULP energy per Si atom -12393.210190 kJ/mol
# Density = 1.844413 g / cm^3
# Si number density = 18.486203 Si / 1000 Ang^3
#
#
#
# Elastic Constant Matrix: (Units=GPa)
#
#
# Indices 1 2 3 4 5 6 
#
# 1 117.4211 34.5070 30.3871 0.0000 0.0000 0.0000
# 2 34.5070 41.7951 37.2467 0.0000 0.0000 0.0000
# 3 30.3871 37.2467 77.6467 0.0000 0.0000 0.0000
# 4 0.0000 0.0000 0.0000 21.4069 0.0000 0.0000
# 5 0.0000 0.0000 0.0000 0.0000 23.8219 0.0000
# 6 0.0000 0.0000 0.0000 0.0000 0.0000 23.6340
#
#
#
# Elastic Compliance Matrix: (Units=1/GPa)
#
#
# Indices 1 2 3 4 5 6 
#
# 1 0.011245 -0.009366 0.000092 0.000000 0.000000 0.000000
# 2 -0.009366 0.049594 -0.020124 0.000000 0.000000 0.000000
# 3 0.000092 -0.020124 0.022496 0.000000 0.000000 0.000000
# 4 0.000000 0.000000 0.000000 0.046714 0.000000 0.000000
# 5 0.000000 0.000000 0.000000 0.000000 0.041978 0.000000
# 6 0.000000 0.000000 0.000000 0.000000 0.000000 0.042312
#
#
# Mechanical properties :
#
#
# Convention : Reuss Voigt Hill
#
# Bulk Modulus (GPa) = 40.75292 49.01606 44.88449
# Shear Modulus (GPa) = 17.77367 22.75401 20.26384
#
# Velocity S-wave (km/s) = 3.10410 3.51217 3.31442
# Velocity P-wave (km/s) = 5.91102 6.55894 6.24339
#
# Compressibility (1/GPa) = 0.02453812
#
# Stress axis : x y z
#
# Youngs Moduli (GPa) = 88.92832 20.16392 44.45189
#
# Poissons Ratio (x) = 0.18886 -0.00410
# Poissons Ratio (y) = 0.83293 0.89456
# Poissons Ratio (z) = -0.00820 0.40578
#
# Static dielectric constant tensor:
#      x y z
#    x 4.000040 0.000000 0.000000 
#    y 0.000000 3.223710 0.000000 
#    z 0.000000 0.000000 3.214720 
# 
# 
# High freq. dielectric constant tensor:
#      x y z
#    x 1.736220 0.000000 0.000000 
#    y 0.000000 1.696040 0.000000 
#    z 0.000000 0.000000 1.694630 
# 
# From -- ./inp_files/35739.got.cif
#   From: 2010.03.12/outbox.cif.g09.slc.cpg/sg51_18_cif.got.tgz:35739.got - 2010.04.16 13:43:02.
