data_PCOD8212061
_publ_section_title
;
Structure prediction by ZEFSAII (Michael W. Deem and Ramdas Pophale) SiO2 
 PCOD8212061
Probable space group: P M M A
;
_chemical_formula_sum "Si O2"
_cell_formula_units_Z 64
_cell_length_a 9.350615
_cell_length_b 18.328960
_cell_length_c 19.527975
_cell_angle_alpha 90.000000
_cell_angle_beta 90.000000
_cell_angle_gamma 90.000000
_cell_volume 3346.841995
_symmetry_space_group_name_H-M "P M M A"
_symmetry_group_IT_number 51
_symmetry_cell_setting 'orthorhombic'
loop_
_space_group_symop_operation_xyz
x,y,z
1/2-x,-y,z
1/2+x,-y,-z
-x,y,-z
-x,-y,-z
1/2+x,y,-z
1/2-x,y,z
x,-y,z
loop_
_atom_site_type_symbol
_atom_site_label
_atom_site_fract_x
_atom_site_fract_y
_atom_site_fract_z
Si Si1 0.590593 0.085141 0.437860
Si Si2 0.414962 0.701633 0.430235
Si Si3 0.091395 0.414173 0.938619
Si Si4 0.918652 0.835666 0.667021
Si Si5 0.416344 0.916217 0.932266
Si Si6 0.417163 0.583236 0.324289
Si Si7 0.913551 0.818130 0.196232
Si Si8 0.086652 0.350834 0.799994
O O1 0.500000 0.121257 0.500000
O O2 0.750000 0.120441 0.435501
O O3 0.502714 0.098177 0.368683
O O4 0.606803 0.000000 0.450177
O O5 0.500000 0.711520 0.500000
O O6 0.250000 0.709228 0.449494
O O7 0.458700 0.762106 0.374030
O O8 0.448836 0.622769 0.396640
O O9 0.250000 0.379948 0.942907
O O10 0.097248 0.500000 0.947795
O O11 0.024481 0.395189 0.864888
O O12 0.000000 0.378827 0.000000
O O13 0.750000 0.850864 0.667553
O O14 0.975962 0.834386 0.743614
O O15 0.250000 0.906472 0.948259
O O16 0.463004 0.865087 0.869162
O O17 0.453413 0.000000 0.913324
O O18 0.500000 0.891029 0.000000
O O19 0.250000 0.586083 0.307355
O O20 0.472875 0.500000 0.328744
O O21 0.494566 0.628270 0.265326
O O22 0.750000 0.838258 0.217258
O O23 0.925969 0.733208 0.179297
O O24 0.250000 0.373133 0.784091
#
# Coordination Sequence:
#
# PCOD8212061 Si02
#       8
#     8   8   8   8   8   8   8   8
#     4  10  21  37  57  82 113 148 187 230 277 333
#     4  10  22  38  56  81 110 143 184 229 281 336
#     4   9  18  32  49  72 103 137 175 219 269 328
#     4  11  22  37  57  82 114 150 189 235 282 335
#     4   9  19  37  59  83 114 151 191 233 278 330
#     4  10  21  38  58  80 109 144 183 230 285 342
#     4  10  21  36  56  82 112 147 187 231 282 334
#     4  10  20  35  55  79 109 144 184 232 280 334
#
# _framework density 19.122503999999999
#
# number of rings (size 3 to 8) (size 9 to 14) (size 15 to 20)
#    0.000    2.125    1.250    1.500    0.000    6.250 
#    0.000    2.500    0.000    0.000    0.000    0.000 
#    0.000    0.000    0.000    0.000    0.000    0.000 
#
# Total GULP energy -793612.614529 kJ/mol
# GULP energy per Si atom -12400.197102 kJ/mol
# Density = 1.907898 g / cm^3
# Si number density = 19.122504 Si / 1000 Ang^3
#
#
#
# Elastic Constant Matrix: (Units=GPa)
#
#
# Indices 1 2 3 4 5 6 
#
# 1 95.5907 34.7323 71.6347 0.0000 0.0000 0.0000
# 2 34.7323 64.6252 43.9871 0.0000 0.0000 0.0000
# 3 71.6347 43.9871 145.6193 0.0000 0.0000 0.0000
# 4 0.0000 0.0000 0.0000 33.7809 0.0000 0.0000
# 5 0.0000 0.0000 0.0000 0.0000 38.3020 0.0000
# 6 0.0000 0.0000 0.0000 0.0000 0.0000 19.2014
#
#
#
# Elastic Compliance Matrix: (Units=1/GPa)
#
#
# Indices 1 2 3 4 5 6 
#
# 1 0.017540 -0.004474 -0.007277 0.000000 0.000000 0.000000
# 2 -0.004474 0.020620 -0.004028 0.000000 0.000000 0.000000
# 3 -0.007277 -0.004028 0.011664 0.000000 0.000000 0.000000
# 4 0.000000 0.000000 0.000000 0.029602 0.000000 0.000000
# 5 0.000000 0.000000 0.000000 0.000000 0.026108 0.000000
# 6 0.000000 0.000000 0.000000 0.000000 0.000000 0.052080
#
#
# Mechanical properties :
#
#
# Convention : Reuss Voigt Hill
#
# Bulk Modulus (GPa) = 54.74560 67.39370 61.06965
# Shear Modulus (GPa) = 25.60684 28.62227 27.11455
#
# Velocity S-wave (km/s) = 3.66333 3.87303 3.76964
# Velocity P-wave (km/s) = 6.82528 7.43775 7.13808
#
# Compressibility (1/GPa) = 0.01826631
#
# Stress axis : x y z
#
# Youngs Moduli (GPa) = 57.01184 48.49727 85.73521
#
# Poissons Ratio (x) = 0.21696 0.62392
# Poissons Ratio (y) = 0.25505 0.34533
# Poissons Ratio (z) = 0.41489 0.19534
#
# Static dielectric constant tensor:
#      x y z
#    x 3.617080 0.000000 0.000000 
#    y 0.000000 3.515690 0.000000 
#    z 0.000000 0.000000 3.489430 
# 
# 
# High freq. dielectric constant tensor:
#      x y z
#    x 1.742520 0.000000 0.000000 
#    y 0.000000 1.739760 0.000000 
#    z 0.000000 0.000000 1.745530 
# 
# From -- ./inp_files/32445.got.cif
#   From: 2010.03.12/outbox.cif.g09.slc.cpg/sg51_17_cif.got.tgz:32445.got - 2010.04.16 13:43:02.
