data_PCOD8212271
_publ_section_title
;
Structure prediction by ZEFSAII (Michael W. Deem and Ramdas Pophale) SiO2 
 PCOD8212271
Probable space group: P M M A
;
_chemical_formula_sum "Si O2"
_cell_formula_units_Z 64
_cell_length_a 14.173776
_cell_length_b 18.058541
_cell_length_c 12.183943
_cell_angle_alpha 90.000000
_cell_angle_beta 90.000000
_cell_angle_gamma 90.000000
_cell_volume 3118.574210
_symmetry_space_group_name_H-M "P M M A"
_symmetry_group_IT_number 51
_symmetry_cell_setting 'orthorhombic'
loop_
_space_group_symop_operation_xyz
x,y,z
1/2-x,-y,z
1/2+x,-y,-z
-x,y,-z
-x,-y,-z
1/2+x,y,-z
1/2-x,y,z
x,-y,z
loop_
_atom_site_type_symbol
_atom_site_label
_atom_site_fract_x
_atom_site_fract_y
_atom_site_fract_z
Si Si1 0.648256 0.889468 0.817777
Si Si2 0.985984 0.585105 0.830384
Si Si3 0.354634 0.365126 0.982798
Si Si4 0.493181 0.314981 0.626150
Si Si5 0.437092 0.082692 0.820742
Si Si6 0.646284 0.196560 0.606178
Si Si7 0.640028 0.814848 0.361336
Si Si8 0.607104 0.795500 0.009364
O O1 0.750000 0.931904 0.838151
O O2 0.549369 0.929708 0.847394
O O3 0.644211 0.871384 0.689657
O O4 0.651673 0.815608 0.892023
O O5 0.956069 0.500000 0.820983
O O6 0.086142 0.590711 0.892072
O O7 0.996864 0.616236 0.707512
O O8 0.905390 0.628515 0.898422
O O9 0.250000 0.399932 0.988734
O O10 0.342966 0.278611 0.947138
O O11 0.500000 0.343304 0.500000
O O12 0.577891 0.259300 0.649863
O O13 0.397282 0.269481 0.654395
O O14 0.420217 0.124868 0.706315
O O15 0.383795 0.132824 0.911318
O O16 0.392376 0.000000 0.819488
O O17 0.750000 0.232709 0.598782
O O18 0.618965 0.163824 0.487428
O O19 0.750000 0.818511 0.328650
O O20 0.500000 0.770778 0.000000
#
# Coordination Sequence:
#
# PCOD8212271 Si02
#       8
#     8   8   8   8   8   8   8   8
#     4  10  20  35  58  85 114 149 189 243 298 351
#     4  11  24  39  58  92 128 158 195 240 294 363
#     4  11  22  39  64  89 116 158 203 250 298 344
#     4  10  20  37  63  89 119 158 198 244 294 352
#     4  11  24  39  57  83 119 158 194 243 303 357
#     4   9  18  35  62  91 112 140 194 251 292 337
#     4  10  21  38  60  85 114 151 201 250 290 344
#     4  10  20  36  59  87 115 147 196 243 288 351
#
# _framework density 20.522197999999999
#
# number of rings (size 3 to 8) (size 9 to 14) (size 15 to 20)
#    0.000    1.750    2.500    2.625    0.000    8.000 
#    0.000    1.250    0.000    2.250    0.000    5.250 
#    0.000    0.000    0.000    0.000    0.000    0.000 
#
# Total GULP energy -793054.267980 kJ/mol
# GULP energy per Si atom -12391.472937 kJ/mol
# Density = 2.047549 g / cm^3
# Si number density = 20.522198 Si / 1000 Ang^3
#
#
#
# Elastic Constant Matrix: (Units=GPa)
#
#
# Indices 1 2 3 4 5 6 
#
# 1 117.7918 17.0068 20.4743 0.0000 0.0000 0.0000
# 2 17.0068 108.6071 43.1162 0.0000 0.0000 0.0000
# 3 20.4743 43.1162 100.3142 0.0000 0.0000 0.0000
# 4 0.0000 0.0000 0.0000 6.1477 0.0000 0.0000
# 5 0.0000 0.0000 0.0000 0.0000 7591.6635 0.0000
# 6 0.0000 0.0000 0.0000 0.0000 0.0000 -48.3760
#
#
#
# Elastic Compliance Matrix: (Units=1/GPa)
#
#
# Indices 1 2 3 4 5 6 
#
# 1 0.008860 -0.000807 -0.001461 0.000000 0.000000 0.000000
# 2 -0.000807 0.011175 -0.004639 0.000000 0.000000 0.000000
# 3 -0.001461 -0.004639 0.012261 0.000000 0.000000 0.000000
# 4 0.000000 0.000000 0.000000 0.162662 0.000000 0.000000
# 5 0.000000 0.000000 0.000000 0.000000 0.000132 0.000000
# 6 0.000000 0.000000 0.000000 0.000000 0.000000 -0.020671
#
#
# Mechanical properties :
#
#
# Convention : Reuss Voigt Hill
#
# Bulk Modulus (GPa) = 54.10737 54.21196 54.15967
# Shear Modulus (GPa) = 25.72107 1526.29475 776.00791
#
# Velocity S-wave (km/s) = 3.54408 27.30098 19.46669
# Velocity P-wave (km/s) = 6.57038 31.94158 23.05899
#
# Compressibility (1/GPa) = 0.01848177
#
# Stress axis : x y z
#
# Youngs Moduli (GPa) = 112.86525 89.48248 81.56170
#
# Poissons Ratio (x) = 0.07223 0.11919
# Poissons Ratio (y) = 0.09111 0.37833
# Poissons Ratio (z) = 0.16494 0.41507
#
# Static dielectric constant tensor:
#      x y z
#    x 3.998150 0.000000 0.000000 
#    y 0.000000 3.348530 0.000000 
#    z 0.000000 0.000000 3.780630 
# 
# 
# High freq. dielectric constant tensor:
#      x y z
#    x 1.813970 0.000000 0.000000 
#    y 0.000000 1.767620 0.000000 
#    z 0.000000 0.000000 1.806130 
# 
# From -- ./inp_files/16882.got.cif
#   From: 2010.03.12/outbox.cif.g09.slc.cpg/sg51_9_cif.got.tgz:16882.got - 2010.04.16 13:43:02.
