data_PCOD8212736
_publ_section_title
;
Structure prediction by ZEFSAII (Michael W. Deem and Ramdas Pophale) SiO2 
 PCOD8212736
Probable space group: P M M A
;
_chemical_formula_sum "Si O2"
_cell_formula_units_Z 48
_cell_length_a 17.620779
_cell_length_b 10.034616
_cell_length_c 13.636274
_cell_angle_alpha 90.000000
_cell_angle_beta 90.000000
_cell_angle_gamma 90.000000
_cell_volume 2411.135299
_symmetry_space_group_name_H-M "P M M A"
_symmetry_group_IT_number 51
_symmetry_cell_setting 'orthorhombic'
loop_
_space_group_symop_operation_xyz
x,y,z
1/2-x,-y,z
1/2+x,-y,-z
-x,y,-z
-x,-y,-z
1/2+x,y,-z
1/2-x,y,z
x,-y,z
loop_
_atom_site_type_symbol
_atom_site_label
_atom_site_fract_x
_atom_site_fract_y
_atom_site_fract_z
Si Si1 0.838365 0.258166 0.400103
Si Si2 0.088252 0.000000 0.522491
Si Si3 0.159911 0.500000 0.467977
Si Si4 0.837325 0.346516 0.179524
Si Si5 0.659994 0.000000 0.688896
Si Si6 0.660345 0.224769 0.831606
Si Si7 0.584739 0.847324 0.030428
Si Si8 0.340622 0.500000 0.247140
O O1 0.750000 0.222967 0.417637
O O2 0.889081 0.127562 0.413338
O O3 0.868533 0.367275 0.477493
O O4 0.851513 0.317814 0.293031
O O5 0.132980 0.000000 0.421321
O O6 0.000000 0.000000 0.500000
O O7 0.250000 0.500000 0.470325
O O8 0.127426 0.500000 0.357854
O O9 0.750000 0.318652 0.151233
O O10 0.858141 0.500000 0.156925
O O11 0.890591 0.249848 0.117289
O O12 0.628221 0.871154 0.746423
O O13 0.750000 0.000000 0.688469
O O14 0.750000 0.226852 0.826267
O O15 0.638221 0.172290 0.937474
O O16 0.627670 0.372026 0.810933
O O17 0.590736 0.000000 0.067201
O O18 0.500000 0.809862 0.000000
O O19 0.250000 0.500000 0.250645
#
# Coordination Sequence:
#
# PCOD8212736 Si02
#       8
#     8   4   4   8   4   8   8   4
#     4  10  20  39  65  92 121 156 204 260 308 355
#     4  12  26  38  57  88 129 170 205 244 294 364
#     4   9  16  34  64  91 120 150 193 253 308 353
#     4  10  22  41  67  96 121 154 205 264 315 361
#     4  10  20  38  62  84 112 152 200 248 294 346
#     4  10  20  37  60  87 118 148 194 251 297 348
#     4  11  25  42  61  86 123 165 200 243 305 374
#     4   9  18  30  54  89 115 146 185 235 296 349
#
# _framework density 19.907633000000001
#
# number of rings (size 3 to 8) (size 9 to 14) (size 15 to 20)
#    0.000    1.833    1.667    2.250    2.333    5.333 
#    0.000    0.417    0.000    0.000    0.000    0.000 
#    0.000    0.000    0.000    0.000    0.000    0.000 
#
# Total GULP energy -595304.177599 kJ/mol
# GULP energy per Si atom -12402.170367 kJ/mol
# Density = 1.986232 g / cm^3
# Si number density = 19.907633 Si / 1000 Ang^3
#
#
#
# Elastic Constant Matrix: (Units=GPa)
#
#
# Indices 1 2 3 4 5 6 
#
# 1 41.8706 48.2343 14.6522 0.0000 0.0000 0.0000
# 2 48.2343 143.5200 24.7180 0.0000 0.0000 0.0000
# 3 14.6522 24.7180 65.3958 0.0000 0.0000 0.0000
# 4 0.0000 0.0000 0.0000 45.8243 0.0000 0.0000
# 5 0.0000 0.0000 0.0000 0.0000 14.0889 0.0000
# 6 0.0000 0.0000 0.0000 0.0000 0.0000 13.3094
#
#
#
# Elastic Compliance Matrix: (Units=1/GPa)
#
#
# Indices 1 2 3 4 5 6 
#
# 1 0.039998 -0.012728 -0.004151 0.000000 0.000000 0.000000
# 2 -0.012728 0.011503 -0.001496 0.000000 0.000000 0.000000
# 3 -0.004151 -0.001496 0.016787 0.000000 0.000000 0.000000
# 4 0.000000 0.000000 0.000000 0.021822 0.000000 0.000000
# 5 0.000000 0.000000 0.000000 0.000000 0.070978 0.000000
# 6 0.000000 0.000000 0.000000 0.000000 0.000000 0.075135
#
#
# Mechanical properties :
#
#
# Convention : Reuss Voigt Hill
#
# Bulk Modulus (GPa) = 31.70750 47.33284 39.52017
# Shear Modulus (GPa) = 17.63766 25.52333 21.58050
#
# Velocity S-wave (km/s) = 2.97976 3.58451 3.29603
# Velocity P-wave (km/s) = 5.27262 6.39996 5.86345
#
# Compressibility (1/GPa) = 0.03153828
#
# Stress axis : x y z
#
# Youngs Moduli (GPa) = 25.00147 86.93519 59.56974
#
# Poissons Ratio (x) = 1.10647 0.24727
# Poissons Ratio (y) = 0.31821 0.08912
# Poissons Ratio (z) = 0.10378 0.13007
#
# Static dielectric constant tensor:
#      x y z
#    x 3.403470 0.000000 0.000000 
#    y 0.000000 4.119770 0.000000 
#    z 0.000000 0.000000 3.709600 
# 
# 
# High freq. dielectric constant tensor:
#      x y z
#    x 1.741500 0.000000 0.000000 
#    y 0.000000 1.796520 0.000000 
#    z 0.000000 0.000000 1.785150 
# 
# From -- ./inp_files/25042.got.cif
#   From: 2010.03.12/outbox.cif.g09.slc.cpg/sg51_13_cif.got.tgz:25042.got - 2010.04.16 13:43:02.
