data_PCOD8212884
_publ_section_title
;
Structure prediction by ZEFSAII (Michael W. Deem and Ramdas Pophale) SiO2 
 PCOD8212884
Probable space group: P M M A
;
_chemical_formula_sum "Si O2"
_cell_formula_units_Z 48
_cell_length_a 17.765734
_cell_length_b 15.176533
_cell_length_c 9.010139
_cell_angle_alpha 90.000000
_cell_angle_beta 90.000000
_cell_angle_gamma 90.000000
_cell_volume 2429.333935
_symmetry_space_group_name_H-M "P M M A"
_symmetry_group_IT_number 51
_symmetry_cell_setting 'orthorhombic'
loop_
_space_group_symop_operation_xyz
x,y,z
1/2-x,-y,z
1/2+x,-y,-z
-x,y,-z
-x,-y,-z
1/2+x,y,-z
1/2-x,y,z
x,-y,z
loop_
_atom_site_type_symbol
_atom_site_label
_atom_site_fract_x
_atom_site_fract_y
_atom_site_fract_z
Si Si1 0.662429 0.000000 0.193384
Si Si2 0.572210 0.165664 0.694403
Si Si3 0.163768 0.351275 0.633092
Si Si4 0.926525 0.500000 0.203260
Si Si5 0.576659 0.000000 0.906587
Si Si6 0.095927 0.500000 0.144623
Si Si7 0.099119 0.833544 0.639607
Si Si8 0.663048 0.665304 0.707123
O O1 0.624795 0.085242 0.263208
O O2 0.750000 0.000000 0.227087
O O3 0.647208 0.000000 0.017814
O O4 0.485438 0.192238 0.681734
O O5 0.605583 0.139856 0.533401
O O6 0.615512 0.250102 0.758785
O O7 0.583174 0.085180 0.804647
O O8 0.250000 0.377619 0.665768
O O9 0.108810 0.412962 0.725803
O O10 0.151248 0.249779 0.678340
O O11 0.143412 0.363403 0.460471
O O12 0.016155 0.500000 0.230514
O O13 0.911975 0.500000 0.030126
O O14 0.500000 0.000000 0.000000
O O15 0.143656 0.414535 0.185765
O O16 0.750000 0.690735 0.722140
#
# Coordination Sequence:
#
# PCOD8212884 Si02
#       8
#     4   8   8   4   4   4   8   8
#     4  12  25  39  59  89 123 160 198 246 309 363
#     4  10  21  39  66  90 117 158 206 246 302 356
#     4  10  21  38  61  89 119 152 196 252 307 355
#     4  11  24  39  58  86 118 157 206 245 298 364
#     4  12  23  41  60  89 126 167 197 250 297 365
#     4  11  24  41  58  86 122 163 200 247 298 364
#     4  10  20  39  64  91 116 153 203 254 297 360
#     4  10  22  40  63  90 120 155 198 250 304 358
#
# _framework density 19.758503000000001
#
# number of rings (size 3 to 8) (size 9 to 14) (size 15 to 20)
#    0.000    1.500    1.667    3.000    0.000    9.333 
#    3.000    0.833    0.000    0.000    0.000    0.000 
#    0.000    0.000    0.000    0.000    0.000    0.000 
#
# Total GULP energy -595459.879532 kJ/mol
# GULP energy per Si atom -12405.414157 kJ/mol
# Density = 1.971353 g / cm^3
# Si number density = 19.758503 Si / 1000 Ang^3
#
#
#
# Elastic Constant Matrix: (Units=GPa)
#
#
# Indices 1 2 3 4 5 6 
#
# 1 98.8167 47.6355 35.2125 0.0000 0.0000 0.0000
# 2 47.6355 139.4740 61.2032 0.0000 0.0000 0.0000
# 3 35.2125 61.2032 81.4337 0.0000 0.0000 0.0000
# 4 0.0000 0.0000 0.0000 389.0441 0.0000 0.0000
# 5 0.0000 0.0000 0.0000 0.0000 28.4164 0.0000
# 6 0.0000 0.0000 0.0000 0.0000 0.0000 5.2117
#
#
#
# Elastic Compliance Matrix: (Units=1/GPa)
#
#
# Indices 1 2 3 4 5 6 
#
# 1 0.012691 -0.002874 -0.003327 0.000000 0.000000 0.000000
# 2 -0.002874 0.011349 -0.007287 0.000000 0.000000 0.000000
# 3 -0.003327 -0.007287 0.019195 0.000000 0.000000 0.000000
# 4 0.000000 0.000000 0.000000 0.002570 0.000000 0.000000
# 5 0.000000 0.000000 0.000000 0.000000 0.035191 0.000000
# 6 0.000000 0.000000 0.000000 0.000000 0.000000 0.191875
#
#
# Mechanical properties :
#
#
# Convention : Reuss Voigt Hill
#
# Bulk Modulus (GPa) = 61.50697 67.53632 64.52164
# Shear Modulus (GPa) = 16.37908 96.24600 56.31254
#
# Velocity S-wave (km/s) = 2.88230 6.98691 5.34437
# Velocity P-wave (km/s) = 6.50183 9.96716 8.41481
#
# Compressibility (1/GPa) = 0.01625832
#
# Stress axis : x y z
#
# Youngs Moduli (GPa) = 78.79573 88.11355 52.09635
#
# Poissons Ratio (x) = 0.25327 0.17335
# Poissons Ratio (y) = 0.22648 0.37961
# Poissons Ratio (z) = 0.26219 0.64206
#
# Static dielectric constant tensor:
#      x y z
#    x 3.731210 0.000000 0.000000 
#    y 0.000000 3.647160 0.000000 
#    z 0.000000 0.000000 3.656540 
# 
# 
# High freq. dielectric constant tensor:
#      x y z
#    x 1.779630 0.000000 0.000000 
#    y 0.000000 1.780730 0.000000 
#    z 0.000000 0.000000 1.767020 
# 
# From -- ./inp_files/9754.got.cif
#   From: 2010.03.12/outbox.cif.g09.slc.cpg/sg51_5_cif.got.tgz:9754.got - 2010.04.16 13:43:02.
