data_PCOD8212318
_publ_section_title
;
Structure prediction by ZEFSAII (Michael W. Deem and Ramdas Pophale) SiO2 
 PCOD8212318
Probable space group: P M M A
;
_chemical_formula_sum "Si O2"
_cell_formula_units_Z 64
_cell_length_a 14.807064
_cell_length_b 23.203399
_cell_length_c 9.261354
_cell_angle_alpha 90.000000
_cell_angle_beta 90.000000
_cell_angle_gamma 90.000000
_cell_volume 3181.962421
_symmetry_space_group_name_H-M "P M M A"
_symmetry_group_IT_number 51
_symmetry_cell_setting 'orthorhombic'
loop_
_space_group_symop_operation_xyz
x,y,z
1/2-x,-y,z
1/2+x,-y,-z
-x,y,-z
-x,-y,-z
1/2+x,y,-z
1/2-x,y,z
x,-y,z
loop_
_atom_site_type_symbol
_atom_site_label
_atom_site_fract_x
_atom_site_fract_y
_atom_site_fract_z
Si Si1 0.914780 0.341200 0.593583
Si Si2 0.031820 0.373093 0.849263
Si Si3 0.648013 0.141887 0.145292
Si Si4 0.478431 0.124753 0.337770
Si Si5 0.853351 0.064912 0.872822
Si Si6 0.352641 0.564218 0.621889
Si Si7 0.647541 0.768135 0.722548
Si Si8 0.351758 0.268503 0.960337
O O1 0.865252 0.393662 0.514075
O O2 0.851428 0.285206 0.609705
O O3 0.000000 0.321539 0.500000
O O4 0.943720 0.361060 0.753037
O O5 0.093719 0.417681 0.764131
O O6 0.084035 0.313840 0.882123
O O7 0.000000 0.401545 0.000000
O O8 0.750000 0.122643 0.190096
O O9 0.576739 0.125500 0.265970
O O10 0.644271 0.210218 0.130012
O O11 0.620280 0.110520 0.996441
O O12 0.500000 0.106894 0.500000
O O13 0.417065 0.075796 0.264480
O O14 0.423671 0.184666 0.330378
O O15 0.750000 0.073928 0.824511
O O16 0.869167 0.000000 0.930107
O O17 0.250000 0.564863 0.670057
O O18 0.383506 0.500000 0.574744
O O19 0.750000 0.793325 0.731829
O O20 0.614703 0.745147 0.878002
O O21 0.250000 0.293413 0.963792
#
# Coordination Sequence:
#
# PCOD8212318 Si02
#       8
#     8   8   8   8   8   8   8   8
#     4  10  21  36  59  87 117 158 201 245 296 363
#     4  11  21  35  60  91 118 148 192 250 308 361
#     4  10  22  40  63  90 121 165 213 259 305 360
#     4  12  25  38  59  92 131 168 201 253 314 376
#     4  10  22  43  69  93 119 161 217 263 303 360
#     4  10  23  44  63  81 115 161 204 247 301 367
#     4  11  21  36  59  89 126 164 206 252 305 370
#     4  10  20  35  59  88 122 157 197 247 307 364
#
# _framework density 20.113374
#
# number of rings (size 3 to 8) (size 9 to 14) (size 15 to 20)
#    0.000    1.500    2.500    2.625    0.000    5.750 
#    0.000    2.500    0.000    3.000    0.000    0.000 
#    0.000    0.000    0.000    0.000    0.000    0.000 
#
# Total GULP energy -793606.390071 kJ/mol
# GULP energy per Si atom -12400.099845 kJ/mol
# Density = 2.006759 g / cm^3
# Si number density = 20.113374 Si / 1000 Ang^3
#
#
#
# Elastic Constant Matrix: (Units=GPa)
#
#
# Indices 1 2 3 4 5 6 
#
# 1 97.0281 31.2153 43.9582 0.0000 0.0000 0.0000
# 2 31.2153 89.5922 18.8120 0.0000 0.0000 0.0000
# 3 43.9582 18.8120 106.3476 0.0000 0.0000 0.0000
# 4 0.0000 0.0000 0.0000 26.4609 0.0000 0.0000
# 5 0.0000 0.0000 0.0000 0.0000 24.0230 0.0000
# 6 0.0000 0.0000 0.0000 0.0000 0.0000 27.2902
#
#
#
# Elastic Compliance Matrix: (Units=1/GPa)
#
#
# Indices 1 2 3 4 5 6 
#
# 1 0.013795 -0.003748 -0.005039 0.000000 0.000000 0.000000
# 2 -0.003748 0.012611 -0.000681 0.000000 0.000000 0.000000
# 3 -0.005039 -0.000681 0.011607 0.000000 0.000000 0.000000
# 4 0.000000 0.000000 0.000000 0.037792 0.000000 0.000000
# 5 0.000000 0.000000 0.000000 0.000000 0.041627 0.000000
# 6 0.000000 0.000000 0.000000 0.000000 0.000000 0.036643
#
#
# Mechanical properties :
#
#
# Convention : Reuss Voigt Hill
#
# Bulk Modulus (GPa) = 52.42527 53.43766 52.93147
# Shear Modulus (GPa) = 27.87535 28.82031 28.34783
#
# Velocity S-wave (km/s) = 3.72682 3.78946 3.75827
# Velocity P-wave (km/s) = 6.68135 6.76555 6.72358
#
# Compressibility (1/GPa) = 0.01907477
#
# Stress axis : x y z
#
# Youngs Moduli (GPa) = 72.48938 79.29749 86.15840
#
# Poissons Ratio (x) = 0.29724 0.43416
# Poissons Ratio (y) = 0.27172 0.05871
# Poissons Ratio (z) = 0.36528 0.05403
#
# Static dielectric constant tensor:
#      x y z
#    x 3.834880 0.000000 0.000000 
#    y 0.000000 3.649620 0.000000 
#    z 0.000000 0.000000 3.626900 
# 
# 
# High freq. dielectric constant tensor:
#      x y z
#    x 1.798460 0.000000 0.000000 
#    y 0.000000 1.776340 0.000000 
#    z 0.000000 0.000000 1.775680 
# 
# From -- ./inp_files/8718.got.cif
#   From: 2010.03.12/outbox.cif.g09.slc.cpg/sg51_5_cif.got.tgz:8718.got - 2010.04.16 13:43:02.
