data_PCOD8212226
_publ_section_title
;
Structure prediction by ZEFSAII (Michael W. Deem and Ramdas Pophale) SiO2 
 PCOD8212226
Probable space group: P M M A
;
_chemical_formula_sum "Si O2"
_cell_formula_units_Z 48
_cell_length_a 15.825224
_cell_length_b 8.036516
_cell_length_c 18.172298
_cell_angle_alpha 90.000000
_cell_angle_beta 90.000000
_cell_angle_gamma 90.000000
_cell_volume 2311.146788
_symmetry_space_group_name_H-M "P M M A"
_symmetry_group_IT_number 51
_symmetry_cell_setting 'orthorhombic'
loop_
_space_group_symop_operation_xyz
x,y,z
1/2-x,-y,z
1/2+x,-y,-z
-x,y,-z
-x,-y,-z
1/2+x,y,-z
1/2-x,y,z
x,-y,z
loop_
_atom_site_type_symbol
_atom_site_label
_atom_site_fract_x
_atom_site_fract_y
_atom_site_fract_z
Si Si1 0.959208 0.312472 0.578634
Si Si2 0.080277 0.312847 0.710640
Si Si3 0.569389 0.317130 0.810578
Si Si4 0.592552 0.811269 0.966883
Si Si5 0.750000 0.812377 0.228451
Si Si6 0.158562 0.000000 0.415399
Si Si7 0.750000 0.802438 0.065025
Si Si8 0.839167 0.000000 0.753473
O O1 0.925656 0.500000 0.601670
O O2 0.000000 0.332439 0.500000
O O3 0.024829 0.245996 0.641458
O O4 0.888725 0.172101 0.565963
O O5 0.105967 0.500000 0.692623
O O6 0.168020 0.218054 0.721428
O O7 0.028870 0.297875 0.787674
O O8 0.601350 0.500000 0.784182
O O9 0.587252 0.307284 0.896783
O O10 0.614616 0.170301 0.769135
O O11 0.614293 0.000000 0.941614
O O12 0.500000 0.806166 0.000000
O O13 0.664871 0.743170 0.022247
O O14 0.750000 0.720963 0.147712
O O15 0.750000 0.000000 0.204255
O O16 0.178617 0.000000 0.330952
O O17 0.250000 0.000000 0.456889
O O18 0.750000 0.000000 0.068145
O O19 0.750000 0.000000 0.797075
#
# Coordination Sequence:
#
# PCOD8212226 Si02
#       8
#     8   8   8   8   4   4   4   4
#     4  10  22  43  68  95 135 179 214 263 326 384
#     4  10  22  41  62  89 125 164 210 262 313 378
#     4  11  23  39  63  88 120 165 210 255 314 386
#     4  10  20  35  57  83 116 160 204 255 317 380
#     4  11  23  37  65  95 120 163 212 263 319 380
#     4  11  23  41  67 100 129 171 221 269 314 385
#     4   9  20  37  55  85 122 156 203 256 319 382
#     4  11  24  39  62  88 124 159 202 266 316 361
#
# _framework density 20.768909000000001
#
# number of rings (size 3 to 8) (size 9 to 14) (size 15 to 20)
#    0.000    1.667    2.500    1.500    3.500    2.333 
#    1.500    3.333    0.000    0.000    0.000    0.000 
#    0.000    0.000    0.000    0.000    0.000    0.000 
#
# Total GULP energy -594667.609916 kJ/mol
# GULP energy per Si atom -12388.908540 kJ/mol
# Density = 2.072164 g / cm^3
# Si number density = 20.768909 Si / 1000 Ang^3
#
#
#
# Elastic Constant Matrix: (Units=GPa)
#
#
# Indices 1 2 3 4 5 6 
#
# 1 139.4103 58.5631 32.7454 0.0000 0.0000 0.0000
# 2 58.5631 123.3588 16.2720 0.0000 0.0000 0.0000
# 3 32.7454 16.2720 87.7712 0.0000 0.0000 0.0000
# 4 0.0000 0.0000 0.0000 20.1121 0.0000 0.0000
# 5 0.0000 0.0000 0.0000 0.0000 18.4254 0.0000
# 6 0.0000 0.0000 0.0000 0.0000 0.0000 10.7937
#
#
#
# Elastic Compliance Matrix: (Units=1/GPa)
#
#
# Indices 1 2 3 4 5 6 
#
# 1 0.009588 -0.004182 -0.002802 0.000000 0.000000 0.000000
# 2 -0.004182 0.010134 -0.000318 0.000000 0.000000 0.000000
# 3 -0.002802 -0.000318 0.012498 0.000000 0.000000 0.000000
# 4 0.000000 0.000000 0.000000 0.049721 0.000000 0.000000
# 5 0.000000 0.000000 0.000000 0.000000 0.054273 0.000000
# 6 0.000000 0.000000 0.000000 0.000000 0.000000 0.092647
#
#
# Mechanical properties :
#
#
# Convention : Reuss Voigt Hill
#
# Bulk Modulus (GPa) = 56.77080 62.85571 59.81325
# Shear Modulus (GPa) = 20.05322 26.06357 23.05839
#
# Velocity S-wave (km/s) = 3.11069 3.54635 3.33564
# Velocity P-wave (km/s) = 6.34789 6.86286 6.61039
#
# Compressibility (1/GPa) = 0.01761469
#
# Stress axis : x y z
#
# Youngs Moduli (GPa) = 104.29695 98.67864 80.01569
#
# Poissons Ratio (x) = 0.41270 0.22418
# Poissons Ratio (y) = 0.43619 0.02548
# Poissons Ratio (z) = 0.29221 0.03142
#
# Static dielectric constant tensor:
#      x y z
#    x 3.448550 0.000000 0.000000 
#    y 0.000000 4.419310 0.000000 
#    z 0.000000 0.000000 4.111060 
# 
# 
# High freq. dielectric constant tensor:
#      x y z
#    x 1.806580 0.000000 0.000000 
#    y 0.000000 1.811570 0.000000 
#    z 0.000000 0.000000 1.812350 
# 
# From -- ./inp_files/29664.got.cif
#   From: 2010.03.12/outbox.cif.g09.slc.cpg/sg51_15_cif.got.tgz:29664.got - 2010.04.16 13:43:02.
