data_PCOD8212428
_publ_section_title
;
Structure prediction by ZEFSAII (Michael W. Deem and Ramdas Pophale) SiO2 
 PCOD8212428
Probable space group: P M M A
;
_chemical_formula_sum "Si O2"
_cell_formula_units_Z 48
_cell_length_a 8.735692
_cell_length_b 30.274392
_cell_length_c 9.528453
_cell_angle_alpha 90.000000
_cell_angle_beta 90.000000
_cell_angle_gamma 90.000000
_cell_volume 2519.968659
_symmetry_space_group_name_H-M "P M M A"
_symmetry_group_IT_number 51
_symmetry_cell_setting 'orthorhombic'
loop_
_space_group_symop_operation_xyz
x,y,z
1/2-x,-y,z
1/2+x,-y,-z
-x,y,-z
-x,-y,-z
1/2+x,y,-z
1/2-x,y,z
x,-y,z
loop_
_atom_site_type_symbol
_atom_site_label
_atom_site_fract_x
_atom_site_fract_y
_atom_site_fract_z
Si Si1 0.068244 0.418102 0.845642
Si Si2 0.069833 0.500000 0.654992
Si Si3 0.570681 0.173179 0.853287
Si Si4 0.568847 0.346430 0.650284
Si Si5 0.069025 0.073228 0.151357
Si Si6 0.070054 0.753952 0.354844
Si Si7 0.568047 0.000000 0.345798
O O1 0.250000 0.415481 0.858839
O O2 0.015177 0.457617 0.743433
O O3 0.003721 0.373524 0.777719
O O4 0.000000 0.425506 0.000000
O O5 0.250000 0.500000 0.635699
O O6 0.000000 0.500000 0.500000
O O7 0.750000 0.178441 0.865960
O O8 0.528498 0.123519 0.805792
O O9 0.500901 0.210190 0.751427
O O10 0.500000 0.184877 0.000000
O O11 0.500000 0.361200 0.500000
O O12 0.750000 0.353892 0.644537
O O13 0.523074 0.295965 0.684900
O O14 0.250000 0.064422 0.147085
O O15 0.990119 0.043491 0.267717
O O16 0.000000 0.061300 0.000000
O O17 0.250000 0.757999 0.365386
O O18 0.000000 0.768358 0.500000
O O19 0.500000 0.000000 0.500000
O O20 0.750000 0.000000 0.352424
#
# Coordination Sequence:
#
# PCOD8212428 Si02
#       7
#     8   4   8   8   8   8   4
#     4  11  23  39  58  83 113 145 183 227 277 326
#     4  10  23  40  60  84 110 144 183 224 271 326
#     4   9  19  35  55  80 109 141 179 222 266 316
#     4  10  20  36  57  81 111 147 187 228 271 324
#     4  10  20  37  59  82 109 143 183 223 267 321
#     4   9  19  35  54  79 110 144 182 223 269 320
#     4  12  25  40  57  80 110 142 178 222 273 324
#
# _framework density 19.047858000000002
#
# number of rings (size 3 to 8) (size 9 to 14) (size 15 to 20)
#    0.000    2.000    0.000    3.250    0.000    6.000 
#    0.000    3.333    0.000    0.000    0.000    0.000 
#    0.000    0.000    0.000    0.000    0.000    0.000 
#
# Total GULP energy -595232.794002 kJ/mol
# GULP energy per Si atom -12400.683208 kJ/mol
# Density = 1.900450 g / cm^3
# Si number density = 19.047858 Si / 1000 Ang^3
#
#
#
# Elastic Constant Matrix: (Units=GPa)
#
#
# Indices 1 2 3 4 5 6 
#
# 1 67.5215 44.6145 62.7561 0.0000 0.0000 0.0000
# 2 44.6145 135.4022 107.4948 0.0000 0.0000 0.0000
# 3 62.7561 107.4948 173.9034 0.0000 0.0000 0.0000
# 4 0.0000 0.0000 0.0000 46.4123 0.0000 0.0000
# 5 0.0000 0.0000 0.0000 0.0000 38.4036 0.0000
# 6 0.0000 0.0000 0.0000 0.0000 0.0000 25.9602
#
#
#
# Elastic Compliance Matrix: (Units=1/GPa)
#
#
# Indices 1 2 3 4 5 6 
#
# 1 0.022531 -0.001903 -0.006955 0.000000 0.000000 0.000000
# 2 -0.001903 0.014663 -0.008377 0.000000 0.000000 0.000000
# 3 -0.006955 -0.008377 0.013438 0.000000 0.000000 0.000000
# 4 0.000000 0.000000 0.000000 0.021546 0.000000 0.000000
# 5 0.000000 0.000000 0.000000 0.000000 0.026039 0.000000
# 6 0.000000 0.000000 0.000000 0.000000 0.000000 0.038520
#
#
# Mechanical properties :
#
#
# Convention : Reuss Voigt Hill
#
# Bulk Modulus (GPa) = 61.86788 89.61753 75.74270
# Shear Modulus (GPa) = 28.31365 32.95266 30.63315
#
# Velocity S-wave (km/s) = 3.85963 4.16383 4.01461
# Velocity P-wave (km/s) = 7.23969 8.38257 7.83200
#
# Compressibility (1/GPa) = 0.01616348
#
# Stress axis : x y z
#
# Youngs Moduli (GPa) = 44.38308 68.20094 74.41619
#
# Poissons Ratio (x) = 0.12976 0.51754
# Poissons Ratio (y) = 0.08445 0.62337
# Poissons Ratio (z) = 0.30867 0.57130
#
# Static dielectric constant tensor:
#      x y z
#    x 3.510050 0.000000 0.000000 
#    y 0.000000 3.820520 0.000000 
#    z 0.000000 0.000000 3.548120 
# 
# 
# High freq. dielectric constant tensor:
#      x y z
#    x 1.745720 0.000000 0.000000 
#    y 0.000000 1.755410 0.000000 
#    z 0.000000 0.000000 1.742660 
# 
# From -- ./inp_files/6155.got.cif
#   From: 2010.03.12/outbox.cif.g09.slc.cpg/sg51_4_cif.got.tgz:6155.got - 2010.04.16 13:43:02.
