data_PCOD8212360
_publ_section_title
;
Structure prediction by ZEFSAII (Michael W. Deem and Ramdas Pophale) SiO2 
 PCOD8212360
Probable space group: P M M A
;
_chemical_formula_sum "Si O2"
_cell_formula_units_Z 52
_cell_length_a 10.927067
_cell_length_b 14.030075
_cell_length_c 16.836496
_cell_angle_alpha 90.000000
_cell_angle_beta 90.000000
_cell_angle_gamma 90.000000
_cell_volume 2581.162281
_symmetry_space_group_name_H-M "P M M A"
_symmetry_group_IT_number 51
_symmetry_cell_setting 'orthorhombic'
loop_
_space_group_symop_operation_xyz
x,y,z
1/2-x,-y,z
1/2+x,-y,-z
-x,y,-z
-x,-y,-z
1/2+x,y,-z
1/2-x,y,z
x,-y,z
loop_
_atom_site_type_symbol
_atom_site_label
_atom_site_fract_x
_atom_site_fract_y
_atom_site_fract_z
Si Si1 0.500000 0.259011 0.000000
Si Si2 0.391631 0.605358 0.878878
Si Si3 0.116093 0.888919 0.453047
Si Si4 0.887916 0.103632 0.888711
Si Si5 0.023247 0.893238 0.282320
Si Si6 0.608019 0.612318 0.439661
Si Si7 0.891555 0.704693 0.276037
O O1 0.404613 0.328517 0.956686
O O2 0.551698 0.191849 0.931895
O O3 0.250000 0.592512 0.862887
O O4 0.450804 0.500000 0.891908
O O5 0.454047 0.654116 0.800856
O O6 0.250000 0.846617 0.479739
O O7 0.104629 0.871046 0.359362
O O8 0.000000 0.841447 0.500000
O O9 0.116855 0.000000 0.473558
O O10 0.750000 0.100713 0.917991
O O11 0.890835 0.118570 0.794123
O O12 0.949318 0.000000 0.909556
O O13 0.913841 0.817957 0.276255
O O14 0.966678 0.000000 0.287820
O O15 0.500000 0.645080 0.500000
O O16 0.750000 0.643372 0.462709
O O17 0.606169 0.500000 0.429345
O O18 0.562168 0.657868 0.357299
O O19 0.750000 0.686964 0.268349
#
# Coordination Sequence:
#
# PCOD8212360 Si02
#       7
#     4   8   8   8   8   8   8
#     4  12  20  36  60  88 112 140 186 236 292 340
#     4  10  21  37  58  84 114 148 186 231 287 352
#     4   9  18  33  54  78 107 146 192 237 280 330
#     4  10  21  37  57  81 113 152 191 232 281 341
#     4  10  20  36  55  78 111 154 196 233 279 338
#     4   9  18  35  61  88 115 149 191 239 290 346
#     4  10  20  36  56  82 113 150 192 232 283 344
#
# _framework density 20.145962000000001
#
# number of rings (size 3 to 8) (size 9 to 14) (size 15 to 20)
#    0.000    2.154    1.538    1.846    0.000    5.231 
#    0.000    4.615    0.000    0.000    0.000    0.000 
#    0.000    0.000    0.000    0.000    0.000    0.000 
#
# Total GULP energy -644213.550144 kJ/mol
# GULP energy per Si atom -12388.722118 kJ/mol
# Density = 2.010011 g / cm^3
# Si number density = 20.145962 Si / 1000 Ang^3
#
#
#
# Elastic Constant Matrix: (Units=GPa)
#
#
# Indices 1 2 3 4 5 6 
#
# 1 72.2089 31.0037 51.2436 0.0000 0.0000 0.0000
# 2 31.0037 115.8266 55.4450 0.0000 0.0000 0.0000
# 3 51.2436 55.4450 110.5426 0.0000 0.0000 0.0000
# 4 0.0000 0.0000 0.0000 32.3463 0.0000 0.0000
# 5 0.0000 0.0000 0.0000 0.0000 25.2541 0.0000
# 6 0.0000 0.0000 0.0000 0.0000 0.0000 14.6716
#
#
#
# Elastic Compliance Matrix: (Units=1/GPa)
#
#
# Indices 1 2 3 4 5 6 
#
# 1 0.020775 -0.001251 -0.009003 0.000000 0.000000 0.000000
# 2 -0.001251 0.011437 -0.005156 0.000000 0.000000 0.000000
# 3 -0.009003 -0.005156 0.015806 0.000000 0.000000 0.000000
# 4 0.000000 0.000000 0.000000 0.030915 0.000000 0.000000
# 5 0.000000 0.000000 0.000000 0.000000 0.039598 0.000000
# 6 0.000000 0.000000 0.000000 0.000000 0.000000 0.068159
#
#
# Mechanical properties :
#
#
# Convention : Reuss Voigt Hill
#
# Bulk Modulus (GPa) = 58.15077 63.77364 60.96221
# Shear Modulus (GPa) = 22.39714 25.18013 23.78863
#
# Velocity S-wave (km/s) = 3.33790 3.53921 3.44003
# Velocity P-wave (km/s) = 6.61686 6.95887 6.79002
#
# Compressibility (1/GPa) = 0.01719668
#
# Stress axis : x y z
#
# Youngs Moduli (GPa) = 48.13495 87.43701 63.26728
#
# Poissons Ratio (x) = 0.10941 0.56959
# Poissons Ratio (y) = 0.06023 0.32623
# Poissons Ratio (z) = 0.43335 0.45085
#
# Static dielectric constant tensor:
#      x y z
#    x -3.729650 0.000000 0.000000 
#    y 0.000000 3.846020 0.000000 
#    z 0.000000 0.000000 3.874540 
# 
# 
# High freq. dielectric constant tensor:
#      x y z
#    x 1.753100 0.000000 0.000000 
#    y 0.000000 1.796240 0.000000 
#    z 0.000000 0.000000 1.794510 
# 
# From -- ./inp_files/23303.got.cif
#   From: 2010.03.12/outbox.cif.g09.slc.cpg/sg51_12_cif.got.tgz:23303.got - 2010.04.16 13:43:02.
