data_PCOD8212757
_publ_section_title
;
Structure prediction by ZEFSAII (Michael W. Deem and Ramdas Pophale) SiO2 
 PCOD8212757
Probable space group: P M M A
;
_chemical_formula_sum "Si O2"
_cell_formula_units_Z 48
_cell_length_a 15.703821
_cell_length_b 8.936104
_cell_length_c 16.716220
_cell_angle_alpha 90.000000
_cell_angle_beta 90.000000
_cell_angle_gamma 90.000000
_cell_volume 2345.803495
_symmetry_space_group_name_H-M "P M M A"
_symmetry_group_IT_number 51
_symmetry_cell_setting 'orthorhombic'
loop_
_space_group_symop_operation_xyz
x,y,z
1/2-x,-y,z
1/2+x,-y,-z
-x,y,-z
-x,-y,-z
1/2+x,y,-z
1/2-x,y,z
x,-y,z
loop_
_atom_site_type_symbol
_atom_site_label
_atom_site_fract_x
_atom_site_fract_y
_atom_site_fract_z
Si Si1 0.914991 0.324527 0.839516
Si Si2 0.347930 0.826984 0.008448
Si Si3 0.344843 0.170374 0.669094
Si Si4 0.846135 0.826188 0.690291
Si Si5 0.586366 0.829750 0.163086
Si Si6 0.495808 0.674635 0.407275
O O1 0.901677 0.500000 0.834156
O O2 0.902232 0.270340 0.930147
O O3 0.850010 0.247067 0.778215
O O4 0.009756 0.279998 0.813381
O O5 0.250000 0.794565 0.025307
O O6 0.370820 0.000000 0.021418
O O7 0.369668 0.775986 0.918669
O O8 0.250000 0.219172 0.641115
O O9 0.346042 0.181929 0.765437
O O10 0.415020 0.276350 0.630596
O O11 0.363556 0.000000 0.642297
O O12 0.750000 0.802194 0.657196
O O13 0.914071 0.755721 0.629990
O O14 0.868111 0.000000 0.699183
O O15 0.552346 0.000000 0.154461
O O16 0.500000 0.715517 0.500000
O O17 0.483425 0.500000 0.391663
#
# Coordination Sequence:
#
# PCOD8212757 Si02
#       6
#     8   8   8   8   8   8
#     4  12  24  37  57  87 124 164 207 255 313 372
#     4  10  21  37  57  83 117 160 211 259 304 360
#     4  10  21  39  66  97 127 164 211 259 308 365
#     4  11  24  43  68  95 123 162 213 264 313 368
#     4  10  20  37  61  87 119 161 209 258 307 360
#     4  11  25  44  66  95 131 167 202 248 311 379
#
# _framework density 20.462071999999999
#
# number of rings (size 3 to 8) (size 9 to 14) (size 15 to 20)
#    0.000    1.333    1.667    4.000    0.000   10.667 
#    0.000    3.333    0.000    3.000    0.000    0.000 
#    0.000    0.000    0.000    0.000    0.000    0.000 
#
# Total GULP energy -595364.469074 kJ/mol
# GULP energy per Si atom -12403.426439 kJ/mol
# Density = 2.041550 g / cm^3
# Si number density = 20.462072 Si / 1000 Ang^3
#
#
#
# Elastic Constant Matrix: (Units=GPa)
#
#
# Indices 1 2 3 4 5 6 
#
# 1 112.4786 50.6435 43.1674 0.0000 0.0000 0.0000
# 2 50.6435 107.9857 53.7726 0.0000 0.0000 0.0000
# 3 43.1674 53.7726 111.4636 0.0000 0.0000 0.0000
# 4 0.0000 0.0000 0.0000 15.2582 0.0000 0.0000
# 5 0.0000 0.0000 0.0000 0.0000 18.9999 0.0000
# 6 0.0000 0.0000 0.0000 0.0000 0.0000 6.8018
#
#
#
# Elastic Compliance Matrix: (Units=1/GPa)
#
#
# Indices 1 2 3 4 5 6 
#
# 1 0.011775 -0.004280 -0.002496 0.000000 0.000000 0.000000
# 2 -0.004280 0.013744 -0.004973 0.000000 0.000000 0.000000
# 3 -0.002496 -0.004973 0.012337 0.000000 0.000000 0.000000
# 4 0.000000 0.000000 0.000000 0.065539 0.000000 0.000000
# 5 0.000000 0.000000 0.000000 0.000000 0.052632 0.000000
# 6 0.000000 0.000000 0.000000 0.000000 0.000000 0.147021
#
#
# Mechanical properties :
#
#
# Convention : Reuss Voigt Hill
#
# Bulk Modulus (GPa) = 69.63935 69.67722 69.65829
# Shear Modulus (GPa) = 15.09066 20.50159 17.79613
#
# Velocity S-wave (km/s) = 2.71863 3.16876 2.95229
# Velocity P-wave (km/s) = 6.63037 6.89303 6.76298
#
# Compressibility (1/GPa) = 0.01435970
#
# Stress axis : x y z
#
# Youngs Moduli (GPa) = 84.92349 72.75956 81.05606
#
# Poissons Ratio (x) = 0.31139 0.20229
# Poissons Ratio (y) = 0.36344 0.40309
# Poissons Ratio (z) = 0.21195 0.36183
#
# Static dielectric constant tensor:
#      x y z
#    x 3.718960 0.000000 0.000000 
#    y 0.000000 3.616480 0.000000 
#    z 0.000000 0.000000 3.759610 
# 
# 
# High freq. dielectric constant tensor:
#      x y z
#    x 1.808410 0.000000 0.000000 
#    y 0.000000 1.791220 0.000000 
#    z 0.000000 0.000000 1.803560 
# 
# From -- ./inp_files/29412.got.cif
#   From: 2010.03.12/outbox.cif.g09.slc.cpg/sg51_15_cif.got.tgz:29412.got - 2010.04.16 13:43:02.
