data_PCOD8212949
_publ_section_title
;
Structure prediction by ZEFSAII (Michael W. Deem and Ramdas Pophale) SiO2 
 PCOD8212949
Probable space group: P M M A
;
_chemical_formula_sum "Si O2"
_cell_formula_units_Z 44
_cell_length_a 9.644064
_cell_length_b 27.739450
_cell_length_c 9.191258
_cell_angle_alpha 90.000000
_cell_angle_beta 90.000000
_cell_angle_gamma 90.000000
_cell_volume 2458.854817
_symmetry_space_group_name_H-M "P M M A"
_symmetry_group_IT_number 51
_symmetry_cell_setting 'orthorhombic'
loop_
_space_group_symop_operation_xyz
x,y,z
1/2-x,-y,z
1/2+x,-y,-z
-x,y,-z
-x,-y,-z
1/2+x,y,-z
1/2-x,y,z
x,-y,z
loop_
_atom_site_type_symbol
_atom_site_label
_atom_site_fract_x
_atom_site_fract_y
_atom_site_fract_z
Si Si1 0.910055 0.829547 0.862002
Si Si2 0.590518 0.280507 0.863978
Si Si3 0.910378 0.637319 0.642162
Si Si4 0.088466 0.000000 0.146461
Si Si5 0.088922 0.087992 0.355134
Si Si6 0.409618 0.445195 0.137986
O O1 0.750000 0.836868 0.905938
O O2 0.943279 0.774424 0.819427
O O3 0.947596 0.861268 0.721308
O O4 0.000000 0.846279 0.000000
O O5 0.750000 0.286875 0.909545
O O6 0.552243 0.314405 0.729795
O O7 0.500000 0.297268 0.000000
O O8 0.750000 0.636372 0.598422
O O9 0.951575 0.589701 0.731313
O O10 0.000000 0.637643 0.500000
O O11 0.049431 0.046485 0.241385
O O12 0.250000 0.000000 0.103125
O O13 0.000000 0.000000 0.000000
O O14 0.250000 0.084873 0.399216
O O15 0.000000 0.082071 0.500000
O O16 0.250000 0.437773 0.093676
O O17 0.439585 0.500000 0.187541
O O18 0.500000 0.430580 0.000000
#
# Coordination Sequence:
#
# PCOD8212949 Si02
#       6
#     8   8   8   4   8   8
#     4   9  18  33  52  74  99 127 162 202 242 286
#     4   9  18  33  52  73  97 126 162 203 242 283
#     4  10  21  34  48  70 100 130 160 197 240 286
#     4  10  21  36  54  76 100 128 165 206 244 286
#     4  10  21  35  51  74 103 132 163 200 242 289
#     4   9  18  33  52  73  96 123 158 199 240 284
#
# _framework density 17.89451
#
# number of rings (size 3 to 8) (size 9 to 14) (size 15 to 20)
#    0.000    2.545    0.000    1.364    0.000    4.000 
#    0.000    0.000    0.000    0.000    0.000    0.000 
#    0.000    0.000    0.000    0.000    0.000    0.000 
#
# Total GULP energy -545712.913684 kJ/mol
# GULP energy per Si atom -12402.566220 kJ/mol
# Density = 1.785378 g / cm^3
# Si number density = 17.894510 Si / 1000 Ang^3
#
#
#
# Elastic Constant Matrix: (Units=GPa)
#
#
# Indices 1 2 3 4 5 6 
#
# 1 79.0015 56.8272 90.4691 0.0000 0.0000 0.0000
# 2 56.8272 113.6528 84.9749 0.0000 0.0000 0.0000
# 3 90.4691 84.9749 164.4682 0.0000 0.0000 0.0000
# 4 0.0000 0.0000 0.0000 20.7869 0.0000 0.0000
# 5 0.0000 0.0000 0.0000 0.0000 43.8096 0.0000
# 6 0.0000 0.0000 0.0000 0.0000 0.0000 18.4404
#
#
#
# Elastic Compliance Matrix: (Units=1/GPa)
#
#
# Indices 1 2 3 4 5 6 
#
# 1 0.035998 -0.005205 -0.017112 0.000000 0.000000 0.000000
# 2 -0.005205 0.015090 -0.004933 0.000000 0.000000 0.000000
# 3 -0.017112 -0.004933 0.018042 0.000000 0.000000 0.000000
# 4 0.000000 0.000000 0.000000 0.048107 0.000000 0.000000
# 5 0.000000 0.000000 0.000000 0.000000 0.022826 0.000000
# 6 0.000000 0.000000 0.000000 0.000000 0.000000 0.054229
#
#
# Mechanical properties :
#
#
# Convention : Reuss Voigt Hill
#
# Bulk Modulus (GPa) = 68.35769 91.29609 79.82689
# Shear Modulus (GPa) = 19.71065 24.93079 22.32072
#
# Velocity S-wave (km/s) = 3.32247 3.73662 3.53562
# Velocity P-wave (km/s) = 7.28023 8.35142 7.83416
#
# Compressibility (1/GPa) = 0.01462893
#
# Stress axis : x y z
#
# Youngs Moduli (GPa) = 27.77894 66.27054 55.42602
#
# Poissons Ratio (x) = 0.34494 0.94848
# Poissons Ratio (y) = 0.14459 0.27343
# Poissons Ratio (z) = 0.47537 0.32692
#
# Static dielectric constant tensor:
#      x y z
#    x 3.295940 0.000000 0.000000 
#    y 0.000000 3.643410 0.000000 
#    z 0.000000 0.000000 3.092320 
# 
# 
# High freq. dielectric constant tensor:
#      x y z
#    x 1.691460 0.000000 0.000000 
#    y 0.000000 1.712240 0.000000 
#    z 0.000000 0.000000 1.680240 
# 
# From -- ./inp_files/5759.got.cif
#   From: 2010.03.12/outbox.cif.g09.slc.cpg/sg51_3_cif.got.tgz:5759.got - 2010.04.16 13:43:02.
