data_PCOD8212175
_publ_section_title
;
Structure prediction by ZEFSAII (Michael W. Deem and Ramdas Pophale) SiO2 
 PCOD8212175
Probable space group: P M M A
;
_chemical_formula_sum "Si O2"
_cell_formula_units_Z 56
_cell_length_a 15.775461
_cell_length_b 9.045616
_cell_length_c 19.349984
_cell_angle_alpha 90.000000
_cell_angle_beta 90.000000
_cell_angle_gamma 90.000000
_cell_volume 2761.218770
_symmetry_space_group_name_H-M "P M M A"
_symmetry_group_IT_number 51
_symmetry_cell_setting 'orthorhombic'
loop_
_space_group_symop_operation_xyz
x,y,z
1/2-x,-y,z
1/2+x,-y,-z
-x,y,-z
-x,-y,-z
1/2+x,y,-z
1/2-x,y,z
x,-y,z
loop_
_atom_site_type_symbol
_atom_site_label
_atom_site_fract_x
_atom_site_fract_y
_atom_site_fract_z
Si Si1 0.405158 0.325153 0.214506
Si Si2 0.650170 0.330948 0.934294
Si Si3 0.654811 0.169127 0.351369
Si Si4 0.153928 0.174250 0.931247
Si Si5 0.002384 0.670185 0.418606
Si Si6 0.573676 0.830704 0.210603
Si Si7 0.344786 0.828762 0.342999
O O1 0.392795 0.500000 0.219850
O O2 0.388549 0.267870 0.136708
O O3 0.498972 0.275682 0.236455
O O4 0.341645 0.247166 0.267658
O O5 0.750000 0.308748 0.929204
O O6 0.624261 0.500000 0.944507
O O7 0.611861 0.242865 0.999778
O O8 0.750000 0.222092 0.370875
O O9 0.585612 0.268210 0.389246
O O10 0.646563 0.180947 0.268224
O O11 0.640966 0.000000 0.374944
O O12 0.250000 0.230961 0.925158
O O13 0.106337 0.229807 0.862875
O O14 0.149768 0.000000 0.937560
O O15 0.010633 0.500000 0.396138
O O16 0.000000 0.689908 0.500000
O O17 0.085334 0.754328 0.391574
O O18 0.541777 0.000000 0.203882
O O19 0.250000 0.811081 0.375027
O O20 0.369227 0.000000 0.334654
#
# Coordination Sequence:
#
# PCOD8212175 Si02
#       7
#     8   8   8   8   8   8   8
#     4  11  22  36  57  84 117 156 200 251 307 363
#     4   9  19  35  52  73 106 149 196 246 301 361
#     4  10  21  39  65  94 125 164 207 252 304 360
#     4   9  18  33  53  77 107 147 196 248 301 358
#     4  11  25  44  66  95 131 166 201 246 299 358
#     4  10  20  35  56  83 117 154 197 250 305 359
#     4  11  24  42  66  95 125 161 207 255 304 363
#
# _framework density 20.280898000000001
#
# number of rings (size 3 to 8) (size 9 to 14) (size 15 to 20)
#    0.000    1.857    1.429    2.143    0.000    7.714 
#    0.000    7.143    0.000    2.571    0.000    0.000 
#    0.000    0.000    0.000    0.000    0.000    0.000 
#
# Total GULP energy -694425.285233 kJ/mol
# GULP energy per Si atom -12400.451522 kJ/mol
# Density = 2.023474 g / cm^3
# Si number density = 20.280898 Si / 1000 Ang^3
#
#
#
# Elastic Constant Matrix: (Units=GPa)
#
#
# Indices 1 2 3 4 5 6 
#
# 1 111.0041 53.1970 45.4836 0.0000 0.0000 0.0000
# 2 53.1970 95.9578 50.3443 0.0000 0.0000 0.0000
# 3 45.4836 50.3443 99.6740 0.0000 0.0000 0.0000
# 4 0.0000 0.0000 0.0000 34.1048 0.0000 0.0000
# 5 0.0000 0.0000 0.0000 0.0000 26.5201 0.0000
# 6 0.0000 0.0000 0.0000 0.0000 0.0000 22.5059
#
#
#
# Elastic Compliance Matrix: (Units=1/GPa)
#
#
# Indices 1 2 3 4 5 6 
#
# 1 0.012937 -0.005544 -0.003103 0.000000 0.000000 0.000000
# 2 -0.005544 0.016554 -0.005832 0.000000 0.000000 0.000000
# 3 -0.003103 -0.005832 0.014394 0.000000 0.000000 0.000000
# 4 0.000000 0.000000 0.000000 0.029321 0.000000 0.000000
# 5 0.000000 0.000000 0.000000 0.000000 0.037707 0.000000
# 6 0.000000 0.000000 0.000000 0.000000 0.000000 0.044433
#
#
# Mechanical properties :
#
#
# Convention : Reuss Voigt Hill
#
# Bulk Modulus (GPa) = 66.98809 67.18729 67.08769
# Shear Modulus (GPa) = 26.41584 27.13357 26.77471
#
# Velocity S-wave (km/s) = 3.61293 3.66168 3.63739
# Velocity P-wave (km/s) = 7.10677 7.14685 7.12684
#
# Compressibility (1/GPa) = 0.01492803
#
# Stress axis : x y z
#
# Youngs Moduli (GPa) = 77.29721 60.40776 69.47209
#
# Poissons Ratio (x) = 0.33489 0.21560
# Poissons Ratio (y) = 0.42853 0.40513
# Poissons Ratio (z) = 0.23988 0.35227
#
# Static dielectric constant tensor:
#      x y z
#    x 3.627380 0.000000 0.000000 
#    y 0.000000 3.623770 0.000000 
#    z 0.000000 0.000000 3.832240 
# 
# 
# High freq. dielectric constant tensor:
#      x y z
#    x 1.791110 0.000000 0.000000 
#    y 0.000000 1.785740 0.000000 
#    z 0.000000 0.000000 1.799510 
# 
# From -- ./inp_files/33492.got.cif
#   From: 2010.03.12/outbox.cif.g09.slc.cpg/sg51_17_cif.got.tgz:33492.got - 2010.04.16 13:43:02.
