data_PCOD8212689
_publ_section_title
;
Structure prediction by ZEFSAII (Michael W. Deem and Ramdas Pophale) SiO2 
 PCOD8212689
Probable space group: P M M A
;
_chemical_formula_sum "Si O2"
_cell_formula_units_Z 48
_cell_length_a 9.595973
_cell_length_b 9.458531
_cell_length_c 29.236269
_cell_angle_alpha 90.000000
_cell_angle_beta 90.000000
_cell_angle_gamma 90.000000
_cell_volume 2653.595109
_symmetry_space_group_name_H-M "P M M A"
_symmetry_group_IT_number 51
_symmetry_cell_setting 'orthorhombic'
loop_
_space_group_symop_operation_xyz
x,y,z
1/2-x,-y,z
1/2+x,-y,-z
-x,y,-z
-x,-y,-z
1/2+x,y,-z
1/2-x,y,z
x,-y,z
loop_
_atom_site_type_symbol
_atom_site_label
_atom_site_fract_x
_atom_site_fract_y
_atom_site_fract_z
Si Si1 0.084936 0.844129 0.719347
Si Si2 0.750000 0.343900 0.038884
Si Si3 0.090571 0.336240 0.802504
Si Si4 0.250000 0.832016 0.051182
Si Si5 0.087358 0.664715 0.455078
Si Si6 0.019477 0.339672 0.099625
Si Si7 0.909817 0.167551 0.382998
O O1 0.250000 0.850495 0.723363
O O2 0.023600 0.743845 0.758992
O O3 0.047782 0.788588 0.668680
O O4 0.021318 0.000000 0.726811
O O5 0.750000 0.500000 0.015532
O O6 0.620816 0.326912 0.071735
O O7 0.750000 0.225404 0.000305
O O8 0.250000 0.290240 0.811038
O O9 0.081528 0.500000 0.790858
O O10 0.003370 0.298839 0.847617
O O11 0.382198 0.777233 0.078429
O O12 0.250000 0.000000 0.049160
O O13 0.250000 0.705897 0.461854
O O14 0.072168 0.500000 0.443272
O O15 0.000000 0.704096 0.500000
O O16 0.020726 0.753727 0.414359
O O17 0.079196 0.500000 0.095802
O O18 0.750000 0.214195 0.393838
O O19 0.923724 0.000000 0.389753
#
# Coordination Sequence:
#
# PCOD8212689 Si02
#       7
#     8   4   8   4   8   8   8
#     4   8  15  28  47  74 107 139 169 207 258 312
#     4  10  20  38  62  82 100 134 178 218 263 318
#     4   9  16  29  52  82 107 128 168 221 263 306
#     4  12  26  38  50  76 112 142 174 216 263 316
#     4  10  21  36  54  77 106 140 179 224 272 319
#     4  10  20  37  59  80 104 137 176 217 263 317
#     4   9  18  33  53  78 108 141 178 216 257 313
#
# _framework density 18.088667000000001
#
# number of rings (size 3 to 8) (size 9 to 14) (size 15 to 20)
#    0.000    2.500    0.833    2.750    0.000    5.667 
#    0.000    1.667    1.833    0.000    0.000    0.000 
#    0.000    0.000    0.000    0.000    0.000    0.000 
#
# Total GULP energy -595031.568672 kJ/mol
# GULP energy per Si atom -12396.491014 kJ/mol
# Density = 1.804750 g / cm^3
# Si number density = 18.088667 Si / 1000 Ang^3
#
#
#
# Elastic Constant Matrix: (Units=GPa)
#
#
# Indices 1 2 3 4 5 6 
#
# 1 88.1641 45.5969 54.3381 0.0000 0.0000 0.0000
# 2 45.5969 90.2796 73.1702 0.0000 0.0000 0.0000
# 3 54.3381 73.1702 153.0955 0.0000 0.0000 0.0000
# 4 0.0000 0.0000 0.0000 17.4456 0.0000 0.0000
# 5 0.0000 0.0000 0.0000 0.0000 -12.9833 0.0000
# 6 0.0000 0.0000 0.0000 0.0000 0.0000 24.0247
#
#
#
# Elastic Compliance Matrix: (Units=1/GPa)
#
#
# Indices 1 2 3 4 5 6 
#
# 1 0.016152 -0.005732 -0.002993 0.000000 0.000000 0.000000
# 2 -0.005732 0.020114 -0.007579 0.000000 0.000000 0.000000
# 3 -0.002993 -0.007579 0.011217 0.000000 0.000000 0.000000
# 4 0.000000 0.000000 0.000000 0.057321 0.000000 0.000000
# 5 0.000000 0.000000 0.000000 0.000000 -0.077022 0.000000
# 6 0.000000 0.000000 0.000000 0.000000 0.000000 0.041624
#
#
# Mechanical properties :
#
#
# Convention : Reuss Voigt Hill
#
# Bulk Modulus (GPa) = 67.22892 75.30554 71.26723
# Shear Modulus (GPa) = 46.74150 16.25967 31.50059
#
# Velocity S-wave (km/s) = 5.08884 3.00140 4.17760
# Velocity P-wave (km/s) = 8.47204 7.33027 7.92175
#
# Compressibility (1/GPa) = 0.01487455
#
# Stress axis : x y z
#
# Youngs Moduli (GPa) = 61.91319 49.71614 89.15329
#
# Poissons Ratio (x) = 0.28495 0.26687
# Poissons Ratio (y) = 0.35486 0.67570
# Poissons Ratio (z) = 0.18533 0.37680
#
# Static dielectric constant tensor:
#      x y z
#    x 3.129700 0.000000 0.000000 
#    y 0.000000 3.389370 0.000000 
#    z 0.000000 0.000000 3.567450 
# 
# 
# High freq. dielectric constant tensor:
#      x y z
#    x 1.677880 0.000000 0.000000 
#    y 0.000000 1.692320 0.000000 
#    z 0.000000 0.000000 1.714470 
# 
# From -- ./inp_files/37124.got.cif
#   From: 2010.03.12/outbox.cif.g09.slc.cpg/sg51_19_cif.got.tgz:37124.got - 2010.04.16 13:43:02.
