data_PCOD8212224
_publ_section_title
;
Structure prediction by ZEFSAII (Michael W. Deem and Ramdas Pophale) SiO2 
 PCOD8212224
Probable space group: P M M A
;
_chemical_formula_sum "Si O2"
_cell_formula_units_Z 64
_cell_length_a 17.120388
_cell_length_b 9.290988
_cell_length_c 20.240933
_cell_angle_alpha 90.000000
_cell_angle_beta 90.000000
_cell_angle_gamma 90.000000
_cell_volume 3219.630474
_symmetry_space_group_name_H-M "P M M A"
_symmetry_group_IT_number 51
_symmetry_cell_setting 'orthorhombic'
loop_
_space_group_symop_operation_xyz
x,y,z
1/2-x,-y,z
1/2+x,-y,-z
-x,y,-z
-x,-y,-z
1/2+x,y,-z
1/2-x,y,z
x,-y,z
loop_
_atom_site_type_symbol
_atom_site_label
_atom_site_fract_x
_atom_site_fract_y
_atom_site_fract_z
Si Si1 0.840890 0.166347 0.332824
Si Si2 0.837066 0.170096 0.944696
Si Si3 0.842175 0.158097 0.694307
Si Si4 0.841824 0.840716 0.090497
Si Si5 0.584178 0.166870 0.471039
Si Si6 0.090314 0.328106 0.791572
Si Si7 0.432973 0.168356 0.178769
Si Si8 0.340822 0.656557 0.422472
O O1 0.750000 0.196616 0.351404
O O2 0.899186 0.201499 0.394054
O O3 0.865674 0.267336 0.272524
O O4 0.850937 0.000000 0.311461
O O5 0.750000 0.236754 0.933674
O O6 0.899118 0.227380 0.890735
O O7 0.830022 0.000000 0.936431
O O8 0.870522 0.208515 0.017528
O O9 0.750000 0.161185 0.689981
O O10 0.865483 0.198171 0.768238
O O11 0.880206 0.265112 0.640619
O O12 0.874639 0.000000 0.676066
O O13 0.750000 0.856173 0.087238
O O14 0.864085 0.720299 0.143005
O O15 0.876926 0.000000 0.108259
O O16 0.500000 0.215876 0.500000
O O17 0.648780 0.253525 0.511176
O O18 0.597759 0.000000 0.484955
O O19 0.088325 0.500000 0.787463
O O20 0.004441 0.264046 0.797240
O O21 0.456700 0.000000 0.174943
O O22 0.250000 0.639523 0.409057
O O23 0.380442 0.500000 0.429667
#
# Coordination Sequence:
#
# PCOD8212224 Si02
#       8
#     8   8   8   8   8   8   8   8
#     4  10  22  42  66  88 113 149 194 242 288 336
#     4   8  15  31  59  91 115 141 187 244 293 339
#     4   9  18  33  56  83 110 145 189 235 280 331
#     4   9  18  36  62  87 111 143 188 241 293 345
#     4  10  22  39  62  91 118 145 182 233 289 342
#     4  12  26  39  54  81 118 156 193 238 287 339
#     4  10  20  35  57  83 115 151 190 237 288 344
#     4  10  21  36  55  81 115 153 189 226 273 334
#
# _framework density 19.878056999999998
#
# number of rings (size 3 to 8) (size 9 to 14) (size 15 to 20)
#    0.000    2.250    0.000    3.375    1.750    6.500 
#    0.000    3.125    0.000    1.875    0.000    0.000 
#    0.000    0.000    0.000    0.000    0.000    0.000 
#
# Total GULP energy -793307.519862 kJ/mol
# GULP energy per Si atom -12395.429998 kJ/mol
# Density = 1.983281 g / cm^3
# Si number density = 19.878057 Si / 1000 Ang^3
#
#
#
# Elastic Constant Matrix: (Units=GPa)
#
#
# Indices 1 2 3 4 5 6 
#
# 1 56.5611 31.9063 38.2422 0.0000 0.0000 0.0000
# 2 31.9063 97.0281 68.8669 0.0000 0.0000 0.0000
# 3 38.2422 68.8669 137.2448 0.0000 0.0000 0.0000
# 4 0.0000 0.0000 0.0000 1.4720 0.0000 0.0000
# 5 0.0000 0.0000 0.0000 0.0000 32.0300 0.0000
# 6 0.0000 0.0000 0.0000 0.0000 0.0000 15.1044
#
#
#
# Elastic Compliance Matrix: (Units=1/GPa)
#
#
# Indices 1 2 3 4 5 6 
#
# 1 0.023086 -0.004699 -0.004075 0.000000 0.000000 0.000000
# 2 -0.004699 0.016964 -0.007203 0.000000 0.000000 0.000000
# 3 -0.004075 -0.007203 0.012036 0.000000 0.000000 0.000000
# 4 0.000000 0.000000 0.000000 0.679347 0.000000 0.000000
# 5 0.000000 0.000000 0.000000 0.000000 0.031221 0.000000
# 6 0.000000 0.000000 0.000000 0.000000 0.000000 0.066206
#
#
# Mechanical properties :
#
#
# Convention : Reuss Voigt Hill
#
# Bulk Modulus (GPa) = 49.67204 63.20719 56.43961
# Shear Modulus (GPa) = 5.76354 19.84252 12.80303
#
# Velocity S-wave (km/s) = 1.70462 3.16288 2.54062
# Velocity P-wave (km/s) = 5.37745 6.72346 6.08777
#
# Compressibility (1/GPa) = 0.02013205
#
# Stress axis : x y z
#
# Youngs Moduli (GPa) = 43.31642 58.94906 83.08569
#
# Poissons Ratio (x) = 0.27703 0.33854
# Poissons Ratio (y) = 0.20356 0.59844
# Poissons Ratio (z) = 0.17650 0.42459
#
# Static dielectric constant tensor:
#      x y z
#    x 3.577200 0.000000 0.000000 
#    y 0.000000 3.686710 0.000000 
#    z 0.000000 0.000000 4.059070 
# 
# 
# High freq. dielectric constant tensor:
#      x y z
#    x 1.767630 0.000000 0.000000 
#    y 0.000000 1.746920 0.000000 
#    z 0.000000 0.000000 1.790180 
# 
# From -- ./inp_files/33933.got.cif
#   From: 2010.03.12/outbox.cif.g09.slc.cpg/sg51_17_cif.got.tgz:33933.got - 2010.04.16 13:43:02.
