data_PCOD8212854
_publ_section_title
;
Structure prediction by ZEFSAII (Michael W. Deem and Ramdas Pophale) SiO2 
 PCOD8212854
Probable space group: P M M A
;
_chemical_formula_sum "Si O2"
_cell_formula_units_Z 64
_cell_length_a 18.302888
_cell_length_b 14.663974
_cell_length_c 11.702008
_cell_angle_alpha 90.000000
_cell_angle_beta 90.000000
_cell_angle_gamma 90.000000
_cell_volume 3140.737896
_symmetry_space_group_name_H-M "P M M A"
_symmetry_group_IT_number 51
_symmetry_cell_setting 'orthorhombic'
loop_
_space_group_symop_operation_xyz
x,y,z
1/2-x,-y,z
1/2+x,-y,-z
-x,y,-z
-x,-y,-z
1/2+x,y,-z
1/2-x,y,z
x,-y,z
loop_
_atom_site_type_symbol
_atom_site_label
_atom_site_fract_x
_atom_site_fract_y
_atom_site_fract_z
Si Si1 0.051978 0.605197 0.254221
Si Si2 0.832294 0.391898 0.562548
Si Si3 0.409172 0.104999 0.706666
Si Si4 0.571564 0.753475 0.931168
Si Si5 0.667884 0.108231 0.521885
Si Si6 0.888315 0.394648 0.320118
Si Si7 0.334879 0.748925 0.856260
Si Si8 0.421750 0.894693 0.261792
O O1 0.065253 0.500000 0.221353
O O2 0.115032 0.644144 0.337363
O O3 0.052411 0.662387 0.138423
O O4 0.975346 0.618159 0.318634
O O5 0.750000 0.357734 0.586681
O O6 0.837166 0.500000 0.559403
O O7 0.859218 0.354606 0.440178
O O8 0.374571 0.143440 0.589710
O O9 0.378080 0.163113 0.810845
O O10 0.495446 0.118385 0.697580
O O11 0.387951 0.000000 0.728368
O O12 0.595715 0.836551 0.850304
O O13 0.500000 0.784387 0.000000
O O14 0.638233 0.730382 0.015193
O O15 0.750000 0.147411 0.519171
O O16 0.628458 0.143729 0.635912
O O17 0.667175 0.000000 0.522060
O O18 0.866167 0.500000 0.304243
O O19 0.850140 0.340348 0.218390
O O20 0.250000 0.771790 0.857646
O O21 0.404477 0.000000 0.233673
#
# Coordination Sequence:
#
# PCOD8212854 Si02
#       8
#     8   8   8   8   8   8   8   8
#     4  10  21  38  64  88 115 156 199 240 291 348
#     4   9  18  34  58  91 126 154 188 237 294 355
#     4  10  20  38  63  89 119 155 192 237 292 353
#     4  12  24  43  59  82 115 154 202 250 287 336
#     4   9  18  34  58  91 126 154 188 237 294 355
#     4  10  20  38  63  89 119 155 192 237 292 353
#     4  12  26  41  59  87 117 152 200 248 293 345
#     4  10  21  38  64  88 115 156 199 240 291 348
#
# _framework density 20.377376999999999
#
# number of rings (size 3 to 8) (size 9 to 14) (size 15 to 20)
#    0.000    1.750    2.500    1.500    0.000    8.000 
#    0.000    3.750    0.000    0.000    0.000    0.000 
#    0.000    0.000    0.000    0.000    0.000    0.000 
#
# Total GULP energy -793869.962720 kJ/mol
# GULP energy per Si atom -12404.218168 kJ/mol
# Density = 2.033100 g / cm^3
# Si number density = 20.377377 Si / 1000 Ang^3
#
#
#
# Elastic Constant Matrix: (Units=GPa)
#
#
# Indices 1 2 3 4 5 6 
#
# 1 94.8366 0.0698 29.4495 0.0000 0.0000 0.0000
# 2 0.0698 50.4669 14.1661 0.0000 0.0000 0.0000
# 3 29.4495 14.1661 104.1804 0.0000 0.0000 0.0000
# 4 0.0000 0.0000 0.0000 12.6092 0.0000 0.0000
# 5 0.0000 0.0000 0.0000 0.0000 36.0547 0.0000
# 6 0.0000 0.0000 0.0000 0.0000 0.0000 13.8271
#
#
#
# Elastic Compliance Matrix: (Units=1/GPa)
#
#
# Indices 1 2 3 4 5 6 
#
# 1 0.011602 0.000940 -0.003407 0.000000 0.000000 0.000000
# 2 0.000940 0.020678 -0.003078 0.000000 0.000000 0.000000
# 3 -0.003407 -0.003078 0.010980 0.000000 0.000000 0.000000
# 4 0.000000 0.000000 0.000000 0.079307 0.000000 0.000000
# 5 0.000000 0.000000 0.000000 0.000000 0.027736 0.000000
# 6 0.000000 0.000000 0.000000 0.000000 0.000000 0.072322
#
#
# Mechanical properties :
#
#
# Convention : Reuss Voigt Hill
#
# Bulk Modulus (GPa) = 31.08414 37.42831 34.25622
# Shear Modulus (GPa) = 20.45517 26.21809 23.33663
#
# Velocity S-wave (km/s) = 3.17175 3.59085 3.38778
# Velocity P-wave (km/s) = 5.35730 5.96655 5.67011
#
# Compressibility (1/GPa) = 0.03217075
#
# Stress axis : x y z
#
# Youngs Moduli (GPa) = 86.19289 48.36167 91.07114
#
# Poissons Ratio (x) = -0.04548 0.31032
# Poissons Ratio (y) = -0.08106 0.28027
# Poissons Ratio (z) = 0.29370 0.14883
#
# Static dielectric constant tensor:
#      x y z
#    x 3.826940 0.000000 0.000000 
#    y 0.000000 3.610520 0.000000 
#    z 0.000000 0.000000 3.748810 
# 
# 
# High freq. dielectric constant tensor:
#      x y z
#    x 1.801050 0.000000 0.000000 
#    y 0.000000 1.795700 0.000000 
#    z 0.000000 0.000000 1.794720 
# 
# From -- ./inp_files/17528.got.cif
#   From: 2010.03.12/outbox.cif.g09.slc.cpg/sg51_9_cif.got.tgz:17528.got - 2010.04.16 13:43:02.
