data_PCOD8212025
_publ_section_title
;
Structure prediction by ZEFSAII (Michael W. Deem and Ramdas Pophale) SiO2 
 PCOD8212025
Probable space group: P M M A
;
_chemical_formula_sum "Si O2"
_cell_formula_units_Z 48
_cell_length_a 13.945550
_cell_length_b 8.945681
_cell_length_c 20.604323
_cell_angle_alpha 90.000000
_cell_angle_beta 90.000000
_cell_angle_gamma 90.000000
_cell_volume 2570.439603
_symmetry_space_group_name_H-M "P M M A"
_symmetry_group_IT_number 51
_symmetry_cell_setting 'orthorhombic'
loop_
_space_group_symop_operation_xyz
x,y,z
1/2-x,-y,z
1/2+x,-y,-z
-x,y,-z
-x,-y,-z
1/2+x,y,-z
1/2-x,y,z
x,-y,z
loop_
_atom_site_type_symbol
_atom_site_label
_atom_site_fract_x
_atom_site_fract_y
_atom_site_fract_z
Si Si1 0.355974 0.323027 0.469451
Si Si2 0.956234 0.322939 0.399624
Si Si3 0.647222 0.670152 0.899686
Si Si4 0.860155 0.823393 0.277671
Si Si5 0.054786 0.676550 0.849415
Si Si6 0.106860 0.834442 0.975703
O O1 0.250000 0.255967 0.453974
O O2 0.351693 0.500000 0.470292
O O3 0.389488 0.270524 0.540681
O O4 0.433728 0.274253 0.415352
O O5 0.948611 0.500000 0.387678
O O6 0.923175 0.235965 0.336652
O O7 0.750000 0.682909 0.861608
O O8 0.624737 0.500000 0.919646
O O9 0.557690 0.725847 0.856201
O O10 0.664700 0.760595 0.965843
O O11 0.750000 0.772485 0.286296
O O12 0.902796 0.755349 0.212793
O O13 0.869059 0.000000 0.274065
O O14 0.066896 0.500000 0.842143
O O15 0.114640 0.732882 0.911554
O O16 0.147842 0.000000 0.960336
O O17 0.000000 0.846169 0.000000
#
# Coordination Sequence:
#
# PCOD8212025 Si02
#       6
#     8   8   8   8   8   8
#     4   8  14  27  51  83 113 137 166 207 250 290
#     4   9  17  31  54  81 106 136 173 209 245 290
#     4   9  18  33  53  77 103 130 164 207 253 301
#     4  11  24  39  53  71  99 134 169 209 259 308
#     4  10  20  35  55  76  99 131 171 212 252 297
#     4   9  17  30  49  73 101 131 163 203 250 297
#
# _framework density 18.673848
#
# number of rings (size 3 to 8) (size 9 to 14) (size 15 to 20)
#    0.000    2.667    0.000    3.000    0.000    5.667 
#    0.000    2.500    0.000    6.500    0.000    0.000 
#    0.000    0.000    0.000    0.000    0.000    0.000 
#
# Total GULP energy -594859.665711 kJ/mol
# GULP energy per Si atom -12392.909702 kJ/mol
# Density = 1.863135 g / cm^3
# Si number density = 18.673848 Si / 1000 Ang^3
#
#
#
# Elastic Constant Matrix: (Units=GPa)
#
#
# Indices 1 2 3 4 5 6 
#
# 1 136.8143 34.6192 56.3359 0.0000 0.0000 0.0000
# 2 34.6192 57.5156 36.4439 0.0000 0.0000 0.0000
# 3 56.3359 36.4439 115.8467 0.0000 0.0000 0.0000
# 4 0.0000 0.0000 0.0000 -100.5772 0.0000 0.0000
# 5 0.0000 0.0000 0.0000 0.0000 19.9272 0.0000
# 6 0.0000 0.0000 0.0000 0.0000 0.0000 12.7226
#
#
#
# Elastic Compliance Matrix: (Units=1/GPa)
#
#
# Indices 1 2 3 4 5 6 
#
# 1 0.009688 -0.003555 -0.003593 0.000000 0.000000 0.000000
# 2 -0.003555 0.023019 -0.005513 0.000000 0.000000 0.000000
# 3 -0.003593 -0.005513 0.012114 0.000000 0.000000 0.000000
# 4 0.000000 0.000000 0.000000 -0.009943 0.000000 0.000000
# 5 0.000000 0.000000 0.000000 0.000000 0.050183 0.000000
# 6 0.000000 0.000000 0.000000 0.000000 0.000000 0.078601
#
#
# Mechanical properties :
#
#
# Convention : Reuss Voigt Hill
#
# Bulk Modulus (GPa) = 51.28258 62.77496 57.02877
# Shear Modulus (GPa) = 25.57762 -1.40032 12.08865
#
# Velocity S-wave (km/s) = 3.70496 -0.86690 2.54708
# Velocity P-wave (km/s) = 6.76936 5.71730 6.26545
#
# Compressibility (1/GPa) = 0.01949980
#
# Stress axis : x y z
#
# Youngs Moduli (GPa) = 103.21867 43.44153 82.55113
#
# Poissons Ratio (x) = 0.15442 0.29661
# Poissons Ratio (y) = 0.36691 0.45510
# Poissons Ratio (z) = 0.37087 0.23949
#
# Static dielectric constant tensor:
#      x y z
#    x 3.893160 0.000000 0.000000 
#    y 0.000000 3.390710 0.000000 
#    z 0.000000 0.000000 3.289450 
# 
# 
# High freq. dielectric constant tensor:
#      x y z
#    x 1.740700 0.000000 0.000000 
#    y 0.000000 1.710230 0.000000 
#    z 0.000000 0.000000 1.703220 
# 
# From -- ./inp_files/29478.got.cif
#   From: 2010.03.12/outbox.cif.g09.slc.cpg/sg51_15_cif.got.tgz:29478.got - 2010.04.16 13:43:02.
