data_PCOD8212507
_publ_section_title
;
Structure prediction by ZEFSAII (Michael W. Deem and Ramdas Pophale) SiO2 
 PCOD8212507
Probable space group: P M M A
;
_chemical_formula_sum "Si O2"
_cell_formula_units_Z 64
_cell_length_a 17.928435
_cell_length_b 9.409444
_cell_length_c 19.768914
_cell_angle_alpha 90.000000
_cell_angle_beta 90.000000
_cell_angle_gamma 90.000000
_cell_volume 3334.948679
_symmetry_space_group_name_H-M "P M M A"
_symmetry_group_IT_number 51
_symmetry_cell_setting 'orthorhombic'
loop_
_space_group_symop_operation_xyz
x,y,z
1/2-x,-y,z
1/2+x,-y,-z
-x,y,-z
-x,-y,-z
1/2+x,y,-z
1/2-x,y,z
x,-y,z
loop_
_atom_site_type_symbol
_atom_site_label
_atom_site_fract_x
_atom_site_fract_y
_atom_site_fract_z
Si Si1 0.165147 0.160258 0.794883
Si Si2 0.405810 0.669771 0.284216
Si Si3 0.079544 0.839703 0.533803
Si Si4 0.837326 0.660900 0.573683
Si Si5 0.663819 0.836805 0.837203
Si Si6 0.583352 0.163931 0.975593
Si Si7 0.161817 0.342019 0.916979
Si Si8 0.451714 0.836001 0.682672
O O1 0.250000 0.202342 0.779852
O O2 0.128863 0.261017 0.851749
O O3 0.123251 0.178780 0.724896
O O4 0.158292 0.000000 0.822677
O O5 0.409206 0.500000 0.275899
O O6 0.372823 0.716798 0.356655
O O7 0.354657 0.733145 0.224899
O O8 0.487375 0.738642 0.280479
O O9 0.138228 0.750443 0.491042
O O10 0.069420 0.776246 0.608834
O O11 0.000000 0.832546 0.500000
O O12 0.110330 0.000000 0.537507
O O13 0.750000 0.674667 0.582365
O O14 0.862792 0.500000 0.560379
O O15 0.750000 0.808989 0.860240
O O16 0.603600 0.806436 0.897046
O O17 0.654931 0.000000 0.813456
O O18 0.598299 0.000000 0.993007
O O19 0.500000 0.206554 0.000000
O O20 0.640905 0.260324 0.015554
O O21 0.250000 0.345879 0.912143
O O22 0.127757 0.500000 0.918491
O O23 0.479803 0.000000 0.678722
#
# Coordination Sequence:
#
# PCOD8212507 Si02
#       8
#     8   8   8   8   8   8   8   8
#     4   9  19  36  58  82 110 149 192 233 280 338
#     4  11  23  38  59  86 118 156 195 238 289 345
#     4  10  20  36  58  85 114 147 189 238 289 338
#     4  10  22  39  58  83 116 154 196 238 284 345
#     4  10  22  40  61  85 116 154 196 242 290 342
#     4  10  22  39  60  87 117 151 191 235 284 340
#     4  10  21  37  58  84 115 149 185 229 279 332
#     4  10  21  37  59  85 117 151 191 239 288 346
#
# _framework density 19.190698999999999
#
# number of rings (size 3 to 8) (size 9 to 14) (size 15 to 20)
#    0.000    2.000    1.250    1.500    1.750    5.250 
#    0.000    1.250    0.000    1.500    0.000    0.000 
#    0.000    0.000    0.000    0.000    0.000    0.000 
#
# Total GULP energy -793627.121690 kJ/mol
# GULP energy per Si atom -12400.423776 kJ/mol
# Density = 1.914702 g / cm^3
# Si number density = 19.190699 Si / 1000 Ang^3
#
#
#
# Elastic Constant Matrix: (Units=GPa)
#
#
# Indices 1 2 3 4 5 6 
#
# 1 62.8184 33.2667 34.3155 0.0000 0.0000 0.0000
# 2 33.2667 82.7086 53.0965 0.0000 0.0000 0.0000
# 3 34.3155 53.0965 110.1533 0.0000 0.0000 0.0000
# 4 0.0000 0.0000 0.0000 -25.9078 0.0000 0.0000
# 5 0.0000 0.0000 0.0000 0.0000 35.6826 0.0000
# 6 0.0000 0.0000 0.0000 0.0000 0.0000 24.1163
#
#
#
# Elastic Compliance Matrix: (Units=1/GPa)
#
#
# Indices 1 2 3 4 5 6 
#
# 1 0.021173 -0.006200 -0.003607 0.000000 0.000000 0.000000
# 2 -0.006200 0.019324 -0.007383 0.000000 0.000000 0.000000
# 3 -0.003607 -0.007383 0.013761 0.000000 0.000000 0.000000
# 4 0.000000 0.000000 0.000000 -0.038598 0.000000 0.000000
# 5 0.000000 0.000000 0.000000 0.000000 0.028025 0.000000
# 6 0.000000 0.000000 0.000000 0.000000 0.000000 0.041466
#
#
# Mechanical properties :
#
#
# Convention : Reuss Voigt Hill
#
# Bulk Modulus (GPa) = 50.31042 55.22639 52.76840
# Shear Modulus (GPa) = 39.63309 15.77834 27.70572
#
# Velocity S-wave (km/s) = 4.54940 2.87049 3.80373
# Velocity P-wave (km/s) = 7.33955 6.31082 6.84454
#
# Compressibility (1/GPa) = 0.01987660
#
# Stress axis : x y z
#
# Youngs Moduli (GPa) = 47.23024 51.74822 72.66984
#
# Poissons Ratio (x) = 0.32086 0.26213
# Poissons Ratio (y) = 0.29284 0.53654
# Poissons Ratio (z) = 0.17037 0.38207
#
# Static dielectric constant tensor:
#      x y z
#    x 3.442660 0.000000 0.000000 
#    y 0.000000 3.646540 0.000000 
#    z 0.000000 0.000000 3.798440 
# 
# 
# High freq. dielectric constant tensor:
#      x y z
#    x 1.743120 0.000000 0.000000 
#    y 0.000000 1.743240 0.000000 
#    z 0.000000 0.000000 1.753770 
# 
# From -- ./inp_files/33829.got.cif
#   From: 2010.03.12/outbox.cif.g09.slc.cpg/sg51_17_cif.got.tgz:33829.got - 2010.04.16 13:43:02.
