data_PCOD8212206
_publ_section_title
;
Structure prediction by ZEFSAII (Michael W. Deem and Ramdas Pophale) SiO2 
 PCOD8212206
Probable space group: P M M A
;
_chemical_formula_sum "Si O2"
_cell_formula_units_Z 64
_cell_length_a 29.039901
_cell_length_b 9.149258
_cell_length_c 12.575216
_cell_angle_alpha 90.000000
_cell_angle_beta 90.000000
_cell_angle_gamma 90.000000
_cell_volume 3341.153738
_symmetry_space_group_name_H-M "P M M A"
_symmetry_group_IT_number 51
_symmetry_cell_setting 'orthorhombic'
loop_
_space_group_symop_operation_xyz
x,y,z
1/2-x,-y,z
1/2+x,-y,-z
-x,y,-z
-x,-y,-z
1/2+x,y,-z
1/2-x,y,z
x,-y,z
loop_
_atom_site_type_symbol
_atom_site_label
_atom_site_fract_x
_atom_site_fract_y
_atom_site_fract_z
Si Si1 0.803173 0.168490 0.601583
Si Si2 0.007402 0.671672 0.827235
Si Si3 0.833539 0.173185 0.994413
Si Si4 0.368478 0.828248 0.593454
Si Si5 0.801357 0.173681 0.224161
Si Si6 0.465935 0.673979 0.595094
Si Si7 0.071337 0.327103 0.016270
Si Si8 0.197852 0.659040 0.199614
O O1 0.750000 0.206771 0.574240
O O2 0.834718 0.208801 0.502657
O O3 0.824660 0.258364 0.700277
O O4 0.807409 0.000000 0.632727
O O5 0.011362 0.500000 0.820888
O O6 0.013701 0.734522 0.707781
O O7 0.958605 0.714011 0.879349
O O8 0.047083 0.726801 0.907455
O O9 0.814709 0.228889 0.107149
O O10 0.832266 0.000000 0.986580
O O11 0.883930 0.231609 0.971504
O O12 0.801600 0.241936 0.904802
O O13 0.340887 0.768456 0.696581
O O14 0.415924 0.742974 0.577543
O O15 0.379328 0.000000 0.602470
O O16 0.750000 0.233023 0.252987
O O17 0.800362 0.000000 0.229923
O O18 0.500000 0.723850 0.500000
O O19 0.460614 0.500000 0.595876
O O20 0.081587 0.500000 0.012578
O O21 0.250000 0.632664 0.231926
O O22 0.173638 0.500000 0.181634
#
# Coordination Sequence:
#
# PCOD8212206 Si02
#       8
#     8   8   8   8   8   8   8   8
#     4   9  18  34  56  80 107 139 175 217 266 322
#     4   8  16  33  54  73  95 130 176 218 261 312
#     4  11  21  32  50  79 112 142 174 212 258 313
#     4  10  20  35  57  83 108 137 178 224 268 316
#     4   9  18  33  54  80 111 147 181 213 257 318
#     4  10  21  36  53  74 103 139 176 217 270 328
#     4   9  17  32  54  74  96 132 176 220 260 304
#     4  10  21  36  53  73 100 136 176 216 257 303
#
# _framework density 19.155059000000001
#
# number of rings (size 3 to 8) (size 9 to 14) (size 15 to 20)
#    0.000    2.500    0.000    3.000    0.000    4.500 
#    0.000    3.750    0.000    2.625    0.000    0.000 
#    0.000    0.000    0.000    0.000    0.000    0.000 
#
# Total GULP energy -793286.090241 kJ/mol
# GULP energy per Si atom -12395.095160 kJ/mol
# Density = 1.911146 g / cm^3
# Si number density = 19.155059 Si / 1000 Ang^3
#
#
#
# Elastic Constant Matrix: (Units=GPa)
#
#
# Indices 1 2 3 4 5 6 
#
# 1 111.1511 33.4369 59.3554 0.0000 0.0000 0.0000
# 2 33.4369 55.5583 47.3433 0.0000 0.0000 0.0000
# 3 59.3554 47.3433 161.3339 0.0000 0.0000 0.0000
# 4 0.0000 0.0000 0.0000 13.5810 0.0000 0.0000
# 5 0.0000 0.0000 0.0000 0.0000 23.0521 0.0000
# 6 0.0000 0.0000 0.0000 0.0000 0.0000 28.3307
#
#
#
# Elastic Compliance Matrix: (Units=1/GPa)
#
#
# Indices 1 2 3 4 5 6 
#
# 1 0.012026 -0.004624 -0.003068 0.000000 0.000000 0.000000
# 2 -0.004624 0.025778 -0.005864 0.000000 0.000000 0.000000
# 3 -0.003068 -0.005864 0.009048 0.000000 0.000000 0.000000
# 4 0.000000 0.000000 0.000000 0.073632 0.000000 0.000000
# 5 0.000000 0.000000 0.000000 0.000000 0.043380 0.000000
# 6 0.000000 0.000000 0.000000 0.000000 0.000000 0.035297
#
#
# Mechanical properties :
#
#
# Convention : Reuss Voigt Hill
#
# Bulk Modulus (GPa) = 50.65282 67.59047 59.12164
# Shear Modulus (GPa) = 21.47291 25.51992 23.49642
#
# Velocity S-wave (km/s) = 3.35177 3.65400 3.50615
# Velocity P-wave (km/s) = 6.44051 7.29142 6.87914
#
# Compressibility (1/GPa) = 0.01974224
#
# Stress axis : x y z
#
# Youngs Moduli (GPa) = 83.15515 38.79233 110.52711
#
# Poissons Ratio (x) = 0.17936 0.33905
# Poissons Ratio (y) = 0.38447 0.64809
# Poissons Ratio (z) = 0.25508 0.22746
#
# Static dielectric constant tensor:
#      x y z
#    x 3.464560 0.000000 0.000000 
#    y 0.000000 3.349850 0.000000 
#    z 0.000000 0.000000 3.950380 
# 
# 
# High freq. dielectric constant tensor:
#      x y z
#    x 1.743890 0.000000 0.000000 
#    y 0.000000 1.715490 0.000000 
#    z 0.000000 0.000000 1.758920 
# 
# From -- ./inp_files/19528.got.cif
#   From: 2010.03.12/outbox.cif.g09.slc.cpg/sg51_10_cif.got.tgz:19528.got - 2010.04.16 13:43:02.
