data_PCOD8212755
_publ_section_title
;
Structure prediction by ZEFSAII (Michael W. Deem and Ramdas Pophale) SiO2 
 PCOD8212755
Probable space group: P M M A
;
_chemical_formula_sum "Si O2"
_cell_formula_units_Z 40
_cell_length_a 18.144641
_cell_length_b 9.035300
_cell_length_c 12.293350
_cell_angle_alpha 90.000000
_cell_angle_beta 90.000000
_cell_angle_gamma 90.000000
_cell_volume 2015.399764
_symmetry_space_group_name_H-M "P M M A"
_symmetry_group_IT_number 51
_symmetry_cell_setting 'orthorhombic'
loop_
_space_group_symop_operation_xyz
x,y,z
1/2-x,-y,z
1/2+x,-y,-z
-x,y,-z
-x,-y,-z
1/2+x,y,-z
1/2-x,y,z
x,-y,z
loop_
_atom_site_type_symbol
_atom_site_label
_atom_site_fract_x
_atom_site_fract_y
_atom_site_fract_z
Si Si1 0.415049 0.827815 0.782769
Si Si2 0.425601 0.330650 0.558280
Si Si3 0.335008 0.672613 0.969926
Si Si4 0.581898 0.827926 0.835953
Si Si5 0.834414 0.669190 0.649727
O O1 0.408611 0.771171 0.660345
O O2 0.495185 0.795974 0.832897
O O3 0.396591 0.000000 0.783074
O O4 0.354419 0.745336 0.854846
O O5 0.500000 0.275447 0.500000
O O6 0.435398 0.500000 0.597428
O O7 0.357847 0.313685 0.475404
O O8 0.250000 0.704259 0.997649
O O9 0.351583 0.500000 0.961899
O O10 0.384629 0.739556 0.064322
O O11 0.616593 0.775817 0.722909
O O12 0.598916 0.000000 0.852610
O O13 0.750000 0.717510 0.660794
O O14 0.845950 0.500000 0.688755
#
# Coordination Sequence:
#
# PCOD8212755 Si02
#       5
#     8   8   8   8   8
#     4  11  24  40  62  91 123 158 200 248 300 360
#     4  10  20  37  61  87 118 159 203 246 296 351
#     4  11  25  43  63  88 119 157 202 250 300 358
#     4  11  23  39  61  90 123 157 197 246 300 360
#     4  10  21  37  59  88 120 156 202 252 300 354
#
# _framework density 19.847179000000001
#
# number of rings (size 3 to 8) (size 9 to 14) (size 15 to 20)
#    0.000    1.400    2.000    3.000    0.000   11.200 
#    0.000    2.000    0.000    0.000    0.000    0.000 
#    0.000    0.000    0.000    0.000    0.000    0.000 
#
# Total GULP energy -496273.203610 kJ/mol
# GULP energy per Si atom -12406.830090 kJ/mol
# Density = 1.980201 g / cm^3
# Si number density = 19.847179 Si / 1000 Ang^3
#
#
#
# Elastic Constant Matrix: (Units=GPa)
#
#
# Indices 1 2 3 4 5 6 
#
# 1 45.2925 41.7666 14.7419 0.0000 0.0000 0.0000
# 2 41.7666 93.1464 48.2934 0.0000 0.0000 0.0000
# 3 14.7419 48.2934 104.0354 0.0000 0.0000 0.0000
# 4 0.0000 0.0000 0.0000 -274.8693 0.0000 0.0000
# 5 0.0000 0.0000 0.0000 0.0000 20.4098 0.0000
# 6 0.0000 0.0000 0.0000 0.0000 0.0000 28.6678
#
#
#
# Elastic Compliance Matrix: (Units=1/GPa)
#
#
# Indices 1 2 3 4 5 6 
#
# 1 0.038521 -0.019021 0.003371 0.000000 0.000000 0.000000
# 2 -0.019021 0.023530 -0.008228 0.000000 0.000000 0.000000
# 3 0.003371 -0.008228 0.012954 0.000000 0.000000 0.000000
# 4 0.000000 0.000000 0.000000 -0.003638 0.000000 0.000000
# 5 0.000000 0.000000 0.000000 0.000000 0.048996 0.000000
# 6 0.000000 0.000000 0.000000 0.000000 0.000000 0.034882
#
#
# Mechanical properties :
#
#
# Convention : Reuss Voigt Hill
#
# Bulk Modulus (GPa) = 36.69613 50.23091 43.46352
# Shear Modulus (GPa) = 23.57557 -35.98019 -6.20231
#
# Velocity S-wave (km/s) = 3.45027 -4.26239 -1.76969
# Velocity P-wave (km/s) = 5.86532 1.06762 4.21555
#
# Compressibility (1/GPa) = 0.02725083
#
# Stress axis : x y z
#
# Youngs Moduli (GPa) = 25.95960 42.49837 77.19789
#
# Poissons Ratio (x) = 0.80834 -0.26022
# Poissons Ratio (y) = 0.49377 0.63515
# Poissons Ratio (z) = -0.08751 0.34966
#
# Static dielectric constant tensor:
#      x y z
#    x 3.702280 0.000000 0.000000 
#    y 0.000000 3.676750 0.000000 
#    z 0.000000 0.000000 3.603680 
# 
# 
# High freq. dielectric constant tensor:
#      x y z
#    x 1.778800 0.000000 0.000000 
#    y 0.000000 1.777530 0.000000 
#    z 0.000000 0.000000 1.783730 
# 
# From -- ./inp_files/17054.got.cif
#   From: 2010.03.12/outbox.cif.g09.slc.cpg/sg51_9_cif.got.tgz:17054.got - 2010.04.16 13:43:02.
