data_PCOD8212878
_publ_section_title
;
Structure prediction by ZEFSAII (Michael W. Deem and Ramdas Pophale) SiO2 
 PCOD8212878
Probable space group: P M M A
;
_chemical_formula_sum "Si O2"
_cell_formula_units_Z 56
_cell_length_a 21.630717
_cell_length_b 9.049028
_cell_length_c 14.185242
_cell_angle_alpha 90.000000
_cell_angle_beta 90.000000
_cell_angle_gamma 90.000000
_cell_volume 2776.576200
_symmetry_space_group_name_H-M "P M M A"
_symmetry_group_IT_number 51
_symmetry_cell_setting 'orthorhombic'
loop_
_space_group_symop_operation_xyz
x,y,z
1/2-x,-y,z
1/2+x,-y,-z
-x,y,-z
-x,-y,-z
1/2+x,y,-z
1/2-x,y,z
x,-y,z
loop_
_atom_site_type_symbol
_atom_site_label
_atom_site_fract_x
_atom_site_fract_y
_atom_site_fract_z
Si Si1 0.580442 0.168840 0.240208
Si Si2 0.181450 0.841525 0.260531
Si Si3 0.935198 0.325194 0.048347
Si Si4 0.679561 0.172739 0.387211
Si Si5 0.639368 0.327389 0.575604
Si Si6 0.178354 0.175253 0.056488
Si Si7 0.020780 0.168825 0.398531
O O1 0.562445 0.279695 0.157731
O O2 0.646396 0.209241 0.288017
O O3 0.531763 0.191379 0.322924
O O4 0.580489 0.000000 0.202929
O O5 0.250000 0.879606 0.227640
O O6 0.188362 0.727061 0.347025
O O7 0.153495 0.780744 0.161981
O O8 0.150007 0.000000 0.290623
O O9 0.929192 0.500000 0.038821
O O10 0.872110 0.253266 0.009673
O O11 0.000000 0.271554 0.000000
O O12 0.750000 0.225413 0.377655
O O13 0.647575 0.255580 0.473758
O O14 0.674001 0.000000 0.410139
O O15 0.642671 0.500000 0.561669
O O16 0.577464 0.273681 0.628953
O O17 0.250000 0.227529 0.035379
O O18 0.173699 0.000000 0.040427
O O19 0.000000 0.226956 0.500000
O O20 0.042657 0.000000 0.405496
#
# Coordination Sequence:
#
# PCOD8212878 Si02
#       7
#     8   8   8   8   8   8   8
#     4  10  22  41  65  91 116 153 205 255 301 353
#     4   9  19  37  60  86 117 155 200 247 293 346
#     4  11  26  44  62  91 132 167 200 248 313 384
#     4  10  21  40  64  88 118 157 203 252 297 347
#     4  12  24  34  53  87 127 162 196 238 292 357
#     4   9  20  41  68  94 118 153 210 268 313 367
#     4  10  20  39  63  85 114 151 198 245 289 346
#
# _framework density 20.168724000000001
#
# number of rings (size 3 to 8) (size 9 to 14) (size 15 to 20)
#    0.000    1.857    1.429    3.000    2.000    6.286 
#    0.000    2.857    0.000    0.000    0.000    0.000 
#    0.000    0.000    0.000    0.000    0.000    0.000 
#
# Total GULP energy -693908.646514 kJ/mol
# GULP energy per Si atom -12391.225831 kJ/mol
# Density = 2.012282 g / cm^3
# Si number density = 20.168724 Si / 1000 Ang^3
#
#
#
# Elastic Constant Matrix: (Units=GPa)
#
#
# Indices 1 2 3 4 5 6 
#
# 1 105.1853 34.4630 33.4420 0.0000 0.0000 0.0000
# 2 34.4630 73.1858 40.3610 0.0000 0.0000 0.0000
# 3 33.4420 40.3610 109.8333 0.0000 0.0000 0.0000
# 4 0.0000 0.0000 0.0000 18.8900 0.0000 0.0000
# 5 0.0000 0.0000 0.0000 0.0000 25.6081 0.0000
# 6 0.0000 0.0000 0.0000 0.0000 0.0000 -45.9152
#
#
#
# Elastic Compliance Matrix: (Units=1/GPa)
#
#
# Indices 1 2 3 4 5 6 
#
# 1 0.011550 -0.004389 -0.001904 0.000000 0.000000 0.000000
# 2 -0.004389 0.018805 -0.005574 0.000000 0.000000 0.000000
# 3 -0.001904 -0.005574 0.011733 0.000000 0.000000 0.000000
# 4 0.000000 0.000000 0.000000 0.052938 0.000000 0.000000
# 5 0.000000 0.000000 0.000000 0.000000 0.039050 0.000000
# 6 0.000000 0.000000 0.000000 0.000000 0.000000 -0.021779
#
#
# Mechanical properties :
#
#
# Convention : Reuss Voigt Hill
#
# Bulk Modulus (GPa) = 54.48435 56.08183 55.28309
# Shear Modulus (GPa) = 35.17456 11.71248 23.44352
#
# Velocity S-wave (km/s) = 4.18067 2.41244 3.41305
# Velocity P-wave (km/s) = 7.09767 5.96879 6.55757
#
# Compressibility (1/GPa) = 0.01835390
#
# Stress axis : x y z
#
# Youngs Moduli (GPa) = 86.57706 53.17872 85.23201
#
# Poissons Ratio (x) = 0.23340 0.16228
# Poissons Ratio (y) = 0.37999 0.47507
# Poissons Ratio (z) = 0.16484 0.29641
#
# Static dielectric constant tensor:
#      x y z
#    x 4.100110 0.000000 0.000000 
#    y 0.000000 3.447070 0.000000 
#    z 0.000000 0.000000 3.669830 
# 
# 
# High freq. dielectric constant tensor:
#      x y z
#    x 1.797670 0.000000 0.000000 
#    y 0.000000 1.765280 0.000000 
#    z 0.000000 0.000000 1.791590 
# 
# From -- ./inp_files/25705.got.cif
#   From: 2010.03.12/outbox.cif.g09.slc.cpg/sg51_13_cif.got.tgz:25705.got - 2010.04.16 13:43:02.
