data_PCOD8212573
_publ_section_title
;
Structure prediction by ZEFSAII (Michael W. Deem and Ramdas Pophale) SiO2 
 PCOD8212573
Probable space group: P M M A
;
_chemical_formula_sum "Si O2"
_cell_formula_units_Z 48
_cell_length_a 17.342067
_cell_length_b 15.174942
_cell_length_c 9.569561
_cell_angle_alpha 90.000000
_cell_angle_beta 90.000000
_cell_angle_gamma 90.000000
_cell_volume 2518.372189
_symmetry_space_group_name_H-M "P M M A"
_symmetry_group_IT_number 51
_symmetry_cell_setting 'orthorhombic'
loop_
_space_group_symop_operation_xyz
x,y,z
1/2-x,-y,z
1/2+x,-y,-z
-x,y,-z
-x,-y,-z
1/2+x,y,-z
1/2-x,y,z
x,-y,z
loop_
_atom_site_type_symbol
_atom_site_label
_atom_site_fract_x
_atom_site_fract_y
_atom_site_fract_z
Si Si1 0.573128 0.099659 0.241326
Si Si2 0.662717 0.797512 0.459484
Si Si3 0.494756 0.402077 0.838798
Si Si4 0.162920 0.183736 0.989729
Si Si5 0.834205 0.658682 0.224425
Si Si6 0.929908 0.229105 0.739959
O O1 0.632813 0.121264 0.365662
O O2 0.613903 0.109025 0.090238
O O3 0.503105 0.166831 0.249457
O O4 0.543435 0.000000 0.258393
O O5 0.750000 0.818977 0.505671
O O6 0.659326 0.707611 0.372097
O O7 0.609245 0.784666 0.592169
O O8 0.530081 0.500000 0.815692
O O9 0.405241 0.407988 0.790738
O O10 0.542956 0.330806 0.750941
O O11 0.500000 0.373848 0.000000
O O12 0.250000 0.149440 0.005780
O O13 0.158815 0.272304 0.900786
O O14 0.130315 0.203033 0.141916
O O15 0.750000 0.610967 0.215257
#
# Coordination Sequence:
#
# PCOD8212573 Si02
#       6
#     8   8   8   8   8   8
#     4  11  23  39  62  87 115 154 199 244 293 351
#     4  10  22  38  60  83 116 157 193 237 295 354
#     4  11  21  36  60  90 120 155 197 245 295 344
#     4  10  20  36  60  83 115 157 195 237 290 345
#     4   9  18  36  57  81 110 151 197 236 283 342
#     4  12  21  38  59  90 122 150 194 248 297 347
#
# _framework density 19.059930000000001
#
# number of rings (size 3 to 8) (size 9 to 14) (size 15 to 20)
#    0.000    1.500    5.000    3.000    0.000    4.333 
#    0.000    1.667    0.000    6.000    0.000    0.000 
#    0.000    0.000    0.000    0.000    0.000    0.000 
#
# Total GULP energy -595163.720850 kJ/mol
# GULP energy per Si atom -12399.244184 kJ/mol
# Density = 1.901655 g / cm^3
# Si number density = 19.059930 Si / 1000 Ang^3
#
#
#
# Elastic Constant Matrix: (Units=GPa)
#
#
# Indices 1 2 3 4 5 6 
#
# 1 110.2375 20.7883 32.5735 0.0000 0.0000 0.0000
# 2 20.7883 86.5791 13.4079 0.0000 0.0000 0.0000
# 3 32.5735 13.4079 84.2599 0.0000 0.0000 0.0000
# 4 0.0000 0.0000 0.0000 24.9026 0.0000 0.0000
# 5 0.0000 0.0000 0.0000 0.0000 42.9684 0.0000
# 6 0.0000 0.0000 0.0000 0.0000 0.0000 1.3184
#
#
#
# Elastic Compliance Matrix: (Units=1/GPa)
#
#
# Indices 1 2 3 4 5 6 
#
# 1 0.010553 -0.001950 -0.003769 0.000000 0.000000 0.000000
# 2 -0.001950 0.012202 -0.001188 0.000000 0.000000 0.000000
# 3 -0.003769 -0.001188 0.013514 0.000000 0.000000 0.000000
# 4 0.000000 0.000000 0.000000 0.040156 0.000000 0.000000
# 5 0.000000 0.000000 0.000000 0.000000 0.023273 0.000000
# 6 0.000000 0.000000 0.000000 0.000000 0.000000 0.758522
#
#
# Mechanical properties :
#
#
# Convention : Reuss Voigt Hill
#
# Bulk Modulus (GPa) = 44.53352 46.06844 45.30098
# Shear Modulus (GPa) = 5.68492 28.12499 16.90495
#
# Velocity S-wave (km/s) = 1.72891 3.84553 2.98138
# Velocity P-wave (km/s) = 5.23462 6.62875 5.97250
#
# Compressibility (1/GPa) = 0.02245500
#
# Stress axis : x y z
#
# Youngs Moduli (GPa) = 94.76136 81.95166 73.99634
#
# Poissons Ratio (x) = 0.15981 0.27891
# Poissons Ratio (y) = 0.18479 0.08789
# Poissons Ratio (z) = 0.35718 0.09734
#
# Static dielectric constant tensor:
#      x y z
#    x 3.815090 0.000000 0.000000 
#    y 0.000000 3.207250 0.000000 
#    z 0.000000 0.000000 44.547060 
# 
# 
# High freq. dielectric constant tensor:
#      x y z
#    x 1.755950 0.000000 0.000000 
#    y 0.000000 1.716160 0.000000 
#    z 0.000000 0.000000 1.739800 
# 
# From -- ./inp_files/9563.got.cif
#   From: 2010.03.12/outbox.cif.g09.slc.cpg/sg51_5_cif.got.tgz:9563.got - 2010.04.16 13:43:02.
