data_PCOD8212567
_publ_section_title
;
Structure prediction by ZEFSAII (Michael W. Deem and Ramdas Pophale) SiO2 
 PCOD8212567
Probable space group: P M M A
;
_chemical_formula_sum "Si O2"
_cell_formula_units_Z 48
_cell_length_a 17.243535
_cell_length_b 15.090712
_cell_length_c 9.738403
_cell_angle_alpha 90.000000
_cell_angle_beta 90.000000
_cell_angle_gamma 90.000000
_cell_volume 2534.100161
_symmetry_space_group_name_H-M "P M M A"
_symmetry_group_IT_number 51
_symmetry_cell_setting 'orthorhombic'
loop_
_space_group_symop_operation_xyz
x,y,z
1/2-x,-y,z
1/2+x,-y,-z
-x,y,-z
-x,-y,-z
1/2+x,y,-z
1/2-x,y,z
x,-y,z
loop_
_atom_site_type_symbol
_atom_site_label
_atom_site_fract_x
_atom_site_fract_y
_atom_site_fract_z
Si Si1 0.488253 0.101245 0.658829
Si Si2 0.089245 0.500000 0.546545
Si Si3 0.394385 0.686923 0.898052
Si Si4 0.160150 0.324725 0.427238
Si Si5 0.557913 0.260238 0.813001
Si Si6 0.341515 0.500000 0.839797
Si Si7 0.164391 0.805334 0.671963
O O1 0.500000 0.125832 0.500000
O O2 0.542102 0.161064 0.756991
O O3 0.397958 0.117221 0.695601
O O4 0.510450 0.000000 0.689288
O O5 0.132957 0.415174 0.491980
O O6 0.101553 0.500000 0.709450
O O7 0.000000 0.500000 0.500000
O O8 0.478032 0.684547 0.822699
O O9 0.363283 0.587622 0.927580
O O10 0.334552 0.736417 0.798296
O O11 0.400841 0.742856 0.038805
O O12 0.250000 0.329909 0.390253
O O13 0.114005 0.311524 0.287918
O O14 0.142586 0.245575 0.532439
O O15 0.250000 0.500000 0.801505
O O16 0.250000 0.847821 0.661146
#
# Coordination Sequence:
#
# PCOD8212567 Si02
#       7
#     8   4   8   8   8   4   8
#     4  10  20  37  65  91 116 149 193 245 298 357
#     4  12  24  35  58  87 118 157 204 259 288 341
#     4  10  22  37  59  84 117 163 197 241 289 356
#     4  11  22  36  56  84 119 155 195 245 296 343
#     4  10  22  40  58  87 120 149 199 243 297 356
#     4  12  22  36  58  86 119 160 212 247 290 353
#     4  10  20  36  59  87 118 154 194 238 294 355
#
# _framework density 18.941635000000002
#
# number of rings (size 3 to 8) (size 9 to 14) (size 15 to 20)
#    0.000    1.500    3.333    2.250    2.333    3.667 
#    0.000    6.667    0.000    0.500    0.000    0.000 
#    0.000    0.000    0.000    0.000    0.000    0.000 
#
# Total GULP energy -595220.206913 kJ/mol
# GULP energy per Si atom -12400.420977 kJ/mol
# Density = 1.889852 g / cm^3
# Si number density = 18.941635 Si / 1000 Ang^3
#
#
#
# Elastic Constant Matrix: (Units=GPa)
#
#
# Indices 1 2 3 4 5 6 
#
# 1 63.6000 31.5582 36.8081 0.0000 0.0000 0.0000
# 2 31.5582 86.8264 33.5496 0.0000 0.0000 0.0000
# 3 36.8081 33.5496 107.1307 0.0000 0.0000 0.0000
# 4 0.0000 0.0000 0.0000 27.4350 0.0000 0.0000
# 5 0.0000 0.0000 0.0000 0.0000 17.3450 0.0000
# 6 0.0000 0.0000 0.0000 0.0000 0.0000 22.3040
#
#
#
# Elastic Compliance Matrix: (Units=1/GPa)
#
#
# Indices 1 2 3 4 5 6 
#
# 1 0.021884 -0.005744 -0.005720 0.000000 0.000000 0.000000
# 2 -0.005744 0.014610 -0.002602 0.000000 0.000000 0.000000
# 3 -0.005720 -0.002602 0.012115 0.000000 0.000000 0.000000
# 4 0.000000 0.000000 0.000000 0.036450 0.000000 0.000000
# 5 0.000000 0.000000 0.000000 0.000000 0.057654 0.000000
# 6 0.000000 0.000000 0.000000 0.000000 0.000000 0.044835
#
#
# Mechanical properties :
#
#
# Convention : Reuss Voigt Hill
#
# Bulk Modulus (GPa) = 48.83539 51.26546 50.05042
# Shear Modulus (GPa) = 22.47148 23.79288 23.13218
#
# Velocity S-wave (km/s) = 3.44809 3.54802 3.49841
# Velocity P-wave (km/s) = 6.45681 6.62633 6.54212
#
# Compressibility (1/GPa) = 0.02047695
#
# Stress axis : x y z
#
# Youngs Moduli (GPa) = 45.69598 68.44500 82.54514
#
# Poissons Ratio (x) = 0.39313 0.47217
# Poissons Ratio (y) = 0.26246 0.21478
# Poissons Ratio (z) = 0.26139 0.17809
#
# Static dielectric constant tensor:
#      x y z
#    x 3.535180 0.000000 0.000000 
#    y 0.000000 3.277930 0.000000 
#    z 0.000000 0.000000 3.387040 
# 
# 
# High freq. dielectric constant tensor:
#      x y z
#    x 1.743510 0.000000 0.000000 
#    y 0.000000 1.721100 0.000000 
#    z 0.000000 0.000000 1.734180 
# 
# From -- ./inp_files/9705.got.cif
#   From: 2010.03.12/outbox.cif.g09.slc.cpg/sg51_5_cif.got.tgz:9705.got - 2010.04.16 13:43:02.
