data_PCOD8212789
_publ_section_title
;
Structure prediction by ZEFSAII (Michael W. Deem and Ramdas Pophale) SiO2 
 PCOD8212789
Probable space group: P M M A
;
_chemical_formula_sum "Si O2"
_cell_formula_units_Z 40
_cell_length_a 17.936029
_cell_length_b 14.334984
_cell_length_c 7.771423
_cell_angle_alpha 90.000000
_cell_angle_beta 90.000000
_cell_angle_gamma 90.000000
_cell_volume 1998.131463
_symmetry_space_group_name_H-M "P M M A"
_symmetry_group_IT_number 51
_symmetry_cell_setting 'orthorhombic'
loop_
_space_group_symop_operation_xyz
x,y,z
1/2-x,-y,z
1/2+x,-y,-z
-x,y,-z
-x,-y,-z
1/2+x,y,-z
1/2-x,y,z
x,-y,z
loop_
_atom_site_type_symbol
_atom_site_label
_atom_site_fract_x
_atom_site_fract_y
_atom_site_fract_z
Si Si1 0.412087 0.783095 0.496452
Si Si2 0.161531 0.398882 0.989030
Si Si3 0.837914 0.792509 0.161060
Si Si4 0.663272 0.394619 0.619850
Si Si5 0.163542 0.108717 0.189049
O O1 0.500000 0.787295 0.500000
O O2 0.379907 0.830532 0.670120
O O3 0.384245 0.676129 0.495115
O O4 0.383900 0.838296 0.330987
O O5 0.250000 0.399858 0.989834
O O6 0.132058 0.500000 0.920539
O O7 0.133047 0.313393 0.873669
O O8 0.135106 0.383964 0.184596
O O9 0.750000 0.795902 0.195045
O O10 0.860190 0.857102 0.000333
O O11 0.750000 0.367881 0.602335
O O12 0.649941 0.500000 0.553299
O O13 0.250000 0.132174 0.221343
O O14 0.146527 0.000000 0.202968
#
# Coordination Sequence:
#
# PCOD8212789 Si02
#       5
#     8   8   8   8   8
#     4  12  25  38  57  89 131 166 193 233 296 370
#     4   8  14  28  55  86 111 141 189 247 295 335
#     4  10  20  37  63  88 112 148 202 251 292 347
#     4   9  17  34  60  85 115 159 207 251 292 338
#     4  10  22  43  68  89 112 146 197 260 308 345
#
# _framework density 20.018702000000001
#
# number of rings (size 3 to 8) (size 9 to 14) (size 15 to 20)
#    0.000    2.200    2.000    3.000    0.000    3.200 
#    0.000    5.000    0.000    2.400    0.000    0.000 
#    0.000    0.000    0.000    0.000    0.000    0.000 
#
# Total GULP energy -495932.560060 kJ/mol
# GULP energy per Si atom -12398.314002 kJ/mol
# Density = 1.997314 g / cm^3
# Si number density = 20.018702 Si / 1000 Ang^3
#
#
#
# Elastic Constant Matrix: (Units=GPa)
#
#
# Indices 1 2 3 4 5 6 
#
# 1 90.9775 48.8294 64.1209 0.0000 0.0000 0.0000
# 2 48.8294 97.1362 45.6445 0.0000 0.0000 0.0000
# 3 64.1209 45.6445 126.5983 0.0000 0.0000 0.0000
# 4 0.0000 0.0000 0.0000 10.6057 0.0000 0.0000
# 5 0.0000 0.0000 0.0000 0.0000 32.0414 0.0000
# 6 0.0000 0.0000 0.0000 0.0000 0.0000 10.7307
#
#
#
# Elastic Compliance Matrix: (Units=1/GPa)
#
#
# Indices 1 2 3 4 5 6 
#
# 1 0.019878 -0.006335 -0.007784 0.000000 0.000000 0.000000
# 2 -0.006335 0.014413 -0.001988 0.000000 0.000000 0.000000
# 3 -0.007784 -0.001988 0.012558 0.000000 0.000000 0.000000
# 4 0.000000 0.000000 0.000000 0.094289 0.000000 0.000000
# 5 0.000000 0.000000 0.000000 0.000000 0.031210 0.000000
# 6 0.000000 0.000000 0.000000 0.000000 0.000000 0.093191
#
#
# Mechanical properties :
#
#
# Convention : Reuss Voigt Hill
#
# Bulk Modulus (GPa) = 68.32552 70.21130 69.26841
# Shear Modulus (GPa) = 16.52175 21.08337 18.80256
#
# Velocity S-wave (km/s) = 2.87595 3.24880 3.06804
# Velocity P-wave (km/s) = 6.72555 7.01583 6.87223
#
# Compressibility (1/GPa) = 0.01463582
#
# Stress axis : x y z
#
# Youngs Moduli (GPa) = 50.30726 69.37944 79.62801
#
# Poissons Ratio (x) = 0.43950 0.61983
# Poissons Ratio (y) = 0.31868 0.15832
# Poissons Ratio (z) = 0.39159 0.13795
#
# Static dielectric constant tensor:
#      x y z
#    x 3.212800 0.000000 0.000000 
#    y 0.000000 3.977920 0.000000 
#    z 0.000000 0.000000 3.675470 
# 
# 
# High freq. dielectric constant tensor:
#      x y z
#    x 1.733610 0.000000 0.000000 
#    y 0.000000 1.786090 0.000000 
#    z 0.000000 0.000000 1.787620 
# 
# From -- ./inp_files/7979.got.cif
#   From: 2010.03.12/outbox.cif.g09.slc.cpg/sg51_4_cif.got.tgz:7979.got - 2010.04.16 13:43:02.
