data_PCOD8212048
_publ_section_title
;
Structure prediction by ZEFSAII (Michael W. Deem and Ramdas Pophale) SiO2 
 PCOD8212048
Probable space group: P M M A
;
_chemical_formula_sum "Si O2"
_cell_formula_units_Z 36
_cell_length_a 8.787869
_cell_length_b 22.928366
_cell_length_c 9.494248
_cell_angle_alpha 90.000000
_cell_angle_beta 90.000000
_cell_angle_gamma 90.000000
_cell_volume 1913.010051
_symmetry_space_group_name_H-M "P M M A"
_symmetry_group_IT_number 51
_symmetry_cell_setting 'orthorhombic'
loop_
_space_group_symop_operation_xyz
x,y,z
1/2-x,-y,z
1/2+x,-y,-z
-x,y,-z
-x,-y,-z
1/2+x,y,-z
1/2-x,y,z
x,-y,z
loop_
_atom_site_type_symbol
_atom_site_label
_atom_site_fract_x
_atom_site_fract_y
_atom_site_fract_z
Si Si1 0.570944 0.333081 0.652165
Si Si2 0.069047 0.894712 0.849543
Si Si3 0.569469 0.772644 0.850211
Si Si4 0.071126 0.000000 0.652759
Si Si5 0.070477 0.565748 0.147539
O O1 0.500000 0.329871 0.500000
O O2 0.750000 0.336044 0.635647
O O3 0.521151 0.276165 0.738604
O O4 0.510123 0.390888 0.731681
O O5 0.250000 0.890359 0.863859
O O6 0.001356 0.833368 0.796950
O O7 0.017248 0.942881 0.737098
O O8 0.000000 0.912273 0.000000
O O9 0.750000 0.778801 0.865362
O O10 0.500000 0.754606 0.000000
O O11 0.000000 0.000000 0.500000
O O12 0.250000 0.000000 0.635310
O O13 0.250000 0.570689 0.131083
O O14 0.019659 0.500000 0.187320
O O15 0.000000 0.585531 0.000000
#
# Coordination Sequence:
#
# PCOD8212048 Si02
#       5
#     8   8   8   4   8
#     4  10  22  36  51  75 107 140 173 211 257 308
#     4  10  20  36  57  81 105 134 173 214 257 305
#     4  10  20  35  55  79 104 134 173 215 258 304
#     4  10  23  38  54  78 108 140 173 210 256 308
#     4   9  18  34  55  78 103 133 172 216 259 305
#
# _framework density 18.818511000000001
#
# number of rings (size 3 to 8) (size 9 to 14) (size 15 to 20)
#    0.000    2.222    0.000    3.667    0.000    5.778 
#    0.000    4.444    0.000    0.000    0.000    0.000 
#    0.000    0.000    0.000    0.000    0.000    0.000 
#
# Total GULP energy -446461.198156 kJ/mol
# GULP energy per Si atom -12401.699949 kJ/mol
# Density = 1.877568 g / cm^3
# Si number density = 18.818511 Si / 1000 Ang^3
#
#
#
# Elastic Constant Matrix: (Units=GPa)
#
#
# Indices 1 2 3 4 5 6 
#
# 1 53.7149 49.6276 46.2669 0.0000 0.0000 0.0000
# 2 49.6276 169.6030 123.3877 0.0000 0.0000 0.0000
# 3 46.2669 123.3877 170.1208 0.0000 0.0000 0.0000
# 4 0.0000 0.0000 0.0000 25.2053 0.0000 0.0000
# 5 0.0000 0.0000 0.0000 0.0000 36.6086 0.0000
# 6 0.0000 0.0000 0.0000 0.0000 0.0000 25.4233
#
#
#
# Elastic Compliance Matrix: (Units=1/GPa)
#
#
# Indices 1 2 3 4 5 6 
#
# 1 0.026380 -0.005292 -0.003336 0.000000 0.000000 0.000000
# 2 -0.005292 0.013544 -0.008384 0.000000 0.000000 0.000000
# 3 -0.003336 -0.008384 0.012867 0.000000 0.000000 0.000000
# 4 0.000000 0.000000 0.000000 0.039674 0.000000 0.000000
# 5 0.000000 0.000000 0.000000 0.000000 0.027316 0.000000
# 6 0.000000 0.000000 0.000000 0.000000 0.000000 0.039334
#
#
# Mechanical properties :
#
#
# Convention : Reuss Voigt Hill
#
# Bulk Modulus (GPa) = 53.28877 92.44478 72.86677
# Shear Modulus (GPa) = 25.07588 29.05787 27.06687
#
# Velocity S-wave (km/s) = 3.65432 3.93378 3.79662
# Velocity P-wave (km/s) = 6.79589 8.35846 7.61735
#
# Compressibility (1/GPa) = 0.01876568
#
# Stress axis : x y z
#
# Youngs Moduli (GPa) = 37.90812 73.83177 77.72018
#
# Poissons Ratio (x) = 0.39071 0.25929
# Poissons Ratio (y) = 0.20060 0.65164
# Poissons Ratio (z) = 0.12647 0.61904
#
# Static dielectric constant tensor:
#      x y z
#    x 3.405190 0.000000 0.000000 
#    y 0.000000 3.809820 0.000000 
#    z 0.000000 0.000000 2.662380 
# 
# 
# High freq. dielectric constant tensor:
#      x y z
#    x 1.730660 0.000000 0.000000 
#    y 0.000000 1.748390 0.000000 
#    z 0.000000 0.000000 1.726490 
# 
# From -- ./inp_files/5279.got.cif
#   From: 2010.03.12/outbox.cif.g09.slc.cpg/sg51_3_cif.got.tgz:5279.got - 2010.04.16 13:43:02.
