data_PCOD8212449
_publ_section_title
;
Structure prediction by ZEFSAII (Michael W. Deem and Ramdas Pophale) SiO2 
 PCOD8212449
Probable space group: P M M A
;
_chemical_formula_sum "Si O2"
_cell_formula_units_Z 48
_cell_length_a 8.728140
_cell_length_b 30.567156
_cell_length_c 9.608668
_cell_angle_alpha 90.000000
_cell_angle_beta 90.000000
_cell_angle_gamma 90.000000
_cell_volume 2563.538977
_symmetry_space_group_name_H-M "P M M A"
_symmetry_group_IT_number 51
_symmetry_cell_setting 'orthorhombic'
loop_
_space_group_symop_operation_xyz
x,y,z
1/2-x,-y,z
1/2+x,-y,-z
-x,y,-z
-x,-y,-z
1/2+x,y,-z
1/2-x,y,z
x,-y,z
loop_
_atom_site_type_symbol
_atom_site_label
_atom_site_fract_x
_atom_site_fract_y
_atom_site_fract_z
Si Si1 0.931700 0.365299 0.654816
Si Si2 0.568474 0.290643 0.153345
Si Si3 0.429225 0.547363 0.651142
Si Si4 0.929627 0.785438 0.356017
Si Si5 0.430265 0.116115 0.643672
Si Si6 0.426151 0.951163 0.149634
O O1 0.750000 0.362270 0.646555
O O2 0.000000 0.359335 0.500000
O O3 0.995417 0.329046 0.757363
O O4 0.983652 0.411943 0.723205
O O5 0.750000 0.297096 0.145885
O O6 0.522024 0.245145 0.227541
O O7 0.500000 0.290351 0.000000
O O8 0.500000 0.542998 0.500000
O O9 0.250000 0.558575 0.640106
O O10 0.453785 0.500000 0.727856
O O11 0.750000 0.784660 0.378146
O O12 0.988442 0.834583 0.323507
O O13 0.000000 0.767498 0.500000
O O14 0.500000 0.099090 0.500000
O O15 0.250000 0.114704 0.631503
O O16 0.483123 0.083782 0.762007
O O17 0.250000 0.937032 0.139899
O O18 0.442257 0.000000 0.213950
O O19 0.500000 0.950456 0.000000
#
# Coordination Sequence:
#
# PCOD8212449 Si02
#       6
#     8   8   8   8   8   8
#     4  11  21  34  54  80 109 143 181 221 267 317
#     4  11  23  39  56  78 108 141 179 221 267 318
#     4   9  16  27  46  74 106 138 174 218 265 312
#     4   9  20  37  58  82 108 139 176 219 266 319
#     4  10  20  36  57  83 112 142 178 220 268 318
#     4  10  21  37  56  79 108 144 184 224 268 318
#
# _framework density 18.724115999999999
#
# number of rings (size 3 to 8) (size 9 to 14) (size 15 to 20)
#    0.000    2.000    0.000    5.000    0.000    6.333 
#    0.000    1.667    0.000    0.500    0.000    0.000 
#    0.000    0.000    0.000    0.000    0.000    0.000 
#
# Total GULP energy -595029.458209 kJ/mol
# GULP energy per Si atom -12396.447046 kJ/mol
# Density = 1.868150 g / cm^3
# Si number density = 18.724116 Si / 1000 Ang^3
#
#
#
# Elastic Constant Matrix: (Units=GPa)
#
#
# Indices 1 2 3 4 5 6 
#
# 1 101.0968 52.0599 44.2262 0.0000 0.0000 0.0000
# 2 52.0599 124.5925 67.0598 0.0000 0.0000 0.0000
# 3 44.2262 67.0598 98.6476 0.0000 0.0000 0.0000
# 4 0.0000 0.0000 0.0000 -64.5792 0.0000 0.0000
# 5 0.0000 0.0000 0.0000 0.0000 32.5960 0.0000
# 6 0.0000 0.0000 0.0000 0.0000 0.0000 29.8850
#
#
#
# Elastic Compliance Matrix: (Units=1/GPa)
#
#
# Indices 1 2 3 4 5 6 
#
# 1 0.013308 -0.003705 -0.003448 0.000000 0.000000 0.000000
# 2 -0.003705 0.013689 -0.007645 0.000000 0.000000 0.000000
# 3 -0.003448 -0.007645 0.016879 0.000000 0.000000 0.000000
# 4 0.000000 0.000000 0.000000 -0.015485 0.000000 0.000000
# 5 0.000000 0.000000 0.000000 0.000000 0.030679 0.000000
# 6 0.000000 0.000000 0.000000 0.000000 0.000000 0.033462
#
#
# Mechanical properties :
#
#
# Convention : Reuss Voigt Hill
#
# Bulk Modulus (GPa) = 70.01916 72.33650 71.17783
# Shear Modulus (GPa) = 39.40560 10.31307 24.85934
#
# Velocity S-wave (km/s) = 4.59250 2.34944 3.64767
# Velocity P-wave (km/s) = 8.09925 6.78797 7.47242
#
# Compressibility (1/GPa) = 0.01428181
#
# Stress axis : x y z
#
# Youngs Moduli (GPa) = 75.14554 73.05285 59.24378
#
# Poissons Ratio (x) = 0.27065 0.20425
# Poissons Ratio (y) = 0.27840 0.45289
# Poissons Ratio (z) = 0.25907 0.55845
#
# Static dielectric constant tensor:
#      x y z
#    x 3.601490 0.000000 0.000000 
#    y 0.000000 4.187400 0.000000 
#    z 0.000000 0.000000 3.198220 
# 
# 
# High freq. dielectric constant tensor:
#      x y z
#    x 1.742930 0.000000 0.000000 
#    y 0.000000 1.747800 0.000000 
#    z 0.000000 0.000000 1.696000 
# 
# From -- ./inp_files/5946.got.cif
#   From: 2010.03.12/outbox.cif.g09.slc.cpg/sg51_3_cif.got.tgz:5946.got - 2010.04.16 13:43:02.
