data_PCOD8212279
_publ_section_title
;
Structure prediction by ZEFSAII (Michael W. Deem and Ramdas Pophale) SiO2 
 PCOD8212279
Probable space group: P M M A
;
_chemical_formula_sum "Si O2"
_cell_formula_units_Z 52
_cell_length_a 9.252978
_cell_length_b 15.196592
_cell_length_c 19.151464
_cell_angle_alpha 90.000000
_cell_angle_beta 90.000000
_cell_angle_gamma 90.000000
_cell_volume 2692.958816
_symmetry_space_group_name_H-M "P M M A"
_symmetry_group_IT_number 51
_symmetry_cell_setting 'orthorhombic'
loop_
_space_group_symop_operation_xyz
x,y,z
1/2-x,-y,z
1/2+x,-y,-z
-x,y,-z
-x,-y,-z
1/2+x,y,-z
1/2-x,y,z
x,-y,z
loop_
_atom_site_type_symbol
_atom_site_label
_atom_site_fract_x
_atom_site_fract_y
_atom_site_fract_z
Si Si1 0.591803 0.600974 0.437844
Si Si2 0.417707 0.397295 0.155492
Si Si3 0.417903 0.137611 0.312789
Si Si4 0.422486 0.748103 0.927510
Si Si5 0.581237 0.000000 0.572759
Si Si6 0.084867 0.902442 0.824693
Si Si7 0.917609 0.340036 0.689526
O O1 0.500000 0.647504 0.500000
O O2 0.750000 0.646581 0.433167
O O3 0.613775 0.500000 0.457774
O O4 0.510851 0.604743 0.364394
O O5 0.250000 0.373701 0.141689
O O6 0.447128 0.500000 0.143087
O O7 0.519129 0.343791 0.102925
O O8 0.462263 0.370817 0.233599
O O9 0.250000 0.124008 0.297236
O O10 0.463687 0.086191 0.382835
O O11 0.498453 0.098339 0.246812
O O12 0.457861 0.238919 0.322470
O O13 0.250000 0.742734 0.937060
O O14 0.471774 0.828594 0.878020
O O15 0.500000 0.766940 0.000000
O O16 0.500000 0.000000 0.500000
O O17 0.750000 0.000000 0.556076
O O18 0.250000 0.882041 0.806086
O O19 0.067600 0.000000 0.858407
O O20 0.750000 0.359726 0.675520
#
# Coordination Sequence:
#
# PCOD8212279 Si02
#       7
#     8   8   8   8   4   8   8
#     4  10  21  36  54  77 108 147 189 235 289 345
#     4  10  21  38  62  90 120 158 201 245 299 360
#     4  10  20  36  60  86 113 150 195 239 287 346
#     4  11  24  41  62  89 123 159 198 245 296 353
#     4  10  22  38  56  84 119 156 197 240 289 346
#     4  10  21  38  62  91 121 153 193 239 293 353
#     4  10  20  35  58  86 115 146 190 244 295 350
#
# _framework density 19.309615999999998
#
# number of rings (size 3 to 8) (size 9 to 14) (size 15 to 20)
#    0.000    1.846    2.308    1.385    0.000    5.538 
#    0.000    1.538    0.000    0.000    0.000    0.000 
#    0.000    0.000    0.000    0.000    0.000    0.000 
#
# Total GULP energy -644887.626445 kJ/mol
# GULP energy per Si atom -12401.685124 kJ/mol
# Density = 1.926567 g / cm^3
# Si number density = 19.309616 Si / 1000 Ang^3
#
#
#
# Elastic Constant Matrix: (Units=GPa)
#
#
# Indices 1 2 3 4 5 6 
#
# 1 78.5184 36.9078 58.1992 0.0000 0.0000 0.0000
# 2 36.9078 99.4846 50.6488 0.0000 0.0000 0.0000
# 3 58.1992 50.6488 133.8889 0.0000 0.0000 0.0000
# 4 0.0000 0.0000 0.0000 33.9993 0.0000 0.0000
# 5 0.0000 0.0000 0.0000 0.0000 36.2392 0.0000
# 6 0.0000 0.0000 0.0000 0.0000 0.0000 24.6943
#
#
#
# Elastic Compliance Matrix: (Units=1/GPa)
#
#
# Indices 1 2 3 4 5 6 
#
# 1 0.019818 -0.003674 -0.007225 0.000000 0.000000 0.000000
# 2 -0.003674 0.013131 -0.003370 0.000000 0.000000 0.000000
# 3 -0.007225 -0.003370 0.011884 0.000000 0.000000 0.000000
# 4 0.000000 0.000000 0.000000 0.029412 0.000000 0.000000
# 5 0.000000 0.000000 0.000000 0.000000 0.027594 0.000000
# 6 0.000000 0.000000 0.000000 0.000000 0.000000 0.040495
#
#
# Mechanical properties :
#
#
# Convention : Reuss Voigt Hill
#
# Bulk Modulus (GPa) = 61.36842 67.04485 64.20664
# Shear Modulus (GPa) = 28.36009 30.06229 29.21119
#
# Velocity S-wave (km/s) = 3.83652 3.94998 3.89367
# Velocity P-wave (km/s) = 7.17464 7.45651 7.31693
#
# Compressibility (1/GPa) = 0.01629503
#
# Stress axis : x y z
#
# Youngs Moduli (GPa) = 50.45942 76.15783 84.14540
#
# Poissons Ratio (x) = 0.27981 0.60792
# Poissons Ratio (y) = 0.18539 0.28358
# Poissons Ratio (z) = 0.36455 0.25666
#
# Static dielectric constant tensor:
#      x y z
#    x 3.623860 0.000000 0.000000 
#    y 0.000000 3.721100 0.000000 
#    z 0.000000 0.000000 3.423330 
# 
# 
# High freq. dielectric constant tensor:
#      x y z
#    x 1.752100 0.000000 0.000000 
#    y 0.000000 1.755120 0.000000 
#    z 0.000000 0.000000 1.749630 
# 
# From -- ./inp_files/27943.got.cif
#   From: 2010.03.12/outbox.cif.g09.slc.cpg/sg51_14_cif.got.tgz:27943.got - 2010.04.16 13:43:02.
