data_PCOD8212764
_publ_section_title
;
Structure prediction by ZEFSAII (Michael W. Deem and Ramdas Pophale) SiO2 
 PCOD8212764
Probable space group: P M M A
;
_chemical_formula_sum "Si O2"
_cell_formula_units_Z 40
_cell_length_a 13.905433
_cell_length_b 15.021396
_cell_length_c 8.801757
_cell_angle_alpha 90.000000
_cell_angle_beta 90.000000
_cell_angle_gamma 90.000000
_cell_volume 1838.502338
_symmetry_space_group_name_H-M "P M M A"
_symmetry_group_IT_number 51
_symmetry_cell_setting 'orthorhombic'
loop_
_space_group_symop_operation_xyz
x,y,z
1/2-x,-y,z
1/2+x,-y,-z
-x,y,-z
-x,-y,-z
1/2+x,y,-z
1/2-x,y,z
x,-y,z
loop_
_atom_site_type_symbol
_atom_site_label
_atom_site_fract_x
_atom_site_fract_y
_atom_site_fract_z
Si Si1 0.861414 0.741824 0.863001
Si Si2 0.057663 0.899989 0.290954
Si Si3 0.359202 0.849617 0.607072
Si Si4 0.029666 0.400333 0.331844
Si Si5 0.856390 0.324450 0.197550
O O1 0.750000 0.758314 0.833520
O O2 0.917814 0.835455 0.848598
O O3 0.895346 0.668005 0.741566
O O4 0.883161 0.713694 0.033884
O O5 0.114290 0.852673 0.429664
O O6 0.942034 0.907928 0.311643
O O7 0.096773 0.000000 0.264149
O O8 0.250000 0.886803 0.633789
O O9 0.365869 0.750181 0.672067
O O10 0.073885 0.500000 0.331587
O O11 0.000000 0.369394 0.500000
O O12 0.931780 0.401852 0.233182
O O13 0.750000 0.366040 0.197082
#
# Coordination Sequence:
#
# PCOD8212764 Si02
#       5
#     8   8   8   8   8
#     4  11  24  42  64  91 129 170 211 260 315 377
#     4  11  23  38  61  92 126 171 218 262 316 371
#     4  10  20  37  61  89 124 165 212 262 312 371
#     4  11  24  42  67  97 127 161 206 259 316 378
#     4  10  22  41  66  93 126 169 209 253 315 379
#
# _framework density 21.75684
#
# number of rings (size 3 to 8) (size 9 to 14) (size 15 to 20)
#    0.000    1.400    2.000    3.600    0.000    7.600 
#    0.000    7.000    0.000    7.200    0.000    0.000 
#    0.000    0.000    0.000    0.000    0.000    0.000 
#
# Total GULP energy -495805.773720 kJ/mol
# GULP energy per Si atom -12395.144343 kJ/mol
# Density = 2.170732 g / cm^3
# Si number density = 21.756840 Si / 1000 Ang^3
#
#
#
# Elastic Constant Matrix: (Units=GPa)
#
#
# Indices 1 2 3 4 5 6 
#
# 1 128.8348 26.8811 47.7005 0.0000 0.0000 0.0000
# 2 26.8811 89.1277 32.4969 0.0000 0.0000 0.0000
# 3 47.7005 32.4969 80.7177 0.0000 0.0000 0.0000
# 4 0.0000 0.0000 0.0000 13.1073 0.0000 0.0000
# 5 0.0000 0.0000 0.0000 0.0000 32.6007 0.0000
# 6 0.0000 0.0000 0.0000 0.0000 0.0000 13.7378
#
#
#
# Elastic Compliance Matrix: (Units=1/GPa)
#
#
# Indices 1 2 3 4 5 6 
#
# 1 0.010013 -0.001011 -0.005510 0.000000 0.000000 0.000000
# 2 -0.001011 0.013252 -0.004738 0.000000 0.000000 0.000000
# 3 -0.005510 -0.004738 0.017553 0.000000 0.000000 0.000000
# 4 0.000000 0.000000 0.000000 0.076293 0.000000 0.000000
# 5 0.000000 0.000000 0.000000 0.000000 0.030674 0.000000
# 6 0.000000 0.000000 0.000000 0.000000 0.000000 0.072792
#
#
# Mechanical properties :
#
#
# Convention : Reuss Voigt Hill
#
# Bulk Modulus (GPa) = 54.64557 56.98189 55.81373
# Shear Modulus (GPa) = 20.06459 24.66261 22.36360
#
# Velocity S-wave (km/s) = 3.04010 3.37049 3.20955
# Velocity P-wave (km/s) = 6.12323 6.43382 6.28045
#
# Compressibility (1/GPa) = 0.01829975
#
# Stress axis : x y z
#
# Youngs Moduli (GPa) = 99.87101 75.45889 56.97150
#
# Poissons Ratio (x) = 0.07628 0.31392
# Poissons Ratio (y) = 0.10095 0.26993
# Poissons Ratio (z) = 0.55031 0.35752
#
# Static dielectric constant tensor:
#      x y z
#    x 4.208020 0.000000 0.000000 
#    y 0.000000 3.590300 0.000000 
#    z 0.000000 0.000000 3.956490 
# 
# 
# High freq. dielectric constant tensor:
#      x y z
#    x 1.867560 0.000000 0.000000 
#    y 0.000000 1.836930 0.000000 
#    z 0.000000 0.000000 1.854080 
# 
# From -- ./inp_files/7939.got.cif
#   From: 2010.03.12/outbox.cif.g09.slc.cpg/sg51_4_cif.got.tgz:7939.got - 2010.04.16 13:43:02.
