data_PCOD8212354
_publ_section_title
;
Structure prediction by ZEFSAII (Michael W. Deem and Ramdas Pophale) SiO2 
 PCOD8212354
Probable space group: P M M A
;
_chemical_formula_sum "Si O2"
_cell_formula_units_Z 40
_cell_length_a 8.745223
_cell_length_b 25.817539
_cell_length_c 9.702624
_cell_angle_alpha 90.000000
_cell_angle_beta 90.000000
_cell_angle_gamma 90.000000
_cell_volume 2190.659765
_symmetry_space_group_name_H-M "P M M A"
_symmetry_group_IT_number 51
_symmetry_cell_setting 'orthorhombic'
loop_
_space_group_symop_operation_xyz
x,y,z
1/2-x,-y,z
1/2+x,-y,-z
-x,y,-z
-x,-y,-z
1/2+x,y,-z
1/2-x,y,z
x,-y,z
loop_
_atom_site_type_symbol
_atom_site_label
_atom_site_fract_x
_atom_site_fract_y
_atom_site_fract_z
Si Si1 0.430719 0.705337 0.645111
Si Si2 0.569286 0.110681 0.151623
Si Si3 0.570834 0.413063 0.356834
Si Si4 0.069221 0.500000 0.849611
Si Si5 0.431194 0.213371 0.152004
Si Si6 0.427789 0.000000 0.851742
O O1 0.500000 0.723470 0.500000
O O2 0.250000 0.714186 0.643729
O O3 0.475894 0.645935 0.675608
O O4 0.508092 0.738038 0.764448
O O5 0.750000 0.121081 0.145720
O O6 0.488268 0.159690 0.225689
O O7 0.530913 0.054667 0.225748
O O8 0.500000 0.107606 0.000000
O O9 0.500000 0.432349 0.500000
O O10 0.750000 0.418953 0.374303
O O11 0.511477 0.449105 0.232447
O O12 0.250000 0.500000 0.864061
O O13 0.000000 0.500000 0.000000
O O14 0.250000 0.214522 0.145615
O O15 0.500000 0.217046 0.000000
O O16 0.250000 0.000000 0.881233
O O17 0.500000 0.000000 0.000000
#
# Coordination Sequence:
#
# PCOD8212354 Si02
#       6
#     8   8   8   4   8   4
#     4  10  20  36  55  77 102 132 169 211 253 301
#     4   9  15  25  40  62  92 126 162 203 248 299
#     4   9  19  35  56  78 102 131 168 207 247 294
#     4  10  21  36  52  78 110 138 167 204 246 294
#     4  11  21  33  49  72 101 135 170 210 257 305
#     4   8  14  22  36  58  87 122 159 198 245 294
#
# _framework density 18.259338
#
# number of rings (size 3 to 8) (size 9 to 14) (size 15 to 20)
#    0.000    2.400    0.000    4.500    0.000    3.200 
#    0.000    2.000    0.000    0.000    0.000    0.700 
#    0.000    0.000    0.000    0.000    0.000    0.000 
#
# Total GULP energy -495627.959242 kJ/mol
# GULP energy per Si atom -12390.698981 kJ/mol
# Density = 1.821778 g / cm^3
# Si number density = 18.259338 Si / 1000 Ang^3
#
#
#
# Elastic Constant Matrix: (Units=GPa)
#
#
# Indices 1 2 3 4 5 6 
#
# 1 89.6633 53.3064 38.1115 0.0000 0.0000 0.0000
# 2 53.3064 148.8918 73.9122 0.0000 0.0000 0.0000
# 3 38.1115 73.9122 91.4014 0.0000 0.0000 0.0000
# 4 0.0000 0.0000 0.0000 5.0367 0.0000 0.0000
# 5 0.0000 0.0000 0.0000 0.0000 27.8241 0.0000
# 6 0.0000 0.0000 0.0000 0.0000 0.0000 16.1475
#
#
#
# Elastic Compliance Matrix: (Units=1/GPa)
#
#
# Indices 1 2 3 4 5 6 
#
# 1 0.014685 -0.003705 -0.003127 0.000000 0.000000 0.000000
# 2 -0.003705 0.012155 -0.008285 0.000000 0.000000 0.000000
# 3 -0.003127 -0.008285 0.018944 0.000000 0.000000 0.000000
# 4 0.000000 0.000000 0.000000 0.198542 0.000000 0.000000
# 5 0.000000 0.000000 0.000000 0.000000 0.035940 0.000000
# 6 0.000000 0.000000 0.000000 0.000000 0.000000 0.061929
#
#
# Mechanical properties :
#
#
# Convention : Reuss Voigt Hill
#
# Bulk Modulus (GPa) = 64.30541 73.40186 68.85363
# Shear Modulus (GPa) = 13.24111 20.77676 17.00893
#
# Velocity S-wave (km/s) = 2.69582 3.37689 3.05539
# Velocity P-wave (km/s) = 6.70703 7.44926 7.08786
#
# Compressibility (1/GPa) = 0.01555079
#
# Stress axis : x y z
#
# Youngs Moduli (GPa) = 68.09802 82.26768 52.78744
#
# Poissons Ratio (x) = 0.30482 0.16506
# Poissons Ratio (y) = 0.25232 0.43732
# Poissons Ratio (z) = 0.21293 0.68155
#
# Static dielectric constant tensor:
#      x y z
#    x 3.387960 0.000000 0.000000 
#    y 0.000000 4.355360 0.000000 
#    z 0.000000 0.000000 3.066560 
# 
# 
# High freq. dielectric constant tensor:
#      x y z
#    x 1.716700 0.000000 0.000000 
#    y 0.000000 1.737190 0.000000 
#    z 0.000000 0.000000 1.655890 
# 
# From -- ./inp_files/5550.got.cif
#   From: 2010.03.12/outbox.cif.g09.slc.cpg/sg51_3_cif.got.tgz:5550.got - 2010.04.16 13:43:02.
