data_PCOD8212974
_publ_section_title
;
Structure prediction by ZEFSAII (Michael W. Deem and Ramdas Pophale) SiO2 
 PCOD8212974
Probable space group: P M M A
;
_chemical_formula_sum "Si O2"
_cell_formula_units_Z 48
_cell_length_a 15.205699
_cell_length_b 9.238242
_cell_length_c 17.268972
_cell_angle_alpha 90.000000
_cell_angle_beta 90.000000
_cell_angle_gamma 90.000000
_cell_volume 2425.840315
_symmetry_space_group_name_H-M "P M M A"
_symmetry_group_IT_number 51
_symmetry_cell_setting 'orthorhombic'
loop_
_space_group_symop_operation_xyz
x,y,z
1/2-x,-y,z
1/2+x,-y,-z
-x,y,-z
-x,-y,-z
1/2+x,y,-z
1/2-x,y,z
x,-y,z
loop_
_atom_site_type_symbol
_atom_site_label
_atom_site_fract_x
_atom_site_fract_y
_atom_site_fract_z
Si Si1 0.397850 0.160719 0.508776
Si Si2 0.853065 0.170059 0.190640
Si Si3 0.490746 0.331462 0.910505
Si Si4 0.352960 0.660825 0.658915
Si Si5 0.648931 0.159231 0.657031
Si Si6 0.149730 0.331338 0.197460
O O1 0.500000 0.145164 0.500000
O O2 0.374727 0.267053 0.577578
O O3 0.362219 0.228686 0.428233
O O4 0.356338 0.000000 0.523159
O O5 0.750000 0.202515 0.175438
O O6 0.887901 0.241587 0.270470
O O7 0.909708 0.237989 0.121500
O O8 0.870886 0.000000 0.196045
O O9 0.468737 0.500000 0.896998
O O10 0.584173 0.289045 0.871911
O O11 0.500000 0.293136 0.000000
O O12 0.250000 0.646626 0.667105
O O13 0.395695 0.500000 0.662676
O O14 0.750000 0.143003 0.676847
O O15 0.609392 0.258207 0.724929
O O16 0.603271 0.000000 0.658176
O O17 0.250000 0.281543 0.176819
O O18 0.148910 0.500000 0.214385
#
# Coordination Sequence:
#
# PCOD8212974 Si02
#       6
#     8   8   8   8   8   8
#     4  10  21  34  50  78 113 148 187 231 280 333
#     4  10  22  40  62  87 117 155 197 241 290 344
#     4  10  22  39  61  90 120 151 188 234 291 350
#     4  10  21  37  57  81 110 147 191 237 286 338
#     4   9  18  33  52  74 104 145 188 229 274 325
#     4   9  19  36  57  82 113 149 188 230 280 339
#
# _framework density 19.786957999999998
#
# number of rings (size 3 to 8) (size 9 to 14) (size 15 to 20)
#    0.000    2.333    0.000    1.500    2.333    5.333 
#    0.000    3.333    0.000    2.000    0.000    0.000 
#    0.000    0.000    0.000    0.000    0.000    0.000 
#
# Total GULP energy -595060.207803 kJ/mol
# GULP energy per Si atom -12397.087663 kJ/mol
# Density = 1.974192 g / cm^3
# Si number density = 19.786958 Si / 1000 Ang^3
#
#
#
# Elastic Constant Matrix: (Units=GPa)
#
#
# Indices 1 2 3 4 5 6 
#
# 1 67.0756 46.7142 56.8198 0.0000 0.0000 0.0000
# 2 46.7142 107.4621 83.7192 0.0000 0.0000 0.0000
# 3 56.8198 83.7192 181.5792 0.0000 0.0000 0.0000
# 4 0.0000 0.0000 0.0000 27.7044 0.0000 0.0000
# 5 0.0000 0.0000 0.0000 0.0000 33.0960 0.0000
# 6 0.0000 0.0000 0.0000 0.0000 0.0000 24.6709
#
#
#
# Elastic Compliance Matrix: (Units=1/GPa)
#
#
# Indices 1 2 3 4 5 6 
#
# 1 0.023157 -0.006899 -0.004065 0.000000 0.000000 0.000000
# 2 -0.006899 0.016577 -0.005484 0.000000 0.000000 0.000000
# 3 -0.004065 -0.005484 0.009308 0.000000 0.000000 0.000000
# 4 0.000000 0.000000 0.000000 0.036095 0.000000 0.000000
# 5 0.000000 0.000000 0.000000 0.000000 0.030215 0.000000
# 6 0.000000 0.000000 0.000000 0.000000 0.000000 0.040534
#
#
# Mechanical properties :
#
#
# Convention : Reuss Voigt Hill
#
# Bulk Modulus (GPa) = 61.94010 81.18038 71.56024
# Shear Modulus (GPa) = 25.75114 28.35184 27.05149
#
# Velocity S-wave (km/s) = 3.61143 3.78941 3.70149
# Velocity P-wave (km/s) = 6.98294 7.76289 7.38322
#
# Compressibility (1/GPa) = 0.01614463
#
# Stress axis : x y z
#
# Youngs Moduli (GPa) = 43.18281 60.32329 107.43548
#
# Poissons Ratio (x) = 0.41620 0.43676
# Poissons Ratio (y) = 0.29794 0.58920
# Poissons Ratio (z) = 0.17555 0.33082
#
# Static dielectric constant tensor:
#      x y z
#    x 3.583430 0.000000 0.000000 
#    y 0.000000 4.037500 0.000000 
#    z 0.000000 0.000000 3.508460 
# 
# 
# High freq. dielectric constant tensor:
#      x y z
#    x 1.768620 0.000000 0.000000 
#    y 0.000000 1.766570 0.000000 
#    z 0.000000 0.000000 1.772050 
# 
# From -- ./inp_files/24806.got.cif
#   From: 2010.03.12/outbox.cif.g09.slc.cpg/sg51_13_cif.got.tgz:24806.got - 2010.04.16 13:43:02.
