data_PCOD8212026
_publ_section_title
;
Structure prediction by ZEFSAII (Michael W. Deem and Ramdas Pophale) SiO2 
 PCOD8212026
Probable space group: P M M A
;
_chemical_formula_sum "Si O2"
_cell_formula_units_Z 64
_cell_length_a 13.889260
_cell_length_b 9.041726
_cell_length_c 27.232754
_cell_angle_alpha 90.000000
_cell_angle_beta 90.000000
_cell_angle_gamma 90.000000
_cell_volume 3419.967767
_symmetry_space_group_name_H-M "P M M A"
_symmetry_group_IT_number 51
_symmetry_cell_setting 'orthorhombic'
loop_
_space_group_symop_operation_xyz
x,y,z
1/2-x,-y,z
1/2+x,-y,-z
-x,y,-z
-x,-y,-z
1/2+x,y,-z
1/2-x,y,z
x,-y,z
loop_
_atom_site_type_symbol
_atom_site_label
_atom_site_fract_x
_atom_site_fract_y
_atom_site_fract_z
Si Si1 0.483002 0.327095 0.703278
Si Si2 0.641636 0.834482 0.371309
Si Si3 0.359572 0.673166 0.082874
Si Si4 0.640834 0.167258 0.016843
Si Si5 0.860192 0.673652 0.203569
Si Si6 0.139136 0.175949 0.357507
Si Si7 0.014968 0.166501 0.447349
Si Si8 0.463327 0.827464 0.883294
O O1 0.505041 0.500000 0.702192
O O2 0.401500 0.288289 0.664113
O O3 0.438074 0.277610 0.755360
O O4 0.582100 0.242361 0.689463
O O5 0.750000 0.790063 0.381766
O O6 0.589807 0.830272 0.423469
O O7 0.631297 0.000000 0.348276
O O8 0.250000 0.715367 0.097085
O O9 0.377502 0.500000 0.086853
O O10 0.430662 0.754565 0.121158
O O11 0.382429 0.723203 0.027496
O O12 0.750000 0.184588 0.035094
O O13 0.573212 0.207835 0.062096
O O14 0.620928 0.000000 0.998369
O O15 0.750000 0.716279 0.218563
O O16 0.867103 0.500000 0.193956
O O17 0.887849 0.757665 0.154174
O O18 0.250000 0.225641 0.354693
O O19 0.092531 0.236898 0.408812
O O20 0.126867 0.000000 0.355057
O O21 0.000000 0.249785 0.500000
O O22 0.051041 0.000000 0.458060
O O23 0.470723 0.000000 0.872237
#
# Coordination Sequence:
#
# PCOD8212026 Si02
#       8
#     8   8   8   8   8   8   8   8
#     4  10  20  35  55  77 101 131 170 212 255 306
#     4   9  17  29  47  72 100 130 166 208 252 299
#     4  10  21  36  54  76 103 139 181 219 255 298
#     4   9  18  33  52  76 107 139 171 209 254 306
#     4  10  22  39  57  78 105 135 166 205 256 312
#     4   9  18  33  53  77 105 137 175 219 263 306
#     4   8  14  25  43  71 105 136 168 209 256 303
#     4  11  22  35  54  80 108 138 172 211 259 313
#
# _framework density 18.713626000000001
#
# number of rings (size 3 to 8) (size 9 to 14) (size 15 to 20)
#    0.000    2.500    0.000    3.000    0.000    6.500 
#    0.000    4.375    0.000    6.750    0.000    7.000 
#    0.000    0.000    0.000    0.000    0.000    0.000 
#
# Total GULP energy -793314.111241 kJ/mol
# GULP energy per Si atom -12395.532988 kJ/mol
# Density = 1.867103 g / cm^3
# Si number density = 18.713626 Si / 1000 Ang^3
#
#
#
# Elastic Constant Matrix: (Units=GPa)
#
#
# Indices 1 2 3 4 5 6 
#
# 1 150.9935 38.5998 43.6151 0.0000 0.0000 0.0000
# 2 38.5998 45.2860 29.3486 0.0000 0.0000 0.0000
# 3 43.6151 29.3486 55.0799 0.0000 0.0000 0.0000
# 4 0.0000 0.0000 0.0000 -25.0148 0.0000 0.0000
# 5 0.0000 0.0000 0.0000 0.0000 21.4833 0.0000
# 6 0.0000 0.0000 0.0000 0.0000 0.0000 26.3170
#
#
#
# Elastic Compliance Matrix: (Units=1/GPa)
#
#
# Indices 1 2 3 4 5 6 
#
# 1 0.009217 -0.004775 -0.004754 0.000000 0.000000 0.000000
# 2 -0.004775 0.036203 -0.015509 0.000000 0.000000 0.000000
# 3 -0.004754 -0.015509 0.030184 0.000000 0.000000 0.000000
# 4 0.000000 0.000000 0.000000 -0.039976 0.000000 0.000000
# 5 0.000000 0.000000 0.000000 0.000000 0.046548 0.000000
# 6 0.000000 0.000000 0.000000 0.000000 0.000000 0.037998
#
#
# Mechanical properties :
#
#
# Convention : Reuss Voigt Hill
#
# Bulk Modulus (GPa) = 39.17400 52.72069 45.94735
# Shear Modulus (GPa) = 27.97072 13.87682 20.92377
#
# Velocity S-wave (km/s) = 3.87029 2.72607 3.34743
# Velocity P-wave (km/s) = 6.39930 6.17593 6.28861
#
# Compressibility (1/GPa) = 0.02552713
#
# Stress axis : x y z
#
# Youngs Moduli (GPa) = 108.49908 27.62206 33.13047
#
# Poissons Ratio (x) = 0.13190 0.15750
# Poissons Ratio (y) = 0.51808 0.51383
# Poissons Ratio (z) = 0.51580 0.42839
#
# Static dielectric constant tensor:
#      x y z
#    x 3.651540 0.000000 0.000000 
#    y 0.000000 3.265190 0.000000 
#    z 0.000000 0.000000 3.345490 
# 
# 
# High freq. dielectric constant tensor:
#      x y z
#    x 1.739040 0.000000 0.000000 
#    y 0.000000 1.707820 0.000000 
#    z 0.000000 0.000000 1.709760 
# 
# From -- ./inp_files/35799.got.cif
#   From: 2010.03.12/outbox.cif.g09.slc.cpg/sg51_18_cif.got.tgz:35799.got - 2010.04.16 13:43:02.
