data_PCOD8212010
_publ_section_title
;
Structure prediction by ZEFSAII (Michael W. Deem and Ramdas Pophale) SiO2 
 PCOD8212010
Probable space group: P M M A
;
_chemical_formula_sum "Si O2"
_cell_formula_units_Z 56
_cell_length_a 21.609403
_cell_length_b 15.129704
_cell_length_c 9.030520
_cell_angle_alpha 90.000000
_cell_angle_beta 90.000000
_cell_angle_gamma 90.000000
_cell_volume 2952.473166
_symmetry_space_group_name_H-M "P M M A"
_symmetry_group_IT_number 51
_symmetry_cell_setting 'orthorhombic'
loop_
_space_group_symop_operation_xyz
x,y,z
1/2-x,-y,z
1/2+x,-y,-z
-x,y,-z
-x,-y,-z
1/2+x,y,-z
1/2-x,y,z
x,-y,z
loop_
_atom_site_type_symbol
_atom_site_label
_atom_site_fract_x
_atom_site_fract_y
_atom_site_fract_z
Si Si1 0.068094 0.599327 0.060356
Si Si2 0.679327 0.257616 0.428506
Si Si3 0.492073 0.902554 0.327186
Si Si4 0.127920 0.098574 0.750851
Si Si5 0.681280 0.352723 0.136686
Si Si6 0.393600 0.754476 0.275857
Si Si7 0.682882 0.831341 0.973148
O O1 0.063897 0.500000 0.125056
O O2 0.086120 0.665660 0.191536
O O3 0.122515 0.596976 0.934899
O O4 0.000000 0.627153 0.000000
O O5 0.750000 0.259614 0.484377
O O6 0.667520 0.162759 0.353228
O O7 0.667567 0.336987 0.311218
O O8 0.633986 0.273922 0.566442
O O9 0.500000 0.909649 0.500000
O O10 0.556368 0.876191 0.252750
O O11 0.450064 0.820422 0.289025
O O12 0.468903 0.000000 0.269828
O O13 0.144404 0.101666 0.925079
O O14 0.139435 0.000000 0.689397
O O15 0.750000 0.399517 0.117343
O O16 0.686822 0.258595 0.062662
O O17 0.344236 0.812596 0.187467
O O18 0.750000 0.873433 0.948124
#
# Coordination Sequence:
#
# PCOD8212010 Si02
#       7
#     8   8   8   8   8   8   8
#     4  10  23  40  60  89 120 149 192 242 291 354
#     4  10  20  35  57  86 113 147 194 238 284 345
#     4  10  21  36  54  82 116 150 198 241 278 342
#     4  10  20  35  54  78 111 154 200 242 282 334
#     4   8  17  36  59  80 109 150 194 229 273 344
#     4  11  22  35  61  83 119 154 184 232 308 340
#     4   9  19  34  52  78 109 146 190 233 280 341
#
# _framework density 18.967148999999999
#
# number of rings (size 3 to 8) (size 9 to 14) (size 15 to 20)
#    0.000    2.286    1.429    1.714    6.000    2.571 
#    0.000    2.143    0.000    5.571    0.000    0.000 
#    0.000    0.000    0.000    0.000    0.000    0.000 
#
# Total GULP energy -693906.668488 kJ/mol
# GULP energy per Si atom -12391.190509 kJ/mol
# Density = 1.892398 g / cm^3
# Si number density = 18.967149 Si / 1000 Ang^3
#
#
#
# Elastic Constant Matrix: (Units=GPa)
#
#
# Indices 1 2 3 4 5 6 
#
# 1 126.5711 38.6662 41.8869 0.0000 0.0000 0.0000
# 2 38.6662 75.3234 22.2846 0.0000 0.0000 0.0000
# 3 41.8869 22.2846 84.4886 0.0000 0.0000 0.0000
# 4 0.0000 0.0000 0.0000 19.2722 0.0000 0.0000
# 5 0.0000 0.0000 0.0000 0.0000 24.1028 0.0000
# 6 0.0000 0.0000 0.0000 0.0000 0.0000 12.9602
#
#
#
# Elastic Compliance Matrix: (Units=1/GPa)
#
#
# Indices 1 2 3 4 5 6 
#
# 1 0.010546 -0.004194 -0.004122 0.000000 0.000000 0.000000
# 2 -0.004194 0.016068 -0.002159 0.000000 0.000000 0.000000
# 3 -0.004122 -0.002159 0.014449 0.000000 0.000000 0.000000
# 4 0.000000 0.000000 0.000000 0.051888 0.000000 0.000000
# 5 0.000000 0.000000 0.000000 0.000000 0.041489 0.000000
# 6 0.000000 0.000000 0.000000 0.000000 0.000000 0.077159
#
#
# Mechanical properties :
#
#
# Convention : Reuss Voigt Hill
#
# Bulk Modulus (GPa) = 49.71967 54.67317 52.19642
# Shear Modulus (GPa) = 20.89832 23.50341 22.20087
#
# Velocity S-wave (km/s) = 3.32296 3.52400 3.42495
# Velocity P-wave (km/s) = 6.40260 6.74135 6.57416
#
# Compressibility (1/GPa) = 0.02011276
#
# Stress axis : x y z
#
# Youngs Moduli (GPa) = 94.82130 62.23653 69.20909
#
# Poissons Ratio (x) = 0.26103 0.28530
# Poissons Ratio (y) = 0.39769 0.14940
# Poissons Ratio (z) = 0.39087 0.13435
#
# Static dielectric constant tensor:
#      x y z
#    x 3.923660 0.000000 0.000000 
#    y 0.000000 3.352160 0.000000 
#    z 0.000000 0.000000 3.520260 
# 
# 
# High freq. dielectric constant tensor:
#      x y z
#    x 1.751660 0.000000 0.000000 
#    y 0.000000 1.720400 0.000000 
#    z 0.000000 0.000000 1.727970 
# 
# From -- ./inp_files/11154.got.cif
#   From: 2010.03.12/outbox.cif.g09.slc.cpg/sg51_6_cif.got.tgz:11154.got - 2010.04.16 13:43:02.
