data_PCOD8212245
_publ_section_title
;
Structure prediction by ZEFSAII (Michael W. Deem and Ramdas Pophale) SiO2 
 PCOD8212245
Probable space group: P M M A
;
_chemical_formula_sum "Si O2"
_cell_formula_units_Z 48
_cell_length_a 9.282080
_cell_length_b 9.212818
_cell_length_c 28.580044
_cell_angle_alpha 90.000000
_cell_angle_beta 90.000000
_cell_angle_gamma 90.000000
_cell_volume 2443.997132
_symmetry_space_group_name_H-M "P M M A"
_symmetry_group_IT_number 51
_symmetry_cell_setting 'orthorhombic'
loop_
_space_group_symop_operation_xyz
x,y,z
1/2-x,-y,z
1/2+x,-y,-z
-x,y,-z
-x,-y,-z
1/2+x,y,-z
1/2-x,y,z
x,-y,z
loop_
_atom_site_type_symbol
_atom_site_label
_atom_site_fract_x
_atom_site_fract_y
_atom_site_fract_z
Si Si1 0.911325 0.665760 0.706985
Si Si2 0.413436 0.672480 0.955378
Si Si3 0.581917 0.670575 0.863227
Si Si4 0.250000 0.830170 0.568313
Si Si5 0.250000 0.335591 0.472221
Si Si6 0.509960 0.664746 0.602802
Si Si7 0.083052 0.828662 0.780925
O O1 0.750000 0.698494 0.725682
O O2 0.953754 0.500000 0.718822
O O3 0.909329 0.692049 0.651480
O O4 0.026632 0.771371 0.731045
O O5 0.250000 0.734467 0.954719
O O6 0.408529 0.500000 0.958059
O O7 0.498583 0.723702 0.909450
O O8 0.500000 0.734932 0.000000
O O9 0.750000 0.709590 0.868511
O O10 0.560397 0.500000 0.854750
O O11 0.513851 0.755157 0.820255
O O12 0.250000 0.767808 0.516330
O O13 0.383910 0.779604 0.598891
O O14 0.250000 0.000000 0.563490
O O15 0.250000 0.500000 0.490906
O O16 0.388009 0.304465 0.440869
O O17 0.450950 0.500000 0.600567
O O18 0.250000 0.785070 0.787292
O O19 0.062245 0.000000 0.783186
#
# Coordination Sequence:
#
# PCOD8212245 Si02
#       7
#     8   8   8   4   4   8   8
#     4  10  21  40  65  90 112 139 185 239 287 339
#     4   9  16  27  47  78 116 154 193 242 297 346
#     4  10  20  35  57  85 115 150 196 244 289 342
#     4  12  26  38  54  86 126 158 190 230 277 336
#     4  10  20  40  66  88 112 148 194 240 283 336
#     4  10  21  40  64  88 113 147 191 237 285 336
#     4  11  25  41  57  82 117 153 189 230 283 346
#
# _framework density 19.639956999999999
#
# number of rings (size 3 to 8) (size 9 to 14) (size 15 to 20)
#    0.000    1.833    0.833    3.250    1.167   10.000 
#    0.000    0.000    0.000    0.500    0.000    0.000 
#    0.000    0.000    0.000    0.000    0.000    0.000 
#
# Total GULP energy -595286.078772 kJ/mol
# GULP energy per Si atom -12401.793308 kJ/mol
# Density = 1.959526 g / cm^3
# Si number density = 19.639957 Si / 1000 Ang^3
#
#
#
# Elastic Constant Matrix: (Units=GPa)
#
#
# Indices 1 2 3 4 5 6 
#
# 1 147.5352 55.6857 47.5446 0.0000 0.0000 0.0000
# 2 55.6857 74.7418 34.5108 0.0000 0.0000 0.0000
# 3 47.5446 34.5108 98.5279 0.0000 0.0000 0.0000
# 4 0.0000 0.0000 0.0000 -1.1601 0.0000 0.0000
# 5 0.0000 0.0000 0.0000 0.0000 -202.6775 0.0000
# 6 0.0000 0.0000 0.0000 0.0000 0.0000 -21.5553
#
#
#
# Elastic Compliance Matrix: (Units=1/GPa)
#
#
# Indices 1 2 3 4 5 6 
#
# 1 0.009972 -0.006213 -0.002636 0.000000 0.000000 0.000000
# 2 -0.006213 0.019831 -0.003948 0.000000 0.000000 0.000000
# 3 -0.002636 -0.003948 0.012804 0.000000 0.000000 0.000000
# 4 0.000000 0.000000 0.000000 -0.861968 0.000000 0.000000
# 5 0.000000 0.000000 0.000000 0.000000 -0.004934 0.000000
# 6 0.000000 0.000000 0.000000 0.000000 0.000000 -0.046392
#
#
# Mechanical properties :
#
#
# Convention : Reuss Voigt Hill
#
# Bulk Modulus (GPa) = 58.77541 66.25414 62.51478
# Shear Modulus (GPa) = -5.95648 -32.87432 -19.41540
#
# Velocity S-wave (km/s) = -1.74339 -4.09571 -3.14756
# Velocity P-wave (km/s) = 5.09302 3.38248 4.32319
#
# Compressibility (1/GPa) = 0.01701392
#
# Stress axis : x y z
#
# Youngs Moduli (GPa) = 100.27585 50.42575 78.09825
#
# Poissons Ratio (x) = 0.31328 0.20588
# Poissons Ratio (y) = 0.62299 0.30835
# Poissons Ratio (z) = 0.26434 0.19909
#
# Static dielectric constant tensor:
#      x y z
#    x 3.945190 0.000000 0.000000 
#    y 0.000000 3.305000 0.000000 
#    z 0.000000 0.000000 3.659510 
# 
# 
# High freq. dielectric constant tensor:
#      x y z
#    x 1.781060 0.000000 0.000000 
#    y 0.000000 1.731060 0.000000 
#    z 0.000000 0.000000 1.778890 
# 
# From -- ./inp_files/37070.got.cif
#   From: 2010.03.12/outbox.cif.g09.slc.cpg/sg51_19_cif.got.tgz:37070.got - 2010.04.16 13:43:02.
