data_PCOD8212112
_publ_section_title
;
Structure prediction by ZEFSAII (Michael W. Deem and Ramdas Pophale) SiO2 
 PCOD8212112
Probable space group: P M M A
;
_chemical_formula_sum "Si O2"
_cell_formula_units_Z 56
_cell_length_a 8.828068
_cell_length_b 23.724813
_cell_length_c 14.499507
_cell_angle_alpha 90.000000
_cell_angle_beta 90.000000
_cell_angle_gamma 90.000000
_cell_volume 3036.838550
_symmetry_space_group_name_H-M "P M M A"
_symmetry_group_IT_number 51
_symmetry_cell_setting 'orthorhombic'
loop_
_space_group_symop_operation_xyz
x,y,z
1/2-x,-y,z
1/2+x,-y,-z
-x,y,-z
-x,-y,-z
1/2+x,y,-z
1/2-x,y,z
x,-y,z
loop_
_atom_site_type_symbol
_atom_site_label
_atom_site_fract_x
_atom_site_fract_y
_atom_site_fract_z
Si Si1 0.569659 0.151716 0.398612
Si Si2 0.072678 0.639854 0.241356
Si Si3 0.069625 0.848115 0.898600
Si Si4 0.070961 0.229664 0.250085
Si Si5 0.925615 0.561964 0.098219
Si Si6 0.071377 0.062346 0.750104
Si Si7 0.928579 0.436467 0.594264
O O1 0.500000 0.148452 0.500000
O O2 0.750000 0.158184 0.404950
O O3 0.502379 0.204513 0.342869
O O4 0.521289 0.095525 0.342246
O O5 0.250000 0.630619 0.229896
O O6 0.030290 0.704828 0.251214
O O7 0.009647 0.606116 0.329193
O O8 0.993053 0.613808 0.153488
O O9 0.250000 0.841642 0.904879
O O10 0.021130 0.904293 0.842253
O O11 0.002262 0.795281 0.842949
O O12 0.000000 0.851356 0.000000
O O13 0.250000 0.218165 0.250036
O O14 0.750000 0.572904 0.086079
O O15 0.956918 0.500000 0.143830
O O16 0.000000 0.563427 0.000000
O O17 0.250000 0.056758 0.750217
O O18 0.996296 0.000000 0.750228
O O19 0.750000 0.433473 0.584909
O O20 0.982422 0.500000 0.617830
O O21 0.000000 0.414964 0.500000
#
# Coordination Sequence:
#
# PCOD8212112 Si02
#       7
#     8   8   8   8   8   8   8
#     4  10  20  35  56  79 107 144 180 217 264 313
#     4  10  21  36  55  78 103 135 173 217 267 313
#     4  10  20  35  56  79 106 142 178 214 262 314
#     4  10  21  37  55  77 105 136 178 226 268 314
#     4  10  21  36  55  79 106 137 172 212 260 315
#     4   8  16  32  53  79 110 140 174 217 261 309
#     4   9  18  33  52  74 101 131 163 202 250 304
#
# _framework density 18.440228999999999
#
# number of rings (size 3 to 8) (size 9 to 14) (size 15 to 20)
#    0.000    2.429    0.000    3.000    0.000    4.857 
#    0.000    2.857    0.000   14.571    0.000    0.000 
#    0.000    0.000    0.000    0.000    0.000    0.000 
#
# Total GULP energy -694299.909655 kJ/mol
# GULP energy per Si atom -12398.212672 kJ/mol
# Density = 1.839826 g / cm^3
# Si number density = 18.440229 Si / 1000 Ang^3
#
#
#
# Elastic Constant Matrix: (Units=GPa)
#
#
# Indices 1 2 3 4 5 6 
#
# 1 54.7197 58.8367 44.6883 0.0000 0.0000 0.0000
# 2 58.8367 152.7361 84.0058 0.0000 0.0000 0.0000
# 3 44.6883 84.0058 150.3160 0.0000 0.0000 0.0000
# 4 0.0000 0.0000 0.0000 64.1495 0.0000 0.0000
# 5 0.0000 0.0000 0.0000 0.0000 35.6082 0.0000
# 6 0.0000 0.0000 0.0000 0.0000 0.0000 25.7544
#
#
#
# Elastic Compliance Matrix: (Units=1/GPa)
#
#
# Indices 1 2 3 4 5 6 
#
# 1 0.032685 -0.010462 -0.003870 0.000000 0.000000 0.000000
# 2 -0.010462 0.012802 -0.004044 0.000000 0.000000 0.000000
# 3 -0.003870 -0.004044 0.010063 0.000000 0.000000 0.000000
# 4 0.000000 0.000000 0.000000 0.015589 0.000000 0.000000
# 5 0.000000 0.000000 0.000000 0.000000 0.028083 0.000000
# 6 0.000000 0.000000 0.000000 0.000000 0.000000 0.038828
#
#
# Mechanical properties :
#
#
# Convention : Reuss Voigt Hill
#
# Bulk Modulus (GPa) = 53.19946 81.42593 67.31270
# Shear Modulus (GPa) = 27.61379 36.45183 32.03281
#
# Velocity S-wave (km/s) = 3.87392 4.45090 4.17239
# Velocity P-wave (km/s) = 6.99443 8.40634 7.73267
#
# Compressibility (1/GPa) = 0.01879718
#
# Stress axis : x y z
#
# Youngs Moduli (GPa) = 30.59503 78.11453 99.37129
#
# Poissons Ratio (x) = 0.81725 0.38458
# Poissons Ratio (y) = 0.32009 0.40186
# Poissons Ratio (z) = 0.11841 0.31590
#
# Static dielectric constant tensor:
#      x y z
#    x 3.327690 0.000000 0.000000 
#    y 0.000000 3.674020 0.000000 
#    z 0.000000 0.000000 3.438670 
# 
# 
# High freq. dielectric constant tensor:
#      x y z
#    x 1.711420 0.000000 0.000000 
#    y 0.000000 1.718540 0.000000 
#    z 0.000000 0.000000 1.720380 
# 
# From -- ./inp_files/21730.got.cif
#   From: 2010.03.12/outbox.cif.g09.slc.cpg/sg51_11_cif.got.tgz:21730.got - 2010.04.16 13:43:02.
