data_PCOD8212717
_publ_section_title
;
Structure prediction by ZEFSAII (Michael W. Deem and Ramdas Pophale) SiO2 
 PCOD8212717
Probable space group: P M M A
;
_chemical_formula_sum "Si O2"
_cell_formula_units_Z 48
_cell_length_a 19.077778
_cell_length_b 9.181916
_cell_length_c 14.756972
_cell_angle_alpha 90.000000
_cell_angle_beta 90.000000
_cell_angle_gamma 90.000000
_cell_volume 2584.986976
_symmetry_space_group_name_H-M "P M M A"
_symmetry_group_IT_number 51
_symmetry_cell_setting 'orthorhombic'
loop_
_space_group_symop_operation_xyz
x,y,z
1/2-x,-y,z
1/2+x,-y,-z
-x,y,-z
-x,-y,-z
1/2+x,y,-z
1/2-x,y,z
x,-y,z
loop_
_atom_site_type_symbol
_atom_site_label
_atom_site_fract_x
_atom_site_fract_y
_atom_site_fract_z
Si Si1 0.071137 0.668433 0.953142
Si Si2 0.589741 0.828140 0.724980
Si Si3 0.170086 0.668338 0.426611
Si Si4 0.830961 0.333282 0.881577
Si Si5 0.932445 0.828169 0.231775
Si Si6 0.830869 0.333431 0.363451
O O1 0.063177 0.500000 0.925549
O O2 0.087563 0.759843 0.864216
O O3 0.135139 0.695283 0.020936
O O4 0.000000 0.725071 0.000000
O O5 0.616676 0.765140 0.630253
O O6 0.635728 0.770170 0.807268
O O7 0.509847 0.778022 0.738648
O O8 0.596987 0.000000 0.721918
O O9 0.250000 0.710200 0.401692
O O10 0.157039 0.500000 0.403367
O O11 0.155234 0.699664 0.531458
O O12 0.750000 0.294226 0.890870
O O13 0.842872 0.500000 0.850976
O O14 0.877902 0.775348 0.306411
O O15 0.927021 0.000000 0.222818
O O16 0.750000 0.304871 0.339257
O O17 0.850814 0.500000 0.340758
#
# Coordination Sequence:
#
# PCOD8212717 Si02
#       6
#     8   8   8   8   8   8
#     4  10  20  37  60  82 107 146 192 234 282 336
#     4  11  23  36  53  82 119 154 186 225 277 339
#     4   9  19  37  60  84 111 146 189 237 285 331
#     4  10  21  37  58  84 111 142 187 240 285 331
#     4  11  24  38  56  84 118 153 187 229 282 340
#     4   9  20  40  63  85 110 144 190 240 284 332
#
# _framework density 18.568760999999999
#
# number of rings (size 3 to 8) (size 9 to 14) (size 15 to 20)
#    0.000    2.000    1.667    2.500    0.000    8.000 
#    0.000    6.667    0.000    0.000    0.000    0.000 
#    0.000    0.000    0.000    0.000    0.000    0.000 
#
# Total GULP energy -595418.045558 kJ/mol
# GULP energy per Si atom -12404.542616 kJ/mol
# Density = 1.852650 g / cm^3
# Si number density = 18.568761 Si / 1000 Ang^3
#
#
#
# Elastic Constant Matrix: (Units=GPa)
#
#
# Indices 1 2 3 4 5 6 
#
# 1 114.7791 45.9815 63.2287 0.0000 0.0000 0.0000
# 2 45.9815 61.1215 50.4742 0.0000 0.0000 0.0000
# 3 63.2287 50.4742 108.5670 0.0000 0.0000 0.0000
# 4 0.0000 0.0000 0.0000 -34.0900 0.0000 0.0000
# 5 0.0000 0.0000 0.0000 0.0000 36.0805 0.0000
# 6 0.0000 0.0000 0.0000 0.0000 0.0000 30.9523
#
#
#
# Elastic Compliance Matrix: (Units=1/GPa)
#
#
# Indices 1 2 3 4 5 6 
#
# 1 0.014154 -0.006234 -0.005345 0.000000 0.000000 0.000000
# 2 -0.006234 0.029303 -0.009992 0.000000 0.000000 0.000000
# 3 -0.005345 -0.009992 0.016969 0.000000 0.000000 0.000000
# 4 0.000000 0.000000 0.000000 -0.029334 0.000000 0.000000
# 5 0.000000 0.000000 0.000000 0.000000 0.027716 0.000000
# 6 0.000000 0.000000 0.000000 0.000000 0.000000 0.032308
#
#
# Mechanical properties :
#
#
# Convention : Reuss Voigt Hill
#
# Bulk Modulus (GPa) = 57.86035 67.09295 62.47665
# Shear Modulus (GPa) = 35.70921 14.90744 25.30832
#
# Velocity S-wave (km/s) = 4.39005 2.83649 3.69582
# Velocity P-wave (km/s) = 7.54483 6.85114 7.20634
#
# Compressibility (1/GPa) = 0.01728299
#
# Stress axis : x y z
#
# Youngs Moduli (GPa) = 70.64982 34.12667 58.92997
#
# Poissons Ratio (x) = 0.21276 0.31498
# Poissons Ratio (y) = 0.44046 0.58884
# Poissons Ratio (z) = 0.37762 0.34100
#
# Static dielectric constant tensor:
#      x y z
#    x 3.512080 0.000000 0.000000 
#    y 0.000000 3.332290 0.000000 
#    z 0.000000 0.000000 3.393130 
# 
# 
# High freq. dielectric constant tensor:
#      x y z
#    x 1.727020 0.000000 0.000000 
#    y 0.000000 1.716050 0.000000 
#    z 0.000000 0.000000 1.728920 
# 
# From -- ./inp_files/24696.got.cif
#   From: 2010.03.12/outbox.cif.g09.slc.cpg/sg51_13_cif.got.tgz:24696.got - 2010.04.16 13:43:02.
