data_PCOD8212269
_publ_section_title
;
Structure prediction by ZEFSAII (Michael W. Deem and Ramdas Pophale) SiO2 
 PCOD8212269
Probable space group: P M M A
;
_chemical_formula_sum "Si O2"
_cell_formula_units_Z 32
_cell_length_a 24.143666
_cell_length_b 9.192584
_cell_length_c 7.272291
_cell_angle_alpha 90.000000
_cell_angle_beta 90.000000
_cell_angle_gamma 90.000000
_cell_volume 1614.031738
_symmetry_space_group_name_H-M "P M M A"
_symmetry_group_IT_number 51
_symmetry_cell_setting 'orthorhombic'
loop_
_space_group_symop_operation_xyz
x,y,z
1/2-x,-y,z
1/2+x,-y,-z
-x,y,-z
-x,-y,-z
1/2+x,y,-z
1/2-x,y,z
x,-y,z
loop_
_atom_site_type_symbol
_atom_site_label
_atom_site_fract_x
_atom_site_fract_y
_atom_site_fract_z
Si Si1 0.686261 0.834203 0.520816
Si Si2 0.989209 0.340246 0.784690
Si Si3 0.887176 0.833687 0.860758
Si Si4 0.110731 0.328412 0.761321
O O1 0.750000 0.787706 0.515201
O O2 0.665933 0.818122 0.730218
O O3 0.653076 0.727104 0.389584
O O4 0.677906 0.000000 0.452916
O O5 0.971581 0.500000 0.709550
O O6 0.940389 0.226095 0.746936
O O7 0.047751 0.290522 0.694400
O O8 0.000000 0.350908 0.000000
O O9 0.899115 0.000000 0.914386
O O10 0.874934 0.744304 0.044131
O O11 0.117376 0.500000 0.787891
#
# Coordination Sequence:
#
# PCOD8212269 Si02
#       4
#     8   8   8   8
#     4  10  23  41  57  77 108 146 188 230 272 322
#     4   8  16  32  53  80 114 146 176 217 272 330
#     4  10  20  35  58  85 112 145 184 226 274 328
#     4  10  21  37  58  84 113 145 181 224 276 329
#
# _framework density 19.826128000000001
#
# number of rings (size 3 to 8) (size 9 to 14) (size 15 to 20)
#    0.000    2.500    0.000    3.000    0.000   10.000 
#    0.000    7.500    0.000    0.000    0.000    0.000 
#    0.000    0.000    0.000    0.000    0.000    0.000 
#
# Total GULP energy -396762.205749 kJ/mol
# GULP energy per Si atom -12398.818930 kJ/mol
# Density = 1.978100 g / cm^3
# Si number density = 19.826128 Si / 1000 Ang^3
#
#
#
# Elastic Constant Matrix: (Units=GPa)
#
#
# Indices 1 2 3 4 5 6 
#
# 1 86.9867 39.3722 5.9866 0.0000 0.0000 0.0000
# 2 39.3722 105.2196 29.9695 0.0000 0.0000 0.0000
# 3 5.9866 29.9695 35.2244 0.0000 0.0000 0.0000
# 4 0.0000 0.0000 0.0000 12.7522 0.0000 0.0000
# 5 0.0000 0.0000 0.0000 0.0000 31.9675 0.0000
# 6 0.0000 0.0000 0.0000 0.0000 0.0000 28.7226
#
#
#
# Elastic Compliance Matrix: (Units=1/GPa)
#
#
# Indices 1 2 3 4 5 6 
#
# 1 0.014039 -0.006037 0.002750 0.000000 0.000000 0.000000
# 2 -0.006037 0.015139 -0.011855 0.000000 0.000000 0.000000
# 3 0.002750 -0.011855 0.038008 0.000000 0.000000 0.000000
# 4 0.000000 0.000000 0.000000 0.078418 0.000000 0.000000
# 5 0.000000 0.000000 0.000000 0.000000 0.031282 0.000000
# 6 0.000000 0.000000 0.000000 0.000000 0.000000 0.034816
#
#
# Mechanical properties :
#
#
# Convention : Reuss Voigt Hill
#
# Bulk Modulus (GPa) = 27.09745 42.00971 34.55358
# Shear Modulus (GPa) = 19.66288 24.82860 22.24574
#
# Velocity S-wave (km/s) = 3.15265 3.54265 3.35332
# Velocity P-wave (km/s) = 5.19129 6.16189 5.69730
#
# Compressibility (1/GPa) = 0.03690384
#
# Stress axis : x y z
#
# Youngs Moduli (GPa) = 71.22999 66.05300 26.31000
#
# Poissons Ratio (x) = 0.39873 -0.07235
# Poissons Ratio (y) = 0.42998 0.31190
# Poissons Ratio (z) = -0.19588 0.78305
#
# Static dielectric constant tensor:
#      x y z
#    x 3.857570 0.000000 0.000000 
#    y 0.000000 3.714770 0.000000 
#    z 0.000000 0.000000 3.381190 
# 
# 
# High freq. dielectric constant tensor:
#      x y z
#    x 1.770990 0.000000 0.000000 
#    y 0.000000 1.776480 0.000000 
#    z 0.000000 0.000000 1.765590 
# 
# From -- ./inp_files/10276.got.cif
#   From: 2010.03.12/outbox.cif.g09.slc.cpg/sg51_6_cif.got.tgz:10276.got - 2010.04.16 13:43:02.
