data_PCOD8212322
_publ_section_title
;
Structure prediction by ZEFSAII (Michael W. Deem and Ramdas Pophale) SiO2 
 PCOD8212322
Probable space group: P M M A
;
_chemical_formula_sum "Si O2"
_cell_formula_units_Z 64
_cell_length_a 8.758265
_cell_length_b 23.610789
_cell_length_c 15.611052
_cell_angle_alpha 90.000000
_cell_angle_beta 90.000000
_cell_angle_gamma 90.000000
_cell_volume 3228.202370
_symmetry_space_group_name_H-M "P M M A"
_symmetry_group_IT_number 51
_symmetry_cell_setting 'orthorhombic'
loop_
_space_group_symop_operation_xyz
x,y,z
1/2-x,-y,z
1/2+x,-y,-z
-x,y,-z
-x,-y,-z
1/2+x,y,-z
1/2-x,y,z
x,-y,z
loop_
_atom_site_type_symbol
_atom_site_label
_atom_site_fract_x
_atom_site_fract_y
_atom_site_fract_z
Si Si1 0.570425 0.673147 0.087299
Si Si2 0.068646 0.133803 0.249592
Si Si3 0.931031 0.737015 0.751485
Si Si4 0.076577 0.437223 0.673518
Si Si5 0.927488 0.676860 0.410744
Si Si6 0.427166 0.564215 0.148446
Si Si7 0.069576 0.935371 0.088083
Si Si8 0.430449 0.064672 0.411437
O O1 0.750000 0.681274 0.085934
O O2 0.502120 0.705436 0.167973
O O3 0.528030 0.606621 0.091959
O O4 0.500000 0.698742 0.000000
O O5 0.250000 0.129627 0.250184
O O6 0.012762 0.198269 0.247194
O O7 0.003828 0.101996 0.165880
O O8 0.004108 0.103133 0.334525
O O9 0.750000 0.731861 0.756696
O O10 0.988658 0.709922 0.664199
O O11 0.250000 0.431317 0.708607
O O12 0.049430 0.500000 0.634263
O O13 0.045892 0.390608 0.600761
O O14 0.962387 0.426179 0.751614
O O15 0.750000 0.692794 0.409976
O O16 0.000000 0.696113 0.500000
O O17 0.250000 0.577840 0.133226
O O18 0.468337 0.500000 0.121376
O O19 0.250000 0.930442 0.082106
O O20 0.017633 0.000000 0.103627
O O21 0.000000 0.911559 0.000000
O O22 0.500000 0.087646 0.500000
O O23 0.250000 0.069508 0.417721
O O24 0.481654 0.000000 0.394486
#
# Coordination Sequence:
#
# PCOD8212322 Si02
#       8
#     8   8   8   8   8   8   8   8
#     4  12  25  42  63  86 114 152 195 240 291 348
#     4   9  19  35  57  82 109 148 191 230 279 337
#     4  11  23  41  61  83 115 151 195 248 293 342
#     4   9  18  34  57  84 115 150 186 230 285 345
#     4  11  23  39  60  85 114 152 195 240 290 348
#     4  10  20  35  59  90 120 150 185 229 286 348
#     4   9  17  32  55  83 115 148 183 224 273 332
#     4   9  17  32  55  83 115 149 186 229 278 334
#
# _framework density 19.825274
#
# number of rings (size 3 to 8) (size 9 to 14) (size 15 to 20)
#    0.000    2.000    1.250    2.625    0.000    4.250 
#    0.000    5.625    0.000    3.000    0.000    0.000 
#    0.000    0.000    0.000    0.000    0.000    0.000 
#
# Total GULP energy -793707.736794 kJ/mol
# GULP energy per Si atom -12401.683387 kJ/mol
# Density = 1.978015 g / cm^3
# Si number density = 19.825274 Si / 1000 Ang^3
#
#
#
# Elastic Constant Matrix: (Units=GPa)
#
#
# Indices 1 2 3 4 5 6 
#
# 1 76.3381 39.4713 45.8980 0.0000 0.0000 0.0000
# 2 39.4713 120.0115 80.0743 0.0000 0.0000 0.0000
# 3 45.8980 80.0743 171.3456 0.0000 0.0000 0.0000
# 4 0.0000 0.0000 0.0000 7.1511 0.0000 0.0000
# 5 0.0000 0.0000 0.0000 0.0000 34.8994 0.0000
# 6 0.0000 0.0000 0.0000 0.0000 0.0000 19.0689
#
#
#
# Elastic Compliance Matrix: (Units=1/GPa)
#
#
# Indices 1 2 3 4 5 6 
#
# 1 0.016636 -0.003630 -0.002760 0.000000 0.000000 0.000000
# 2 -0.003630 0.012900 -0.005056 0.000000 0.000000 0.000000
# 3 -0.002760 -0.005056 0.008938 0.000000 0.000000 0.000000
# 4 0.000000 0.000000 0.000000 0.139838 0.000000 0.000000
# 5 0.000000 0.000000 0.000000 0.000000 0.028654 0.000000
# 6 0.000000 0.000000 0.000000 0.000000 0.000000 0.052441
#
#
# Mechanical properties :
#
#
# Convention : Reuss Voigt Hill
#
# Bulk Modulus (GPa) = 64.17586 77.62027 70.89807
# Shear Modulus (GPa) = 17.39168 25.70733 21.54951
#
# Velocity S-wave (km/s) = 2.96505 3.60487 3.30050
# Velocity P-wave (km/s) = 6.64553 7.52090 7.09673
#
# Compressibility (1/GPa) = 0.01558218
#
# Stress axis : x y z
#
# Youngs Moduli (GPa) = 60.11092 77.51928 111.87836
#
# Poissons Ratio (x) = 0.28140 0.30876
# Poissons Ratio (y) = 0.21821 0.56567
# Poissons Ratio (z) = 0.16589 0.39195
#
# Static dielectric constant tensor:
#      x y z
#    x 3.417540 0.000000 0.000000 
#    y 0.000000 3.794870 0.000000 
#    z 0.000000 0.000000 3.660870 
# 
# 
# High freq. dielectric constant tensor:
#      x y z
#    x 1.761410 0.000000 0.000000 
#    y 0.000000 1.772480 0.000000 
#    z 0.000000 0.000000 1.776010 
# 
# From -- ./inp_files/22328.got.cif
#   From: 2010.03.12/outbox.cif.g09.slc.cpg/sg51_12_cif.got.tgz:22328.got - 2010.04.16 13:43:02.
