data_PCOD8212200
_publ_section_title
;
Structure prediction by ZEFSAII (Michael W. Deem and Ramdas Pophale) SiO2 
 PCOD8212200
Probable space group: P M M A
;
_chemical_formula_sum "Si O2"
_cell_formula_units_Z 64
_cell_length_a 30.738811
_cell_length_b 9.210962
_cell_length_c 11.988666
_cell_angle_alpha 90.000000
_cell_angle_beta 90.000000
_cell_angle_gamma 90.000000
_cell_volume 3394.399200
_symmetry_space_group_name_H-M "P M M A"
_symmetry_group_IT_number 51
_symmetry_cell_setting 'orthorhombic'
loop_
_space_group_symop_operation_xyz
x,y,z
1/2-x,-y,z
1/2+x,-y,-z
-x,y,-z
-x,-y,-z
1/2+x,y,-z
1/2-x,y,z
x,-y,z
loop_
_atom_site_type_symbol
_atom_site_label
_atom_site_fract_x
_atom_site_fract_y
_atom_site_fract_z
Si Si1 0.202100 0.834654 0.964066
Si Si2 0.874993 0.172373 0.883132
Si Si3 0.798978 0.167125 0.475499
Si Si4 0.949783 0.670497 0.490056
Si Si5 0.121583 0.172066 0.368845
Si Si6 0.180896 0.332461 0.748603
Si Si7 0.420640 0.666103 0.753028
Si Si8 0.952809 0.828389 0.037526
O O1 0.250000 0.828622 0.019584
O O2 0.167625 0.769100 0.051964
O O3 0.189167 0.000000 0.933315
O O4 0.204536 0.743052 0.851319
O O5 0.874506 0.232268 0.757271
O O6 0.917609 0.229924 0.948181
O O7 0.874330 0.000000 0.879422
O O8 0.750000 0.187242 0.524184
O O9 0.834346 0.218726 0.566759
O O10 0.803560 0.262314 0.365712
O O11 0.807423 0.000000 0.443221
O O12 0.942660 0.500000 0.509930
O O13 0.921258 0.755825 0.579838
O O14 0.934089 0.719958 0.368778
O O15 0.000000 0.715042 0.500000
O O16 0.115117 0.000000 0.371656
O O17 0.194327 0.500000 0.744983
O O18 0.130147 0.310455 0.767007
O O19 0.434527 0.500000 0.771658
O O20 0.445348 0.764150 0.841068
O O21 0.949913 0.000000 0.047871
O O22 0.000000 0.775203 0.000000
#
# Coordination Sequence:
#
# PCOD8212200 Si02
#       8
#     8   8   8   8   8   8   8   8
#     4  10  20  35  57  82 109 145 184 222 272 331
#     4   9  19  36  54  78 111 141 176 223 270 318
#     4  10  21  36  55  81 111 144 182 224 275 331
#     4  10  22  40  59  81 112 147 183 226 276 330
#     4  10  21  37  58  82 110 143 184 232 273 322
#     4  11  21  35  56  82 113 145 181 227 275 323
#     4  10  21  37  57  82 111 144 182 224 271 325
#     4  10  21  36  57  83 111 144 180 223 274 324
#
# _framework density 18.854589000000001
#
# number of rings (size 3 to 8) (size 9 to 14) (size 15 to 20)
#    0.000    2.000    2.500    0.750    1.750    4.000 
#    0.000    3.750    0.000    0.000    0.000    1.750 
#    0.000    0.000    0.000    0.000    0.000    0.000 
#
# Total GULP energy -793715.782252 kJ/mol
# GULP energy per Si atom -12401.809098 kJ/mol
# Density = 1.881168 g / cm^3
# Si number density = 18.854589 Si / 1000 Ang^3
#
#
#
# Elastic Constant Matrix: (Units=GPa)
#
#
# Indices 1 2 3 4 5 6 
#
# 1 118.6942 35.1900 62.5507 0.0000 0.0000 0.0000
# 2 35.1900 41.2000 33.1680 0.0000 0.0000 0.0000
# 3 62.5507 33.1680 138.3338 0.0000 0.0000 0.0000
# 4 0.0000 0.0000 0.0000 11.4986 0.0000 0.0000
# 5 0.0000 0.0000 0.0000 0.0000 85.7440 0.0000
# 6 0.0000 0.0000 0.0000 0.0000 0.0000 15.7550
#
#
#
# Elastic Compliance Matrix: (Units=1/GPa)
#
#
# Indices 1 2 3 4 5 6 
#
# 1 0.012796 -0.007772 -0.003923 0.000000 0.000000 0.000000
# 2 -0.007772 0.034798 -0.004829 0.000000 0.000000 0.000000
# 3 -0.003923 -0.004829 0.010161 0.000000 0.000000 0.000000
# 4 0.000000 0.000000 0.000000 0.086967 0.000000 0.000000
# 5 0.000000 0.000000 0.000000 0.000000 0.011663 0.000000
# 6 0.000000 0.000000 0.000000 0.000000 0.000000 0.063472
#
#
# Mechanical properties :
#
#
# Convention : Reuss Voigt Hill
#
# Bulk Modulus (GPa) = 40.47408 62.22728 51.35068
# Shear Modulus (GPa) = 19.14689 33.75415 26.45052
#
# Velocity S-wave (km/s) = 3.19015 4.23571 3.74955
# Velocity P-wave (km/s) = 5.92305 7.54964 6.78526
#
# Compressibility (1/GPa) = 0.02470717
#
# Stress axis : x y z
#
# Youngs Moduli (GPa) = 78.14688 28.73763 98.41990
#
# Poissons Ratio (x) = 0.22334 0.38608
# Poissons Ratio (y) = 0.60734 0.47529
# Poissons Ratio (z) = 0.30655 0.13878
#
# Static dielectric constant tensor:
#      x y z
#    x 3.693410 0.000000 0.000000 
#    y 0.000000 3.251910 0.000000 
#    z 0.000000 0.000000 3.527680 
# 
# 
# High freq. dielectric constant tensor:
#      x y z
#    x 1.750130 0.000000 0.000000 
#    y 0.000000 1.710370 0.000000 
#    z 0.000000 0.000000 1.732970 
# 
# From -- ./inp_files/19450.got.cif
#   From: 2010.03.12/outbox.cif.g09.slc.cpg/sg51_10_cif.got.tgz:19450.got - 2010.04.16 13:43:02.
