data_PCOD8212049
_publ_section_title
;
Structure prediction by ZEFSAII (Michael W. Deem and Ramdas Pophale) SiO2 
 PCOD8212049
Probable space group: P M M A
;
_chemical_formula_sum "Si O2"
_cell_formula_units_Z 48
_cell_length_a 9.047283
_cell_length_b 30.769702
_cell_length_c 9.623638
_cell_angle_alpha 90.000000
_cell_angle_beta 90.000000
_cell_angle_gamma 90.000000
_cell_volume 2679.049536
_symmetry_space_group_name_H-M "P M M A"
_symmetry_group_IT_number 51
_symmetry_cell_setting 'orthorhombic'
loop_
_space_group_symop_operation_xyz
x,y,z
1/2-x,-y,z
1/2+x,-y,-z
-x,y,-z
-x,-y,-z
1/2+x,y,-z
1/2-x,y,z
x,-y,z
loop_
_atom_site_type_symbol
_atom_site_label
_atom_site_fract_x
_atom_site_fract_y
_atom_site_fract_z
Si Si1 0.420183 0.451147 0.854199
Si Si2 0.921961 0.045836 0.645677
Si Si3 0.423870 0.611548 0.357511
Si Si4 0.424148 0.859857 0.351066
Si Si5 0.578175 0.289010 0.641176
Si Si6 0.575534 0.215813 0.851344
O O1 0.250000 0.436548 0.869510
O O2 0.429883 0.500000 0.792856
O O3 0.507393 0.418198 0.758995
O O4 0.500000 0.449242 0.000000
O O5 0.750000 0.046721 0.614416
O O6 0.964663 0.092227 0.715152
O O7 0.000000 0.043997 0.500000
O O8 0.961688 0.000000 0.727726
O O9 0.500000 0.597766 0.500000
O O10 0.250000 0.603279 0.369211
O O11 0.461220 0.661441 0.320781
O O12 0.500000 0.852318 0.500000
O O13 0.250000 0.854236 0.375151
O O14 0.481312 0.825046 0.239272
O O15 0.500000 0.273754 0.500000
O O16 0.750000 0.282761 0.612426
O O17 0.526744 0.259417 0.770007
O O18 0.750000 0.213973 0.874356
O O19 0.500000 0.215195 0.000000
#
# Coordination Sequence:
#
# PCOD8212049 Si02
#       6
#     8   8   8   8   8   8
#     4  10  21  37  56  78 105 138 174 210 249 293
#     4   8  13  22  38  62  90 117 147 187 234 280
#     4  10  20  35  55  79 106 134 166 205 249 296
#     4   9  17  29  47  70  94 122 157 196 238 286
#     4   9  19  35  54  76 100 127 161 201 244 292
#     4  10  21  35  49  69  97 127 162 200 239 286
#
# _framework density 17.916803000000002
#
# number of rings (size 3 to 8) (size 9 to 14) (size 15 to 20)
#    0.000    2.667    0.000    1.500    0.000    4.000 
#    0.000    1.667    0.000    0.500    0.000    0.000 
#    0.000    0.000    0.000    0.000    0.000    0.000 
#
# Total GULP energy -594758.255990 kJ/mol
# GULP energy per Si atom -12390.797000 kJ/mol
# Density = 1.787602 g / cm^3
# Si number density = 17.916803 Si / 1000 Ang^3
#
#
#
# Elastic Constant Matrix: (Units=GPa)
#
#
# Indices 1 2 3 4 5 6 
#
# 1 58.8925 43.0572 40.7363 0.0000 0.0000 0.0000
# 2 43.0572 128.8773 75.8190 0.0000 0.0000 0.0000
# 3 40.7363 75.8190 108.9111 0.0000 0.0000 0.0000
# 4 0.0000 0.0000 0.0000 -19.9564 0.0000 0.0000
# 5 0.0000 0.0000 0.0000 0.0000 33.0333 0.0000
# 6 0.0000 0.0000 0.0000 0.0000 0.0000 22.2342
#
#
#
# Elastic Compliance Matrix: (Units=1/GPa)
#
#
# Indices 1 2 3 4 5 6 
#
# 1 0.024500 -0.004732 -0.005869 0.000000 0.000000 0.000000
# 2 -0.004732 0.014055 -0.008015 0.000000 0.000000 0.000000
# 3 -0.005869 -0.008015 0.016957 0.000000 0.000000 0.000000
# 4 0.000000 0.000000 0.000000 -0.050109 0.000000 0.000000
# 5 0.000000 0.000000 0.000000 0.000000 0.030272 0.000000
# 6 0.000000 0.000000 0.000000 0.000000 0.000000 0.044976
#
#
# Mechanical properties :
#
#
# Convention : Reuss Voigt Hill
#
# Bulk Modulus (GPa) = 54.70709 68.43398 61.57053
# Shear Modulus (GPa) = 40.33021 16.20012 28.26516
#
# Velocity S-wave (km/s) = 4.74959 3.01023 3.97618
# Velocity P-wave (km/s) = 7.78963 7.09650 7.45113
#
# Compressibility (1/GPa) = 0.01827917
#
# Stress axis : x y z
#
# Youngs Moduli (GPa) = 40.81668 71.14676 58.97409
#
# Poissons Ratio (x) = 0.33669 0.34614
# Poissons Ratio (y) = 0.19316 0.47266
# Poissons Ratio (z) = 0.23956 0.57022
#
# Static dielectric constant tensor:
#      x y z
#    x 3.283650 0.000000 0.000000 
#    y 0.000000 4.015090 0.000000 
#    z 0.000000 0.000000 3.027040 
# 
# 
# High freq. dielectric constant tensor:
#      x y z
#    x 1.695940 0.000000 0.000000 
#    y 0.000000 1.718970 0.000000 
#    z 0.000000 0.000000 1.660650 
# 
# From -- ./inp_files/6009.got.cif
#   From: 2010.03.12/outbox.cif.g09.slc.cpg/sg51_4_cif.got.tgz:6009.got - 2010.04.16 13:43:02.
