data_PCOD8212868
_publ_section_title
;
Structure prediction by ZEFSAII (Michael W. Deem and Ramdas Pophale) SiO2 
 PCOD8212868
Probable space group: P M M A
;
_chemical_formula_sum "Si O2"
_cell_formula_units_Z 44
_cell_length_a 9.150995
_cell_length_b 7.908468
_cell_length_c 30.284678
_cell_angle_alpha 90.000000
_cell_angle_beta 90.000000
_cell_angle_gamma 90.000000
_cell_volume 2191.712781
_symmetry_space_group_name_H-M "P M M A"
_symmetry_group_IT_number 51
_symmetry_cell_setting 'orthorhombic'
loop_
_space_group_symop_operation_xyz
x,y,z
1/2-x,-y,z
1/2+x,-y,-z
-x,y,-z
-x,-y,-z
1/2+x,y,-z
1/2-x,y,z
x,-y,z
loop_
_atom_site_type_symbol
_atom_site_label
_atom_site_fract_x
_atom_site_fract_y
_atom_site_fract_z
Si Si1 0.426380 0.500000 0.547370
Si Si2 0.086947 0.199402 0.865179
Si Si3 0.578299 0.808434 0.596221
Si Si4 0.077690 0.689020 0.310396
Si Si5 0.413077 0.300548 0.958672
Si Si6 0.587135 0.199423 0.782519
O O1 0.250000 0.500000 0.544615
O O2 0.500000 0.500000 0.500000
O O3 0.480150 0.671845 0.570878
O O4 0.250000 0.276305 0.863882
O O5 0.012363 0.249822 0.911932
O O6 0.000119 0.278913 0.823819
O O7 0.090324 0.000000 0.860311
O O8 0.750000 0.762175 0.590285
O O9 0.532560 0.803567 0.647894
O O10 0.547525 0.000000 0.579028
O O11 0.250000 0.698226 0.304599
O O12 0.023028 0.500000 0.320412
O O13 0.009094 0.752907 0.264078
O O14 0.250000 0.223702 0.960080
O O15 0.409599 0.500000 0.963375
O O16 0.500000 0.220663 0.000000
O O17 0.750000 0.276016 0.784699
O O18 0.592415 0.000000 0.786541
#
# Coordination Sequence:
#
# PCOD8212868 Si02
#       6
#     4   8   8   8   8   8
#     4  12  26  44  66  92 128 166 206 256 305 358
#     4   9  18  32  47  64  91 126 160 199 251 309
#     4  10  20  38  66  95 124 162 206 252 305 361
#     4   9  16  29  53  83 114 146 186 233 279 332
#     4   9  18  32  48  65  86 114 150 193 245 304
#     4   9  17  29  46  71 101 134 173 214 258 311
#
# _framework density 20.075621000000002
#
# number of rings (size 3 to 8) (size 9 to 14) (size 15 to 20)
#    0.000    2.545    0.909    1.364    0.000    4.727 
#    0.000    0.909    0.000    2.182    0.000    0.000 
#    0.000    0.000    0.000    0.000    0.000    0.000 
#
# Total GULP energy -545288.511886 kJ/mol
# GULP energy per Si atom -12392.920725 kJ/mol
# Density = 2.002993 g / cm^3
# Si number density = 20.075621 Si / 1000 Ang^3
#
#
#
# Elastic Constant Matrix: (Units=GPa)
#
#
# Indices 1 2 3 4 5 6 
#
# 1 78.3468 32.5003 65.8083 0.0000 0.0000 0.0000
# 2 32.5003 66.0623 40.6895 0.0000 0.0000 0.0000
# 3 65.8083 40.6895 178.8094 0.0000 0.0000 0.0000
# 4 0.0000 0.0000 0.0000 28.3875 0.0000 0.0000
# 5 0.0000 0.0000 0.0000 0.0000 30.6246 0.0000
# 6 0.0000 0.0000 0.0000 0.0000 0.0000 17.9649
#
#
#
# Elastic Compliance Matrix: (Units=1/GPa)
#
#
# Indices 1 2 3 4 5 6 
#
# 1 0.020525 -0.006333 -0.006113 0.000000 0.000000 0.000000
# 2 -0.006333 0.019558 -0.002120 0.000000 0.000000 0.000000
# 3 -0.006113 -0.002120 0.008325 0.000000 0.000000 0.000000
# 4 0.000000 0.000000 0.000000 0.035227 0.000000 0.000000
# 5 0.000000 0.000000 0.000000 0.000000 0.032654 0.000000
# 6 0.000000 0.000000 0.000000 0.000000 0.000000 0.055664
#
#
# Mechanical properties :
#
#
# Convention : Reuss Voigt Hill
#
# Bulk Modulus (GPa) = 51.87464 66.80163 59.33813
# Shear Modulus (GPa) = 24.09521 27.67677 25.88599
#
# Velocity S-wave (km/s) = 3.46818 3.71701 3.59475
# Velocity P-wave (km/s) = 6.47560 7.19506 6.84479
#
# Compressibility (1/GPa) = 0.01927724
#
# Stress axis : x y z
#
# Youngs Moduli (GPa) = 48.72007 51.12885 120.12295
#
# Poissons Ratio (x) = 0.32378 0.73432
# Poissons Ratio (y) = 0.30852 0.25467
# Poissons Ratio (z) = 0.29783 0.10840
#
# Static dielectric constant tensor:
#      x y z
#    x 3.621380 0.000000 0.000000 
#    y 0.000000 3.471380 0.000000 
#    z 0.000000 0.000000 4.017930 
# 
# 
# High freq. dielectric constant tensor:
#      x y z
#    x 1.740220 0.000000 0.000000 
#    y 0.000000 1.775450 0.000000 
#    z 0.000000 0.000000 1.801250 
# 
# From -- ./inp_files/36781.got.cif
#   From: 2010.03.12/outbox.cif.g09.slc.cpg/sg51_19_cif.got.tgz:36781.got - 2010.04.16 13:43:02.
