data_PCOD8212347
_publ_section_title
;
Structure prediction by ZEFSAII (Michael W. Deem and Ramdas Pophale) SiO2 
 PCOD8212347
Probable space group: P M M A
;
_chemical_formula_sum "Si O2"
_cell_formula_units_Z 64
_cell_length_a 28.709950
_cell_length_b 12.702510
_cell_length_c 9.547037
_cell_angle_alpha 90.000000
_cell_angle_beta 90.000000
_cell_angle_gamma 90.000000
_cell_volume 3481.693906
_symmetry_space_group_name_H-M "P M M A"
_symmetry_group_IT_number 51
_symmetry_cell_setting 'orthorhombic'
loop_
_space_group_symop_operation_xyz
x,y,z
1/2-x,-y,z
1/2+x,-y,-z
-x,y,-z
-x,-y,-z
1/2+x,y,-z
1/2-x,y,z
x,-y,z
loop_
_atom_site_type_symbol
_atom_site_label
_atom_site_fract_x
_atom_site_fract_y
_atom_site_fract_z
Si Si1 0.800299 0.121738 0.028004
Si Si2 0.448342 0.722118 0.943793
Si Si3 0.434690 0.696136 0.406819
Si Si4 0.530116 0.381704 0.323120
Si Si5 0.115740 0.122490 0.793011
Si Si6 0.196345 0.776778 0.255849
Si Si7 0.378853 0.619753 0.165115
Si Si8 0.627764 0.877083 0.535138
O O1 0.750000 0.173133 0.067094
O O2 0.840791 0.172937 0.121752
O O3 0.798950 0.000000 0.065338
O O4 0.809067 0.133945 0.862485
O O5 0.451630 0.625149 0.835086
O O6 0.430395 0.820749 0.851462
O O7 0.500000 0.749453 0.000000
O O8 0.412129 0.688388 0.063360
O O9 0.430511 0.652555 0.565643
O O10 0.486973 0.696855 0.348182
O O11 0.403652 0.617466 0.315190
O O12 0.416449 0.816664 0.397819
O O13 0.513375 0.500000 0.352658
O O14 0.126846 0.141695 0.630728
O O15 0.108352 0.000000 0.825155
O O16 0.250000 0.748349 0.288443
O O17 0.171282 0.673837 0.189536
O O18 0.173801 0.823231 0.398167
O O19 0.372224 0.500000 0.110557
O O20 0.624913 0.000000 0.573808
#
# Coordination Sequence:
#
# PCOD8212347 Si02
#       8
#     8   8   8   8   8   8   8   8
#     4   9  17  32  57  84 109 141 182 229 282 340
#     4  12  23  37  56  85 119 153 201 250 288 340
#     4  10  20  36  54  81 111 145 190 238 289 340
#     4  11  21  35  57  79 110 150 197 246 287 331
#     4  10  21  39  57  81 119 158 193 233 290 352
#     4  10  21  37  59  88 116 144 183 234 288 351
#     4  11  22  37  58  84 115 151 190 238 294 343
#     4  10  21  37  58  82 113 148 184 234 289 347
#
# _framework density 18.381857
#
# number of rings (size 3 to 8) (size 9 to 14) (size 15 to 20)
#    0.000    1.625    3.750    2.250    0.000    2.250 
#    0.000    3.125    0.000    0.000    0.000    0.000 
#    0.000    0.000    0.000    0.000    0.000    0.000 
#
# Total GULP energy -793210.695719 kJ/mol
# GULP energy per Si atom -12393.917121 kJ/mol
# Density = 1.834002 g / cm^3
# Si number density = 18.381857 Si / 1000 Ang^3
#
#
#
# Elastic Constant Matrix: (Units=GPa)
#
#
# Indices 1 2 3 4 5 6 
#
# 1 121.1359 57.6333 53.9710 0.0000 0.0000 0.0000
# 2 57.6333 90.3899 34.1417 0.0000 0.0000 0.0000
# 3 53.9710 34.1417 93.7606 0.0000 0.0000 0.0000
# 4 0.0000 0.0000 0.0000 22.9331 0.0000 0.0000
# 5 0.0000 0.0000 0.0000 0.0000 27.2277 0.0000
# 6 0.0000 0.0000 0.0000 0.0000 0.0000 19.0415
#
#
#
# Elastic Compliance Matrix: (Units=1/GPa)
#
#
# Indices 1 2 3 4 5 6 
#
# 1 0.013973 -0.006808 -0.005564 0.000000 0.000000 0.000000
# 2 -0.006808 0.016144 -0.001960 0.000000 0.000000 0.000000
# 3 -0.005564 -0.001960 0.014582 0.000000 0.000000 0.000000
# 4 0.000000 0.000000 0.000000 0.043605 0.000000 0.000000
# 5 0.000000 0.000000 0.000000 0.000000 0.036727 0.000000
# 6 0.000000 0.000000 0.000000 0.000000 0.000000 0.052517
#
#
# Mechanical properties :
#
#
# Convention : Reuss Voigt Hill
#
# Bulk Modulus (GPa) = 62.36218 66.30872 64.33545
# Shear Modulus (GPa) = 23.63415 24.47649 24.05532
#
# Velocity S-wave (km/s) = 3.58960 3.65301 3.62144
# Velocity P-wave (km/s) = 7.15401 7.34465 7.24996
#
# Compressibility (1/GPa) = 0.01603536
#
# Stress axis : x y z
#
# Youngs Moduli (GPa) = 71.56499 61.94194 68.57667
#
# Poissons Ratio (x) = 0.42168 0.38159
# Poissons Ratio (y) = 0.48719 0.13441
# Poissons Ratio (z) = 0.39822 0.12141
#
# Static dielectric constant tensor:
#      x y z
#    x 3.508170 0.000000 0.000000 
#    y 0.000000 3.225110 0.000000 
#    z 0.000000 0.000000 3.544630 
# 
# 
# High freq. dielectric constant tensor:
#      x y z
#    x 1.708110 0.000000 0.000000 
#    y 0.000000 1.695910 0.000000 
#    z 0.000000 0.000000 1.724740 
# 
# From -- ./inp_files/13189.got.cif
#   From: 2010.03.12/outbox.cif.g09.slc.cpg/sg51_7_cif.got.tgz:13189.got - 2010.04.16 13:43:02.
