data_PCOD8212895
_publ_section_title
;
Structure prediction by ZEFSAII (Michael W. Deem and Ramdas Pophale) SiO2 
 PCOD8212895
Probable space group: P M M A
;
_chemical_formula_sum "Si O2"
_cell_formula_units_Z 64
_cell_length_a 18.730723
_cell_length_b 8.641767
_cell_length_c 20.083002
_cell_angle_alpha 90.000000
_cell_angle_beta 90.000000
_cell_angle_gamma 90.000000
_cell_volume 3250.766125
_symmetry_space_group_name_H-M "P M M A"
_symmetry_group_IT_number 51
_symmetry_cell_setting 'orthorhombic'
loop_
_space_group_symop_operation_xyz
x,y,z
1/2-x,-y,z
1/2+x,-y,-z
-x,y,-z
-x,-y,-z
1/2+x,y,-z
1/2-x,y,z
x,-y,z
loop_
_atom_site_type_symbol
_atom_site_label
_atom_site_fract_x
_atom_site_fract_y
_atom_site_fract_z
Si Si1 0.422038 0.184923 0.022135
Si Si2 0.921013 0.672266 0.474261
Si Si3 0.398309 0.681828 0.283939
Si Si4 0.667428 0.183607 0.850368
Si Si5 0.331321 0.820352 0.758685
Si Si6 0.051429 0.319207 0.670167
Si Si7 0.332297 0.176862 0.411722
Si Si8 0.830042 0.176511 0.093948
O O1 0.387083 0.245944 0.091677
O O2 0.419820 0.000000 0.024302
O O3 0.500000 0.244888 0.000000
O O4 0.375926 0.259242 0.962504
O O5 0.886145 0.500000 0.471093
O O6 0.927783 0.752525 0.401532
O O7 0.874784 0.780105 0.521814
O O8 0.000000 0.656310 0.500000
O O9 0.399154 0.500000 0.270041
O O10 0.363430 0.762656 0.220219
O O11 0.478384 0.748226 0.297778
O O12 0.352067 0.715667 0.349439
O O13 0.750000 0.242659 0.860201
O O14 0.668058 0.000000 0.851347
O O15 0.250000 0.801962 0.734080
O O16 0.382001 0.712787 0.716592
O O17 0.339198 0.751253 0.833083
O O18 0.354189 0.000000 0.754160
O O19 0.039055 0.500000 0.659435
O O20 0.250000 0.201613 0.428617
O O21 0.349404 0.000000 0.392638
O O22 0.750000 0.187844 0.068295
O O23 0.854833 0.000000 0.100395
#
# Coordination Sequence:
#
# PCOD8212895 Si02
#       8
#     8   8   8   8   8   8   8   8
#     4   9  17  28  47  78 112 144 181 226 279 338
#     4  10  20  40  62  81 110 148 191 231 271 331
#     4  11  23  40  60  83 113 153 197 237 281 340
#     4  10  21  36  55  83 117 149 187 240 295 344
#     4   9  19  34  54  82 113 145 184 229 275 330
#     4  10  22  38  58  82 111 147 188 233 278 331
#     4  11  24  40  60  90 122 148 184 235 287 341
#     4   8  14  27  47  71 102 140 178 216 263 321
#
# _framework density 19.687667000000001
#
# number of rings (size 3 to 8) (size 9 to 14) (size 15 to 20)
#    0.000    2.250    1.250    2.250    1.750    6.750 
#    0.000    2.500    0.000    1.125    0.000    1.750 
#    0.000    0.000    0.000    0.000    0.000    0.000 
#
# Total GULP energy -793143.149850 kJ/mol
# GULP energy per Si atom -12392.861716 kJ/mol
# Density = 1.964286 g / cm^3
# Si number density = 19.687667 Si / 1000 Ang^3
#
#
#
# Elastic Constant Matrix: (Units=GPa)
#
#
# Indices 1 2 3 4 5 6 
#
# 1 112.5332 19.9771 76.1150 0.0000 0.0000 0.0000
# 2 19.9771 15.7030 9.9351 0.0000 0.0000 0.0000
# 3 76.1150 9.9351 135.1034 0.0000 0.0000 0.0000
# 4 0.0000 0.0000 0.0000 18.6975 0.0000 0.0000
# 5 0.0000 0.0000 0.0000 0.0000 42.8812 0.0000
# 6 0.0000 0.0000 0.0000 0.0000 0.0000 25.6244
#
#
#
# Elastic Compliance Matrix: (Units=1/GPa)
#
#
# Indices 1 2 3 4 5 6 
#
# 1 0.017908 -0.017199 -0.008824 0.000000 0.000000 0.000000
# 2 -0.017199 0.083308 0.003564 0.000000 0.000000 0.000000
# 3 -0.008824 0.003564 0.012111 0.000000 0.000000 0.000000
# 4 0.000000 0.000000 0.000000 0.053483 0.000000 0.000000
# 5 0.000000 0.000000 0.000000 0.000000 0.023320 0.000000
# 6 0.000000 0.000000 0.000000 0.000000 0.000000 0.039025
#
#
# Mechanical properties :
#
#
# Convention : Reuss Voigt Hill
#
# Bulk Modulus (GPa) = 14.61833 52.82156 33.71994
# Shear Modulus (GPa) = 16.84189 27.92811 22.38500
#
# Velocity S-wave (km/s) = 2.92799 3.77046 3.37561
# Velocity P-wave (km/s) = 4.34420 6.77076 5.68838
#
# Compressibility (1/GPa) = 0.06840728
#
# Stress axis : x y z
#
# Youngs Moduli (GPa) = 55.84059 12.00363 82.56829
#
# Poissons Ratio (x) = 0.20645 0.72861
# Poissons Ratio (y) = 0.96042 -0.29424
# Poissons Ratio (z) = 0.49276 -0.04278
#
# Static dielectric constant tensor:
#      x y z
#    x 3.696290 0.000000 0.000000 
#    y 0.000000 3.190120 0.000000 
#    z 0.000000 0.000000 4.279910 
# 
# 
# High freq. dielectric constant tensor:
#      x y z
#    x 1.776440 0.000000 0.000000 
#    y 0.000000 1.725060 0.000000 
#    z 0.000000 0.000000 1.782440 
# 
# From -- ./inp_files/33884.got.cif
#   From: 2010.03.12/outbox.cif.g09.slc.cpg/sg51_17_cif.got.tgz:33884.got - 2010.04.16 13:43:02.
