data_PCOD8212943
_publ_section_title
;
Structure prediction by ZEFSAII (Michael W. Deem and Ramdas Pophale) SiO2 
 PCOD8212943
Probable space group: P M M A
;
_chemical_formula_sum "Si O2"
_cell_formula_units_Z 48
_cell_length_a 9.601945
_cell_length_b 30.725405
_cell_length_c 9.164592
_cell_angle_alpha 90.000000
_cell_angle_beta 90.000000
_cell_angle_gamma 90.000000
_cell_volume 2703.771373
_symmetry_space_group_name_H-M "P M M A"
_symmetry_group_IT_number 51
_symmetry_cell_setting 'orthorhombic'
loop_
_space_group_symop_operation_xyz
x,y,z
1/2-x,-y,z
1/2+x,-y,-z
-x,y,-z
-x,-y,-z
1/2+x,y,-z
1/2-x,y,z
x,-y,z
loop_
_atom_site_type_symbol
_atom_site_label
_atom_site_fract_x
_atom_site_fract_y
_atom_site_fract_z
Si Si1 0.588988 0.345449 0.861222
Si Si2 0.090058 0.246246 0.136612
Si Si3 0.912211 0.500000 0.852931
Si Si4 0.088010 0.171057 0.355566
Si Si5 0.593139 0.000000 0.860706
Si Si6 0.911745 0.420324 0.645476
Si Si7 0.911654 0.905810 0.853271
O O1 0.750000 0.351575 0.904254
O O2 0.553542 0.295729 0.819240
O O3 0.551095 0.374379 0.720943
O O4 0.500000 0.360892 0.000000
O O5 0.250000 0.241461 0.089456
O O6 0.055007 0.215923 0.273008
O O7 0.000000 0.230440 0.000000
O O8 0.750000 0.500000 0.895502
O O9 0.952101 0.457901 0.758775
O O10 0.000000 0.500000 0.000000
O O11 0.250000 0.166952 0.395038
O O12 0.036914 0.130180 0.260120
O O13 0.000000 0.171262 0.500000
O O14 0.565982 0.953977 0.777487
O O15 0.750000 0.000000 0.919060
O O16 0.500000 0.000000 0.000000
O O17 0.750000 0.423140 0.602086
O O18 0.000000 0.425848 0.500000
O O19 0.750000 0.897939 0.893207
O O20 0.000000 0.901212 0.000000
#
# Coordination Sequence:
#
# PCOD8212943 Si02
#       7
#     8   8   4   8   4   8   8
#     4   9  18  33  52  74  99 126 159 198 238 283
#     4   9  18  33  52  73  96 123 158 199 239 280
#     4  10  21  36  54  76 100 128 165 206 244 284
#     4  10  21  34  47  67  96 127 158 193 234 280
#     4   8  14  26  45  68  92 116 146 188 233 274
#     4  10  21  35  51  74 103 132 163 199 239 285
#     4   9  17  30  49  71  93 119 153 192 233 278
#
# _framework density 17.752980000000001
#
# number of rings (size 3 to 8) (size 9 to 14) (size 15 to 20)
#    0.000    2.667    0.000    1.250    0.000    3.333 
#    0.000    0.417    0.000    0.000    0.000    0.000 
#    0.000    0.000    0.000    0.000    0.000    0.000 
#
# Total GULP energy -595054.464903 kJ/mol
# GULP energy per Si atom -12396.968019 kJ/mol
# Density = 1.771257 g / cm^3
# Si number density = 17.752980 Si / 1000 Ang^3
#
#
#
# Elastic Constant Matrix: (Units=GPa)
#
#
# Indices 1 2 3 4 5 6 
#
# 1 65.4568 49.3022 71.0312 0.0000 0.0000 0.0000
# 2 49.3022 123.6681 75.7584 0.0000 0.0000 0.0000
# 3 71.0312 75.7584 136.9604 0.0000 0.0000 0.0000
# 4 0.0000 0.0000 0.0000 12.7175 0.0000 0.0000
# 5 0.0000 0.0000 0.0000 0.0000 38.7527 0.0000
# 6 0.0000 0.0000 0.0000 0.0000 0.0000 17.8842
#
#
#
# Elastic Compliance Matrix: (Units=1/GPa)
#
#
# Indices 1 2 3 4 5 6 
#
# 1 0.036507 -0.004470 -0.016461 0.000000 0.000000 0.000000
# 2 -0.004470 0.012778 -0.004750 0.000000 0.000000 0.000000
# 3 -0.016461 -0.004750 0.018465 0.000000 0.000000 0.000000
# 4 0.000000 0.000000 0.000000 0.078632 0.000000 0.000000
# 5 0.000000 0.000000 0.000000 0.000000 0.025805 0.000000
# 6 0.000000 0.000000 0.000000 0.000000 0.000000 0.055915
#
#
# Mechanical properties :
#
#
# Convention : Reuss Voigt Hill
#
# Bulk Modulus (GPa) = 61.01613 79.80766 70.41190
# Shear Modulus (GPa) = 17.54843 22.53710 20.04277
#
# Velocity S-wave (km/s) = 3.14742 3.56685 3.36368
# Velocity P-wave (km/s) = 6.90308 7.87498 7.40499
#
# Compressibility (1/GPa) = 0.01638911
#
# Stress axis : x y z
#
# Youngs Moduli (GPa) = 27.39221 78.26036 54.15517
#
# Poissons Ratio (x) = 0.34985 0.89143
# Poissons Ratio (y) = 0.12245 0.25721
# Poissons Ratio (z) = 0.45089 0.37170
#
# Static dielectric constant tensor:
#      x y z
#    x 3.298110 0.000000 0.000000 
#    y 0.000000 3.851120 0.000000 
#    z 0.000000 0.000000 3.087230 
# 
# 
# High freq. dielectric constant tensor:
#      x y z
#    x 1.686290 0.000000 0.000000 
#    y 0.000000 1.712450 0.000000 
#    z 0.000000 0.000000 1.659840 
# 
# From -- ./inp_files/6192.got.cif
#   From: 2010.03.12/outbox.cif.g09.slc.cpg/sg51_4_cif.got.tgz:6192.got - 2010.04.16 13:43:02.
