data_PCOD8212589
_publ_section_title
;
Structure prediction by ZEFSAII (Michael W. Deem and Ramdas Pophale) SiO2 
 PCOD8212589
Probable space group: P M M A
;
_chemical_formula_sum "Si O2"
_cell_formula_units_Z 48
_cell_length_a 10.146927
_cell_length_b 17.851577
_cell_length_c 13.999630
_cell_angle_alpha 90.000000
_cell_angle_beta 90.000000
_cell_angle_gamma 90.000000
_cell_volume 2535.874060
_symmetry_space_group_name_H-M "P M M A"
_symmetry_group_IT_number 51
_symmetry_cell_setting 'orthorhombic'
loop_
_space_group_symop_operation_xyz
x,y,z
1/2-x,-y,z
1/2+x,-y,-z
-x,y,-z
-x,-y,-z
1/2+x,y,-z
1/2-x,y,z
x,-y,z
loop_
_atom_site_type_symbol
_atom_site_label
_atom_site_fract_x
_atom_site_fract_y
_atom_site_fract_z
Si Si1 0.500773 0.295252 0.890139
Si Si2 0.009839 0.853409 0.612765
Si Si3 0.750000 0.197565 0.109941
Si Si4 0.750000 0.083723 0.277689
Si Si5 0.899875 0.414886 0.240652
Si Si6 0.750000 0.090106 0.715925
Si Si7 0.901506 0.308824 0.415729
Si Si8 0.750000 0.195357 0.888286
O O1 0.375115 0.246489 0.863018
O O2 0.497672 0.372334 0.831416
O O3 0.625716 0.246067 0.862182
O O4 0.500000 0.318576 0.000000
O O5 0.874352 0.876711 0.661141
O O6 0.000000 0.867843 0.500000
O O7 0.123237 0.903750 0.657073
O O8 0.045469 0.766840 0.634374
O O9 0.750000 0.127004 0.178218
O O10 0.750000 0.171010 0.999527
O O11 0.750000 0.000000 0.241150
O O12 0.750000 0.411451 0.201759
O O13 0.949300 0.500000 0.249382
O O14 0.907891 0.377562 0.343907
O O15 0.750000 0.120008 0.825128
O O16 0.750000 0.000000 0.717390
O O17 0.750000 0.296311 0.451423
O O18 0.000000 0.330857 0.500000
#
# Coordination Sequence:
#
# PCOD8212589 Si02
#       8
#     8   8   4   4   8   4   8   4
#     4  10  20  37  61  85 113 149 193 235 280 335
#     4  11  24  40  59  84 114 151 196 243 281 340
#     4  10  20  38  62  86 111 149 199 240 276 344
#     4  12  23  37  60  86 115 153 190 235 294 347
#     4  10  20  36  60  87 118 155 189 229 283 341
#     4  12  25  39  58  84 119 155 186 235 304 353
#     4  10  21  38  62  87 112 149 196 239 278 333
#     4  10  22  38  60  88 115 149 191 244 292 334
#
# _framework density 18.928384000000001
#
# number of rings (size 3 to 8) (size 9 to 14) (size 15 to 20)
#    0.000    1.500    1.667    4.000    3.500    3.000 
#    1.500    0.417    0.000    5.000    0.000    0.000 
#    0.000    0.000    0.000    0.000    0.000    0.000 
#
# Total GULP energy -595306.082835 kJ/mol
# GULP energy per Si atom -12402.210059 kJ/mol
# Density = 1.888530 g / cm^3
# Si number density = 18.928384 Si / 1000 Ang^3
#
#
#
# Elastic Constant Matrix: (Units=GPa)
#
#
# Indices 1 2 3 4 5 6 
#
# 1 149.7012 60.6174 52.4596 0.0000 0.0000 0.0000
# 2 60.6174 151.8660 74.1148 0.0000 0.0000 0.0000
# 3 52.4596 74.1148 100.6451 0.0000 0.0000 0.0000
# 4 0.0000 0.0000 0.0000 14.4202 0.0000 0.0000
# 5 0.0000 0.0000 0.0000 0.0000 10.4181 0.0000
# 6 0.0000 0.0000 0.0000 0.0000 0.0000 30.7931
#
#
#
# Elastic Compliance Matrix: (Units=1/GPa)
#
#
# Indices 1 2 3 4 5 6 
#
# 1 0.008519 -0.001925 -0.003023 0.000000 0.000000 0.000000
# 2 -0.001925 0.010714 -0.006886 0.000000 0.000000 0.000000
# 3 -0.003023 -0.006886 0.016582 0.000000 0.000000 0.000000
# 4 0.000000 0.000000 0.000000 0.069347 0.000000 0.000000
# 5 0.000000 0.000000 0.000000 0.000000 0.095986 0.000000
# 6 0.000000 0.000000 0.000000 0.000000 0.000000 0.032475
#
#
# Mechanical properties :
#
#
# Convention : Reuss Voigt Hill
#
# Bulk Modulus (GPa) = 82.32436 86.28846 84.30641
# Shear Modulus (GPa) = 19.13218 25.46100 22.29659
#
# Velocity S-wave (km/s) = 3.18270 3.67157 3.43584
# Velocity P-wave (km/s) = 7.55600 7.97870 7.77022
#
# Compressibility (1/GPa) = 0.01214707
#
# Stress axis : x y z
#
# Youngs Moduli (GPa) = 117.38879 93.33736 60.30517
#
# Poissons Ratio (x) = 0.17969 0.18228
# Poissons Ratio (y) = 0.22599 0.41527
# Poissons Ratio (z) = 0.35481 0.64274
#
# Static dielectric constant tensor:
#      x y z
#    x 3.480160 0.000000 0.000000 
#    y 0.000000 3.424460 0.000000 
#    z 0.000000 0.000000 3.480690 
# 
# 
# High freq. dielectric constant tensor:
#      x y z
#    x 1.746440 0.000000 0.000000 
#    y 0.000000 1.730510 0.000000 
#    z 0.000000 0.000000 1.742020 
# 
# From -- ./inp_files/21266.got.cif
#   From: 2010.03.12/outbox.cif.g09.slc.cpg/sg51_11_cif.got.tgz:21266.got - 2010.04.16 13:43:02.
