data_PCOD8212660
_publ_section_title
;
Structure prediction by ZEFSAII (Michael W. Deem and Ramdas Pophale) SiO2 
 PCOD8212660
Probable space group: P M M A
;
_chemical_formula_sum "Si O2"
_cell_formula_units_Z 40
_cell_length_a 10.057833
_cell_length_b 9.227949
_cell_length_c 24.280831
_cell_angle_alpha 90.000000
_cell_angle_beta 90.000000
_cell_angle_gamma 90.000000
_cell_volume 2253.580895
_symmetry_space_group_name_H-M "P M M A"
_symmetry_group_IT_number 51
_symmetry_cell_setting 'orthorhombic'
loop_
_space_group_symop_operation_xyz
x,y,z
1/2-x,-y,z
1/2+x,-y,-z
-x,y,-z
-x,-y,-z
1/2+x,y,-z
1/2-x,y,z
x,-y,z
loop_
_atom_site_type_symbol
_atom_site_label
_atom_site_fract_x
_atom_site_fract_y
_atom_site_fract_z
Si Si1 0.404329 0.166156 0.738427
Si Si2 0.750000 0.672127 0.444213
Si Si3 0.750000 0.835253 0.556895
Si Si4 0.097031 0.169514 0.950983
Si Si5 0.521193 0.166577 0.381991
Si Si6 0.592004 0.337006 0.156826
O O1 0.250000 0.200384 0.727650
O O2 0.482059 0.205578 0.682625
O O3 0.464261 0.261963 0.787974
O O4 0.424977 0.000000 0.755503
O O5 0.750000 0.500000 0.443236
O O6 0.750000 0.724913 0.506774
O O7 0.880396 0.728891 0.414067
O O8 0.624271 0.805698 0.595004
O O9 0.750000 0.000000 0.534025
O O10 0.250000 0.210891 0.965406
O O11 0.043972 0.251725 0.897075
O O12 0.084657 0.000000 0.938948
O O13 0.000000 0.218356 0.000000
O O14 0.567768 0.000000 0.390135
O O15 0.750000 0.332660 0.159258
O O16 0.536928 0.500000 0.153943
#
# Coordination Sequence:
#
# PCOD8212660 Si02
#       6
#     8   4   4   8   8   8
#     4   9  16  29  51  75  99 127 164 211 255 294
#     4  12  24  36  54  80 108 138 173 212 257 310
#     4  10  22  38  58  78 104 138 173 214 261 312
#     4   9  17  30  49  72  98 128 164 205 247 288
#     4  10  20  37  58  80 103 134 175 217 261 308
#     4   9  17  28  45  72 102 130 163 203 247 294
#
# _framework density 17.749528999999999
#
# number of rings (size 3 to 8) (size 9 to 14) (size 15 to 20)
#    0.000    2.400    1.000    2.100    0.000    6.800 
#    0.000    0.000    2.200    0.000    0.000    0.000 
#    0.000    0.000    0.000    0.000    0.000    0.000 
#
# Total GULP energy -496044.542625 kJ/mol
# GULP energy per Si atom -12401.113566 kJ/mol
# Density = 1.770913 g / cm^3
# Si number density = 17.749529 Si / 1000 Ang^3
#
#
#
# Elastic Constant Matrix: (Units=GPa)
#
#
# Indices 1 2 3 4 5 6 
#
# 1 79.8472 48.1041 60.0801 0.0000 0.0000 0.0000
# 2 48.1041 108.8492 88.7297 0.0000 0.0000 0.0000
# 3 60.0801 88.7297 176.8071 0.0000 0.0000 0.0000
# 4 0.0000 0.0000 0.0000 9.3862 0.0000 0.0000
# 5 0.0000 0.0000 0.0000 0.0000 15.7809 0.0000
# 6 0.0000 0.0000 0.0000 0.0000 0.0000 10.7780
#
#
#
# Elastic Compliance Matrix: (Units=1/GPa)
#
#
# Indices 1 2 3 4 5 6 
#
# 1 0.018375 -0.005129 -0.003670 0.000000 0.000000 0.000000
# 2 -0.005129 0.016979 -0.006778 0.000000 0.000000 0.000000
# 3 -0.003670 -0.006778 0.010304 0.000000 0.000000 0.000000
# 4 0.000000 0.000000 0.000000 0.106540 0.000000 0.000000
# 5 0.000000 0.000000 0.000000 0.000000 0.063368 0.000000
# 6 0.000000 0.000000 0.000000 0.000000 0.000000 0.092782
#
#
# Mechanical properties :
#
#
# Convention : Reuss Voigt Hill
#
# Bulk Modulus (GPa) = 68.94308 84.37014 76.65661
# Shear Modulus (GPa) = 14.52067 18.42831 16.47449
#
# Velocity S-wave (km/s) = 2.86333 3.22567 3.04989
# Velocity P-wave (km/s) = 7.06102 7.84284 7.46218
#
# Compressibility (1/GPa) = 0.01450472
#
# Stress axis : x y z
#
# Youngs Moduli (GPa) = 54.42051 58.89732 97.04571
#
# Poissons Ratio (x) = 0.30208 0.35617
# Poissons Ratio (y) = 0.27912 0.65776
# Poissons Ratio (z) = 0.19973 0.39920
#
# Static dielectric constant tensor:
#      x y z
#    x 3.032750 0.000000 0.000000 
#    y 0.000000 3.316290 0.000000 
#    z 0.000000 0.000000 3.456780 
# 
# 
# High freq. dielectric constant tensor:
#      x y z
#    x 1.652100 0.000000 0.000000 
#    y 0.000000 1.682350 0.000000 
#    z 0.000000 0.000000 1.700770 
# 
# From -- ./inp_files/36084.got.cif
#   From: 2010.03.12/outbox.cif.g09.slc.cpg/sg51_19_cif.got.tgz:36084.got - 2010.04.16 13:43:02.
