data_PCOD8212275
_publ_section_title
;
Structure prediction by ZEFSAII (Michael W. Deem and Ramdas Pophale) SiO2 
 PCOD8212275
Probable space group: P M M A
;
_chemical_formula_sum "Si O2"
_cell_formula_units_Z 56
_cell_length_a 8.782550
_cell_length_b 21.472699
_cell_length_c 15.057597
_cell_angle_alpha 90.000000
_cell_angle_beta 90.000000
_cell_angle_gamma 90.000000
_cell_volume 2839.637722
_symmetry_space_group_name_H-M "P M M A"
_symmetry_group_IT_number 51
_symmetry_cell_setting 'orthorhombic'
loop_
_space_group_symop_operation_xyz
x,y,z
1/2-x,-y,z
1/2+x,-y,-z
-x,y,-z
-x,-y,-z
1/2+x,y,-z
1/2-x,y,z
x,-y,z
loop_
_atom_site_type_symbol
_atom_site_label
_atom_site_fract_x
_atom_site_fract_y
_atom_site_fract_z
Si Si1 0.569946 0.233618 0.747934
Si Si2 0.927139 0.303558 0.091083
Si Si3 0.928201 0.308416 0.412042
Si Si4 0.926018 0.429886 0.643643
Si Si5 0.077891 0.568504 0.827251
Si Si6 0.430165 0.000000 0.401061
Si Si7 0.930452 0.907054 0.749545
Si Si8 0.069514 0.000000 0.099407
O O1 0.750000 0.235652 0.736266
O O2 0.521766 0.265489 0.838117
O O3 0.493611 0.272280 0.670635
O O4 0.507008 0.163127 0.747433
O O5 0.750000 0.285723 0.096181
O O6 0.952698 0.377864 0.101106
O O7 0.000000 0.281828 0.000000
O O8 0.750000 0.300268 0.414219
O O9 0.000000 0.278083 0.500000
O O10 0.970848 0.381565 0.410056
O O11 0.750000 0.413446 0.627766
O O12 0.964780 0.500000 0.611463
O O13 0.959561 0.422999 0.747834
O O14 0.250000 0.575304 0.788957
O O15 0.056260 0.500000 0.871480
O O16 0.500000 0.000000 0.500000
O O17 0.484846 0.059271 0.341753
O O18 0.250000 0.000000 0.413911
O O19 0.750000 0.909096 0.750859
O O20 0.985457 0.940589 0.841102
O O21 0.250000 0.000000 0.086863
O O22 0.000000 0.000000 0.000000
#
# Coordination Sequence:
#
# PCOD8212275 Si02
#       8
#     8   8   8   8   8   4   8   4
#     4  11  22  40  62  85 117 155 196 243 290 342
#     4  11  23  38  57  83 114 153 197 243 294 350
#     4  12  25  41  60  84 114 153 196 242 294 351
#     4  10  20  35  58  86 113 145 187 237 296 356
#     4   9  18  34  56  80 109 146 188 237 295 352
#     4   9  17  35  60  88 120 151 187 227 274 332
#     4   8  18  36  59  84 116 157 190 225 282 341
#     4   9  17  35  60  88 120 153 191 233 278 332
#
# _framework density 19.720824
#
# number of rings (size 3 to 8) (size 9 to 14) (size 15 to 20)
#    0.000    2.000    1.429    3.429    0.000    3.143 
#    0.000    7.143    0.000    0.000    0.000    0.000 
#    0.000    0.000    0.000    0.000    0.000    0.000 
#
# Total GULP energy -694207.164102 kJ/mol
# GULP energy per Si atom -12396.556502 kJ/mol
# Density = 1.967594 g / cm^3
# Si number density = 19.720824 Si / 1000 Ang^3
#
#
#
# Elastic Constant Matrix: (Units=GPa)
#
#
# Indices 1 2 3 4 5 6 
#
# 1 84.0832 39.2564 39.8868 0.0000 0.0000 0.0000
# 2 39.2564 131.1495 57.3523 0.0000 0.0000 0.0000
# 3 39.8868 57.3523 148.4093 0.0000 0.0000 0.0000
# 4 0.0000 0.0000 0.0000 -134.3350 0.0000 0.0000
# 5 0.0000 0.0000 0.0000 0.0000 35.5063 0.0000
# 6 0.0000 0.0000 0.0000 0.0000 0.0000 25.3859
#
#
#
# Elastic Compliance Matrix: (Units=1/GPa)
#
#
# Indices 1 2 3 4 5 6 
#
# 1 0.014674 -0.003210 -0.002703 0.000000 0.000000 0.000000
# 2 -0.003210 0.009878 -0.002954 0.000000 0.000000 0.000000
# 3 -0.002703 -0.002954 0.008606 0.000000 0.000000 0.000000
# 4 0.000000 0.000000 0.000000 -0.007444 0.000000 0.000000
# 5 0.000000 0.000000 0.000000 0.000000 0.028164 0.000000
# 6 0.000000 0.000000 0.000000 0.000000 0.000000 0.039392
#
#
# Mechanical properties :
#
#
# Convention : Reuss Voigt Hill
#
# Bulk Modulus (GPa) = 64.84056 70.73697 67.78876
# Shear Modulus (GPa) = 43.04896 0.45454 21.75175
#
# Velocity S-wave (km/s) = 4.67724 0.48061 3.32472
# Velocity P-wave (km/s) = 7.88158 6.02122 7.01336
#
# Compressibility (1/GPa) = 0.01542245
#
# Stress axis : x y z
#
# Youngs Moduli (GPa) = 68.14731 101.23740 116.19257
#
# Poissons Ratio (x) = 0.32499 0.31410
# Poissons Ratio (y) = 0.21876 0.34329
# Poissons Ratio (z) = 0.18422 0.29910
#
# Static dielectric constant tensor:
#      x y z
#    x 3.475220 0.000000 0.000000 
#    y 0.000000 3.994210 0.000000 
#    z 0.000000 0.000000 3.665850 
# 
# 
# High freq. dielectric constant tensor:
#      x y z
#    x 1.759050 0.000000 0.000000 
#    y 0.000000 1.770820 0.000000 
#    z 0.000000 0.000000 1.767500 
# 
# From -- ./inp_files/21874.got.cif
#   From: 2010.03.12/outbox.cif.g09.slc.cpg/sg51_11_cif.got.tgz:21874.got - 2010.04.16 13:43:02.
