data_PCOD8212910
_publ_section_title
;
Structure prediction by ZEFSAII (Michael W. Deem and Ramdas Pophale) SiO2 
 PCOD8212910
Probable space group: P M M A
;
_chemical_formula_sum "Si O2"
_cell_formula_units_Z 40
_cell_length_a 22.412355
_cell_length_b 8.848199
_cell_length_c 9.923329
_cell_angle_alpha 90.000000
_cell_angle_beta 90.000000
_cell_angle_gamma 90.000000
_cell_volume 1967.885223
_symmetry_space_group_name_H-M "P M M A"
_symmetry_group_IT_number 51
_symmetry_cell_setting 'orthorhombic'
loop_
_space_group_symop_operation_xyz
x,y,z
1/2-x,-y,z
1/2+x,-y,-z
-x,y,-z
-x,-y,-z
1/2+x,y,-z
1/2-x,y,z
x,-y,z
loop_
_atom_site_type_symbol
_atom_site_label
_atom_site_fract_x
_atom_site_fract_y
_atom_site_fract_z
Si Si1 0.870081 0.324608 0.530292
Si Si2 0.250000 0.322635 0.110035
Si Si3 0.449976 0.327647 0.215633
Si Si4 0.129661 0.674441 0.962505
Si Si5 0.250000 0.821660 0.400886
Si Si6 0.571152 0.823565 0.281836
O O1 0.857996 0.500000 0.504758
O O2 0.898251 0.295755 0.676642
O O3 0.807705 0.237770 0.519826
O O4 0.915841 0.263376 0.419770
O O5 0.250000 0.500000 0.146055
O O6 0.307492 0.275465 0.024518
O O7 0.250000 0.233270 0.248217
O O8 0.473117 0.500000 0.228538
O O9 0.423098 0.297368 0.068777
O O10 0.504493 0.215012 0.235651
O O11 0.131492 0.500000 0.918452
O O12 0.118378 0.775503 0.831790
O O13 0.250000 0.000000 0.404661
O O14 0.576645 0.000000 0.308710
#
# Coordination Sequence:
#
# PCOD8212910 Si02
#       6
#     8   4   8   8   4   8
#     4  11  23  43  68  91 120 165 214 255 299 364
#     4  10  20  41  68  93 118 158 212 256 298 361
#     4  10  21  40  67  92 118 161 216 261 299 365
#     4  10  21  40  66  92 121 161 213 259 300 366
#     4  12  24  39  64  97 130 158 194 252 316 371
#     4  12  26  40  57  91 134 166 201 257 323 373
#
# _framework density 20.32639
#
# number of rings (size 3 to 8) (size 9 to 14) (size 15 to 20)
#    0.000    1.200    2.000    4.500    0.000    8.800 
#    0.000    3.000    0.000    0.000    0.000    0.000 
#    0.000    0.000    0.000    0.000    0.000    0.000 
#
# Total GULP energy -496313.783867 kJ/mol
# GULP energy per Si atom -12407.844597 kJ/mol
# Density = 2.028013 g / cm^3
# Si number density = 20.326390 Si / 1000 Ang^3
#
#
#
# Elastic Constant Matrix: (Units=GPa)
#
#
# Indices 1 2 3 4 5 6 
#
# 1 88.4787 33.5218 -7.6127 0.0000 0.0000 0.0000
# 2 33.5218 103.9969 30.0085 0.0000 0.0000 0.0000
# 3 -7.6127 30.0085 56.2719 0.0000 0.0000 0.0000
# 4 0.0000 0.0000 0.0000 24.4930 0.0000 0.0000
# 5 0.0000 0.0000 0.0000 0.0000 19.3288 0.0000
# 6 0.0000 0.0000 0.0000 0.0000 0.0000 13.1179
#
#
#
# Elastic Compliance Matrix: (Units=1/GPa)
#
#
# Indices 1 2 3 4 5 6 
#
# 1 0.014006 -0.005982 0.005085 0.000000 0.000000 0.000000
# 2 -0.005982 0.013919 -0.008232 0.000000 0.000000 0.000000
# 3 0.005085 -0.008232 0.022849 0.000000 0.000000 0.000000
# 4 0.000000 0.000000 0.000000 0.040828 0.000000 0.000000
# 5 0.000000 0.000000 0.000000 0.000000 0.051736 0.000000
# 6 0.000000 0.000000 0.000000 0.000000 0.000000 0.076232
#
#
# Mechanical properties :
#
#
# Convention : Reuss Voigt Hill
#
# Bulk Modulus (GPa) = 30.75442 40.06475 35.40958
# Shear Modulus (GPa) = 20.10723 24.24325 22.17524
#
# Velocity S-wave (km/s) = 3.14860 3.45729 3.30655
# Velocity P-wave (km/s) = 5.32741 5.97417 5.66004
#
# Compressibility (1/GPa) = 0.03251565
#
# Stress axis : x y z
#
# Youngs Moduli (GPa) = 71.39815 71.84330 43.76618
#
# Poissons Ratio (x) = 0.42975 -0.22254
# Poissons Ratio (y) = 0.42709 0.36028
# Poissons Ratio (z) = -0.36304 0.59142
#
# Static dielectric constant tensor:
#      x y z
#    x 3.802940 0.000000 0.000000 
#    y 0.000000 3.570640 0.000000 
#    z 0.000000 0.000000 3.692960 
# 
# 
# High freq. dielectric constant tensor:
#      x y z
#    x 1.806750 0.000000 0.000000 
#    y 0.000000 1.785700 0.000000 
#    z 0.000000 0.000000 1.800460 
# 
# From -- ./inp_files/12211.got.cif
#   From: 2010.03.12/outbox.cif.g09.slc.cpg/sg51_7_cif.got.tgz:12211.got - 2010.04.16 13:43:02.
