data_PCOD8212587
_publ_section_title
;
Structure prediction by ZEFSAII (Michael W. Deem and Ramdas Pophale) SiO2 
 PCOD8212587
Probable space group: P M M A
;
_chemical_formula_sum "Si O2"
_cell_formula_units_Z 64
_cell_length_a 9.137457
_cell_length_b 14.316729
_cell_length_c 25.285380
_cell_angle_alpha 90.000000
_cell_angle_beta 90.000000
_cell_angle_gamma 90.000000
_cell_volume 3307.795373
_symmetry_space_group_name_H-M "P M M A"
_symmetry_group_IT_number 51
_symmetry_cell_setting 'orthorhombic'
loop_
_space_group_symop_operation_xyz
x,y,z
1/2-x,-y,z
1/2+x,-y,-z
-x,y,-z
-x,-y,-z
1/2+x,y,-z
1/2-x,y,z
x,-y,z
loop_
_atom_site_type_symbol
_atom_site_label
_atom_site_fract_x
_atom_site_fract_y
_atom_site_fract_z
Si Si1 0.422590 0.707215 0.946792
Si Si2 0.417685 0.103301 0.210172
Si Si3 0.081874 0.390850 0.148012
Si Si4 0.922768 0.301451 0.556514
Si Si5 0.418610 0.706828 0.257735
Si Si6 0.918869 0.901513 0.554688
Si Si7 0.421163 0.103017 0.897263
Si Si8 0.081859 0.392732 0.649499
O O1 0.250000 0.692706 0.952347
O O2 0.478157 0.645391 0.898320
O O3 0.465145 0.816482 0.938613
O O4 0.500000 0.671863 0.000000
O O5 0.250000 0.107596 0.192014
O O6 0.447117 0.181498 0.254589
O O7 0.509027 0.127902 0.158596
O O8 0.457467 0.000000 0.232693
O O9 0.250000 0.369156 0.133090
O O10 0.054643 0.500000 0.156186
O O11 0.038545 0.339903 0.202222
O O12 0.750000 0.319818 0.550051
O O13 0.955966 0.197771 0.582367
O O14 0.000000 0.312740 0.500000
O O15 0.990340 0.376205 0.596249
O O16 0.250000 0.684767 0.272271
O O17 0.522649 0.669248 0.302934
O O18 0.750000 0.899769 0.540137
O O19 0.000000 0.904441 0.500000
O O20 0.955476 0.000000 0.586259
O O21 0.250000 0.103763 0.887390
O O22 0.473005 0.000000 0.917531
O O23 0.250000 0.366329 0.638942
O O24 0.063755 0.500000 0.665908
#
# Coordination Sequence:
#
# PCOD8212587 Si02
#       8
#     8   8   8   8   8   8   8   8
#     4  11  23  37  55  79 111 148 188 233 281 334
#     4   9  17  31  56  88 117 146 180 219 268 330
#     4  10  21  38  60  84 109 140 182 232 286 342
#     4  10  20  36  60  87 117 154 192 232 281 335
#     4  10  20  37  62  88 115 145 181 226 278 335
#     4   8  14  26  47  77 110 143 180 220 263 314
#     4   9  18  33  53  79 111 146 183 224 273 329
#     4  11  25  42  59  82 112 147 191 241 287 332
#
# _framework density 19.348236
#
# number of rings (size 3 to 8) (size 9 to 14) (size 15 to 20)
#    0.000    2.250    1.250    1.500    0.000    4.500 
#    0.000    0.625    0.000    3.750    0.000    0.000 
#    0.000    0.000    0.000    0.000    0.000    0.000 
#
# Total GULP energy -793198.868776 kJ/mol
# GULP energy per Si atom -12393.732325 kJ/mol
# Density = 1.930420 g / cm^3
# Si number density = 19.348236 Si / 1000 Ang^3
#
#
#
# Elastic Constant Matrix: (Units=GPa)
#
#
# Indices 1 2 3 4 5 6 
#
# 1 62.3221 42.3109 39.7616 0.0000 0.0000 0.0000
# 2 42.3109 97.3401 44.7415 0.0000 0.0000 0.0000
# 3 39.7616 44.7415 87.5498 0.0000 0.0000 0.0000
# 4 0.0000 0.0000 0.0000 32.6498 0.0000 0.0000
# 5 0.0000 0.0000 0.0000 0.0000 31.4657 0.0000
# 6 0.0000 0.0000 0.0000 0.0000 0.0000 26.1947
#
#
#
# Elastic Compliance Matrix: (Units=1/GPa)
#
#
# Indices 1 2 3 4 5 6 
#
# 1 0.026476 -0.007818 -0.008029 0.000000 0.000000 0.000000
# 2 -0.007818 0.015736 -0.004491 0.000000 0.000000 0.000000
# 3 -0.008029 -0.004491 0.017364 0.000000 0.000000 0.000000
# 4 0.000000 0.000000 0.000000 0.030628 0.000000 0.000000
# 5 0.000000 0.000000 0.000000 0.000000 0.031781 0.000000
# 6 0.000000 0.000000 0.000000 0.000000 0.000000 0.038176
#
#
# Mechanical properties :
#
#
# Convention : Reuss Voigt Hill
#
# Bulk Modulus (GPa) = 52.91178 55.64887 54.28032
# Shear Modulus (GPa) = 24.13885 26.08858 25.11372
#
# Velocity S-wave (km/s) = 3.53597 3.67600 3.60666
# Velocity P-wave (km/s) = 6.63907 6.84408 6.74235
#
# Compressibility (1/GPa) = 0.01889938
#
# Stress axis : x y z
#
# Youngs Moduli (GPa) = 37.77038 63.54981 57.59155
#
# Poissons Ratio (x) = 0.49682 0.46241
# Poissons Ratio (y) = 0.29528 0.25865
# Poissons Ratio (z) = 0.30326 0.28541
#
# Static dielectric constant tensor:
#      x y z
#    x 3.580050 0.000000 0.000000 
#    y 0.000000 4.147840 0.000000 
#    z 0.000000 0.000000 3.181450 
# 
# 
# High freq. dielectric constant tensor:
#      x y z
#    x 1.753930 0.000000 0.000000 
#    y 0.000000 1.774790 0.000000 
#    z 0.000000 0.000000 1.722290 
# 
# From -- ./inp_files/34937.got.cif
#   From: 2010.03.12/outbox.cif.g09.slc.cpg/sg51_18_cif.got.tgz:34937.got - 2010.04.16 13:43:02.
