data_PCOD8212418
_publ_section_title
;
Structure prediction by ZEFSAII (Michael W. Deem and Ramdas Pophale) SiO2 
 PCOD8212418
Probable space group: P M M A
;
_chemical_formula_sum "Si O2"
_cell_formula_units_Z 64
_cell_length_a 18.010079
_cell_length_b 19.750181
_cell_length_c 9.629354
_cell_angle_alpha 90.000000
_cell_angle_beta 90.000000
_cell_angle_gamma 90.000000
_cell_volume 3425.183559
_symmetry_space_group_name_H-M "P M M A"
_symmetry_group_IT_number 51
_symmetry_cell_setting 'orthorhombic'
loop_
_space_group_symop_operation_xyz
x,y,z
1/2-x,-y,z
1/2+x,-y,-z
-x,y,-z
-x,-y,-z
1/2+x,y,-z
1/2-x,y,z
x,-y,z
loop_
_atom_site_type_symbol
_atom_site_label
_atom_site_fract_x
_atom_site_fract_y
_atom_site_fract_z
Si Si1 0.662143 0.309402 0.988751
Si Si2 0.461667 0.078913 0.143747
Si Si3 0.937114 0.074879 0.387382
Si Si4 0.585317 0.420709 0.495561
Si Si5 0.835812 0.192631 0.485887
Si Si6 0.662904 0.577436 0.780122
Si Si7 0.163252 0.816442 0.194647
Si Si8 0.661550 0.681862 0.303610
O O1 0.750000 0.309447 0.992561
O O2 0.631537 0.309507 0.146050
O O3 0.634213 0.376297 0.907261
O O4 0.634850 0.242945 0.906848
O O5 0.523135 0.105039 0.251883
O O6 0.383544 0.116914 0.159719
O O7 0.443565 0.000000 0.166300
O O8 0.500000 0.094883 0.000000
O O9 0.872195 0.123219 0.437132
O O10 0.000000 0.068948 0.500000
O O11 0.902981 0.000000 0.358950
O O12 0.500000 0.398335 0.500000
O O13 0.594463 0.500000 0.469236
O O14 0.622530 0.398807 0.640219
O O15 0.625971 0.385450 0.366847
O O16 0.750000 0.182813 0.454888
O O17 0.851282 0.207456 0.647537
O O18 0.866826 0.254869 0.395279
O O19 0.750000 0.587686 0.753714
O O20 0.643571 0.500000 0.818027
O O21 0.250000 0.833594 0.171380
O O22 0.750000 0.674751 0.308031
#
# Coordination Sequence:
#
# PCOD8212418 Si02
#       8
#     8   8   8   8   8   8   8   8
#     4   9  19  35  55  81 111 141 179 229 275 321
#     4  10  22  39  57  81 112 146 185 229 277 335
#     4  10  20  37  58  81 112 145 181 229 280 329
#     4  10  21  37  56  81 113 146 182 226 274 323
#     4  10  21  36  57  84 112 145 186 232 280 331
#     4   9  17  33  58  82 106 142 184 222 265 322
#     4  10  20  36  57  80 110 147 185 230 280 332
#     4  10  21  37  57  82 111 143 182 228 275 324
#
# _framework density 18.685130000000001
#
# number of rings (size 3 to 8) (size 9 to 14) (size 15 to 20)
#    0.000    2.250    1.250    1.125    1.750    4.250 
#    2.250    3.125    0.000    4.500    0.000    0.000 
#    0.000    0.000    0.000    0.000    0.000    0.000 
#
# Total GULP energy -793646.923797 kJ/mol
# GULP energy per Si atom -12400.733184 kJ/mol
# Density = 1.864260 g / cm^3
# Si number density = 18.685130 Si / 1000 Ang^3
#
#
#
# Elastic Constant Matrix: (Units=GPa)
#
#
# Indices 1 2 3 4 5 6 
#
# 1 52.0517 42.2418 45.0768 0.0000 0.0000 0.0000
# 2 42.2418 95.6818 63.5382 0.0000 0.0000 0.0000
# 3 45.0768 63.5382 153.4736 0.0000 0.0000 0.0000
# 4 0.0000 0.0000 0.0000 34.0532 0.0000 0.0000
# 5 0.0000 0.0000 0.0000 0.0000 21.3121 0.0000
# 6 0.0000 0.0000 0.0000 0.0000 0.0000 26.9919
#
#
#
# Elastic Compliance Matrix: (Units=1/GPa)
#
#
# Indices 1 2 3 4 5 6 
#
# 1 0.032470 -0.011036 -0.004968 0.000000 0.000000 0.000000
# 2 -0.011036 0.018165 -0.004279 0.000000 0.000000 0.000000
# 3 -0.004968 -0.004279 0.009746 0.000000 0.000000 0.000000
# 4 0.000000 0.000000 0.000000 0.029366 0.000000 0.000000
# 5 0.000000 0.000000 0.000000 0.000000 0.046922 0.000000
# 6 0.000000 0.000000 0.000000 0.000000 0.000000 0.037048
#
#
# Mechanical properties :
#
#
# Convention : Reuss Voigt Hill
#
# Bulk Modulus (GPa) = 50.46490 66.99120 58.72805
# Shear Modulus (GPa) = 22.63593 26.49478 24.56535
#
# Velocity S-wave (km/s) = 3.48435 3.76967 3.62981
# Velocity P-wave (km/s) = 6.57680 7.40795 7.00471
#
# Compressibility (1/GPa) = 0.01981575
#
# Stress axis : x y z
#
# Youngs Moduli (GPa) = 30.79771 55.05106 102.60227
#
# Poissons Ratio (x) = 0.60754 0.50971
# Poissons Ratio (y) = 0.33988 0.43903
# Poissons Ratio (z) = 0.15300 0.23556
#
# Static dielectric constant tensor:
#      x y z
#    x 3.188750 0.000000 0.000000 
#    y 0.000000 3.534100 0.000000 
#    z 0.000000 0.000000 3.712200 
# 
# 
# High freq. dielectric constant tensor:
#      x y z
#    x 1.704160 0.000000 0.000000 
#    y 0.000000 1.729340 0.000000 
#    z 0.000000 0.000000 1.738040 
# 
# From -- ./inp_files/11223.got.cif
#   From: 2010.03.12/outbox.cif.g09.slc.cpg/sg51_6_cif.got.tgz:11223.got - 2010.04.16 13:43:02.
