data_PCOD8212725
_publ_section_title
;
Structure prediction by ZEFSAII (Michael W. Deem and Ramdas Pophale) SiO2 
 PCOD8212725
Probable space group: P M M A
;
_chemical_formula_sum "Si O2"
_cell_formula_units_Z 40
_cell_length_a 20.186940
_cell_length_b 9.160542
_cell_length_c 11.426988
_cell_angle_alpha 90.000000
_cell_angle_beta 90.000000
_cell_angle_gamma 90.000000
_cell_volume 2113.116464
_symmetry_space_group_name_H-M "P M M A"
_symmetry_group_IT_number 51
_symmetry_cell_setting 'orthorhombic'
loop_
_space_group_symop_operation_xyz
x,y,z
1/2-x,-y,z
1/2+x,-y,-z
-x,y,-z
-x,-y,-z
1/2+x,y,-z
1/2-x,y,z
x,-y,z
loop_
_atom_site_type_symbol
_atom_site_label
_atom_site_fract_x
_atom_site_fract_y
_atom_site_fract_z
Si Si1 0.494808 0.168844 0.635470
Si Si2 0.622474 0.673519 0.234606
Si Si3 0.750000 0.327734 0.632662
Si Si4 0.634572 0.165339 0.754449
Si Si5 0.750000 0.673125 0.372537
Si Si6 0.826830 0.168097 0.015456
O O1 0.500000 0.217704 0.500000
O O2 0.442000 0.267574 0.701261
O O3 0.562922 0.198108 0.702452
O O4 0.473436 0.000000 0.643315
O O5 0.618358 0.500000 0.228459
O O6 0.685441 0.731523 0.306764
O O7 0.630462 0.735305 0.104322
O O8 0.750000 0.500000 0.630162
O O9 0.684536 0.276634 0.696587
O O10 0.750000 0.261560 0.502425
O O11 0.656997 0.000000 0.725939
O O12 0.635908 0.191359 0.892949
O O13 0.750000 0.500000 0.374839
O O14 0.750000 0.219953 0.007365
O O15 0.829816 0.000000 0.054762
#
# Coordination Sequence:
#
# PCOD8212725 Si02
#       6
#     8   8   4   8   4   8
#     4  10  22  40  61  87 119 155 198 243 289 348
#     4  11  22  38  60  84 118 155 193 241 294 350
#     4  11  21  34  57  86 114 145 192 241 284 347
#     4  10  21  39  60  83 117 155 192 238 292 346
#     4   9  20  36  53  80 114 151 188 231 292 347
#     4  10  20  37  60  84 113 150 195 240 287 346
#
# _framework density 18.929386999999998
#
# number of rings (size 3 to 8) (size 9 to 14) (size 15 to 20)
#    0.000    1.800    2.000    2.100    0.000    2.800 
#    0.000    7.000    0.000    0.000    0.000    0.000 
#    0.000    0.000    0.000    0.000    0.000    0.000 
#
# Total GULP energy -496126.639643 kJ/mol
# GULP energy per Si atom -12403.165991 kJ/mol
# Density = 1.888630 g / cm^3
# Si number density = 18.929387 Si / 1000 Ang^3
#
#
#
# Elastic Constant Matrix: (Units=GPa)
#
#
# Indices 1 2 3 4 5 6 
#
# 1 121.0139 55.8687 80.9008 0.0000 0.0000 0.0000
# 2 55.8687 77.1311 63.3889 0.0000 0.0000 0.0000
# 3 80.9008 63.3889 153.5709 0.0000 0.0000 0.0000
# 4 0.0000 0.0000 0.0000 21.1850 0.0000 0.0000
# 5 0.0000 0.0000 0.0000 0.0000 42.3971 0.0000
# 6 0.0000 0.0000 0.0000 0.0000 0.0000 33.5033
#
#
#
# Elastic Compliance Matrix: (Units=1/GPa)
#
#
# Indices 1 2 3 4 5 6 
#
# 1 0.014602 -0.006439 -0.005034 0.000000 0.000000 0.000000
# 2 -0.006439 0.022460 -0.005879 0.000000 0.000000 0.000000
# 3 -0.005034 -0.005879 0.011590 0.000000 0.000000 0.000000
# 4 0.000000 0.000000 0.000000 0.047203 0.000000 0.000000
# 5 0.000000 0.000000 0.000000 0.000000 0.023587 0.000000
# 6 0.000000 0.000000 0.000000 0.000000 0.000000 0.029848
#
#
# Mechanical properties :
#
#
# Convention : Reuss Voigt Hill
#
# Bulk Modulus (GPa) = 71.69508 83.55919 77.62714
# Shear Modulus (GPa) = 26.50493 29.52092 28.01292
#
# Velocity S-wave (km/s) = 3.74598 3.95337 3.85107
# Velocity P-wave (km/s) = 7.52776 8.06705 7.80206
#
# Compressibility (1/GPa) = 0.01394796
#
# Stress axis : x y z
#
# Youngs Moduli (GPa) = 68.48406 44.52263 86.27926
#
# Poissons Ratio (x) = 0.28669 0.43436
# Poissons Ratio (y) = 0.44099 0.50721
# Poissons Ratio (z) = 0.34477 0.26174
#
# Static dielectric constant tensor:
#      x y z
#    x 3.381520 0.000000 0.000000 
#    y 0.000000 3.334740 0.000000 
#    z 0.000000 0.000000 3.658510 
# 
# 
# High freq. dielectric constant tensor:
#      x y z
#    x 1.738680 0.000000 0.000000 
#    y 0.000000 1.726250 0.000000 
#    z 0.000000 0.000000 1.752450 
# 
# From -- ./inp_files/17940.got.cif
#   From: 2010.03.12/outbox.cif.g09.slc.cpg/sg51_9_cif.got.tgz:17940.got - 2010.04.16 13:43:02.
