data_PCOD8212557
_publ_section_title
;
Structure prediction by ZEFSAII (Michael W. Deem and Ramdas Pophale) SiO2 
 PCOD8212557
Probable space group: P M M A
;
_chemical_formula_sum "Si O2"
_cell_formula_units_Z 40
_cell_length_a 22.679447
_cell_length_b 9.221502
_cell_length_c 9.987472
_cell_angle_alpha 90.000000
_cell_angle_beta 90.000000
_cell_angle_gamma 90.000000
_cell_volume 2088.765571
_symmetry_space_group_name_H-M "P M M A"
_symmetry_group_IT_number 51
_symmetry_cell_setting 'orthorhombic'
loop_
_space_group_symop_operation_xyz
x,y,z
1/2-x,-y,z
1/2+x,-y,-z
-x,y,-z
-x,-y,-z
1/2+x,y,-z
1/2-x,y,z
x,-y,z
loop_
_atom_site_type_symbol
_atom_site_label
_atom_site_fract_x
_atom_site_fract_y
_atom_site_fract_z
Si Si1 0.388242 0.328686 0.273172
Si Si2 0.683016 0.328492 0.987515
Si Si3 0.317540 0.835117 0.489852
Si Si4 0.000994 0.169503 0.654725
Si Si5 0.871577 0.833754 0.232689
O O1 0.395430 0.500000 0.279083
O O2 0.348730 0.278079 0.148300
O O3 0.357288 0.275515 0.408220
O O4 0.452460 0.257160 0.261079
O O5 0.750000 0.268662 0.986344
O O6 0.682789 0.500000 0.000520
O O7 0.646586 0.265874 0.110372
O O8 0.250000 0.808840 0.451727
O O9 0.326015 0.805566 0.646937
O O10 0.337515 0.000000 0.456774
O O11 0.063437 0.209657 0.718736
O O12 0.000000 0.218670 0.500000
O O13 0.986812 0.000000 0.666125
O O14 0.869441 0.000000 0.185479
#
# Coordination Sequence:
#
# PCOD8212557 Si02
#       5
#     8   8   8   8   8
#     4  11  23  38  59  86 119 157 198 241 288 347
#     4  10  23  42  59  81 120 162 195 236 291 348
#     4  10  20  36  59  86 115 150 196 246 295 346
#     4  10  20  39  63  86 119 154 191 243 297 347
#     4  10  21  38  62  88 114 150 195 244 292 345
#
# _framework density 19.150065999999999
#
# number of rings (size 3 to 8) (size 9 to 14) (size 15 to 20)
#    0.000    1.800    2.000    1.800    0.000    6.800 
#    0.000    4.000    0.000    0.000    0.000    0.000 
#    0.000    0.000    0.000    0.000    0.000    0.000 
#
# Total GULP energy -496187.958519 kJ/mol
# GULP energy per Si atom -12404.698963 kJ/mol
# Density = 1.910648 g / cm^3
# Si number density = 19.150066 Si / 1000 Ang^3
#
#
#
# Elastic Constant Matrix: (Units=GPa)
#
#
# Indices 1 2 3 4 5 6 
#
# 1 120.4508 40.8778 48.2181 0.0000 0.0000 0.0000
# 2 40.8778 42.6361 36.7411 0.0000 0.0000 0.0000
# 3 48.2181 36.7411 89.7780 0.0000 0.0000 0.0000
# 4 0.0000 0.0000 0.0000 36.0157 0.0000 0.0000
# 5 0.0000 0.0000 0.0000 0.0000 36.1539 0.0000
# 6 0.0000 0.0000 0.0000 0.0000 0.0000 34.4023
#
#
#
# Elastic Compliance Matrix: (Units=1/GPa)
#
#
# Indices 1 2 3 4 5 6 
#
# 1 0.012763 -0.009778 -0.002853 0.000000 0.000000 0.000000
# 2 -0.009778 0.043723 -0.012642 0.000000 0.000000 0.000000
# 3 -0.002853 -0.012642 0.017845 0.000000 0.000000 0.000000
# 4 0.000000 0.000000 0.000000 0.027766 0.000000 0.000000
# 5 0.000000 0.000000 0.000000 0.000000 0.027660 0.000000
# 6 0.000000 0.000000 0.000000 0.000000 0.000000 0.029068
#
#
# Mechanical properties :
#
#
# Convention : Reuss Voigt Hill
#
# Bulk Modulus (GPa) = 42.04397 56.05989 49.05193
# Shear Modulus (GPa) = 23.01008 29.78290 26.39649
#
# Velocity S-wave (km/s) = 3.47012 3.94793 3.71671
# Velocity P-wave (km/s) = 6.16914 7.07948 6.63993
#
# Compressibility (1/GPa) = 0.02378462
#
# Stress axis : x y z
#
# Youngs Moduli (GPa) = 78.35426 22.87143 56.03960
#
# Poissons Ratio (x) = 0.22363 0.15989
# Poissons Ratio (y) = 0.76612 0.70844
# Poissons Ratio (z) = 0.22355 0.28914
#
# Static dielectric constant tensor:
#      x y z
#    x 3.819580 0.000000 0.000000 
#    y 0.000000 3.369190 0.000000 
#    z 0.000000 0.000000 3.430060 
# 
# 
# High freq. dielectric constant tensor:
#      x y z
#    x 1.763250 0.000000 0.000000 
#    y 0.000000 1.735240 0.000000 
#    z 0.000000 0.000000 1.742860 
# 
# From -- ./inp_files/11409.got.cif
#   From: 2010.03.12/outbox.cif.g09.slc.cpg/sg51_6_cif.got.tgz:11409.got - 2010.04.16 13:43:02.
