data_PCOD8212377
_publ_section_title
;
Structure prediction by ZEFSAII (Michael W. Deem and Ramdas Pophale) SiO2 
 PCOD8212377
Probable space group: P M M A
;
_chemical_formula_sum "Si O2"
_cell_formula_units_Z 56
_cell_length_a 18.655902
_cell_length_b 14.126601
_cell_length_c 12.407677
_cell_angle_alpha 90.000000
_cell_angle_beta 90.000000
_cell_angle_gamma 90.000000
_cell_volume 3269.974831
_symmetry_space_group_name_H-M "P M M A"
_symmetry_group_IT_number 51
_symmetry_cell_setting 'orthorhombic'
loop_
_space_group_symop_operation_xyz
x,y,z
1/2-x,-y,z
1/2+x,-y,-z
-x,y,-z
-x,-y,-z
1/2+x,y,-z
1/2-x,y,z
x,-y,z
loop_
_atom_site_type_symbol
_atom_site_label
_atom_site_fract_x
_atom_site_fract_y
_atom_site_fract_z
Si Si1 0.166271 0.391990 0.847058
Si Si2 0.590901 0.774995 0.811807
Si Si3 0.167852 0.607400 0.094179
Si Si4 0.423896 0.221766 0.780430
Si Si5 0.929790 0.892056 0.436185
Si Si6 0.167652 0.107750 0.366945
Si Si7 0.415252 0.894156 0.985861
O O1 0.250000 0.368147 0.832248
O O2 0.151252 0.500000 0.810117
O O3 0.118577 0.321065 0.775627
O O4 0.142487 0.379197 0.971093
O O5 0.622705 0.670600 0.823912
O O6 0.506520 0.760678 0.805647
O O7 0.619386 0.824036 0.704689
O O8 0.617185 0.837079 0.913517
O O9 0.250000 0.637246 0.104144
O O10 0.156033 0.500000 0.131103
O O11 0.414055 0.171653 0.666610
O O12 0.391561 0.155903 0.874913
O O13 0.859968 0.884384 0.511010
O O14 0.000000 0.855652 0.500000
O O15 0.943346 0.000000 0.397728
O O16 0.250000 0.140235 0.363279
O O17 0.158680 0.000000 0.325420
O O18 0.383023 0.000000 0.985572
O O19 0.500000 0.898348 0.000000
#
# Coordination Sequence:
#
# PCOD8212377 Si02
#       7
#     8   8   8   8   8   8   8
#     4   9  19  36  55  76 106 143 182 224 273 330
#     4  11  19  31  52  80 111 139 170 221 272 321
#     4   9  18  33  52  74 106 146 180 214 264 324
#     4  11  20  32  55  81 106 139 181 222 272 322
#     4  10  20  36  56  77 106 145 186 225 264 311
#     4  10  21  36  55  79 106 143 188 225 261 313
#     4   9  18  29  44  74 111 142 169 204 258 322
#
# _framework density 17.125515
#
# number of rings (size 3 to 8) (size 9 to 14) (size 15 to 20)
#    0.000    2.143    2.857    2.143    0.000    2.286 
#    0.000    1.429    0.000    3.429    0.000    2.000 
#    0.000    0.000    0.000    0.000    0.000    0.000 
#
# Total GULP energy -694478.108262 kJ/mol
# GULP energy per Si atom -12401.394790 kJ/mol
# Density = 1.708654 g / cm^3
# Si number density = 17.125515 Si / 1000 Ang^3
#
#
#
# Elastic Constant Matrix: (Units=GPa)
#
#
# Indices 1 2 3 4 5 6 
#
# 1 66.7998 46.6078 26.0892 0.0000 0.0000 0.0000
# 2 46.6078 108.7877 52.0396 0.0000 0.0000 0.0000
# 3 26.0892 52.0396 88.0082 0.0000 0.0000 0.0000
# 4 0.0000 0.0000 0.0000 25.3739 0.0000 0.0000
# 5 0.0000 0.0000 0.0000 0.0000 22.4632 0.0000
# 6 0.0000 0.0000 0.0000 0.0000 0.0000 30.6835
#
#
#
# Elastic Compliance Matrix: (Units=1/GPa)
#
#
# Indices 1 2 3 4 5 6 
#
# 1 0.021458 -0.008576 -0.001290 0.000000 0.000000 0.000000
# 2 -0.008576 0.016245 -0.007064 0.000000 0.000000 0.000000
# 3 -0.001290 -0.007064 0.015922 0.000000 0.000000 0.000000
# 4 0.000000 0.000000 0.000000 0.039411 0.000000 0.000000
# 5 0.000000 0.000000 0.000000 0.000000 0.044517 0.000000
# 6 0.000000 0.000000 0.000000 0.000000 0.000000 0.032591
#
#
# Mechanical properties :
#
#
# Convention : Reuss Voigt Hill
#
# Bulk Modulus (GPa) = 50.59302 57.00764 53.80033
# Shear Modulus (GPa) = 23.74271 24.96140 24.35205
#
# Velocity S-wave (km/s) = 3.72747 3.82194 3.77500
# Velocity P-wave (km/s) = 6.93772 7.26888 7.10523
#
# Compressibility (1/GPa) = 0.01976557
#
# Stress axis : x y z
#
# Youngs Moduli (GPa) = 46.60356 61.55581 62.80726
#
# Poissons Ratio (x) = 0.52791 0.08101
# Poissons Ratio (y) = 0.39967 0.44365
# Poissons Ratio (z) = 0.06011 0.43481
#
# Static dielectric constant tensor:
#      x y z
#    x 3.061300 0.000000 0.000000 
#    y 0.000000 3.199670 0.000000 
#    z 0.000000 0.000000 3.027940 
# 
# 
# High freq. dielectric constant tensor:
#      x y z
#    x 1.652520 0.000000 0.000000 
#    y 0.000000 1.660250 0.000000 
#    z 0.000000 0.000000 1.644600 
# 
# From -- ./inp_files/18211.got.cif
#   From: 2010.03.12/outbox.cif.g09.slc.cpg/sg51_10_cif.got.tgz:18211.got - 2010.04.16 13:43:02.
