data_PCOD8212696
_publ_section_title
;
Structure prediction by ZEFSAII (Michael W. Deem and Ramdas Pophale) SiO2 
 PCOD8212696
Probable space group: P M M A
;
_chemical_formula_sum "Si O2"
_cell_formula_units_Z 64
_cell_length_a 18.287347
_cell_length_b 9.313480
_cell_length_c 19.836693
_cell_angle_alpha 90.000000
_cell_angle_beta 90.000000
_cell_angle_gamma 90.000000
_cell_volume 3378.562552
_symmetry_space_group_name_H-M "P M M A"
_symmetry_group_IT_number 51
_symmetry_cell_setting 'orthorhombic'
loop_
_space_group_symop_operation_xyz
x,y,z
1/2-x,-y,z
1/2+x,-y,-z
-x,y,-z
-x,-y,-z
1/2+x,y,-z
1/2-x,y,z
x,-y,z
loop_
_atom_site_type_symbol
_atom_site_label
_atom_site_fract_x
_atom_site_fract_y
_atom_site_fract_z
Si Si1 0.580556 0.666453 0.198075
Si Si2 0.070790 0.169816 0.413630
Si Si3 0.407647 0.830268 0.562930
Si Si4 0.414421 0.332218 0.174195
Si Si5 0.834987 0.832396 0.711361
Si Si6 0.166606 0.336266 0.673627
Si Si7 0.667466 0.164259 0.088631
Si Si8 0.926614 0.164063 0.961958
O O1 0.599328 0.500000 0.188403
O O2 0.494646 0.694941 0.204445
O O3 0.617636 0.726721 0.265848
O O4 0.612061 0.746818 0.133813
O O5 0.101743 0.223024 0.485790
O O6 0.119084 0.230959 0.352095
O O7 0.986461 0.218387 0.407456
O O8 0.075136 0.000000 0.413070
O O9 0.345189 0.755343 0.606425
O O10 0.398185 0.000000 0.567901
O O11 0.395409 0.500000 0.170216
O O12 0.356097 0.254331 0.221876
O O13 0.409464 0.267289 0.099917
O O14 0.750000 0.807846 0.695528
O O15 0.852308 0.000000 0.723391
O O16 0.250000 0.322017 0.696667
O O17 0.145066 0.500000 0.657953
O O18 0.750000 0.224019 0.094734
O O19 0.663720 0.000000 0.112695
O O20 0.642377 0.177577 0.011428
O O21 0.936748 0.000000 0.936563
O O22 0.000000 0.215373 0.000000
#
# Coordination Sequence:
#
# PCOD8212696 Si02
#       8
#     8   8   8   8   8   8   8   8
#     4  10  21  37  56  77 106 146 184 218 265 327
#     4   8  16  33  56  82 109 138 177 228 278 324
#     4   9  17  32  56  82 107 137 179 228 274 322
#     4  11  23  37  58  85 111 140 182 233 276 321
#     4  10  21  37  57  80 109 149 191 228 276 338
#     4  10  21  35  49  71 108 147 179 214 262 320
#     4  10  21  36  56  83 110 137 177 227 271 317
#     4  10  20  37  59  82 110 145 181 219 271 332
#
# _framework density 18.942965999999998
#
# number of rings (size 3 to 8) (size 9 to 14) (size 15 to 20)
#    0.000    2.250    1.250    2.250    0.000    4.000 
#    0.000    4.375    0.000    0.000    0.000    0.000 
#    0.000    0.000    0.000    0.000    0.000    0.000 
#
# Total GULP energy -793721.364784 kJ/mol
# GULP energy per Si atom -12401.896325 kJ/mol
# Density = 1.889985 g / cm^3
# Si number density = 18.942966 Si / 1000 Ang^3
#
#
#
# Elastic Constant Matrix: (Units=GPa)
#
#
# Indices 1 2 3 4 5 6 
#
# 1 64.9222 27.9287 31.1669 0.0000 0.0000 0.0000
# 2 27.9287 57.3445 42.8561 0.0000 0.0000 0.0000
# 3 31.1669 42.8561 111.1778 0.0000 0.0000 0.0000
# 4 0.0000 0.0000 0.0000 19.1220 0.0000 0.0000
# 5 0.0000 0.0000 0.0000 0.0000 28.4352 0.0000
# 6 0.0000 0.0000 0.0000 0.0000 0.0000 25.0082
#
#
#
# Elastic Compliance Matrix: (Units=1/GPa)
#
#
# Indices 1 2 3 4 5 6 
#
# 1 0.020008 -0.007800 -0.002602 0.000000 0.000000 0.000000
# 2 -0.007800 0.027536 -0.008428 0.000000 0.000000 0.000000
# 3 -0.002602 -0.008428 0.012973 0.000000 0.000000 0.000000
# 4 0.000000 0.000000 0.000000 0.052296 0.000000 0.000000
# 5 0.000000 0.000000 0.000000 0.000000 0.035168 0.000000
# 6 0.000000 0.000000 0.000000 0.000000 0.000000 0.039987
#
#
# Mechanical properties :
#
#
# Convention : Reuss Voigt Hill
#
# Bulk Modulus (GPa) = 43.75079 48.59422 46.17250
# Shear Modulus (GPa) = 21.43673 23.27926 22.35799
#
# Velocity S-wave (km/s) = 3.36764 3.50939 3.43925
# Velocity P-wave (km/s) = 6.18608 6.49074 6.34024
#
# Compressibility (1/GPa) = 0.02285673
#
# Stress axis : x y z
#
# Youngs Moduli (GPa) = 49.98105 36.31664 77.08445
#
# Poissons Ratio (x) = 0.28325 0.20059
# Poissons Ratio (y) = 0.38983 0.64965
# Poissons Ratio (z) = 0.13006 0.30607
#
# Static dielectric constant tensor:
#      x y z
#    x 3.495310 0.000000 0.000000 
#    y 0.000000 3.266710 0.000000 
#    z 0.000000 0.000000 3.549950 
# 
# 
# High freq. dielectric constant tensor:
#      x y z
#    x 1.737850 0.000000 0.000000 
#    y 0.000000 1.715020 0.000000 
#    z 0.000000 0.000000 1.742500 
# 
# From -- ./inp_files/33970.got.cif
#   From: 2010.03.12/outbox.cif.g09.slc.cpg/sg51_17_cif.got.tgz:33970.got - 2010.04.16 13:43:02.
