data_PCOD8213201
_publ_section_title
;
Structure prediction by ZEFSAII (Michael W. Deem and Ramdas Pophale) SiO2 
 PCOD8213201
Probable space group: P M M A
;
_chemical_formula_sum "Si O2"
_cell_formula_units_Z 48
_cell_length_a 9.063047
_cell_length_b 9.689985
_cell_length_c 31.440544
_cell_angle_alpha 90.000000
_cell_angle_beta 90.000000
_cell_angle_gamma 90.000000
_cell_volume 2761.133396
_symmetry_space_group_name_H-M "P M M A"
_symmetry_group_IT_number 51
_symmetry_cell_setting 'orthorhombic'
loop_
_space_group_symop_operation_xyz
x,y,z
1/2-x,-y,z
1/2+x,-y,-z
-x,y,-z
-x,-y,-z
1/2+x,y,-z
1/2-x,y,z
x,-y,z
loop_
_atom_site_type_symbol
_atom_site_label
_atom_site_fract_x
_atom_site_fract_y
_atom_site_fract_z
Si Si1 0.089023 0.836861 0.706461
Si Si2 0.573444 0.155127 0.202529
Si Si3 0.076898 0.340692 0.874321
Si Si4 0.416341 0.664367 0.041239
Si Si5 0.425246 0.159285 0.614128
Si Si6 0.577977 0.339704 0.543277
O O1 0.250000 0.766176 0.705784
O O2 0.008785 0.794547 0.751064
O O3 0.011867 0.799101 0.661437
O O4 0.109907 0.000000 0.707858
O O5 0.750000 0.159470 0.205117
O O6 0.514622 0.256452 0.165974
O O7 0.519631 0.000000 0.191938
O O8 0.250000 0.317583 0.880909
O O9 0.038744 0.500000 0.866191
O O10 0.997193 0.283061 0.916315
O O11 0.250000 0.721053 0.040977
O O12 0.419179 0.500000 0.039897
O O13 0.500000 0.724447 0.000000
O O14 0.250000 0.184898 0.611521
O O15 0.510519 0.254334 0.581586
O O16 0.461260 0.000000 0.603978
O O17 0.500000 0.291859 0.500000
O O18 0.750000 0.307117 0.538985
O O19 0.547421 0.500000 0.552316
#
# Coordination Sequence:
#
# PCOD8213201 Si02
#       6
#     8   8   8   8   8   8
#     4   7  11  22  41  65  91 117 146 180 216 255
#     4   8  13  23  41  63  87 117 149 177 209 253
#     4   9  16  25  39  62  89 111 136 176 218 251
#     4   9  16  26  41  60  82 109 140 173 212 258
#     4   9  17  30  50  75  99 122 152 192 234 273
#     4  10  21  36  52  69  92 124 159 192 229 276
#
# _framework density 17.384167000000001
#
# number of rings (size 3 to 8) (size 9 to 14) (size 15 to 20)
#    0.000    3.333    0.000    3.000    0.000    3.667 
#    0.000    0.833    0.000    5.000    0.000    4.667 
#    0.000    0.000    0.000    0.000    0.000    0.000 
#
# Total GULP energy -594675.945935 kJ/mol
# GULP energy per Si atom -12389.082207 kJ/mol
# Density = 1.734460 g / cm^3
# Si number density = 17.384167 Si / 1000 Ang^3
#
#
#
# Elastic Constant Matrix: (Units=GPa)
#
#
# Indices 1 2 3 4 5 6 
#
# 1 59.3293 29.1945 62.4850 0.0000 0.0000 0.0000
# 2 29.1945 49.0845 68.0738 0.0000 0.0000 0.0000
# 3 62.4850 68.0738 213.0979 0.0000 0.0000 0.0000
# 4 0.0000 0.0000 0.0000 30.4864 0.0000 0.0000
# 5 0.0000 0.0000 0.0000 0.0000 21.3073 0.0000
# 6 0.0000 0.0000 0.0000 0.0000 0.0000 15.4461
#
#
#
# Elastic Compliance Matrix: (Units=1/GPa)
#
#
# Indices 1 2 3 4 5 6 
#
# 1 0.026393 -0.008914 -0.004891 0.000000 0.000000 0.000000
# 2 -0.008914 0.039589 -0.010033 0.000000 0.000000 0.000000
# 3 -0.004891 -0.010033 0.009332 0.000000 0.000000 0.000000
# 4 0.000000 0.000000 0.000000 0.032802 0.000000 0.000000
# 5 0.000000 0.000000 0.000000 0.000000 0.046932 0.000000
# 6 0.000000 0.000000 0.000000 0.000000 0.000000 0.064741
#
#
# Mechanical properties :
#
#
# Convention : Reuss Voigt Hill
#
# Bulk Modulus (GPa) = 36.18313 71.22426 53.70369
# Shear Modulus (GPa) = 18.07146 24.23186 21.15166
#
# Velocity S-wave (km/s) = 3.22768 3.73755 3.49194
# Velocity P-wave (km/s) = 5.89488 7.72564 6.87150
#
# Compressibility (1/GPa) = 0.02763719
#
# Stress axis : x y z
#
# Youngs Moduli (GPa) = 37.88852 25.25922 107.15910
#
# Poissons Ratio (x) = 0.22517 0.52415
# Poissons Ratio (y) = 0.33776 1.07511
# Poissons Ratio (z) = 0.18533 0.25342
#
# Static dielectric constant tensor:
#      x y z
#    x 1.383020 0.000000 0.000000 
#    y 0.000000 2.907390 0.000000 
#    z 0.000000 0.000000 3.766750 
# 
# 
# High freq. dielectric constant tensor:
#      x y z
#    x 1.634060 0.000000 0.000000 
#    y 0.000000 1.629220 0.000000 
#    z 0.000000 0.000000 1.697530 
# 
# From -- ./inp_files/36145.got.cif
#   From: 2010.03.12/outbox.cif.g09.slc.cpg/sg51_19_cif.got.tgz:36145.got - 2010.04.16 13:43:02.
