data_PCOD8213213
_publ_section_title
;
Structure prediction by ZEFSAII (Michael W. Deem and Ramdas Pophale) SiO2 
 PCOD8213213
Probable space group: P M M A
;
_chemical_formula_sum "Si O2"
_cell_formula_units_Z 40
_cell_length_a 16.151908
_cell_length_b 9.008722
_cell_length_c 13.044832
_cell_angle_alpha 90.000000
_cell_angle_beta 90.000000
_cell_angle_gamma 90.000000
_cell_volume 1898.128053
_symmetry_space_group_name_H-M "P M M A"
_symmetry_group_IT_number 51
_symmetry_cell_setting 'orthorhombic'
loop_
_space_group_symop_operation_xyz
x,y,z
1/2-x,-y,z
1/2+x,-y,-z
-x,y,-z
-x,-y,-z
1/2+x,y,-z
1/2-x,y,z
x,-y,z
loop_
_atom_site_type_symbol
_atom_site_label
_atom_site_fract_x
_atom_site_fract_y
_atom_site_fract_z
Si Si1 0.250000 0.824640 0.204209
Si Si2 0.393248 0.174920 0.059893
Si Si3 0.250000 0.822537 0.434312
Si Si4 0.841248 0.331493 0.143510
Si Si5 0.009990 0.670110 0.217978
Si Si6 0.920177 0.323853 0.566764
O O1 0.170608 0.765848 0.144879
O O2 0.250000 0.763254 0.318227
O O3 0.250000 0.000000 0.204164
O O4 0.476326 0.245226 0.108456
O O5 0.404600 0.000000 0.055304
O O6 0.362734 0.226449 0.950612
O O7 0.336717 0.755447 0.478050
O O8 0.250000 0.000000 0.448262
O O9 0.750000 0.289848 0.187341
O O10 0.842099 0.500000 0.102635
O O11 0.910034 0.312951 0.233446
O O12 0.035230 0.500000 0.202871
O O13 0.058272 0.733231 0.317501
O O14 0.906289 0.500000 0.563218
O O15 0.000000 0.278262 0.500000
#
# Coordination Sequence:
#
# PCOD8213213 Si02
#       6
#     4   8   4   8   8   8
#     4   9  18  31  51  80 111 142 180 227 275 323
#     4  11  20  34  55  81 112 148 188 232 279 329
#     4  11  21  39  65  90 117 152 192 241 299 355
#     4  10  21  36  52  75 110 153 194 230 277 338
#     4  10  21  37  56  81 113 147 187 236 287 340
#     4  10  22  41  63  91 120 151 194 245 297 351
#
# _framework density 21.073395999999999
#
# number of rings (size 3 to 8) (size 9 to 14) (size 15 to 20)
#    0.000    1.800    3.000    1.500    0.000    3.600 
#    1.800    0.000    0.000    0.000    0.000    0.000 
#    0.000    0.000    0.000    0.000    0.000    0.000 
#
# Total GULP energy -495600.807087 kJ/mol
# GULP energy per Si atom -12390.020177 kJ/mol
# Density = 2.102543 g / cm^3
# Si number density = 21.073396 Si / 1000 Ang^3
#
#
#
# Elastic Constant Matrix: (Units=GPa)
#
#
# Indices 1 2 3 4 5 6 
#
# 1 156.8720 43.9484 15.9883 0.0000 0.0000 0.0000
# 2 43.9484 76.7230 18.3632 0.0000 0.0000 0.0000
# 3 15.9883 18.3632 29.3726 0.0000 0.0000 0.0000
# 4 0.0000 0.0000 0.0000 18.6040 0.0000 0.0000
# 5 0.0000 0.0000 0.0000 0.0000 46.5176 0.0000
# 6 0.0000 0.0000 0.0000 0.0000 0.0000 19.9461
#
#
#
# Elastic Compliance Matrix: (Units=1/GPa)
#
#
# Indices 1 2 3 4 5 6 
#
# 1 0.007663 -0.003988 -0.001678 0.000000 0.000000 0.000000
# 2 -0.003988 0.017403 -0.008709 0.000000 0.000000 0.000000
# 3 -0.001678 -0.008709 0.040404 0.000000 0.000000 0.000000
# 4 0.000000 0.000000 0.000000 0.053752 0.000000 0.000000
# 5 0.000000 0.000000 0.000000 0.000000 0.021497 0.000000
# 6 0.000000 0.000000 0.000000 0.000000 0.000000 0.050135
#
#
# Mechanical properties :
#
#
# Convention : Reuss Voigt Hill
#
# Bulk Modulus (GPa) = 27.23378 46.61861 36.92619
# Shear Modulus (GPa) = 21.56632 29.32471 25.44551
#
# Velocity S-wave (km/s) = 3.20252 3.73440 3.47864
# Velocity P-wave (km/s) = 5.16006 6.38470 5.80476
#
# Compressibility (1/GPa) = 0.03671911
#
# Stress axis : x y z
#
# Youngs Moduli (GPa) = 130.49983 57.46237 24.75031
#
# Poissons Ratio (x) = 0.22915 0.04153
# Poissons Ratio (y) = 0.52041 0.21555
# Poissons Ratio (z) = 0.21898 0.50045
#
# Static dielectric constant tensor:
#      x y z
#    x 4.375150 0.000000 0.000000 
#    y 0.000000 3.502480 0.000000 
#    z 0.000000 0.000000 3.624030 
# 
# 
# High freq. dielectric constant tensor:
#      x y z
#    x 1.856850 0.000000 0.000000 
#    y 0.000000 1.806040 0.000000 
#    z 0.000000 0.000000 1.795240 
# 
# From -- ./inp_files/23760.got.cif
#   From: 2010.03.12/outbox.cif.g09.slc.cpg/sg51_12_cif.got.tgz:23760.got - 2010.04.16 13:43:02.
