data_PCOD8213171
_publ_section_title
;
Structure prediction by ZEFSAII (Michael W. Deem and Ramdas Pophale) SiO2 
 PCOD8213171
Probable space group: P M M A
;
_chemical_formula_sum "Si O2"
_cell_formula_units_Z 48
_cell_length_a 20.342303
_cell_length_b 12.146690
_cell_length_c 10.939695
_cell_angle_alpha 90.000000
_cell_angle_beta 90.000000
_cell_angle_gamma 90.000000
_cell_volume 2703.107271
_symmetry_space_group_name_H-M "P M M A"
_symmetry_group_IT_number 51
_symmetry_cell_setting 'orthorhombic'
loop_
_space_group_symop_operation_xyz
x,y,z
1/2-x,-y,z
1/2+x,-y,-z
-x,y,-z
-x,-y,-z
1/2+x,y,-z
1/2-x,y,z
x,-y,z
loop_
_atom_site_type_symbol
_atom_site_label
_atom_site_fract_x
_atom_site_fract_y
_atom_site_fract_z
Si Si1 0.941283 0.000000 0.340223
Si Si2 0.175862 0.374719 0.447834
Si Si3 0.675304 0.815904 0.729872
Si Si4 0.409882 0.131747 0.061023
Si Si5 0.041295 0.199261 0.812864
Si Si6 0.594344 0.000000 0.601559
Si Si7 0.948062 0.628938 0.396276
O O1 0.921733 0.108570 0.267187
O O2 0.894835 0.000000 0.457421
O O3 0.017912 0.000000 0.370402
O O4 0.250000 0.357133 0.499148
O O5 0.163214 0.500000 0.408100
O O6 0.165195 0.306401 0.323268
O O7 0.124855 0.341786 0.554614
O O8 0.750000 0.855490 0.715817
O O9 0.656297 0.825953 0.873050
O O10 0.627828 0.892648 0.653582
O O11 0.468475 0.157937 0.155032
O O12 0.409266 0.000000 0.033537
O O13 0.417585 0.205776 0.939237
O O14 0.039597 0.311521 0.734002
O O15 0.956933 0.500000 0.370047
O O16 0.000000 0.668653 0.500000
#
# Coordination Sequence:
#
# PCOD8213171 Si02
#       7
#     4   8   8   8   8   4   8
#     4  11  20  30  52  78 107 136 171 224 260 315
#     4   9  19  36  56  77 103 138 175 213 263 322
#     4  11  20  34  54  76 105 138 178 221 266 319
#     4  11  20  35  52  74 104 145 182 213 264 308
#     4  11  19  34  53  76 105 135 181 219 254 314
#     4  11  21  29  49  83 107 130 173 218 277 312
#     4  10  21  35  55  82 111 138 169 218 279 324
#
# _framework density 17.757341
#
# number of rings (size 3 to 8) (size 9 to 14) (size 15 to 20)
#    0.000    1.500    4.167    2.750    2.333    0.000 
#    0.000    3.333    0.000    2.000    0.000    0.000 
#    0.000    0.000    0.000    0.000    0.000    0.000 
#
# Total GULP energy -595006.639249 kJ/mol
# GULP energy per Si atom -12395.971651 kJ/mol
# Density = 1.771692 g / cm^3
# Si number density = 17.757341 Si / 1000 Ang^3
#
#
#
# Elastic Constant Matrix: (Units=GPa)
#
#
# Indices 1 2 3 4 5 6 
#
# 1 71.7648 25.3369 35.9873 0.0000 0.0000 0.0000
# 2 25.3369 80.5640 48.1336 0.0000 0.0000 0.0000
# 3 35.9873 48.1336 127.3046 0.0000 0.0000 0.0000
# 4 0.0000 0.0000 0.0000 35.7873 0.0000 0.0000
# 5 0.0000 0.0000 0.0000 0.0000 22.5129 0.0000
# 6 0.0000 0.0000 0.0000 0.0000 0.0000 34.2663
#
#
#
# Elastic Compliance Matrix: (Units=1/GPa)
#
#
# Indices 1 2 3 4 5 6 
#
# 1 0.016839 -0.003167 -0.003563 0.000000 0.000000 0.000000
# 2 -0.003167 0.016630 -0.005393 0.000000 0.000000 0.000000
# 3 -0.003563 -0.005393 0.010901 0.000000 0.000000 0.000000
# 4 0.000000 0.000000 0.000000 0.027943 0.000000 0.000000
# 5 0.000000 0.000000 0.000000 0.000000 0.044419 0.000000
# 6 0.000000 0.000000 0.000000 0.000000 0.000000 0.029183
#
#
# Mechanical properties :
#
#
# Convention : Reuss Voigt Hill
#
# Bulk Modulus (GPa) = 49.68755 55.39433 52.54094
# Shear Modulus (GPa) = 28.26944 29.85835 29.06390
#
# Velocity S-wave (km/s) = 3.99430 4.10502 4.05004
# Velocity P-wave (km/s) = 7.02244 7.33015 7.17795
#
# Compressibility (1/GPa) = 0.02012576
#
# Stress axis : x y z
#
# Youngs Moduli (GPa) = 59.38531 60.13072 91.73291
#
# Poissons Ratio (x) = 0.19045 0.32681
# Poissons Ratio (y) = 0.18809 0.49468
# Poissons Ratio (z) = 0.21157 0.32426
#
# Static dielectric constant tensor:
#      x y z
#    x 3.380490 0.000000 0.000000 
#    y 0.000000 3.525160 0.000000 
#    z 0.000000 0.000000 3.444200 
# 
# 
# High freq. dielectric constant tensor:
#      x y z
#    x 1.678230 0.000000 0.000000 
#    y 0.000000 1.683900 0.000000 
#    z 0.000000 0.000000 1.681700 
# 
# From -- ./inp_files/18166.got.cif
#   From: 2010.03.12/outbox.cif.g09.slc.cpg/sg51_10_cif.got.tgz:18166.got - 2010.04.16 13:43:02.
