data_PCOD8213700
_publ_section_title
;
Structure prediction by ZEFSAII (Michael W. Deem and Ramdas Pophale) SiO2 
 PCOD8213700
Probable space group: P M M A
;
_chemical_formula_sum "Si O2"
_cell_formula_units_Z 56
_cell_length_a 15.060379
_cell_length_b 14.173335
_cell_length_c 12.574382
_cell_angle_alpha 90.000000
_cell_angle_beta 90.000000
_cell_angle_gamma 90.000000
_cell_volume 2684.074729
_symmetry_space_group_name_H-M "P M M A"
_symmetry_group_IT_number 51
_symmetry_cell_setting 'orthorhombic'
loop_
_space_group_symop_operation_xyz
x,y,z
1/2-x,-y,z
1/2+x,-y,-z
-x,y,-z
-x,-y,-z
1/2+x,y,-z
1/2-x,y,z
x,-y,z
loop_
_atom_site_type_symbol
_atom_site_label
_atom_site_fract_x
_atom_site_fract_y
_atom_site_fract_z
Si Si1 0.580889 0.601687 0.420637
Si Si2 0.146184 0.893963 0.743008
Si Si3 0.899373 0.200954 0.470265
Si Si4 0.647464 0.257373 0.842687
Si Si5 0.351473 0.257877 0.914759
Si Si6 0.011004 0.391702 0.815024
Si Si7 0.350506 0.103571 0.318726
O O1 0.500000 0.590818 0.500000
O O2 0.633157 0.500000 0.421695
O O3 0.641714 0.692935 0.451768
O O4 0.543850 0.622681 0.304082
O O5 0.250000 0.887656 0.720487
O O6 0.098698 0.860548 0.635978
O O7 0.118362 0.829608 0.842130
O O8 0.115951 0.000000 0.769635
O O9 0.849030 0.146583 0.563029
O O10 0.000000 0.218372 0.500000
O O11 0.750000 0.281641 0.812580
O O12 0.587702 0.349385 0.825345
O O13 0.606636 0.174652 0.767334
O O14 0.640442 0.223136 0.964122
O O15 0.250000 0.289482 0.889340
O O16 0.418125 0.344156 0.894679
O O17 0.004452 0.500000 0.848684
O O18 0.250000 0.089051 0.282865
O O19 0.397984 0.000000 0.317660
#
# Coordination Sequence:
#
# PCOD8213700 Si02
#       7
#     8   8   8   8   8   8   8
#     4   9  18  33  56  84 115 156 198 238 292 353
#     4  10  21  37  57  82 115 156 197 241 296 354
#     4  11  20  34  57  85 119 152 190 246 296 350
#     4  10  22  40  61  87 120 156 198 248 297 350
#     4  10  22  40  60  86 120 156 199 248 295 353
#     4  11  22  40  64  89 121 158 198 247 301 355
#     4  10  22  39  59  84 116 157 200 243 297 356
#
# _framework density 20.863800999999999
#
# number of rings (size 3 to 8) (size 9 to 14) (size 15 to 20)
#    0.000    1.857    1.429    3.000    0.000    4.571 
#    0.000    4.286    0.000    4.286    0.000    4.000 
#    0.000    0.000    0.000    0.000    0.000    0.000 
#
# Total GULP energy -694181.004436 kJ/mol
# GULP energy per Si atom -12396.089365 kJ/mol
# Density = 2.081631 g / cm^3
# Si number density = 20.863801 Si / 1000 Ang^3
#
#
#
# Elastic Constant Matrix: (Units=GPa)
#
#
# Indices 1 2 3 4 5 6 
#
# 1 53.6854 49.1846 15.1272 0.0000 0.0000 0.0000
# 2 49.1846 199.5047 69.1026 0.0000 0.0000 0.0000
# 3 15.1272 69.1026 122.2921 0.0000 0.0000 0.0000
# 4 0.0000 0.0000 0.0000 21.1435 0.0000 0.0000
# 5 0.0000 0.0000 0.0000 0.0000 22.3968 0.0000
# 6 0.0000 0.0000 0.0000 0.0000 0.0000 25.5131
#
#
#
# Elastic Compliance Matrix: (Units=1/GPa)
#
#
# Indices 1 2 3 4 5 6 
#
# 1 0.024083 -0.006099 0.000467 0.000000 0.000000 0.000000
# 2 -0.006099 0.007777 -0.003640 0.000000 0.000000 0.000000
# 3 0.000467 -0.003640 0.010176 0.000000 0.000000 0.000000
# 4 0.000000 0.000000 0.000000 0.047296 0.000000 0.000000
# 5 0.000000 0.000000 0.000000 0.000000 0.044649 0.000000
# 6 0.000000 0.000000 0.000000 0.000000 0.000000 0.039196
#
#
# Mechanical properties :
#
#
# Convention : Reuss Voigt Hill
#
# Bulk Modulus (GPa) = 42.56644 71.36789 56.96716
# Shear Modulus (GPa) = 25.05623 29.94854 27.50239
#
# Velocity S-wave (km/s) = 3.46922 3.79282 3.63462
# Velocity P-wave (km/s) = 6.04100 7.31173 6.70653
#
# Compressibility (1/GPa) = 0.02349269
#
# Stress axis : x y z
#
# Youngs Moduli (GPa) = 41.52268 128.58681 98.26926
#
# Poissons Ratio (x) = 0.78428 -0.04593
# Poissons Ratio (y) = 0.25326 0.35769
# Poissons Ratio (z) = -0.01941 0.46805
#
# Static dielectric constant tensor:
#      x y z
#    x 3.621480 0.000000 0.000000 
#    y 0.000000 4.297480 0.000000 
#    z 0.000000 0.000000 4.423000 
# 
# 
# High freq. dielectric constant tensor:
#      x y z
#    x 1.793350 0.000000 0.000000 
#    y 0.000000 1.827520 0.000000 
#    z 0.000000 0.000000 1.827750 
# 
# From -- ./inp_files/16567.got.cif
#   From: 2010.03.12/outbox.cif.g09.slc.cpg/sg51_9_cif.got.tgz:16567.got - 2010.04.16 13:43:02.
