data_PCOD8213195
_publ_section_title
;
Structure prediction by ZEFSAII (Michael W. Deem and Ramdas Pophale) SiO2 
 PCOD8213195
Probable space group: P M M A
;
_chemical_formula_sum "Si O2"
_cell_formula_units_Z 56
_cell_length_a 15.739028
_cell_length_b 8.998415
_cell_length_c 19.733380
_cell_angle_alpha 90.000000
_cell_angle_beta 90.000000
_cell_angle_gamma 90.000000
_cell_volume 2794.765707
_symmetry_space_group_name_H-M "P M M A"
_symmetry_group_IT_number 51
_symmetry_cell_setting 'orthorhombic'
loop_
_space_group_symop_operation_xyz
x,y,z
1/2-x,-y,z
1/2+x,-y,-z
-x,y,-z
-x,-y,-z
1/2+x,y,-z
1/2-x,y,z
x,-y,z
loop_
_atom_site_type_symbol
_atom_site_label
_atom_site_fract_x
_atom_site_fract_y
_atom_site_fract_z
Si Si1 0.102647 0.330627 0.708092
Si Si2 0.350646 0.330692 0.440104
Si Si3 0.005223 0.675757 0.922068
Si Si4 0.093094 0.669069 0.298355
Si Si5 0.343285 0.322874 0.159442
Si Si6 0.850734 0.833088 0.426995
Si Si7 0.346002 0.828026 0.840015
O O1 0.135212 0.500000 0.709962
O O2 0.117211 0.266899 0.634005
O O3 0.152366 0.237337 0.764241
O O4 0.003724 0.320779 0.725005
O O5 0.250000 0.322935 0.435767
O O6 0.382256 0.500000 0.449959
O O7 0.388403 0.255411 0.371201
O O8 0.385962 0.236016 0.503132
O O9 0.013495 0.500000 0.912491
O O10 0.089024 0.746221 0.889637
O O11 0.918611 0.738727 0.888129
O O12 0.000000 0.722431 0.000000
O O13 0.123174 0.500000 0.308173
O O14 0.145793 0.740434 0.236076
O O15 0.250000 0.272998 0.132321
O O16 0.350207 0.500000 0.161173
O O17 0.750000 0.832160 0.427524
O O18 0.886106 0.000000 0.419241
O O19 0.250000 0.807260 0.868076
O O20 0.371233 0.000000 0.836071
#
# Coordination Sequence:
#
# PCOD8213195 Si02
#       7
#     8   8   8   8   8   8   8
#     4  11  21  35  57  83 111 144 190 247 298 345
#     4   9  17  31  52  76 101 136 185 235 282 338
#     4  10  21  38  62  94 127 156 193 241 289 342
#     4   9  17  30  51  80 109 139 182 239 293 340
#     4   9  16  30  55  86 118 151 189 235 289 344
#     4  10  21  36  51  71 105 146 186 232 289 351
#     4  11  24  41  61  86 119 162 205 243 292 352
#
# _framework density 20.037457
#
# number of rings (size 3 to 8) (size 9 to 14) (size 15 to 20)
#    0.000    2.143    1.429    2.143    0.000    6.857 
#    0.000    5.714    0.000    0.429    0.000    0.000 
#    0.000    0.000    0.000    0.000    0.000    0.000 
#
# Total GULP energy -694296.138221 kJ/mol
# GULP energy per Si atom -12398.145325 kJ/mol
# Density = 1.999185 g / cm^3
# Si number density = 20.037457 Si / 1000 Ang^3
#
#
#
# Elastic Constant Matrix: (Units=GPa)
#
#
# Indices 1 2 3 4 5 6 
#
# 1 94.7635 28.7260 60.0096 0.0000 0.0000 0.0000
# 2 28.7260 60.8182 38.8834 0.0000 0.0000 0.0000
# 3 60.0096 38.8834 149.2256 0.0000 0.0000 0.0000
# 4 0.0000 0.0000 0.0000 7.2386 0.0000 0.0000
# 5 0.0000 0.0000 0.0000 0.0000 28.2974 0.0000
# 6 0.0000 0.0000 0.0000 0.0000 0.0000 19.1019
#
#
#
# Elastic Compliance Matrix: (Units=1/GPa)
#
#
# Indices 1 2 3 4 5 6 
#
# 1 0.014870 -0.003840 -0.004979 0.000000 0.000000 0.000000
# 2 -0.003840 0.020721 -0.003855 0.000000 0.000000 0.000000
# 3 -0.004979 -0.003855 0.009708 0.000000 0.000000 0.000000
# 4 0.000000 0.000000 0.000000 0.138147 0.000000 0.000000
# 5 0.000000 0.000000 0.000000 0.000000 0.035339 0.000000
# 6 0.000000 0.000000 0.000000 0.000000 0.000000 0.052351
#
#
# Mechanical properties :
#
#
# Convention : Reuss Voigt Hill
#
# Bulk Modulus (GPa) = 50.12437 62.22728 56.17582
# Shear Modulus (GPa) = 16.49436 22.74014 19.61725
#
# Velocity S-wave (km/s) = 2.87222 3.37245 3.13234
# Velocity P-wave (km/s) = 6.00576 6.80349 6.41703
#
# Compressibility (1/GPa) = 0.01995038
#
# Stress axis : x y z
#
# Youngs Moduli (GPa) = 67.25096 48.26067 103.00741
#
# Poissons Ratio (x) = 0.18532 0.51289
# Poissons Ratio (y) = 0.25824 0.39709
# Poissons Ratio (z) = 0.33485 0.18604
#
# Static dielectric constant tensor:
#      x y z
#    x 3.669620 0.000000 0.000000 
#    y 0.000000 3.457930 0.000000 
#    z 0.000000 0.000000 3.787800 
# 
# 
# High freq. dielectric constant tensor:
#      x y z
#    x 1.785610 0.000000 0.000000 
#    y 0.000000 1.744140 0.000000 
#    z 0.000000 0.000000 1.790650 
# 
# From -- ./inp_files/33425.got.cif
#   From: 2010.03.12/outbox.cif.g09.slc.cpg/sg51_17_cif.got.tgz:33425.got - 2010.04.16 13:43:02.
