data_PCOD8213614
_publ_section_title
;
Structure prediction by ZEFSAII (Michael W. Deem and Ramdas Pophale) SiO2 
 PCOD8213614
Probable space group: P M M A
;
_chemical_formula_sum "Si O2"
_cell_formula_units_Z 56
_cell_length_a 8.820800
_cell_length_b 15.960845
_cell_length_c 19.514712
_cell_angle_alpha 90.000000
_cell_angle_beta 90.000000
_cell_angle_gamma 90.000000
_cell_volume 2747.425985
_symmetry_space_group_name_H-M "P M M A"
_symmetry_group_IT_number 51
_symmetry_cell_setting 'orthorhombic'
loop_
_space_group_symop_operation_xyz
x,y,z
1/2-x,-y,z
1/2+x,-y,-z
-x,y,-z
-x,-y,-z
1/2+x,y,-z
1/2-x,y,z
x,-y,z
loop_
_atom_site_type_symbol
_atom_site_label
_atom_site_fract_x
_atom_site_fract_y
_atom_site_fract_z
Si Si1 0.427789 0.336738 0.295795
Si Si2 0.069512 0.746837 0.925602
Si Si3 0.927922 0.596326 0.430116
Si Si4 0.925339 0.593609 0.167886
Si Si5 0.426227 0.165156 0.704519
Si Si6 0.926751 0.908967 0.153393
Si Si7 0.578794 0.099309 0.568820
O O1 0.250000 0.344983 0.304839
O O2 0.505786 0.350717 0.368467
O O3 0.483346 0.402362 0.238967
O O4 0.477003 0.244912 0.271912
O O5 0.250000 0.748680 0.930028
O O6 0.014888 0.663725 0.885005
O O7 0.003237 0.830668 0.888705
O O8 0.000000 0.741455 0.000000
O O9 0.750000 0.609285 0.433783
O O10 0.973961 0.500000 0.419061
O O11 0.000000 0.631155 0.500000
O O12 0.750000 0.610156 0.185187
O O13 0.949381 0.500000 0.137014
O O14 0.250000 0.189746 0.698503
O O15 0.453928 0.098903 0.765173
O O16 0.481479 0.127976 0.633236
O O17 0.750000 0.909023 0.137296
O O18 0.995946 0.000000 0.131014
O O19 0.500000 0.134581 0.500000
O O20 0.750000 0.135022 0.573775
O O21 0.581714 0.000000 0.566847
#
# Coordination Sequence:
#
# PCOD8213614 Si02
#       7
#     8   8   8   8   8   8   8
#     4  12  24  37  57  86 120 154 197 250 306 360
#     4  10  21  39  61  90 125 159 197 241 293 353
#     4  10  21  38  59  83 114 153 198 248 302 359
#     4  10  21  40  64  88 118 160 205 247 296 356
#     4  11  21  37  60  84 114 154 203 251 303 360
#     4   9  18  35  61  89 118 155 199 243 293 355
#     4  10  21  37  56  82 117 155 199 252 308 365
#
# _framework density 20.382714
#
# number of rings (size 3 to 8) (size 9 to 14) (size 15 to 20)
#    0.000    1.714    1.429    3.429    0.000    6.000 
#    0.000    2.857    0.000    1.714    0.000    0.000 
#    0.000    0.000    0.000    0.000    0.000    0.000 
#
# Total GULP energy -694434.955906 kJ/mol
# GULP energy per Si atom -12400.624213 kJ/mol
# Density = 2.033632 g / cm^3
# Si number density = 20.382714 Si / 1000 Ang^3
#
#
#
# Elastic Constant Matrix: (Units=GPa)
#
#
# Indices 1 2 3 4 5 6 
#
# 1 52.7072 20.5663 31.9651 0.0000 0.0000 0.0000
# 2 20.5663 120.3780 55.3313 0.0000 0.0000 0.0000
# 3 31.9651 55.3313 138.9621 0.0000 0.0000 0.0000
# 4 0.0000 0.0000 0.0000 27.9081 0.0000 0.0000
# 5 0.0000 0.0000 0.0000 0.0000 36.5601 0.0000
# 6 0.0000 0.0000 0.0000 0.0000 0.0000 18.2366
#
#
#
# Elastic Compliance Matrix: (Units=1/GPa)
#
#
# Indices 1 2 3 4 5 6 
#
# 1 0.022357 -0.001782 -0.004433 0.000000 0.000000 0.000000
# 2 -0.001782 0.010310 -0.003695 0.000000 0.000000 0.000000
# 3 -0.004433 -0.003695 0.009687 0.000000 0.000000 0.000000
# 4 0.000000 0.000000 0.000000 0.035832 0.000000 0.000000
# 5 0.000000 0.000000 0.000000 0.000000 0.027352 0.000000
# 6 0.000000 0.000000 0.000000 0.000000 0.000000 0.054835
#
#
# Mechanical properties :
#
#
# Convention : Reuss Voigt Hill
#
# Bulk Modulus (GPa) = 44.37873 58.64141 51.51007
# Shear Modulus (GPa) = 26.63754 30.15326 28.39540
#
# Velocity S-wave (km/s) = 3.61899 3.85041 3.73649
# Velocity P-wave (km/s) = 6.26759 6.97138 6.62884
#
# Compressibility (1/GPa) = 0.02253332
#
# Stress axis : x y z
#
# Youngs Moduli (GPa) = 44.72954 96.99164 103.22745
#
# Poissons Ratio (x) = 0.17283 0.45762
# Poissons Ratio (y) = 0.07970 0.38146
# Poissons Ratio (z) = 0.19829 0.35842
#
# Static dielectric constant tensor:
#      x y z
#    x 3.523950 0.000000 0.000000 
#    y 0.000000 3.940100 0.000000 
#    z 0.000000 0.000000 3.706220 
# 
# 
# High freq. dielectric constant tensor:
#      x y z
#    x 1.780760 0.000000 0.000000 
#    y 0.000000 1.804410 0.000000 
#    z 0.000000 0.000000 1.797450 
# 
# From -- ./inp_files/31942.got.cif
#   From: 2010.03.12/outbox.cif.g09.slc.cpg/sg51_16_cif.got.tgz:31942.got - 2010.04.16 13:43:02.
