data_PCOD8213864
_publ_section_title
;
Structure prediction by ZEFSAII (Michael W. Deem and Ramdas Pophale) SiO2 
 PCOD8213864
Probable space group: P M M A
;
_chemical_formula_sum "Si O2"
_cell_formula_units_Z 56
_cell_length_a 8.684363
_cell_length_b 14.134417
_cell_length_c 25.550095
_cell_angle_alpha 90.000000
_cell_angle_beta 90.000000
_cell_angle_gamma 90.000000
_cell_volume 3136.233486
_symmetry_space_group_name_H-M "P M M A"
_symmetry_group_IT_number 51
_symmetry_cell_setting 'orthorhombic'
loop_
_space_group_symop_operation_xyz
x,y,z
1/2-x,-y,z
1/2+x,-y,-z
-x,y,-z
-x,-y,-z
1/2+x,y,-z
1/2-x,y,z
x,-y,z
loop_
_atom_site_type_symbol
_atom_site_label
_atom_site_fract_x
_atom_site_fract_y
_atom_site_fract_z
Si Si1 0.568976 0.893175 0.945980
Si Si2 0.428482 0.788031 0.849634
Si Si3 0.927784 0.393177 0.809927
Si Si4 0.071526 0.110515 0.248202
Si Si5 0.071298 0.109784 0.443980
Si Si6 0.428067 0.606905 0.312131
Si Si7 0.070567 0.790450 0.653218
O O1 0.750000 0.891634 0.951012
O O2 0.520690 0.827060 0.898668
O O3 0.508671 0.000000 0.935594
O O4 0.500000 0.853226 0.000000
O O5 0.250000 0.800759 0.860908
O O6 0.467775 0.677410 0.843443
O O7 0.471726 0.844405 0.797546
O O8 0.750000 0.375853 0.823852
O O9 0.976491 0.500000 0.824219
O O10 0.955744 0.373346 0.748936
O O11 0.250000 0.131437 0.236623
O O12 0.028361 0.155153 0.303528
O O13 0.036220 0.000000 0.250598
O O14 0.250000 0.138748 0.443232
O O15 0.000000 0.132963 0.500000
O O16 0.976168 0.171434 0.403160
O O17 0.050189 0.000000 0.429645
O O18 0.250000 0.623069 0.326329
O O19 0.477703 0.500000 0.326380
O O20 0.533026 0.678682 0.345032
O O21 0.250000 0.807799 0.663364
#
# Coordination Sequence:
#
# PCOD8213864 Si02
#       7
#     8   8   8   8   8   8   8
#     4  10  21  38  59  81 107 143 186 229 270 317
#     4  12  23  34  53  82 113 144 178 222 273 327
#     4   9  18  34  56  79 106 143 184 224 268 322
#     4  11  23  37  52  73 106 147 185 222 268 321
#     4  10  21  38  59  81 107 143 186 229 270 317
#     4   9  18  34  56  79 106 143 184 224 268 322
#     4  12  23  34  53  82 113 144 178 222 273 327
#
# _framework density 17.855813000000001
#
# number of rings (size 3 to 8) (size 9 to 14) (size 15 to 20)
#    0.000    1.571    1.429    5.571    0.000    6.857 
#    0.000    1.429    0.000    0.857    0.000    0.000 
#    0.000    0.000    0.000    0.000    0.000    0.000 
#
# Total GULP energy -694651.055932 kJ/mol
# GULP energy per Si atom -12404.483142 kJ/mol
# Density = 1.781517 g / cm^3
# Si number density = 17.855813 Si / 1000 Ang^3
#
#
#
# Elastic Constant Matrix: (Units=GPa)
#
#
# Indices 1 2 3 4 5 6 
#
# 1 62.1756 30.3157 14.6914 0.0000 0.0000 0.0000
# 2 30.3157 97.4669 42.3807 0.0000 0.0000 0.0000
# 3 14.6914 42.3807 83.4678 0.0000 0.0000 0.0000
# 4 0.0000 0.0000 0.0000 -4.4354 0.0000 0.0000
# 5 0.0000 0.0000 0.0000 0.0000 31.0489 0.0000
# 6 0.0000 0.0000 0.0000 0.0000 0.0000 24.1719
#
#
#
# Elastic Compliance Matrix: (Units=1/GPa)
#
#
# Indices 1 2 3 4 5 6 
#
# 1 0.018971 -0.005709 -0.000440 0.000000 0.000000 0.000000
# 2 -0.005709 0.014885 -0.006553 0.000000 0.000000 0.000000
# 3 -0.000440 -0.006553 0.015385 0.000000 0.000000 0.000000
# 4 0.000000 0.000000 0.000000 -0.225460 0.000000 0.000000
# 5 0.000000 0.000000 0.000000 0.000000 0.032207 0.000000
# 6 0.000000 0.000000 0.000000 0.000000 0.000000 0.041370
#
#
# Mechanical properties :
#
#
# Convention : Reuss Voigt Hill
#
# Bulk Modulus (GPa) = 41.95222 46.43175 44.19198
# Shear Modulus (GPa) = -72.16085 20.53858 -25.81113
#
# Velocity S-wave (km/s) = -6.36403 3.39521 -3.80614
# Velocity P-wave (km/s) = 5.51861 6.43662 2.34254
#
# Compressibility (1/GPa) = 0.02383664
#
# Stress axis : x y z
#
# Youngs Moduli (GPa) = 52.71135 67.18146 64.99652
#
# Poissons Ratio (x) = 0.38356 0.02862
# Poissons Ratio (y) = 0.30094 0.42592
# Poissons Ratio (z) = 0.02321 0.44024
#
# Static dielectric constant tensor:
#      x y z
#    x 3.361000 0.000000 0.000000 
#    y 0.000000 3.436540 0.000000 
#    z 0.000000 0.000000 3.258190 
# 
# 
# High freq. dielectric constant tensor:
#      x y z
#    x 1.698560 0.000000 0.000000 
#    y 0.000000 1.694590 0.000000 
#    z 0.000000 0.000000 1.674800 
# 
# From -- ./inp_files/31987.got.cif
#   From: 2010.03.12/outbox.cif.g09.slc.cpg/sg51_16_cif.got.tgz:31987.got - 2010.04.16 13:43:02.
