data_PCOD8213372
_publ_section_title
;
Structure prediction by ZEFSAII (Michael W. Deem and Ramdas Pophale) SiO2 
 PCOD8213372
Probable space group: P M M A
;
_chemical_formula_sum "Si O2"
_cell_formula_units_Z 64
_cell_length_a 9.054132
_cell_length_b 14.973816
_cell_length_c 23.577162
_cell_angle_alpha 90.000000
_cell_angle_beta 90.000000
_cell_angle_gamma 90.000000
_cell_volume 3196.471536
_symmetry_space_group_name_H-M "P M M A"
_symmetry_group_IT_number 51
_symmetry_cell_setting 'orthorhombic'
loop_
_space_group_symop_operation_xyz
x,y,z
1/2-x,-y,z
1/2+x,-y,-z
-x,y,-z
-x,-y,-z
1/2+x,y,-z
1/2-x,y,z
x,-y,z
loop_
_atom_site_type_symbol
_atom_site_label
_atom_site_fract_x
_atom_site_fract_y
_atom_site_fract_z
Si Si1 0.920890 0.102118 0.055390
Si Si2 0.414479 0.604363 0.944804
Si Si3 0.575710 0.101260 0.560506
Si Si4 0.577179 0.600721 0.703286
Si Si5 0.087961 0.158052 0.157884
Si Si6 0.925092 0.766167 0.352538
Si Si7 0.415013 0.903460 0.742806
Si Si8 0.085747 0.640562 0.171726
O O1 0.750000 0.115378 0.046621
O O2 0.978434 0.164254 0.105123
O O3 0.964215 0.000000 0.068734
O O4 0.000000 0.137881 0.000000
O O5 0.250000 0.647164 0.943289
O O6 0.401183 0.500000 0.954703
O O7 0.490385 0.620205 0.883904
O O8 0.500000 0.645528 0.000000
O O9 0.500000 0.107938 0.500000
O O10 0.750000 0.119061 0.555344
O O11 0.504526 0.181933 0.596421
O O12 0.547727 0.000000 0.585005
O O13 0.750000 0.626847 0.702080
O O14 0.551641 0.500000 0.680176
O O15 0.489674 0.667729 0.661034
O O16 0.519967 0.601885 0.769093
O O17 0.250000 0.124136 0.139064
O O18 0.094909 0.255171 0.184554
O O19 0.024541 0.091024 0.204345
O O20 0.750000 0.759413 0.364639
O O21 0.963417 0.825701 0.298483
O O22 0.250000 0.885489 0.765896
O O23 0.422965 0.000000 0.711804
O O24 0.250000 0.601220 0.160655
#
# Coordination Sequence:
#
# PCOD8213372 Si02
#       8
#     8   8   8   8   8   8   8   8
#     4  10  21  37  55  73  96 130 175 225 279 342
#     4  10  21  36  55  78 102 131 172 224 286 358
#     4  10  21  38  63  96 135 177 218 257 299 351
#     4  10  21  39  62  86 117 159 206 257 311 366
#     4  11  22  35  53  77 105 137 179 229 281 342
#     4  11  22  37  60  90 127 165 206 255 301 353
#     4  10  21  36  54  79 114 155 192 231 285 343
#     4  10  21  37  56  78 108 144 184 234 293 356
#
# _framework density 20.022078
#
# number of rings (size 3 to 8) (size 9 to 14) (size 15 to 20)
#    0.000    1.750    1.250    3.000    0.000    7.750 
#    0.000    0.000    0.000    0.375    0.000    0.000 
#    0.000    0.000    0.000    0.000    0.000    0.000 
#
# Total GULP energy -793238.572096 kJ/mol
# GULP energy per Si atom -12394.352689 kJ/mol
# Density = 1.997651 g / cm^3
# Si number density = 20.022078 Si / 1000 Ang^3
#
#
#
# Elastic Constant Matrix: (Units=GPa)
#
#
# Indices 1 2 3 4 5 6 
#
# 1 110.3199 39.1763 61.1675 0.0000 0.0000 0.0000
# 2 39.1763 99.9722 43.3642 0.0000 0.0000 0.0000
# 3 61.1675 43.3642 96.7960 0.0000 0.0000 0.0000
# 4 0.0000 0.0000 0.0000 -12.6050 0.0000 0.0000
# 5 0.0000 0.0000 0.0000 0.0000 36.2004 0.0000
# 6 0.0000 0.0000 0.0000 0.0000 0.0000 28.7300
#
#
#
# Elastic Compliance Matrix: (Units=1/GPa)
#
#
# Indices 1 2 3 4 5 6 
#
# 1 0.014297 -0.002090 -0.008098 0.000000 0.000000 0.000000
# 2 -0.002090 0.012721 -0.004378 0.000000 0.000000 0.000000
# 3 -0.008098 -0.004378 0.017410 0.000000 0.000000 0.000000
# 4 0.000000 0.000000 0.000000 -0.079334 0.000000 0.000000
# 5 0.000000 0.000000 0.000000 0.000000 0.027624 0.000000
# 6 0.000000 0.000000 0.000000 0.000000 0.000000 0.034807
#
#
# Mechanical properties :
#
#
# Convention : Reuss Voigt Hill
#
# Bulk Modulus (GPa) = 65.38127 66.05599 65.71863
# Shear Modulus (GPa) = 80.96456 21.35709 51.16083
#
# Velocity S-wave (km/s) = 6.36596 3.26955 5.06040
# Velocity P-wave (km/s) = 9.31447 6.87869 8.18767
#
# Compressibility (1/GPa) = 0.01529490
#
# Stress axis : x y z
#
# Youngs Moduli (GPa) = 69.94584 78.61109 57.43861
#
# Poissons Ratio (x) = 0.16428 0.46515
# Poissons Ratio (y) = 0.14617 0.25148
# Poissons Ratio (z) = 0.56644 0.34418
#
# Static dielectric constant tensor:
#      x y z
#    x 3.730900 0.000000 0.000000 
#    y 0.000000 3.696640 0.000000 
#    z 0.000000 0.000000 3.353410 
# 
# 
# High freq. dielectric constant tensor:
#      x y z
#    x 1.787930 0.000000 0.000000 
#    y 0.000000 1.782460 0.000000 
#    z 0.000000 0.000000 1.760310 
# 
# From -- ./inp_files/34966.got.cif
#   From: 2010.03.12/outbox.cif.g09.slc.cpg/sg51_18_cif.got.tgz:34966.got - 2010.04.16 13:43:02.
