data_PCOD8213589
_publ_section_title
;
Structure prediction by ZEFSAII (Michael W. Deem and Ramdas Pophale) SiO2 
 PCOD8213589
Probable space group: P M M A
;
_chemical_formula_sum "Si O2"
_cell_formula_units_Z 36
_cell_length_a 8.871006
_cell_length_b 10.521803
_cell_length_c 19.165859
_cell_angle_alpha 90.000000
_cell_angle_beta 90.000000
_cell_angle_gamma 90.000000
_cell_volume 1788.921683
_symmetry_space_group_name_H-M "P M M A"
_symmetry_group_IT_number 51
_symmetry_cell_setting 'orthorhombic'
loop_
_space_group_symop_operation_xyz
x,y,z
1/2-x,-y,z
1/2+x,-y,-z
-x,y,-z
-x,-y,-z
1/2+x,y,-z
1/2-x,y,z
x,-y,z
loop_
_atom_site_type_symbol
_atom_site_label
_atom_site_fract_x
_atom_site_fract_y
_atom_site_fract_z
Si Si1 0.573624 0.000000 0.574367
Si Si2 0.072549 0.356001 0.074569
Si Si3 0.572671 0.146722 0.173421
Si Si4 0.573235 0.206890 0.330712
Si Si5 0.083052 0.353746 0.432623
O O1 0.500000 0.000000 0.500000
O O2 0.520992 0.879141 0.617227
O O3 0.750000 0.000000 0.565268
O O4 0.250000 0.339957 0.067338
O O5 0.032088 0.500000 0.100705
O O6 0.012513 0.247262 0.125477
O O7 0.000000 0.330945 0.000000
O O8 0.750000 0.165099 0.162637
O O9 0.523635 0.181064 0.251754
O O10 0.526786 0.000000 0.156652
O O11 0.750000 0.183412 0.338461
O O12 0.517913 0.342394 0.360921
O O13 0.250000 0.291698 0.424435
O O14 0.104191 0.500000 0.448129
O O15 0.000000 0.290580 0.500000
#
# Coordination Sequence:
#
# PCOD8213589 Si02
#       5
#     4   8   8   8   8
#     4  12  24  38  58  82 111 150 197 246 300 354
#     4  10  22  41  66  96 128 163 206 253 302 362
#     4  10  22  41  63  89 125 165 205 251 305 366
#     4  11  22  39  59  82 115 152 195 244 297 358
#     4  10  21  37  56  80 111 148 194 247 302 362
#
# _framework density 20.123854000000001
#
# number of rings (size 3 to 8) (size 9 to 14) (size 15 to 20)
#    0.000    1.556    1.111    3.667    0.000    6.222 
#    0.000    4.444    0.000    0.000    0.000    0.000 
#    0.000    0.000    0.000    0.000    0.000    0.000 
#
# Total GULP energy -446175.623349 kJ/mol
# GULP energy per Si atom -12393.767315 kJ/mol
# Density = 2.007805 g / cm^3
# Si number density = 20.123854 Si / 1000 Ang^3
#
#
#
# Elastic Constant Matrix: (Units=GPa)
#
#
# Indices 1 2 3 4 5 6 
#
# 1 125.2214 58.0686 83.5408 0.0000 0.0000 0.0000
# 2 58.0686 111.2979 83.8170 0.0000 0.0000 0.0000
# 3 83.5408 83.8170 156.2198 0.0000 0.0000 0.0000
# 4 0.0000 0.0000 0.0000 20.2895 0.0000 0.0000
# 5 0.0000 0.0000 0.0000 0.0000 38.9812 0.0000
# 6 0.0000 0.0000 0.0000 0.0000 0.0000 -13.1247
#
#
#
# Elastic Compliance Matrix: (Units=1/GPa)
#
#
# Indices 1 2 3 4 5 6 
#
# 1 0.012837 -0.002564 -0.005489 0.000000 0.000000 0.000000
# 2 -0.002564 0.015589 -0.006993 0.000000 0.000000 0.000000
# 3 -0.005489 -0.006993 0.013089 0.000000 0.000000 0.000000
# 4 0.000000 0.000000 0.000000 0.049287 0.000000 0.000000
# 5 0.000000 0.000000 0.000000 0.000000 0.025653 0.000000
# 6 0.000000 0.000000 0.000000 0.000000 0.000000 -0.076192
#
#
# Mechanical properties :
#
#
# Convention : Reuss Voigt Hill
#
# Bulk Modulus (GPa) = 87.54562 93.73245 90.63903
# Shear Modulus (GPa) = 67.42079 20.38337 43.90208
#
# Velocity S-wave (km/s) = 5.79445 3.18606 4.67582
# Velocity P-wave (km/s) = 9.40029 7.75974 8.61913
#
# Compressibility (1/GPa) = 0.01142262
#
# Stress axis : x y z
#
# Youngs Moduli (GPa) = 77.90132 64.14896 76.40242
#
# Poissons Ratio (x) = 0.16445 0.41939
# Poissons Ratio (y) = 0.19971 0.53428
# Poissons Ratio (z) = 0.42761 0.44859
#
# Static dielectric constant tensor:
#      x y z
#    x 3.869050 0.000000 0.000000 
#    y 0.000000 4.177040 0.000000 
#    z 0.000000 0.000000 3.825940 
# 
# 
# High freq. dielectric constant tensor:
#      x y z
#    x 1.797800 0.000000 0.000000 
#    y 0.000000 1.798360 0.000000 
#    z 0.000000 0.000000 1.781090 
# 
# From -- ./inp_files/27032.got.cif
#   From: 2010.03.12/outbox.cif.g09.slc.cpg/sg51_14_cif.got.tgz:27032.got - 2010.04.16 13:43:02.
