data_PCOD8213369
_publ_section_title
;
Structure prediction by ZEFSAII (Michael W. Deem and Ramdas Pophale) SiO2 
 PCOD8213369
Probable space group: P M M A
;
_chemical_formula_sum "Si O2"
_cell_formula_units_Z 64
_cell_length_a 18.298880
_cell_length_b 20.168396
_cell_length_c 9.079065
_cell_angle_alpha 90.000000
_cell_angle_beta 90.000000
_cell_angle_gamma 90.000000
_cell_volume 3350.711178
_symmetry_space_group_name_H-M "P M M A"
_symmetry_group_IT_number 51
_symmetry_cell_setting 'orthorhombic'
loop_
_space_group_symop_operation_xyz
x,y,z
1/2-x,-y,z
1/2+x,-y,-z
-x,y,-z
-x,-y,-z
1/2+x,y,-z
1/2-x,y,z
x,-y,z
loop_
_atom_site_type_symbol
_atom_site_label
_atom_site_fract_x
_atom_site_fract_y
_atom_site_fract_z
Si Si1 0.164386 0.074242 0.411933
Si Si2 0.417241 0.423718 0.033299
Si Si3 0.665833 0.424822 0.669836
Si Si4 0.165047 0.923077 0.077566
Si Si5 0.168251 0.305230 0.537989
Si Si6 0.168014 0.687234 0.885315
Si Si7 0.423402 0.812334 0.918705
Si Si8 0.923026 0.818388 0.429008
O O1 0.250000 0.076491 0.438539
O O2 0.128246 0.119942 0.534324
O O3 0.134775 0.000000 0.436048
O O4 0.146013 0.097197 0.245409
O O5 0.407106 0.500000 0.990109
O O6 0.392398 0.410803 0.201100
O O7 0.500000 0.400584 0.000000
O O8 0.364093 0.383081 0.929633
O O9 0.750000 0.414650 0.723870
O O10 0.655922 0.500000 0.610720
O O11 0.645517 0.374043 0.539502
O O12 0.250000 0.910435 0.044259
O O13 0.117492 0.878834 0.968197
O O14 0.145551 0.000000 0.050177
O O15 0.250000 0.284390 0.487706
O O16 0.165845 0.313560 0.711088
O O17 0.111910 0.247215 0.496420
O O18 0.250000 0.694137 0.945363
O O19 0.123553 0.747436 0.959442
O O20 0.433870 0.813982 0.744542
O O21 0.500000 0.806274 0.000000
O O22 0.000000 0.831840 0.500000
#
# Coordination Sequence:
#
# PCOD8213369 Si02
#       8
#     8   8   8   8   8   8   8   8
#     4   9  19  37  60  84 110 141 179 224 272 323
#     4  10  21  36  54  79 111 145 181 221 265 317
#     4   9  18  34  56  81 108 140 180 223 267 319
#     4   9  19  37  60  85 112 143 182 226 272 326
#     4   9  20  37  56  80 108 138 176 224 273 321
#     4  10  21  37  57  81 108 139 179 226 273 322
#     4  11  23  38  56  80 113 148 183 226 275 327
#     4  11  23  37  55  80 110 145 184 225 269 323
#
# _framework density 19.100421000000001
#
# number of rings (size 3 to 8) (size 9 to 14) (size 15 to 20)
#    0.000    2.250    0.000    3.000    0.000    7.750 
#    0.000    3.750    0.000    2.625    0.000    0.000 
#    0.000    0.000    0.000    0.000    0.000    0.000 
#
# Total GULP energy -793609.523333 kJ/mol
# GULP energy per Si atom -12400.148802 kJ/mol
# Density = 1.905695 g / cm^3
# Si number density = 19.100421 Si / 1000 Ang^3
#
#
#
# Elastic Constant Matrix: (Units=GPa)
#
#
# Indices 1 2 3 4 5 6 
#
# 1 101.8732 60.4528 45.4184 0.0000 0.0000 0.0000
# 2 60.4528 103.4428 39.4821 0.0000 0.0000 0.0000
# 3 45.4184 39.4821 46.8082 0.0000 0.0000 0.0000
# 4 0.0000 0.0000 0.0000 35.0053 0.0000 0.0000
# 5 0.0000 0.0000 0.0000 0.0000 28.9842 0.0000
# 6 0.0000 0.0000 0.0000 0.0000 0.0000 25.1061
#
#
#
# Elastic Compliance Matrix: (Units=1/GPa)
#
#
# Indices 1 2 3 4 5 6 
#
# 1 0.019680 -0.006213 -0.013855 0.000000 0.000000 0.000000
# 2 -0.006213 0.016219 -0.007652 0.000000 0.000000 0.000000
# 3 -0.013855 -0.007652 0.041262 0.000000 0.000000 0.000000
# 4 0.000000 0.000000 0.000000 0.028567 0.000000 0.000000
# 5 0.000000 0.000000 0.000000 0.000000 0.034502 0.000000
# 6 0.000000 0.000000 0.000000 0.000000 0.000000 0.039831
#
#
# Mechanical properties :
#
#
# Convention : Reuss Voigt Hill
#
# Bulk Modulus (GPa) = 46.03904 60.31452 53.17678
# Shear Modulus (GPa) = 20.59819 24.93719 22.76769
#
# Velocity S-wave (km/s) = 3.28749 3.61721 3.45628
# Velocity P-wave (km/s) = 6.21016 7.00655 6.62034
#
# Compressibility (1/GPa) = 0.02172069
#
# Stress axis : x y z
#
# Youngs Moduli (GPa) = 50.81295 61.65771 24.23552
#
# Poissons Ratio (x) = 0.38307 0.33579
# Poissons Ratio (y) = 0.31570 0.18544
# Poissons Ratio (z) = 0.70402 0.47179
#
# Static dielectric constant tensor:
#      x y z
#    x 3.608490 0.000000 0.000000 
#    y 0.000000 3.622180 0.000000 
#    z 0.000000 0.000000 3.390250 
# 
# 
# High freq. dielectric constant tensor:
#      x y z
#    x 1.746530 0.000000 0.000000 
#    y 0.000000 1.753570 0.000000 
#    z 0.000000 0.000000 1.733600 
# 
# From -- ./inp_files/10007.got.cif
#   From: 2010.03.12/outbox.cif.g09.slc.cpg/sg51_6_cif.got.tgz:10007.got - 2010.04.16 13:43:02.
