data_PCOD8213894
_publ_section_title
;
Structure prediction by ZEFSAII (Michael W. Deem and Ramdas Pophale) SiO2 
 PCOD8213894
Probable space group: P M M A
;
_chemical_formula_sum "Si O2"
_cell_formula_units_Z 40
_cell_length_a 8.545634
_cell_length_b 24.917284
_cell_length_c 9.704876
_cell_angle_alpha 90.000000
_cell_angle_beta 90.000000
_cell_angle_gamma 90.000000
_cell_volume 2066.497963
_symmetry_space_group_name_H-M "P M M A"
_symmetry_group_IT_number 51
_symmetry_cell_setting 'orthorhombic'
loop_
_space_group_symop_operation_xyz
x,y,z
1/2-x,-y,z
1/2+x,-y,-z
-x,y,-z
-x,-y,-z
1/2+x,y,-z
1/2-x,y,z
x,-y,z
loop_
_atom_site_type_symbol
_atom_site_label
_atom_site_fract_x
_atom_site_fract_y
_atom_site_fract_z
Si Si1 0.934481 0.259164 0.850617
Si Si2 0.069827 0.061281 0.349986
Si Si3 0.435126 0.347803 0.652993
Si Si4 0.434961 0.439750 0.854532
Si Si5 0.566807 0.855997 0.144234
O O1 0.750000 0.265524 0.853880
O O2 0.004028 0.295602 0.730860
O O3 0.980543 0.198577 0.812418
O O4 0.000000 0.276127 0.000000
O O5 0.250000 0.080009 0.347825
O O6 0.000000 0.068199 0.500000
O O7 0.964804 0.097888 0.253341
O O8 0.054501 0.000000 0.299681
O O9 0.500000 0.349693 0.500000
O O10 0.250000 0.345562 0.647268
O O11 0.495027 0.400803 0.733584
O O12 0.250000 0.438795 0.863838
O O13 0.496976 0.500000 0.823732
O O14 0.500000 0.418566 0.000000
O O15 0.750000 0.844155 0.131359
O O16 0.500000 0.877138 0.000000
#
# Coordination Sequence:
#
# PCOD8213894 Si02
#       5
#     8   8   8   8   8
#     4  11  22  39  61  84 112 146 186 230 280 335
#     4  10  21  38  59  84 115 151 190 231 278 333
#     4  11  23  38  56  82 115 149 188 232 281 333
#     4   9  19  36  58  83 111 145 186 230 276 330
#     4  11  22  38  60  86 115 147 187 233 282 332
#
# _framework density 19.356417
#
# number of rings (size 3 to 8) (size 9 to 14) (size 15 to 20)
#    0.000    1.600    0.000    6.600    0.000    6.000 
#    0.000    4.000    0.000    0.000    0.000    0.000 
#    0.000    0.000    0.000    0.000    0.000    0.000 
#
# Total GULP energy -496150.654354 kJ/mol
# GULP energy per Si atom -12403.766359 kJ/mol
# Density = 1.931236 g / cm^3
# Si number density = 19.356417 Si / 1000 Ang^3
#
#
#
# Elastic Constant Matrix: (Units=GPa)
#
#
# Indices 1 2 3 4 5 6 
#
# 1 76.4332 24.9271 37.7580 0.0000 0.0000 0.0000
# 2 24.9271 98.3228 81.4721 0.0000 0.0000 0.0000
# 3 37.7580 81.4721 143.7300 0.0000 0.0000 0.0000
# 4 0.0000 0.0000 0.0000 34.8317 0.0000 0.0000
# 5 0.0000 0.0000 0.0000 0.0000 36.5037 0.0000
# 6 0.0000 0.0000 0.0000 0.0000 0.0000 28.9753
#
#
#
# Elastic Compliance Matrix: (Units=1/GPa)
#
#
# Indices 1 2 3 4 5 6 
#
# 1 0.015088 -0.001020 -0.003386 0.000000 0.000000 0.000000
# 2 -0.001020 0.019248 -0.010642 0.000000 0.000000 0.000000
# 3 -0.003386 -0.010642 0.013879 0.000000 0.000000 0.000000
# 4 0.000000 0.000000 0.000000 0.028710 0.000000 0.000000
# 5 0.000000 0.000000 0.000000 0.000000 0.027394 0.000000
# 6 0.000000 0.000000 0.000000 0.000000 0.000000 0.034512
#
#
# Mechanical properties :
#
#
# Convention : Reuss Voigt Hill
#
# Bulk Modulus (GPa) = 55.18861 67.42226 61.30544
# Shear Modulus (GPa) = 28.57672 31.68406 30.13039
#
# Velocity S-wave (km/s) = 3.84649 4.05022 3.94967
# Velocity P-wave (km/s) = 6.94989 7.53525 7.24848
#
# Compressibility (1/GPa) = 0.01811968
#
# Stress axis : x y z
#
# Youngs Moduli (GPa) = 66.27590 51.95429 72.04871
#
# Poissons Ratio (x) = 0.05299 0.24393
# Poissons Ratio (y) = 0.06759 0.76678
# Poissons Ratio (z) = 0.22439 0.55292
#
# Static dielectric constant tensor:
#      x y z
#    x 3.637740 0.000000 0.000000 
#    y 0.000000 3.725740 0.000000 
#    z 0.000000 0.000000 3.459530 
# 
# 
# High freq. dielectric constant tensor:
#      x y z
#    x 1.767390 0.000000 0.000000 
#    y 0.000000 1.762210 0.000000 
#    z 0.000000 0.000000 1.753360 
# 
# From -- ./inp_files/5206.got.cif
#   From: 2010.03.12/outbox.cif.g09.slc.cpg/sg51_3_cif.got.tgz:5206.got - 2010.04.16 13:43:02.
