data_PCOD8213608
_publ_section_title
;
Structure prediction by ZEFSAII (Michael W. Deem and Ramdas Pophale) SiO2 
 PCOD8213608
Probable space group: P M M A
;
_chemical_formula_sum "Si O2"
_cell_formula_units_Z 56
_cell_length_a 8.798669
_cell_length_b 19.129955
_cell_length_c 16.055768
_cell_angle_alpha 90.000000
_cell_angle_beta 90.000000
_cell_angle_gamma 90.000000
_cell_volume 2702.477039
_symmetry_space_group_name_H-M "P M M A"
_symmetry_group_IT_number 51
_symmetry_cell_setting 'orthorhombic'
loop_
_space_group_symop_operation_xyz
x,y,z
1/2-x,-y,z
1/2+x,-y,-z
-x,y,-z
-x,-y,-z
1/2+x,y,-z
1/2-x,y,z
x,-y,z
loop_
_atom_site_type_symbol
_atom_site_label
_atom_site_fract_x
_atom_site_fract_y
_atom_site_fract_z
Si Si1 0.570849 0.289347 0.659391
Si Si2 0.574620 0.294313 0.173078
Si Si3 0.074898 0.421034 0.089141
Si Si4 0.575379 0.155822 0.086128
Si Si5 0.930719 0.920470 0.250760
Si Si6 0.573180 0.578857 0.410480
Si Si7 0.069426 0.159980 0.584917
O O1 0.750000 0.286413 0.648089
O O2 0.520756 0.263077 0.750371
O O3 0.511081 0.368633 0.651595
O O4 0.492198 0.239256 0.591740
O O5 0.750000 0.300322 0.199833
O O6 0.513022 0.370571 0.151183
O O7 0.554159 0.239437 0.097631
O O8 0.250000 0.398215 0.082630
O O9 0.058962 0.500000 0.123113
O O10 0.000000 0.414016 0.000000
O O11 0.750000 0.135074 0.078405
O O12 0.504858 0.116092 0.166671
O O13 0.500000 0.131580 0.000000
O O14 0.750000 0.914911 0.250297
O O15 0.990863 0.883603 0.335165
O O16 0.988013 0.000000 0.251648
O O17 0.500000 0.588377 0.500000
O O18 0.750000 0.597715 0.416264
O O19 0.548388 0.500000 0.377215
O O20 0.250000 0.159510 0.579020
O O21 0.000000 0.127209 0.500000
#
# Coordination Sequence:
#
# PCOD8213608 Si02
#       7
#     8   8   8   8   8   8   8
#     4  12  24  38  59  86 118 157 202 254 307 362
#     4  11  22  38  59  84 116 156 202 254 310 365
#     4  10  21  37  56  81 114 154 201 253 307 366
#     4  10  21  38  61  91 123 161 204 248 299 360
#     4   9  19  39  65  91 125 166 203 245 302 366
#     4  10  21  38  59  83 114 153 198 249 304 362
#     4  11  22  40  64  92 125 163 208 253 304 365
#
# _framework density 20.721730999999998
#
# number of rings (size 3 to 8) (size 9 to 14) (size 15 to 20)
#    0.000    1.571    1.429    3.857    0.000    5.143 
#    0.000    0.000    0.000    3.000    0.000    0.000 
#    0.000    0.000    0.000    0.000    0.000    0.000 
#
# Total GULP energy -694494.503055 kJ/mol
# GULP energy per Si atom -12401.687555 kJ/mol
# Density = 2.067457 g / cm^3
# Si number density = 20.721731 Si / 1000 Ang^3
#
#
#
# Elastic Constant Matrix: (Units=GPa)
#
#
# Indices 1 2 3 4 5 6 
#
# 1 96.5583 42.0469 43.8048 0.0000 0.0000 0.0000
# 2 42.0469 108.1009 53.8045 0.0000 0.0000 0.0000
# 3 43.8048 53.8045 145.2581 0.0000 0.0000 0.0000
# 4 0.0000 0.0000 0.0000 29.4963 0.0000 0.0000
# 5 0.0000 0.0000 0.0000 0.0000 38.9747 0.0000
# 6 0.0000 0.0000 0.0000 0.0000 0.0000 16.8138
#
#
#
# Elastic Compliance Matrix: (Units=1/GPa)
#
#
# Indices 1 2 3 4 5 6 
#
# 1 0.013195 -0.003864 -0.002548 0.000000 0.000000 0.000000
# 2 -0.003864 0.012473 -0.003455 0.000000 0.000000 0.000000
# 3 -0.002548 -0.003455 0.008932 0.000000 0.000000 0.000000
# 4 0.000000 0.000000 0.000000 0.033903 0.000000 0.000000
# 5 0.000000 0.000000 0.000000 0.000000 0.025658 0.000000
# 6 0.000000 0.000000 0.000000 0.000000 0.000000 0.059475
#
#
# Mechanical properties :
#
#
# Convention : Reuss Voigt Hill
#
# Bulk Modulus (GPa) = 67.26410 69.91441 68.58925
# Shear Modulus (GPa) = 28.03871 31.07439 29.55655
#
# Velocity S-wave (km/s) = 3.68245 3.87667 3.78081
# Velocity P-wave (km/s) = 7.11419 7.33833 7.22713
#
# Compressibility (1/GPa) = 0.01486677
#
# Stress axis : x y z
#
# Youngs Moduli (GPa) = 75.78647 80.17201 111.95293
#
# Poissons Ratio (x) = 0.30980 0.28524
# Poissons Ratio (y) = 0.29285 0.38678
# Poissons Ratio (z) = 0.19309 0.27698
#
# Static dielectric constant tensor:
#      x y z
#    x 3.561000 0.000000 0.000000 
#    y 0.000000 3.820680 0.000000 
#    z 0.000000 0.000000 3.736580 
# 
# 
# High freq. dielectric constant tensor:
#      x y z
#    x 1.799840 0.000000 0.000000 
#    y 0.000000 1.810440 0.000000 
#    z 0.000000 0.000000 1.814080 
# 
# From -- ./inp_files/21789.got.cif
#   From: 2010.03.12/outbox.cif.g09.slc.cpg/sg51_11_cif.got.tgz:21789.got - 2010.04.16 13:43:02.
