data_PCOD8213202
_publ_section_title
;
Structure prediction by ZEFSAII (Michael W. Deem and Ramdas Pophale) SiO2 
 PCOD8213202
Probable space group: P M M A
;
_chemical_formula_sum "Si O2"
_cell_formula_units_Z 56
_cell_length_a 18.537459
_cell_length_b 9.050514
_cell_length_c 18.923513
_cell_angle_alpha 90.000000
_cell_angle_beta 90.000000
_cell_angle_gamma 90.000000
_cell_volume 3174.864618
_symmetry_space_group_name_H-M "P M M A"
_symmetry_group_IT_number 51
_symmetry_cell_setting 'orthorhombic'
loop_
_space_group_symop_operation_xyz
x,y,z
1/2-x,-y,z
1/2+x,-y,-z
-x,y,-z
-x,-y,-z
1/2+x,y,-z
1/2-x,y,z
x,-y,z
loop_
_atom_site_type_symbol
_atom_site_label
_atom_site_fract_x
_atom_site_fract_y
_atom_site_fract_z
Si Si1 0.085551 0.675571 0.600984
Si Si2 0.132847 0.835522 0.733963
Si Si3 0.666631 0.170599 0.523431
Si Si4 0.940760 0.171627 0.643737
Si Si5 0.022792 0.325740 0.924262
Si Si6 0.827583 0.331139 0.135122
Si Si7 0.972954 0.836938 0.793545
O O1 0.083374 0.500000 0.604927
O O2 0.135997 0.738750 0.663175
O O3 0.121384 0.725792 0.528191
O O4 0.004129 0.735797 0.606428
O O5 0.181965 0.760381 0.793111
O O6 0.053034 0.841206 0.763906
O O7 0.162007 0.000000 0.717551
O O8 0.750000 0.219427 0.525513
O O9 0.633553 0.193915 0.601611
O O10 0.658682 0.000000 0.499774
O O11 0.926545 0.221479 0.725873
O O12 0.965650 0.000000 0.643851
O O13 0.014106 0.500000 0.924344
O O14 0.105895 0.274187 0.912648
O O15 0.969691 0.266700 0.862549
O O16 0.000000 0.259264 0.000000
O O17 0.750000 0.316732 0.094761
O O18 0.843687 0.500000 0.156072
O O19 0.947247 0.000000 0.817125
#
# Coordination Sequence:
#
# PCOD8213202 Si02
#       7
#     8   8   8   8   8   8   8
#     4  11  21  32  49  73  99 127 160 198 241 289
#     4   9  17  30  47  67  92 121 153 189 229 278
#     4  10  21  36  52  69  92 126 165 204 248 292
#     4   9  18  34  54  73  94 122 161 205 243 287
#     4   9  17  29  46  69  95 122 153 187 223 270
#     4   9  17  29  45  66  93 124 156 191 232 277
#     4   8  15  28  47  70  91 113 145 186 230 272
#
# _framework density 17.638546999999999
#
# number of rings (size 3 to 8) (size 9 to 14) (size 15 to 20)
#    0.000    2.714    0.000    3.000    0.000    7.143 
#    0.000    0.000    0.000    0.857    0.000    0.000 
#    0.000    0.000    0.000    0.000    0.000    0.571 
#
# Total GULP energy -694022.069081 kJ/mol
# GULP energy per Si atom -12393.251234 kJ/mol
# Density = 1.759840 g / cm^3
# Si number density = 17.638547 Si / 1000 Ang^3
#
#
#
# Elastic Constant Matrix: (Units=GPa)
#
#
# Indices 1 2 3 4 5 6 
#
# 1 59.9055 26.6256 43.4459 0.0000 0.0000 0.0000
# 2 26.6256 77.2089 43.2968 0.0000 0.0000 0.0000
# 3 43.4459 43.2968 132.0819 0.0000 0.0000 0.0000
# 4 0.0000 0.0000 0.0000 26.3687 0.0000 0.0000
# 5 0.0000 0.0000 0.0000 0.0000 16.3462 0.0000
# 6 0.0000 0.0000 0.0000 0.0000 0.0000 12.1232
#
#
#
# Elastic Compliance Matrix: (Units=1/GPa)
#
#
# Indices 1 2 3 4 5 6 
#
# 1 0.023158 -0.004551 -0.006126 0.000000 0.000000 0.000000
# 2 -0.004551 0.016763 -0.003998 0.000000 0.000000 0.000000
# 3 -0.006126 -0.003998 0.010897 0.000000 0.000000 0.000000
# 4 0.000000 0.000000 0.000000 0.037924 0.000000 0.000000
# 5 0.000000 0.000000 0.000000 0.000000 0.061176 0.000000
# 6 0.000000 0.000000 0.000000 0.000000 0.000000 0.082486
#
#
# Mechanical properties :
#
#
# Convention : Reuss Voigt Hill
#
# Bulk Modulus (GPa) = 46.57962 55.10366 50.84164
# Shear Modulus (GPa) = 18.59354 21.35614 19.97484
#
# Velocity S-wave (km/s) = 3.25028 3.48338 3.36885
# Velocity P-wave (km/s) = 6.36796 6.89107 6.63467
#
# Compressibility (1/GPa) = 0.02146861
#
# Stress axis : x y z
#
# Youngs Moduli (GPa) = 43.18110 59.65397 91.77202
#
# Poissons Ratio (x) = 0.27149 0.56216
# Poissons Ratio (y) = 0.19652 0.36691
# Poissons Ratio (z) = 0.26451 0.23850
#
# Static dielectric constant tensor:
#      x y z
#    x 3.152660 0.000000 0.000000 
#    y 0.000000 3.310800 0.000000 
#    z 0.000000 0.000000 3.498900 
# 
# 
# High freq. dielectric constant tensor:
#      x y z
#    x 1.654490 0.000000 0.000000 
#    y 0.000000 1.677140 0.000000 
#    z 0.000000 0.000000 1.674840 
# 
# From -- ./inp_files/30347.got.cif
#   From: 2010.03.12/outbox.cif.g09.slc.cpg/sg51_16_cif.got.tgz:30347.got - 2010.04.16 13:43:02.
