data_PCOD8213220
_publ_section_title
;
Structure prediction by ZEFSAII (Michael W. Deem and Ramdas Pophale) SiO2 
 PCOD8213220
Probable space group: P M M A
;
_chemical_formula_sum "Si O2"
_cell_formula_units_Z 48
_cell_length_a 9.190309
_cell_length_b 9.425313
_cell_length_c 31.053137
_cell_angle_alpha 90.000000
_cell_angle_beta 90.000000
_cell_angle_gamma 90.000000
_cell_volume 2689.870514
_symmetry_space_group_name_H-M "P M M A"
_symmetry_group_IT_number 51
_symmetry_cell_setting 'orthorhombic'
loop_
_space_group_symop_operation_xyz
x,y,z
1/2-x,-y,z
1/2+x,-y,-z
-x,y,-z
-x,-y,-z
1/2+x,y,-z
1/2-x,y,z
x,-y,z
loop_
_atom_site_type_symbol
_atom_site_label
_atom_site_fract_x
_atom_site_fract_y
_atom_site_fract_z
Si Si1 0.913276 0.669317 0.707962
Si Si2 0.418853 0.334589 0.885103
Si Si3 0.588813 0.331560 0.211302
Si Si4 0.085511 0.330883 0.625063
Si Si5 0.085167 0.669135 0.458267
Si Si6 0.419162 0.834809 0.042711
O O1 0.750000 0.728183 0.703370
O O2 0.913355 0.500000 0.708062
O O3 0.979588 0.729077 0.752644
O O4 0.008305 0.726789 0.668150
O O5 0.250000 0.299697 0.893936
O O6 0.449461 0.500000 0.892323
O O7 0.462213 0.287848 0.836570
O O8 0.520989 0.247099 0.916342
O O9 0.750000 0.270552 0.220546
O O10 0.595467 0.500000 0.214023
O O11 0.250000 0.272188 0.623364
O O12 0.086404 0.500000 0.624843
O O13 0.996910 0.272945 0.583988
O O14 0.250000 0.727679 0.458731
O O15 0.086542 0.500000 0.458278
O O16 0.000000 0.726856 0.500000
O O17 0.250000 0.801361 0.037081
O O18 0.450011 0.000000 0.050102
O O19 0.500000 0.779778 0.000000
#
# Coordination Sequence:
#
# PCOD8213220 Si02
#       6
#     8   8   8   8   8   8
#     4   9  15  21  30  45  64  86 113 145 182 227
#     4   9  18  32  50  72  96 121 150 184 223 267
#     4   8  14  25  39  55  77 103 128 156 194 241
#     4   9  15  21  28  37  50  71 100 134 175 224
#     4   9  15  21  27  34  45  62  88 126 173 224
#     4  10  21  36  53  72  94 122 155 188 223 264
#
# _framework density 17.844726000000001
#
# number of rings (size 3 to 8) (size 9 to 14) (size 15 to 20)
#    0.000    3.000    0.000    3.000    0.000    8.333 
#    0.000    1.667    0.000    0.000    0.000    0.000 
#    0.000    0.000    0.000    0.000    0.000    0.000 
#
# Total GULP energy -595063.691054 kJ/mol
# GULP energy per Si atom -12397.160230 kJ/mol
# Density = 1.780411 g / cm^3
# Si number density = 17.844726 Si / 1000 Ang^3
#
#
#
# Elastic Constant Matrix: (Units=GPa)
#
#
# Indices 1 2 3 4 5 6 
#
# 1 162.8284 21.1335 103.4703 0.0000 0.0000 0.0000
# 2 21.1335 12.5245 23.3920 0.0000 0.0000 0.0000
# 3 103.4703 23.3920 176.8036 0.0000 0.0000 0.0000
# 4 0.0000 0.0000 0.0000 -2.2440 0.0000 0.0000
# 5 0.0000 0.0000 0.0000 0.0000 42.5828 0.0000
# 6 0.0000 0.0000 0.0000 0.0000 0.0000 12.2650
#
#
#
# Elastic Compliance Matrix: (Units=1/GPa)
#
#
# Indices 1 2 3 4 5 6 
#
# 1 0.010374 -0.008189 -0.004987 0.000000 0.000000 0.000000
# 2 -0.008189 0.112514 -0.010094 0.000000 0.000000 0.000000
# 3 -0.004987 -0.010094 0.009910 0.000000 0.000000 0.000000
# 4 0.000000 0.000000 0.000000 -0.445627 0.000000 0.000000
# 5 0.000000 0.000000 0.000000 0.000000 0.023484 0.000000
# 6 0.000000 0.000000 0.000000 0.000000 0.000000 0.081533
#
#
# Mechanical properties :
#
#
# Convention : Reuss Voigt Hill
#
# Bulk Modulus (GPa) = 11.59323 72.01643 41.80483
# Shear Modulus (GPa) = -37.73019 24.13147 -6.79936
#
# Velocity S-wave (km/s) = -4.60321 3.68136 -1.95411
# Velocity P-wave (km/s) = 4.66282 7.64949 4.28794
#
# Compressibility (1/GPa) = 0.08625721
#
# Stress axis : x y z
#
# Youngs Moduli (GPa) = 96.39851 8.88780 100.90572
#
# Poissons Ratio (x) = 0.07278 0.50326
# Poissons Ratio (y) = 0.78941 1.01851
# Poissons Ratio (z) = 0.48078 0.08971
#
# Static dielectric constant tensor:
#      x y z
#    x 3.526420 0.000000 0.000000 
#    y 0.000000 2.506150 0.000000 
#    z 0.000000 0.000000 3.572790 
# 
# 
# High freq. dielectric constant tensor:
#      x y z
#    x 1.703680 0.000000 0.000000 
#    y 0.000000 1.598920 0.000000 
#    z 0.000000 0.000000 1.710540 
# 
# From -- ./inp_files/36991.got.cif
#   From: 2010.03.12/outbox.cif.g09.slc.cpg/sg51_19_cif.got.tgz:36991.got - 2010.04.16 13:43:02.
