data_PCOD8213981
_publ_section_title
;
Structure prediction by ZEFSAII (Michael W. Deem and Ramdas Pophale) SiO2 
 PCOD8213981
Probable space group: P M M A
;
_chemical_formula_sum "Si O2"
_cell_formula_units_Z 40
_cell_length_a 14.698309
_cell_length_b 9.169071
_cell_length_c 14.640855
_cell_angle_alpha 90.000000
_cell_angle_beta 90.000000
_cell_angle_gamma 90.000000
_cell_volume 1973.145668
_symmetry_space_group_name_H-M "P M M A"
_symmetry_group_IT_number 51
_symmetry_cell_setting 'orthorhombic'
loop_
_space_group_symop_operation_xyz
x,y,z
1/2-x,-y,z
1/2+x,-y,-z
-x,y,-z
-x,-y,-z
1/2+x,y,-z
1/2-x,y,z
x,-y,z
loop_
_atom_site_type_symbol
_atom_site_label
_atom_site_fract_x
_atom_site_fract_y
_atom_site_fract_z
Si Si1 0.143584 0.169821 0.272949
Si Si2 0.641703 0.663018 0.906467
Si Si3 0.504002 0.330965 0.607262
Si Si4 0.644801 0.829241 0.281234
Si Si5 0.858199 0.161555 0.077187
O O1 0.250000 0.197172 0.288347
O O2 0.108773 0.238979 0.178080
O O3 0.091874 0.245691 0.356100
O O4 0.119243 0.000000 0.270300
O O5 0.750000 0.661735 0.910347
O O6 0.603108 0.500000 0.894856
O O7 0.601937 0.729829 0.000564
O O8 0.500000 0.306661 0.500000
O O9 0.512907 0.500000 0.633448
O O10 0.411765 0.267034 0.648832
O O11 0.750000 0.791136 0.296959
O O12 0.613368 0.786436 0.178495
O O13 0.626788 0.000000 0.298367
O O14 0.750000 0.156235 0.072122
O O15 0.896647 0.000000 0.057496
#
# Coordination Sequence:
#
# PCOD8213981 Si02
#       5
#     8   8   8   8   8
#     4  10  21  38  61  86 112 147 190 234 280 331
#     4   9  16  27  48  80 116 151 184 221 269 326
#     4  11  25  42  59  82 113 147 184 233 291 344
#     4   9  19  37  61  87 115 149 189 233 279 329
#     4   8  14  27  49  78 112 148 184 222 267 321
#
# _framework density 20.272197999999999
#
# number of rings (size 3 to 8) (size 9 to 14) (size 15 to 20)
#    0.000    2.600    0.000    3.000    0.000    7.200 
#    0.000    7.000    0.000    6.000    0.000    0.000 
#    0.000    0.000    0.000    0.000    0.000    0.000 
#
# Total GULP energy -496010.012187 kJ/mol
# GULP energy per Si atom -12400.250305 kJ/mol
# Density = 2.022606 g / cm^3
# Si number density = 20.272198 Si / 1000 Ang^3
#
#
#
# Elastic Constant Matrix: (Units=GPa)
#
#
# Indices 1 2 3 4 5 6 
#
# 1 67.4750 55.6548 50.5805 0.0000 0.0000 0.0000
# 2 55.6548 162.3387 98.4205 0.0000 0.0000 0.0000
# 3 50.5805 98.4205 142.5514 0.0000 0.0000 0.0000
# 4 0.0000 0.0000 0.0000 40.3374 0.0000 0.0000
# 5 0.0000 0.0000 0.0000 0.0000 167.8085 0.0000
# 6 0.0000 0.0000 0.0000 0.0000 0.0000 25.4340
#
#
#
# Elastic Compliance Matrix: (Units=1/GPa)
#
#
# Indices 1 2 3 4 5 6 
#
# 1 0.022235 -0.004884 -0.004517 0.000000 0.000000 0.000000
# 2 -0.004884 0.011668 -0.006322 0.000000 0.000000 0.000000
# 3 -0.004517 -0.006322 0.012983 0.000000 0.000000 0.000000
# 4 0.000000 0.000000 0.000000 0.024791 0.000000 0.000000
# 5 0.000000 0.000000 0.000000 0.000000 0.005959 0.000000
# 6 0.000000 0.000000 0.000000 0.000000 0.000000 0.039317
#
#
# Mechanical properties :
#
#
# Convention : Reuss Voigt Hill
#
# Bulk Modulus (GPa) = 64.77676 86.85300 75.81488
# Shear Modulus (GPa) = 32.56324 57.89658 45.22991
#
# Velocity S-wave (km/s) = 4.01222 5.34992 4.72861
# Velocity P-wave (km/s) = 7.31346 9.00547 8.20321
#
# Compressibility (1/GPa) = 0.01543764
#
# Stress axis : x y z
#
# Youngs Moduli (GPa) = 44.97371 85.70794 77.02327
#
# Poissons Ratio (x) = 0.41861 0.34795
# Poissons Ratio (y) = 0.21966 0.48698
# Poissons Ratio (z) = 0.20317 0.54189
#
# Static dielectric constant tensor:
#      x y z
#    x 3.391710 0.000000 0.000000 
#    y 0.000000 3.829200 0.000000 
#    z 0.000000 0.000000 3.731720 
# 
# 
# High freq. dielectric constant tensor:
#      x y z
#    x 1.779060 0.000000 0.000000 
#    y 0.000000 1.795570 0.000000 
#    z 0.000000 0.000000 1.791720 
# 
# From -- ./inp_files/23714.got.cif
#   From: 2010.03.12/outbox.cif.g09.slc.cpg/sg51_12_cif.got.tgz:23714.got - 2010.04.16 13:43:02.
