data_PCOD8213480
_publ_section_title
;
Structure prediction by ZEFSAII (Michael W. Deem and Ramdas Pophale) SiO2 
 PCOD8213480
Probable space group: P M M A
;
_chemical_formula_sum "Si O2"
_cell_formula_units_Z 64
_cell_length_a 14.278022
_cell_length_b 9.388899
_cell_length_c 24.116295
_cell_angle_alpha 90.000000
_cell_angle_beta 90.000000
_cell_angle_gamma 90.000000
_cell_volume 3232.907671
_symmetry_space_group_name_H-M "P M M A"
_symmetry_group_IT_number 51
_symmetry_cell_setting 'orthorhombic'
loop_
_space_group_symop_operation_xyz
x,y,z
1/2-x,-y,z
1/2+x,-y,-z
-x,y,-z
-x,-y,-z
1/2+x,y,-z
1/2-x,y,z
x,-y,z
loop_
_atom_site_type_symbol
_atom_site_label
_atom_site_fract_x
_atom_site_fract_y
_atom_site_fract_z
Si Si1 0.023529 0.336244 0.060606
Si Si2 0.454032 0.335570 0.371652
Si Si3 0.358611 0.836442 0.468380
Si Si4 0.351291 0.162092 0.759453
Si Si5 0.145003 0.661127 0.577134
Si Si6 0.446159 0.836223 0.267969
Si Si7 0.853059 0.657538 0.136395
Si Si8 0.859964 0.166463 0.849968
O O1 0.058852 0.500000 0.057317
O O2 0.099042 0.248756 0.096670
O O3 0.922128 0.322490 0.086420
O O4 0.000000 0.272610 0.000000
O O5 0.423013 0.500000 0.371601
O O6 0.414670 0.257385 0.425066
O O7 0.567783 0.321248 0.374301
O O8 0.407338 0.263220 0.317062
O O9 0.250000 0.826727 0.453178
O O10 0.378465 0.772848 0.528913
O O11 0.393479 0.000000 0.467341
O O12 0.250000 0.219884 0.735627
O O13 0.441855 0.181173 0.721237
O O14 0.380508 0.235869 0.815876
O O15 0.338020 0.000000 0.775271
O O16 0.250000 0.690945 0.601106
O O17 0.139924 0.500000 0.552976
O O18 0.409873 0.783732 0.207638
O O19 0.414406 0.000000 0.276820
O O20 0.750000 0.688434 0.112443
O O21 0.859811 0.500000 0.162361
O O22 0.750000 0.200726 0.845072
O O23 0.878596 0.000000 0.859456
#
# Coordination Sequence:
#
# PCOD8213480 Si02
#       8
#     8   8   8   8   8   8   8   8
#     4  10  21  36  57  86 117 148 183 228 280 335
#     4  11  23  36  55  84 115 149 191 236 282 336
#     4  10  21  37  58  83 111 146 189 237 289 341
#     4   9  17  31  53  78 102 133 175 221 272 328
#     4   9  19  37  58  81 114 153 188 227 280 340
#     4  10  21  37  55  78 111 149 188 235 286 334
#     4   9  17  30  50  76 106 138 173 216 267 324
#     4  10  22  41  62  83 111 151 196 238 283 334
#
# _framework density 19.796422
#
# number of rings (size 3 to 8) (size 9 to 14) (size 15 to 20)
#    0.000    2.250    1.250    1.125    0.000    6.250 
#    0.000    2.500    0.000    1.500    0.000    0.000 
#    0.000    0.000    0.000    0.000    0.000    0.000 
#
# Total GULP energy -793029.062716 kJ/mol
# GULP energy per Si atom -12391.079105 kJ/mol
# Density = 1.975136 g / cm^3
# Si number density = 19.796422 Si / 1000 Ang^3
#
#
#
# Elastic Constant Matrix: (Units=GPa)
#
#
# Indices 1 2 3 4 5 6 
#
# 1 64.9988 46.4783 30.5953 0.0000 0.0000 0.0000
# 2 46.4783 61.3757 46.1100 0.0000 0.0000 0.0000
# 3 30.5953 46.1100 81.5690 0.0000 0.0000 0.0000
# 4 0.0000 0.0000 0.0000 33.1727 0.0000 0.0000
# 5 0.0000 0.0000 0.0000 0.0000 12.2373 0.0000
# 6 0.0000 0.0000 0.0000 0.0000 0.0000 27.2299
#
#
#
# Elastic Compliance Matrix: (Units=1/GPa)
#
#
# Indices 1 2 3 4 5 6 
#
# 1 0.034009 -0.028108 0.003133 0.000000 0.000000 0.000000
# 2 -0.028108 0.051551 -0.018598 0.000000 0.000000 0.000000
# 3 0.003133 -0.018598 0.021598 0.000000 0.000000 0.000000
# 4 0.000000 0.000000 0.000000 0.030145 0.000000 0.000000
# 5 0.000000 0.000000 0.000000 0.000000 0.081718 0.000000
# 6 0.000000 0.000000 0.000000 0.000000 0.000000 0.036724
#
#
# Mechanical properties :
#
#
# Convention : Reuss Voigt Hill
#
# Bulk Modulus (GPa) = 49.97211 50.47895 50.22553
# Shear Modulus (GPa) = 14.30357 20.17863 17.24110
#
# Velocity S-wave (km/s) = 2.69091 3.19612 2.95434
# Velocity P-wave (km/s) = 5.91206 6.25897 6.08799
#
# Compressibility (1/GPa) = 0.02001116
#
# Stress axis : x y z
#
# Youngs Moduli (GPa) = 29.40364 19.39824 46.30082
#
# Poissons Ratio (x) = 0.54525 -0.14505
# Poissons Ratio (y) = 0.82648 0.86112
# Poissons Ratio (z) = -0.09211 0.36077
#
# Static dielectric constant tensor:
#      x y z
#    x 3.948620 0.000000 0.000000 
#    y 0.000000 3.680370 0.000000 
#    z 0.000000 0.000000 3.362500 
# 
# 
# High freq. dielectric constant tensor:
#      x y z
#    x 1.781630 0.000000 0.000000 
#    y 0.000000 1.771150 0.000000 
#    z 0.000000 0.000000 1.753120 
# 
# From -- ./inp_files/35666.got.cif
#   From: 2010.03.12/outbox.cif.g09.slc.cpg/sg51_18_cif.got.tgz:35666.got - 2010.04.16 13:43:02.
