data_PCOD8213409
_publ_section_title
;
Structure prediction by ZEFSAII (Michael W. Deem and Ramdas Pophale) SiO2 
 PCOD8213409
Probable space group: P M M A
;
_chemical_formula_sum "Si O2"
_cell_formula_units_Z 56
_cell_length_a 14.153475
_cell_length_b 9.176949
_cell_length_c 22.360217
_cell_angle_alpha 90.000000
_cell_angle_beta 90.000000
_cell_angle_gamma 90.000000
_cell_volume 2904.272845
_symmetry_space_group_name_H-M "P M M A"
_symmetry_group_IT_number 51
_symmetry_cell_setting 'orthorhombic'
loop_
_space_group_symop_operation_xyz
x,y,z
1/2-x,-y,z
1/2+x,-y,-z
-x,y,-z
-x,-y,-z
1/2+x,y,-z
1/2-x,y,z
x,-y,z
loop_
_atom_site_type_symbol
_atom_site_label
_atom_site_fract_x
_atom_site_fract_y
_atom_site_fract_z
Si Si1 0.858167 0.666299 0.027567
Si Si2 0.025320 0.671469 0.855553
Si Si3 0.859958 0.830860 0.245612
Si Si4 0.032765 0.830438 0.634130
Si Si5 0.858871 0.170647 0.907227
Si Si6 0.859127 0.334589 0.465456
Si Si7 0.144127 0.330436 0.396097
O O1 0.750000 0.687666 0.046946
O O2 0.878172 0.500000 0.007795
O O3 0.920701 0.712003 0.083659
O O4 0.885380 0.769118 0.972617
O O5 0.011721 0.500000 0.847333
O O6 0.923018 0.749090 0.857696
O O7 0.085203 0.731384 0.800863
O O8 0.750000 0.789636 0.244077
O O9 0.899022 0.792817 0.310983
O O10 0.876118 0.000000 0.229739
O O11 0.079435 0.773954 0.573537
O O12 0.930661 0.756220 0.644425
O O13 0.015360 0.000000 0.627470
O O14 0.750000 0.205217 0.891843
O O15 0.879982 0.000000 0.906080
O O16 0.750000 0.311366 0.449785
O O17 0.889959 0.500000 0.450969
O O18 0.878211 0.299498 0.534553
O O19 0.250000 0.276631 0.380410
O O20 0.134778 0.500000 0.381693
#
# Coordination Sequence:
#
# PCOD8213409 Si02
#       7
#     8   8   8   8   8   8   8
#     4   9  18  33  53  80 114 145 174 217 272 323
#     4  11  22  36  57  83 109 141 183 228 273 319
#     4  10  23  42  59  77 107 145 181 219 265 319
#     4  11  22  35  54  81 111 143 180 223 272 322
#     4  10  21  36  55  81 112 146 183 220 263 321
#     4   9  18  33  54  80 110 145 182 220 266 321
#     4   9  19  36  56  79 109 144 182 223 267 319
#
# _framework density 19.281936000000002
#
# number of rings (size 3 to 8) (size 9 to 14) (size 15 to 20)
#    0.000    2.143    0.000    3.857    0.000    9.143 
#    0.000    3.571    0.000    0.857    0.000    0.000 
#    0.000    0.000    0.000    0.000    0.000    0.000 
#
# Total GULP energy -694577.695422 kJ/mol
# GULP energy per Si atom -12403.173133 kJ/mol
# Density = 1.923805 g / cm^3
# Si number density = 19.281936 Si / 1000 Ang^3
#
#
#
# Elastic Constant Matrix: (Units=GPa)
#
#
# Indices 1 2 3 4 5 6 
#
# 1 93.6375 50.7770 38.8416 0.0000 0.0000 0.0000
# 2 50.7770 83.5838 36.6293 0.0000 0.0000 0.0000
# 3 38.8416 36.6293 36.0004 0.0000 0.0000 0.0000
# 4 0.0000 0.0000 0.0000 27.4626 0.0000 0.0000
# 5 0.0000 0.0000 0.0000 0.0000 34.6937 0.0000
# 6 0.0000 0.0000 0.0000 0.0000 0.0000 33.9707
#
#
#
# Elastic Compliance Matrix: (Units=1/GPa)
#
#
# Indices 1 2 3 4 5 6 
#
# 1 0.020410 -0.004961 -0.016974 0.000000 0.000000 0.000000
# 2 -0.004961 0.022797 -0.017843 0.000000 0.000000 0.000000
# 3 -0.016974 -0.017843 0.064246 0.000000 0.000000 0.000000
# 4 0.000000 0.000000 0.000000 0.036413 0.000000 0.000000
# 5 0.000000 0.000000 0.000000 0.000000 0.028824 0.000000
# 6 0.000000 0.000000 0.000000 0.000000 0.000000 0.029437
#
#
# Mechanical properties :
#
#
# Convention : Reuss Voigt Hill
#
# Bulk Modulus (GPa) = 35.84504 51.74638 43.79571
# Shear Modulus (GPa) = 17.18321 25.02364 21.10342
#
# Velocity S-wave (km/s) = 2.98846 3.60637 3.31186
# Velocity P-wave (km/s) = 5.52614 6.65103 6.11451
#
# Compressibility (1/GPa) = 0.02789786
#
# Stress axis : x y z
#
# Youngs Moduli (GPa) = 48.99443 43.86507 15.56529
#
# Poissons Ratio (x) = 0.21761 0.26420
# Poissons Ratio (y) = 0.24305 0.27773
# Poissons Ratio (z) = 0.83162 0.78269
#
# Static dielectric constant tensor:
#      x y z
#    x 3.799230 0.000000 0.000000 
#    y 0.000000 3.483190 0.000000 
#    z 0.000000 0.000000 3.327160 
# 
# 
# High freq. dielectric constant tensor:
#      x y z
#    x 1.771050 0.000000 0.000000 
#    y 0.000000 1.749390 0.000000 
#    z 0.000000 0.000000 1.727200 
# 
# From -- ./inp_files/33428.got.cif
#   From: 2010.03.12/outbox.cif.g09.slc.cpg/sg51_17_cif.got.tgz:33428.got - 2010.04.16 13:43:02.
