data_PCOD8213546
_publ_section_title
;
Structure prediction by ZEFSAII (Michael W. Deem and Ramdas Pophale) SiO2 
 PCOD8213546
Probable space group: P M M A
;
_chemical_formula_sum "Si O2"
_cell_formula_units_Z 56
_cell_length_a 14.186383
_cell_length_b 8.799661
_cell_length_c 24.231530
_cell_angle_alpha 90.000000
_cell_angle_beta 90.000000
_cell_angle_gamma 90.000000
_cell_volume 3024.951800
_symmetry_space_group_name_H-M "P M M A"
_symmetry_group_IT_number 51
_symmetry_cell_setting 'orthorhombic'
loop_
_space_group_symop_operation_xyz
x,y,z
1/2-x,-y,z
1/2+x,-y,-z
-x,y,-z
-x,-y,-z
1/2+x,y,-z
1/2-x,y,z
x,-y,z
loop_
_atom_site_type_symbol
_atom_site_label
_atom_site_fract_x
_atom_site_fract_y
_atom_site_fract_z
Si Si1 0.512428 0.677139 0.438700
Si Si2 0.451046 0.320523 0.151104
Si Si3 0.142223 0.324284 0.350908
Si Si4 0.750000 0.679264 0.889695
Si Si5 0.143528 0.821085 0.647008
Si Si6 0.437642 0.178765 0.948074
Si Si7 0.750000 0.320133 0.014023
Si Si8 0.512685 0.178070 0.733675
O O1 0.500000 0.745531 0.500000
O O2 0.534570 0.500000 0.441808
O O3 0.416147 0.712098 0.406050
O O4 0.601830 0.752604 0.409144
O O5 0.461694 0.500000 0.142123
O O6 0.342515 0.266696 0.143464
O O7 0.513496 0.231924 0.107481
O O8 0.488096 0.274903 0.210873
O O9 0.250000 0.282233 0.363162
O O10 0.130668 0.500000 0.333417
O O11 0.105566 0.220280 0.301060
O O12 0.750000 0.500000 0.894979
O O13 0.750000 0.748197 0.951699
O O14 0.250000 0.761070 0.656124
O O15 0.080279 0.772344 0.699463
O O16 0.141577 0.000000 0.640152
O O17 0.338923 0.262678 0.952146
O O18 0.420842 0.000000 0.946475
O O19 0.500000 0.229056 0.000000
O O20 0.750000 0.500000 0.012446
O O21 0.513411 0.000000 0.747387
#
# Coordination Sequence:
#
# PCOD8213546 Si02
#       8
#     8   8   8   4   8   8   4   8
#     4   9  18  32  52  81 113 142 177 224 273 320
#     4  11  22  39  60  84 113 148 187 229 278 336
#     4   9  18  33  52  74 105 145 181 216 266 328
#     4   9  20  35  57  85 111 143 183 224 271 330
#     4   9  19  37  58  77 104 146 189 227 274 327
#     4  11  23  39  59  86 118 150 185 232 286 336
#     4  11  21  39  63  85 111 151 193 228 277 340
#     4  10  21  37  55  79 108 139 180 231 280 326
#
# _framework density 18.512691
#
# number of rings (size 3 to 8) (size 9 to 14) (size 15 to 20)
#    0.000    2.143    1.429    1.500    1.000    2.571 
#    1.286    2.500    0.000    0.000    0.000    0.000 
#    0.000    0.000    0.000    0.000    0.000    0.000 
#
# Total GULP energy -694557.728898 kJ/mol
# GULP energy per Si atom -12402.816587 kJ/mol
# Density = 1.847056 g / cm^3
# Si number density = 18.512691 Si / 1000 Ang^3
#
#
#
# Elastic Constant Matrix: (Units=GPa)
#
#
# Indices 1 2 3 4 5 6 
#
# 1 149.9650 32.1392 58.5261 0.0000 0.0000 0.0000
# 2 32.1392 36.7035 20.9379 0.0000 0.0000 0.0000
# 3 58.5261 20.9379 126.3395 0.0000 0.0000 0.0000
# 4 0.0000 0.0000 0.0000 30.6068 0.0000 0.0000
# 5 0.0000 0.0000 0.0000 0.0000 19.1724 0.0000
# 6 0.0000 0.0000 0.0000 0.0000 0.0000 26.4089
#
#
#
# Elastic Compliance Matrix: (Units=1/GPa)
#
#
# Indices 1 2 3 4 5 6 
#
# 1 0.009285 -0.006269 -0.003262 0.000000 0.000000 0.000000
# 2 -0.006269 0.034323 -0.002784 0.000000 0.000000 0.000000
# 3 -0.003262 -0.002784 0.009888 0.000000 0.000000 0.000000
# 4 0.000000 0.000000 0.000000 0.032672 0.000000 0.000000
# 5 0.000000 0.000000 0.000000 0.000000 0.052158 0.000000
# 6 0.000000 0.000000 0.000000 0.000000 0.000000 0.037866
#
#
# Mechanical properties :
#
#
# Convention : Reuss Voigt Hill
#
# Bulk Modulus (GPa) = 34.64428 59.57938 47.11183
# Shear Modulus (GPa) = 23.75909 28.66459 26.21184
#
# Velocity S-wave (km/s) = 3.58634 3.93921 3.76691
# Velocity P-wave (km/s) = 5.99195 7.27617 6.66507
#
# Compressibility (1/GPa) = 0.02886479
#
# Stress axis : x y z
#
# Youngs Moduli (GPa) = 107.70129 29.13472 101.13501
#
# Poissons Ratio (x) = 0.18266 0.32992
# Poissons Ratio (y) = 0.67522 0.28157
# Poissons Ratio (z) = 0.35134 0.08111
#
# Static dielectric constant tensor:
#      x y z
#    x 3.460830 0.000000 0.000000 
#    y 0.000000 3.321790 0.000000 
#    z 0.000000 0.000000 3.556960 
# 
# 
# High freq. dielectric constant tensor:
#      x y z
#    x 1.723680 0.000000 0.000000 
#    y 0.000000 1.713070 0.000000 
#    z 0.000000 0.000000 1.719070 
# 
# From -- ./inp_files/33608.got.cif
#   From: 2010.03.12/outbox.cif.g09.slc.cpg/sg51_17_cif.got.tgz:33608.got - 2010.04.16 13:43:02.
