data_PCOD8213381
_publ_section_title
;
Structure prediction by ZEFSAII (Michael W. Deem and Ramdas Pophale) SiO2 
 PCOD8213381
Probable space group: P M M A
;
_chemical_formula_sum "Si O2"
_cell_formula_units_Z 48
_cell_length_a 15.821748
_cell_length_b 18.692629
_cell_length_c 8.880594
_cell_angle_alpha 90.000000
_cell_angle_beta 90.000000
_cell_angle_gamma 90.000000
_cell_volume 2626.436257
_symmetry_space_group_name_H-M "P M M A"
_symmetry_group_IT_number 51
_symmetry_cell_setting 'orthorhombic'
loop_
_space_group_symop_operation_xyz
x,y,z
1/2-x,-y,z
1/2+x,-y,-z
-x,y,-z
-x,-y,-z
1/2+x,y,-z
1/2-x,y,z
x,-y,z
loop_
_atom_site_type_symbol
_atom_site_label
_atom_site_fract_x
_atom_site_fract_y
_atom_site_fract_z
Si Si1 0.651248 0.766249 0.145580
Si Si2 0.154903 0.500000 0.110442
Si Si3 0.645699 0.000000 0.426738
Si Si4 0.425576 0.873388 0.091932
Si Si5 0.579163 0.386582 0.101345
Si Si6 0.497371 0.500000 0.682667
Si Si7 0.950796 0.857066 0.351179
Si Si8 0.843136 0.000000 0.761927
O O1 0.750000 0.777171 0.136169
O O2 0.628939 0.683312 0.150259
O O3 0.618355 0.798437 0.303409
O O4 0.611714 0.806944 0.001270
O O5 0.250000 0.500000 0.173851
O O6 0.093124 0.500000 0.254618
O O7 0.141003 0.568133 0.004274
O O8 0.601529 0.931584 0.349463
O O9 0.750000 0.000000 0.407083
O O10 0.609421 0.000000 0.600196
O O11 0.469821 0.847585 0.242005
O O12 0.355222 0.930961 0.134152
O O13 0.500000 0.913276 0.000000
O O14 0.550581 0.430180 0.250988
O O15 0.500000 0.364111 0.000000
O O16 0.500000 0.500000 0.500000
O O17 0.000000 0.837104 0.500000
O O18 0.750000 0.000000 0.700959
#
# Coordination Sequence:
#
# PCOD8213381 Si02
#       8
#     8   4   4   8   8   4   8   4
#     4  11  23  38  56  83 115 145 186 238 283 326
#     4   9  17  33  60  88 113 148 192 231 266 318
#     4  11  22  36  57  81 108 142 187 240 290 341
#     4  10  21  36  55  77 103 141 185 232 285 342
#     4   9  18  36  59  83 113 154 191 218 269 334
#     4   9  19  35  61  90 119 150 184 227 270 330
#     4  11  21  38  58  78 106 147 189 228 283 350
#     4  11  20  33  53  78 106 138 181 240 292 335
#
# _framework density 18.275714000000001
#
# number of rings (size 3 to 8) (size 9 to 14) (size 15 to 20)
#    0.000    1.833    1.667    5.000    0.000    2.667 
#    0.000    6.667    0.000    0.000    0.000    0.000 
#    0.000    0.000    0.000    0.000    0.000    0.000 
#
# Total GULP energy -594644.355040 kJ/mol
# GULP energy per Si atom -12388.424063 kJ/mol
# Density = 1.823412 g / cm^3
# Si number density = 18.275714 Si / 1000 Ang^3
#
#
#
# Elastic Constant Matrix: (Units=GPa)
#
#
# Indices 1 2 3 4 5 6 
#
# 1 122.6932 52.0154 57.1110 0.0000 0.0000 0.0000
# 2 52.0154 123.3282 49.8703 0.0000 0.0000 0.0000
# 3 57.1110 49.8703 126.8628 0.0000 0.0000 0.0000
# 4 0.0000 0.0000 0.0000 21.3083 0.0000 0.0000
# 5 0.0000 0.0000 0.0000 0.0000 26.3694 0.0000
# 6 0.0000 0.0000 0.0000 0.0000 0.0000 21.5882
#
#
#
# Elastic Compliance Matrix: (Units=1/GPa)
#
#
# Indices 1 2 3 4 5 6 
#
# 1 0.011292 -0.003219 -0.003818 0.000000 0.000000 0.000000
# 2 -0.003219 0.010558 -0.002702 0.000000 0.000000 0.000000
# 3 -0.003818 -0.002702 0.010663 0.000000 0.000000 0.000000
# 4 0.000000 0.000000 0.000000 0.046930 0.000000 0.000000
# 5 0.000000 0.000000 0.000000 0.000000 0.037923 0.000000
# 6 0.000000 0.000000 0.000000 0.000000 0.000000 0.046322
#
#
# Mechanical properties :
#
#
# Convention : Reuss Voigt Hill
#
# Bulk Modulus (GPa) = 76.70430 76.76415 76.73423
# Shear Modulus (GPa) = 26.66505 28.11234 27.38870
#
# Velocity S-wave (km/s) = 3.82389 3.92629 3.87543
# Velocity P-wave (km/s) = 7.84588 7.91510 7.88057
#
# Compressibility (1/GPa) = 0.01303708
#
# Stress axis : x y z
#
# Youngs Moduli (GPa) = 88.55605 94.71129 93.77840
#
# Poissons Ratio (x) = 0.30485 0.35807
# Poissons Ratio (y) = 0.28503 0.25335
# Poissons Ratio (z) = 0.33813 0.25587
#
# Static dielectric constant tensor:
#      x y z
#    x 3.513930 0.000000 0.000000 
#    y 0.000000 3.309670 0.000000 
#    z 0.000000 0.000000 6.456390 
# 
# 
# High freq. dielectric constant tensor:
#      x y z
#    x 1.719120 0.000000 0.000000 
#    y 0.000000 1.700680 0.000000 
#    z 0.000000 0.000000 1.706840 
# 
# From -- ./inp_files/8414.got.cif
#   From: 2010.03.12/outbox.cif.g09.slc.cpg/sg51_5_cif.got.tgz:8414.got - 2010.04.16 13:43:02.
