data_PCOD8213763
_publ_section_title
;
Structure prediction by ZEFSAII (Michael W. Deem and Ramdas Pophale) SiO2 
 PCOD8213763
Probable space group: P M M A
;
_chemical_formula_sum "Si O2"
_cell_formula_units_Z 64
_cell_length_a 23.682768
_cell_length_b 8.901214
_cell_length_c 14.926355
_cell_angle_alpha 90.000000
_cell_angle_beta 90.000000
_cell_angle_gamma 90.000000
_cell_volume 3146.556029
_symmetry_space_group_name_H-M "P M M A"
_symmetry_group_IT_number 51
_symmetry_cell_setting 'orthorhombic'
loop_
_space_group_symop_operation_xyz
x,y,z
1/2-x,-y,z
1/2+x,-y,-z
-x,y,-z
-x,-y,-z
1/2+x,y,-z
1/2-x,y,z
x,-y,z
loop_
_atom_site_type_symbol
_atom_site_label
_atom_site_fract_x
_atom_site_fract_y
_atom_site_fract_z
Si Si1 0.814494 0.328137 0.698558
Si Si2 0.613781 0.177455 0.850412
Si Si3 0.999858 0.676733 0.898126
Si Si4 0.184793 0.824966 0.978136
Si Si5 0.983321 0.667454 0.602391
Si Si6 0.905768 0.822679 0.353301
Si Si7 0.378992 0.323064 0.821317
Si Si8 0.873673 0.176510 0.552237
O O1 0.750000 0.313179 0.728315
O O2 0.834577 0.500000 0.699527
O O3 0.852021 0.231601 0.765048
O O4 0.820953 0.261020 0.597858
O O5 0.551017 0.244572 0.845404
O O6 0.609936 0.000000 0.847828
O O7 0.646524 0.232472 0.939514
O O8 0.989917 0.500000 0.893539
O O9 0.059082 0.724983 0.855125
O O10 0.000000 0.734624 0.000000
O O11 0.250000 0.792752 0.001441
O O12 0.168195 0.731497 0.890511
O O13 0.174381 0.000000 0.958891
O O14 0.972904 0.500000 0.642177
O O15 0.927949 0.769463 0.609335
O O16 0.000000 0.654845 0.500000
O O17 0.033006 0.746292 0.657832
O O18 0.866973 0.758801 0.273520
O O19 0.877349 0.777728 0.447909
O O20 0.913186 0.000000 0.346081
O O21 0.373438 0.500000 0.808282
O O22 0.867205 0.000000 0.563255
#
# Coordination Sequence:
#
# PCOD8213763 Si02
#       8
#     8   8   8   8   8   8   8   8
#     4  11  25  43  63  88 120 159 203 254 309 366
#     4  11  23  39  64  93 123 159 201 248 301 365
#     4  10  21  39  60  87 127 165 200 247 304 363
#     4  10  22  41  63  87 118 156 199 250 302 355
#     4   9  17  31  53  81 113 149 188 234 287 346
#     4  10  21  37  58  85 120 158 198 245 300 357
#     4  11  23  38  60  89 123 164 206 251 302 358
#     4  10  21  38  60  85 114 152 197 247 300 355
#
# _framework density 20.339699
#
# number of rings (size 3 to 8) (size 9 to 14) (size 15 to 20)
#    0.000    1.750    1.250    2.625    1.750    6.500 
#    0.000    0.625    0.000    0.750    0.000    0.000 
#    0.000    0.000    0.000    0.000    0.000    0.000 
#
# Total GULP energy -793838.443811 kJ/mol
# GULP energy per Si atom -12403.725685 kJ/mol
# Density = 2.029340 g / cm^3
# Si number density = 20.339699 Si / 1000 Ang^3
#
#
#
# Elastic Constant Matrix: (Units=GPa)
#
#
# Indices 1 2 3 4 5 6 
#
# 1 66.5235 20.7166 14.3212 0.0000 0.0000 0.0000
# 2 20.7166 55.6340 19.6857 0.0000 0.0000 0.0000
# 3 14.3212 19.6857 84.9034 0.0000 0.0000 0.0000
# 4 0.0000 0.0000 0.0000 32.8496 0.0000 0.0000
# 5 0.0000 0.0000 0.0000 0.0000 28.8723 0.0000
# 6 0.0000 0.0000 0.0000 0.0000 0.0000 27.9267
#
#
#
# Elastic Compliance Matrix: (Units=1/GPa)
#
#
# Indices 1 2 3 4 5 6 
#
# 1 0.017187 -0.005855 -0.001542 0.000000 0.000000 0.000000
# 2 -0.005855 0.021575 -0.004015 0.000000 0.000000 0.000000
# 3 -0.001542 -0.004015 0.012969 0.000000 0.000000 0.000000
# 4 0.000000 0.000000 0.000000 0.030442 0.000000 0.000000
# 5 0.000000 0.000000 0.000000 0.000000 0.034635 0.000000
# 6 0.000000 0.000000 0.000000 0.000000 0.000000 0.035808
#
#
# Mechanical properties :
#
#
# Convention : Reuss Voigt Hill
#
# Bulk Modulus (GPa) = 34.59080 35.16752 34.87916
# Shear Modulus (GPa) = 27.01597 28.08556 27.55076
#
# Velocity S-wave (km/s) = 3.64845 3.71998 3.68439
# Velocity P-wave (km/s) = 5.89845 5.98152 5.94013
#
# Compressibility (1/GPa) = 0.02890942
#
# Stress axis : x y z
#
# Youngs Moduli (GPa) = 58.18219 46.34914 77.10682
#
# Poissons Ratio (x) = 0.27136 0.11887
# Poissons Ratio (y) = 0.34063 0.30958
# Poissons Ratio (z) = 0.08970 0.18609
#
# Static dielectric constant tensor:
#      x y z
#    x 3.617460 0.000000 0.000000 
#    y 0.000000 3.674160 0.000000 
#    z 0.000000 0.000000 3.805240 
# 
# 
# High freq. dielectric constant tensor:
#      x y z
#    x 1.779470 0.000000 0.000000 
#    y 0.000000 1.800400 0.000000 
#    z 0.000000 0.000000 1.803060 
# 
# From -- ./inp_files/26215.got.cif
#   From: 2010.03.12/outbox.cif.g09.slc.cpg/sg51_14_cif.got.tgz:26215.got - 2010.04.16 13:43:02.
