data_PCOD8213562
_publ_section_title
;
Structure prediction by ZEFSAII (Michael W. Deem and Ramdas Pophale) SiO2 
 PCOD8213562
Probable space group: P M M A
;
_chemical_formula_sum "Si O2"
_cell_formula_units_Z 44
_cell_length_a 9.222304
_cell_length_b 8.007245
_cell_length_c 29.561874
_cell_angle_alpha 90.000000
_cell_angle_beta 90.000000
_cell_angle_gamma 90.000000
_cell_volume 2183.003905
_symmetry_space_group_name_H-M "P M M A"
_symmetry_group_IT_number 51
_symmetry_cell_setting 'orthorhombic'
loop_
_space_group_symop_operation_xyz
x,y,z
1/2-x,-y,z
1/2+x,-y,-z
-x,y,-z
-x,-y,-z
1/2+x,y,-z
1/2-x,y,z
x,-y,z
loop_
_atom_site_type_symbol
_atom_site_label
_atom_site_fract_x
_atom_site_fract_y
_atom_site_fract_z
Si Si1 0.912881 0.692179 0.701524
Si Si2 0.574048 0.000000 0.451595
Si Si3 0.089554 0.308918 0.134793
Si Si4 0.088420 0.190286 0.782672
Si Si5 0.579643 0.692787 0.597064
Si Si6 0.089636 0.806097 0.041004
O O1 0.750000 0.758100 0.708738
O O2 0.923684 0.500000 0.715900
O O3 0.958140 0.715669 0.649639
O O4 0.017781 0.797679 0.733231
O O5 0.500000 0.000000 0.500000
O O6 0.519860 0.171389 0.428089
O O7 0.750000 0.000000 0.454003
O O8 0.250000 0.232619 0.144277
O O9 0.101966 0.500000 0.122146
O O10 0.017555 0.221786 0.090580
O O11 0.995604 0.292612 0.179609
O O12 0.250000 0.263270 0.779271
O O13 0.089301 0.000000 0.798298
O O14 0.750000 0.728217 0.587868
O O15 0.543599 0.500000 0.582330
O O16 0.250000 0.724504 0.041635
O O17 0.101398 0.000000 0.030746
O O18 0.000000 0.720967 0.000000
#
# Coordination Sequence:
#
# PCOD8213562 Si02
#       6
#     8   4   8   8   8   8
#     4   9  19  37  61  87 114 149 192 235 284 345
#     4  12  26  42  64  94 130 170 214 262 313 372
#     4  10  21  37  56  77 103 138 182 227 271 327
#     4  11  24  37  51  78 114 148 185 229 279 334
#     4   9  20  41  67  94 126 164 209 261 314 370
#     4   9  18  33  53  76 102 133 170 215 267 325
#
# _framework density 20.155715000000001
#
# number of rings (size 3 to 8) (size 9 to 14) (size 15 to 20)
#    0.000    2.182    0.000    3.545    1.273    7.636 
#    0.000    3.636    0.000    0.000    0.000    0.000 
#    0.000    0.000    0.000    0.000    0.000    0.000 
#
# Total GULP energy -545406.826360 kJ/mol
# GULP energy per Si atom -12395.609690 kJ/mol
# Density = 2.010984 g / cm^3
# Si number density = 20.155715 Si / 1000 Ang^3
#
#
#
# Elastic Constant Matrix: (Units=GPa)
#
#
# Indices 1 2 3 4 5 6 
#
# 1 119.8724 43.5786 73.1520 0.0000 0.0000 0.0000
# 2 43.5786 74.0163 40.0278 0.0000 0.0000 0.0000
# 3 73.1520 40.0278 131.8109 0.0000 0.0000 0.0000
# 4 0.0000 0.0000 0.0000 15.5102 0.0000 0.0000
# 5 0.0000 0.0000 0.0000 0.0000 36.7347 0.0000
# 6 0.0000 0.0000 0.0000 0.0000 0.0000 27.2622
#
#
#
# Elastic Compliance Matrix: (Units=1/GPa)
#
#
# Indices 1 2 3 4 5 6 
#
# 1 0.013909 -0.004804 -0.006260 0.000000 0.000000 0.000000
# 2 -0.004804 0.017824 -0.002747 0.000000 0.000000 0.000000
# 3 -0.006260 -0.002747 0.011895 0.000000 0.000000 0.000000
# 4 0.000000 0.000000 0.000000 0.064474 0.000000 0.000000
# 5 0.000000 0.000000 0.000000 0.000000 0.027222 0.000000
# 6 0.000000 0.000000 0.000000 0.000000 0.000000 0.036681
#
#
# Mechanical properties :
#
#
# Convention : Reuss Voigt Hill
#
# Bulk Modulus (GPa) = 62.47431 71.02404 66.74918
# Shear Modulus (GPa) = 24.39470 27.16415 25.77943
#
# Velocity S-wave (km/s) = 3.48273 3.67511 3.58021
# Velocity P-wave (km/s) = 6.87282 7.30224 7.09078
#
# Compressibility (1/GPa) = 0.01600658
#
# Stress axis : x y z
#
# Youngs Moduli (GPa) = 71.89645 56.10328 84.06761
#
# Poissons Ratio (x) = 0.26949 0.52630
# Poissons Ratio (y) = 0.34536 0.23093
# Poissons Ratio (z) = 0.45010 0.15411
#
# Static dielectric constant tensor:
#      x y z
#    x 3.804450 0.000000 0.000000 
#    y 0.000000 3.581470 0.000000 
#    z 0.000000 0.000000 3.637610 
# 
# 
# High freq. dielectric constant tensor:
#      x y z
#    x 1.774810 0.000000 0.000000 
#    y 0.000000 1.784970 0.000000 
#    z 0.000000 0.000000 1.793860 
# 
# From -- ./inp_files/36793.got.cif
#   From: 2010.03.12/outbox.cif.g09.slc.cpg/sg51_19_cif.got.tgz:36793.got - 2010.04.16 13:43:02.
