data_PCOD8213797
_publ_section_title
;
Structure prediction by ZEFSAII (Michael W. Deem and Ramdas Pophale) SiO2 
 PCOD8213797
Probable space group: P M M A
;
_chemical_formula_sum "Si O2"
_cell_formula_units_Z 40
_cell_length_a 9.779383
_cell_length_b 13.843021
_cell_length_c 14.029781
_cell_angle_alpha 90.000000
_cell_angle_beta 90.000000
_cell_angle_gamma 90.000000
_cell_volume 1899.298498
_symmetry_space_group_name_H-M "P M M A"
_symmetry_group_IT_number 51
_symmetry_cell_setting 'orthorhombic'
loop_
_space_group_symop_operation_xyz
x,y,z
1/2-x,-y,z
1/2+x,-y,-z
-x,y,-z
-x,-y,-z
1/2+x,y,-z
1/2-x,y,z
x,-y,z
loop_
_atom_site_type_symbol
_atom_site_label
_atom_site_fract_x
_atom_site_fract_y
_atom_site_fract_z
Si Si1 0.250000 0.615955 0.362404
Si Si2 0.529068 0.308350 0.292474
Si Si3 0.906595 0.388874 0.088314
Si Si4 0.401605 0.110364 0.077096
Si Si5 0.750000 0.609463 0.425995
Si Si6 0.094636 0.105954 0.745398
O O1 0.250000 0.500000 0.354354
O O2 0.374686 0.661691 0.305628
O O3 0.250000 0.659647 0.470053
O O4 0.567513 0.323915 0.181762
O O5 0.616105 0.372151 0.364503
O O6 0.563416 0.196975 0.323008
O O7 0.750000 0.377231 0.056078
O O8 0.940162 0.500000 0.114979
O O9 0.000000 0.354157 0.000000
O O10 0.250000 0.159286 0.082643
O O11 0.478197 0.116442 0.176272
O O12 0.380687 0.000000 0.045158
O O13 0.500000 0.163323 0.000000
O O14 0.750000 0.500000 0.455988
O O15 0.250000 0.114079 0.786440
O O16 0.078493 0.000000 0.695092
#
# Coordination Sequence:
#
# PCOD8213797 Si02
#       6
#     4   8   8   8   4   8
#     4  11  26  42  68 104 132 159 202 266 330 394
#     4  12  23  41  66  97 130 172 212 260 322 385
#     4  10  21  37  59  88 126 170 213 256 309 381
#     4   9  17  30  51  79 114 157 207 265 320 366
#     4  11  22  44  72  98 128 161 206 264 332 396
#     4  10  21  38  59  85 120 166 217 264 312 367
#
# _framework density 21.060407000000001
#
# number of rings (size 3 to 8) (size 9 to 14) (size 15 to 20)
#    0.000    1.600    2.000    3.000    2.800    4.800 
#    0.000    2.000    0.000    3.600    0.000    0.000 
#    0.000    0.000    0.000    0.000    0.000    0.000 
#
# Total GULP energy -495716.964167 kJ/mol
# GULP energy per Si atom -12392.924104 kJ/mol
# Density = 2.101247 g / cm^3
# Si number density = 21.060407 Si / 1000 Ang^3
#
#
#
# Elastic Constant Matrix: (Units=GPa)
#
#
# Indices 1 2 3 4 5 6 
#
# 1 178.2480 35.8035 31.6165 0.0000 0.0000 0.0000
# 2 35.8035 105.8495 21.5518 0.0000 0.0000 0.0000
# 3 31.6165 21.5518 75.5009 0.0000 0.0000 0.0000
# 4 0.0000 0.0000 0.0000 9.7728 0.0000 0.0000
# 5 0.0000 0.0000 0.0000 0.0000 8.9940 0.0000
# 6 0.0000 0.0000 0.0000 0.0000 0.0000 12.2257
#
#
#
# Elastic Compliance Matrix: (Units=1/GPa)
#
#
# Indices 1 2 3 4 5 6 
#
# 1 0.006337 -0.001702 -0.002168 0.000000 0.000000 0.000000
# 2 -0.001702 0.010487 -0.002281 0.000000 0.000000 0.000000
# 3 -0.002168 -0.002281 0.014804 0.000000 0.000000 0.000000
# 4 0.000000 0.000000 0.000000 0.102325 0.000000 0.000000
# 5 0.000000 0.000000 0.000000 0.000000 0.111185 0.000000
# 6 0.000000 0.000000 0.000000 0.000000 0.000000 0.081795
#
#
# Mechanical properties :
#
#
# Convention : Reuss Voigt Hill
#
# Bulk Modulus (GPa) = 51.74222 59.72689 55.73456
# Shear Modulus (GPa) = 14.46441 24.24027 19.35234
#
# Velocity S-wave (km/s) = 2.62354 3.39630 3.03462
# Velocity P-wave (km/s) = 5.81370 6.61825 6.22898
#
# Compressibility (1/GPa) = 0.01932658
#
# Stress axis : x y z
#
# Youngs Moduli (GPa) = 157.81571 95.35177 67.55072
#
# Poissons Ratio (x) = 0.16229 0.14642
# Poissons Ratio (y) = 0.26860 0.15408
# Poissons Ratio (z) = 0.34209 0.21749
#
# Static dielectric constant tensor:
#      x y z
#    x 3.881530 0.000000 0.000000 
#    y 0.000000 4.115080 0.000000 
#    z 0.000000 0.000000 3.439130 
# 
# 
# High freq. dielectric constant tensor:
#      x y z
#    x 1.846070 0.000000 0.000000 
#    y 0.000000 1.829470 0.000000 
#    z 0.000000 0.000000 1.786460 
# 
# From -- ./inp_files/20563.got.cif
#   From: 2010.03.12/outbox.cif.g09.slc.cpg/sg51_11_cif.got.tgz:20563.got - 2010.04.16 13:43:02.
