data_PCOD8213110
_publ_section_title
;
Structure prediction by ZEFSAII (Michael W. Deem and Ramdas Pophale) SiO2 
 PCOD8213110
Probable space group: P M M A
;
_chemical_formula_sum "Si O2"
_cell_formula_units_Z 64
_cell_length_a 32.922370
_cell_length_b 8.995355
_cell_length_c 11.470298
_cell_angle_alpha 90.000000
_cell_angle_beta 90.000000
_cell_angle_gamma 90.000000
_cell_volume 3396.910464
_symmetry_space_group_name_H-M "P M M A"
_symmetry_group_IT_number 51
_symmetry_cell_setting 'orthorhombic'
loop_
_space_group_symop_operation_xyz
x,y,z
1/2-x,-y,z
1/2+x,-y,-z
-x,y,-z
-x,-y,-z
1/2+x,y,-z
1/2-x,y,z
x,-y,z
loop_
_atom_site_type_symbol
_atom_site_label
_atom_site_fract_x
_atom_site_fract_y
_atom_site_fract_z
Si Si1 0.297027 0.330243 0.462411
Si Si2 0.356886 0.330859 0.657251
Si Si3 0.630762 0.324117 0.897839
Si Si4 0.023288 0.825867 0.738811
Si Si5 0.893688 0.174128 0.135151
Si Si6 0.796814 0.824921 0.774584
Si Si7 0.443190 0.325009 0.263262
Si Si8 0.559656 0.668818 0.471908
O O1 0.250000 0.314583 0.489289
O O2 0.309589 0.500000 0.432650
O O3 0.318916 0.276431 0.580204
O O4 0.310029 0.229709 0.353462
O O5 0.351251 0.500000 0.702001
O O6 0.360995 0.222107 0.767292
O O7 0.394981 0.317304 0.572944
O O8 0.636309 0.500000 0.901778
O O9 0.674333 0.251664 0.869713
O O10 0.597539 0.273972 0.802494
O O11 0.614905 0.267440 0.020878
O O12 0.061218 0.783258 0.820842
O O13 0.029375 0.764332 0.607815
O O14 0.982662 0.753788 0.793605
O O15 0.017538 0.000000 0.731117
O O16 0.889126 0.000000 0.110141
O O17 0.750000 0.779464 0.800468
O O18 0.802747 0.000000 0.781526
O O19 0.449040 0.500000 0.251519
O O20 0.439860 0.271106 0.396550
O O21 0.543836 0.500000 0.466406
#
# Coordination Sequence:
#
# PCOD8213110 Si02
#       8
#     8   8   8   8   8   8   8   8
#     4   9  17  31  54  84 115 143 174 215 261 314
#     4   9  17  32  54  77 103 139 181 222 267 318
#     4  11  23  39  59  81 105 139 186 230 267 314
#     4  10  21  35  52  76 106 140 177 219 269 323
#     4  10  22  39  55  74 104 142 184 228 274 322
#     4  10  21  37  58  85 116 146 174 210 263 321
#     4  10  21  35  53  79 108 138 175 220 268 318
#     4   9  17  31  51  74 103 137 173 217 268 321
#
# _framework density 18.840648999999999
#
# number of rings (size 3 to 8) (size 9 to 14) (size 15 to 20)
#    0.000    2.250    0.000    2.625    0.000    8.250 
#    0.000    5.625    0.000    2.250    0.000    0.000 
#    0.000    0.000    0.000    0.000    0.000    0.000 
#
# Total GULP energy -793745.397605 kJ/mol
# GULP energy per Si atom -12402.271838 kJ/mol
# Density = 1.879777 g / cm^3
# Si number density = 18.840649 Si / 1000 Ang^3
#
#
#
# Elastic Constant Matrix: (Units=GPa)
#
#
# Indices 1 2 3 4 5 6 
#
# 1 92.3875 48.8368 61.7726 0.0000 0.0000 0.0000
# 2 48.8368 67.5324 45.9186 0.0000 0.0000 0.0000
# 3 61.7726 45.9186 104.5430 0.0000 0.0000 0.0000
# 4 0.0000 0.0000 0.0000 19.6326 0.0000 0.0000
# 5 0.0000 0.0000 0.0000 0.0000 21.1642 0.0000
# 6 0.0000 0.0000 0.0000 0.0000 0.0000 28.2004
#
#
#
# Elastic Compliance Matrix: (Units=1/GPa)
#
#
# Indices 1 2 3 4 5 6 
#
# 1 0.021767 -0.009975 -0.008481 0.000000 0.000000 0.000000
# 2 -0.009975 0.025684 -0.005387 0.000000 0.000000 0.000000
# 3 -0.008481 -0.005387 0.016943 0.000000 0.000000 0.000000
# 4 0.000000 0.000000 0.000000 0.050936 0.000000 0.000000
# 5 0.000000 0.000000 0.000000 0.000000 0.047250 0.000000
# 6 0.000000 0.000000 0.000000 0.000000 0.000000 0.035461
#
#
# Mechanical properties :
#
#
# Convention : Reuss Voigt Hill
#
# Bulk Modulus (GPa) = 59.84934 64.16878 62.00906
# Shear Modulus (GPa) = 19.89695 20.99508 20.44601
#
# Velocity S-wave (km/s) = 3.25324 3.34181 3.29782
# Velocity P-wave (km/s) = 6.77838 7.00163 6.89091
#
# Compressibility (1/GPa) = 0.01670862
#
# Stress axis : x y z
#
# Youngs Moduli (GPa) = 45.94118 38.93441 59.02222
#
# Poissons Ratio (x) = 0.38836 0.50054
# Poissons Ratio (y) = 0.45825 0.31798
# Poissons Ratio (z) = 0.38960 0.20976
#
# Static dielectric constant tensor:
#      x y z
#    x 3.608570 0.000000 0.000000 
#    y 0.000000 3.413970 0.000000 
#    z 0.000000 0.000000 3.412090 
# 
# 
# High freq. dielectric constant tensor:
#      x y z
#    x 1.738050 0.000000 0.000000 
#    y 0.000000 1.728810 0.000000 
#    z 0.000000 0.000000 1.721990 
# 
# From -- ./inp_files/19466.got.cif
#   From: 2010.03.12/outbox.cif.g09.slc.cpg/sg51_10_cif.got.tgz:19466.got - 2010.04.16 13:43:02.
