data_PCOD8213876
_publ_section_title
;
Structure prediction by ZEFSAII (Michael W. Deem and Ramdas Pophale) SiO2 
 PCOD8213876
Probable space group: P M M A
;
_chemical_formula_sum "Si O2"
_cell_formula_units_Z 56
_cell_length_a 8.770414
_cell_length_b 21.127303
_cell_length_c 15.267188
_cell_angle_alpha 90.000000
_cell_angle_beta 90.000000
_cell_angle_gamma 90.000000
_cell_volume 2828.936562
_symmetry_space_group_name_H-M "P M M A"
_symmetry_group_IT_number 51
_symmetry_cell_setting 'orthorhombic'
loop_
_space_group_symop_operation_xyz
x,y,z
1/2-x,-y,z
1/2+x,-y,-z
-x,y,-z
-x,-y,-z
1/2+x,y,-z
1/2-x,y,z
x,-y,z
loop_
_atom_site_type_symbol
_atom_site_label
_atom_site_fract_x
_atom_site_fract_y
_atom_site_fract_z
Si Si1 0.928894 0.623516 0.661816
Si Si2 0.929444 0.072940 0.406628
Si Si3 0.077550 0.266450 0.580395
Si Si4 0.070909 0.500000 0.594856
Si Si5 0.577414 0.829662 0.266512
Si Si6 0.068107 0.500000 0.094849
Si Si7 0.929995 0.765589 0.091090
Si Si8 0.069951 0.630835 0.838819
O O1 0.750000 0.611686 0.667137
O O2 0.972973 0.670711 0.583952
O O3 0.015980 0.558442 0.650885
O O4 0.997952 0.654709 0.748679
O O5 0.750000 0.087280 0.414215
O O6 0.998143 0.112380 0.322910
O O7 0.000000 0.093521 0.500000
O O8 0.965918 0.000000 0.387122
O O9 0.250000 0.284475 0.557622
O O10 0.068771 0.230464 0.671114
O O11 0.000000 0.227078 0.500000
O O12 0.250000 0.500000 0.584358
O O13 0.000000 0.500000 0.500000
O O14 0.750000 0.849479 0.246132
O O15 0.502539 0.808148 0.172997
O O16 0.250000 0.500000 0.094258
O O17 0.011283 0.564885 0.138072
O O18 0.000000 0.500000 0.000000
O O19 0.750000 0.775140 0.089662
O O20 0.967101 0.690269 0.097696
O O21 0.000000 0.790994 0.000000
O O22 0.250000 0.618930 0.831907
#
# Coordination Sequence:
#
# PCOD8213876 Si02
#       8
#     8   8   8   4   8   4   8   8
#     4  12  24  39  57  80 107 139 182 230 279 341
#     4   9  17  31  55  87 122 159 196 234 279 333
#     4  11  21  36  55  79 111 148 186 229 280 335
#     4  12  25  42  59  76 102 140 186 231 282 341
#     4   9  18  35  56  80 115 153 191 233 282 338
#     4  12  25  40  57  82 110 140 180 233 292 359
#     4  10  21  38  59  82 110 147 190 240 292 344
#     4  11  22  40  61  81 107 143 183 234 297 354
#
# _framework density 19.795425999999999
#
# number of rings (size 3 to 8) (size 9 to 14) (size 15 to 20)
#    0.000    1.429    1.429    5.143    0.000    2.286 
#    0.000    1.429    0.000    0.429    0.000    0.000 
#    0.000    0.000    0.000    0.000    0.000    0.000 
#
# Total GULP energy -693883.981355 kJ/mol
# GULP energy per Si atom -12390.785381 kJ/mol
# Density = 1.975037 g / cm^3
# Si number density = 19.795426 Si / 1000 Ang^3
#
#
#
# Elastic Constant Matrix: (Units=GPa)
#
#
# Indices 1 2 3 4 5 6 
#
# 1 100.6161 33.9024 43.0851 0.0000 0.0000 0.0000
# 2 33.9024 102.6438 47.2961 0.0000 0.0000 0.0000
# 3 43.0851 47.2961 145.4732 0.0000 0.0000 0.0000
# 4 0.0000 0.0000 0.0000 30.0197 0.0000 0.0000
# 5 0.0000 0.0000 0.0000 0.0000 35.6057 0.0000
# 6 0.0000 0.0000 0.0000 0.0000 0.0000 10.1600
#
#
#
# Elastic Compliance Matrix: (Units=1/GPa)
#
#
# Indices 1 2 3 4 5 6 
#
# 1 0.012002 -0.002736 -0.002665 0.000000 0.000000 0.000000
# 2 -0.002736 0.012083 -0.003118 0.000000 0.000000 0.000000
# 3 -0.002665 -0.003118 0.008677 0.000000 0.000000 0.000000
# 4 0.000000 0.000000 0.000000 0.033312 0.000000 0.000000
# 5 0.000000 0.000000 0.000000 0.000000 0.028085 0.000000
# 6 0.000000 0.000000 0.000000 0.000000 0.000000 0.098425
#
#
# Mechanical properties :
#
#
# Convention : Reuss Voigt Hill
#
# Bulk Modulus (GPa) = 63.59890 66.36669 64.98280
# Shear Modulus (GPa) = 23.27060 30.12038 26.69549
#
# Velocity S-wave (km/s) = 3.43236 3.90498 3.67627
# Velocity P-wave (km/s) = 6.92141 7.34376 7.13571
#
# Compressibility (1/GPa) = 0.01572354
#
# Stress axis : x y z
#
# Youngs Moduli (GPa) = 83.32009 82.76191 115.24519
#
# Poissons Ratio (x) = 0.22645 0.30714
# Poissons Ratio (y) = 0.22797 0.35933
# Poissons Ratio (z) = 0.22205 0.25805
#
# Static dielectric constant tensor:
#      x y z
#    x 3.490940 0.000000 0.000000 
#    y 0.000000 3.022630 0.000000 
#    z 0.000000 0.000000 3.996290 
# 
# 
# High freq. dielectric constant tensor:
#      x y z
#    x 1.758140 0.000000 0.000000 
#    y 0.000000 1.760500 0.000000 
#    z 0.000000 0.000000 1.782650 
# 
# From -- ./inp_files/21909.got.cif
#   From: 2010.03.12/outbox.cif.g09.slc.cpg/sg51_11_cif.got.tgz:21909.got - 2010.04.16 13:43:02.
