data_PCOD8213365
_publ_section_title
;
Structure prediction by ZEFSAII (Michael W. Deem and Ramdas Pophale) SiO2 
 PCOD8213365
Probable space group: P M M A
;
_chemical_formula_sum "Si O2"
_cell_formula_units_Z 56
_cell_length_a 8.926507
_cell_length_b 19.096694
_cell_length_c 15.852461
_cell_angle_alpha 90.000000
_cell_angle_beta 90.000000
_cell_angle_gamma 90.000000
_cell_volume 2702.317866
_symmetry_space_group_name_H-M "P M M A"
_symmetry_group_IT_number 51
_symmetry_cell_setting 'orthorhombic'
loop_
_space_group_symop_operation_xyz
x,y,z
1/2-x,-y,z
1/2+x,-y,-z
-x,y,-z
-x,-y,-z
1/2+x,y,-z
1/2-x,y,z
x,-y,z
loop_
_atom_site_type_symbol
_atom_site_label
_atom_site_fract_x
_atom_site_fract_y
_atom_site_fract_z
Si Si1 0.572102 0.342142 0.414106
Si Si2 0.918176 0.796374 0.840660
Si Si3 0.926125 0.652357 0.913907
Si Si4 0.574724 0.921916 0.087786
Si Si5 0.079770 0.209549 0.348974
Si Si6 0.575878 0.078522 0.409982
Si Si7 0.922257 0.582657 0.741788
O O1 0.500000 0.373467 0.500000
O O2 0.750000 0.344596 0.421219
O O3 0.516654 0.262060 0.405751
O O4 0.520404 0.386974 0.334105
O O5 0.750000 0.820778 0.862662
O O6 0.970234 0.734132 0.902486
O O7 0.924276 0.763873 0.747107
O O8 0.024396 0.864079 0.844990
O O9 0.750000 0.642433 0.922870
O O10 0.983594 0.609061 0.832563
O O11 0.000000 0.623900 0.000000
O O12 0.750000 0.918022 0.075707
O O13 0.525710 0.000000 0.117264
O O14 0.500000 0.901562 0.000000
O O15 0.250000 0.207049 0.383192
O O16 0.007131 0.132432 0.348774
O O17 0.500000 0.085471 0.500000
O O18 0.750000 0.097659 0.417610
O O19 0.554810 0.000000 0.373513
O O20 0.750000 0.606841 0.728889
O O21 0.937971 0.500000 0.739978
#
# Coordination Sequence:
#
# PCOD8213365 Si02
#       7
#     8   8   8   8   8   8   8
#     4  12  25  42  67  96 129 167 210 258 311 372
#     4  10  21  37  58  83 116 156 201 254 306 364
#     4  10  21  39  62  93 128 165 209 253 306 364
#     4  10  21  36  54  78 111 151 199 253 307 366
#     4  11  22  39  61  86 120 159 206 258 311 370
#     4  10  21  37  56  81 115 155 202 255 311 370
#     4  10  22  44  70  95 130 170 207 254 309 366
#
# _framework density 20.722950999999998
#
# number of rings (size 3 to 8) (size 9 to 14) (size 15 to 20)
#    0.000    1.571    1.429    3.429    0.000    6.571 
#    0.000    2.857    0.000    0.000    0.000    0.000 
#    0.000    0.000    0.000    0.000    0.000    0.000 
#
# Total GULP energy -694514.437032 kJ/mol
# GULP energy per Si atom -12402.043518 kJ/mol
# Density = 2.067578 g / cm^3
# Si number density = 20.722951 Si / 1000 Ang^3
#
#
#
# Elastic Constant Matrix: (Units=GPa)
#
#
# Indices 1 2 3 4 5 6 
#
# 1 122.3685 49.7370 54.9985 0.0000 0.0000 0.0000
# 2 49.7370 88.9007 45.1804 0.0000 0.0000 0.0000
# 3 54.9985 45.1804 126.7129 0.0000 0.0000 0.0000
# 4 0.0000 0.0000 0.0000 25.3506 0.0000 0.0000
# 5 0.0000 0.0000 0.0000 0.0000 35.8710 0.0000
# 6 0.0000 0.0000 0.0000 0.0000 0.0000 28.2987
#
#
#
# Elastic Compliance Matrix: (Units=1/GPa)
#
#
# Indices 1 2 3 4 5 6 
#
# 1 0.011624 -0.004811 -0.003330 0.000000 0.000000 0.000000
# 2 -0.004811 0.015729 -0.003520 0.000000 0.000000 0.000000
# 3 -0.003330 -0.003520 0.010592 0.000000 0.000000 0.000000
# 4 0.000000 0.000000 0.000000 0.039447 0.000000 0.000000
# 5 0.000000 0.000000 0.000000 0.000000 0.027878 0.000000
# 6 0.000000 0.000000 0.000000 0.000000 0.000000 0.035337
#
#
# Mechanical properties :
#
#
# Convention : Reuss Voigt Hill
#
# Bulk Modulus (GPa) = 68.38380 70.86821 69.62601
# Shear Modulus (GPa) = 29.62017 30.44181 30.03099
#
# Velocity S-wave (km/s) = 3.78476 3.83690 3.81092
# Velocity P-wave (km/s) = 7.22288 7.34175 7.28255
#
# Compressibility (1/GPa) = 0.01462335
#
# Stress axis : x y z
#
# Youngs Moduli (GPa) = 86.02797 63.57656 94.40799
#
# Poissons Ratio (x) = 0.30587 0.31437
# Poissons Ratio (y) = 0.41388 0.33233
# Poissons Ratio (z) = 0.28647 0.22380
#
# Static dielectric constant tensor:
#      x y z
#    x 3.735520 0.000000 0.000000 
#    y 0.000000 3.751520 0.000000 
#    z 0.000000 0.000000 3.696670 
# 
# 
# High freq. dielectric constant tensor:
#      x y z
#    x 1.807890 0.000000 0.000000 
#    y 0.000000 1.812820 0.000000 
#    z 0.000000 0.000000 1.811300 
# 
# From -- ./inp_files/21843.got.cif
#   From: 2010.03.12/outbox.cif.g09.slc.cpg/sg51_11_cif.got.tgz:21843.got - 2010.04.16 13:43:02.
