data_PCOD8213165
_publ_section_title
;
Structure prediction by ZEFSAII (Michael W. Deem and Ramdas Pophale) SiO2 
 PCOD8213165
Probable space group: P M M A
;
_chemical_formula_sum "Si O2"
_cell_formula_units_Z 48
_cell_length_a 34.095836
_cell_length_b 8.936186
_cell_length_c 7.866001
_cell_angle_alpha 90.000000
_cell_angle_beta 90.000000
_cell_angle_gamma 90.000000
_cell_volume 2396.666141
_symmetry_space_group_name_H-M "P M M A"
_symmetry_group_IT_number 51
_symmetry_cell_setting 'orthorhombic'
loop_
_space_group_symop_operation_xyz
x,y,z
1/2-x,-y,z
1/2+x,-y,-z
-x,y,-z
-x,-y,-z
1/2+x,y,-z
1/2-x,y,z
x,-y,z
loop_
_atom_site_type_symbol
_atom_site_label
_atom_site_fract_x
_atom_site_fract_y
_atom_site_fract_z
Si Si1 0.659818 0.328690 0.306614
Si Si2 0.704239 0.172620 0.001787
Si Si3 0.160243 0.676938 0.298388
Si Si4 0.493458 0.660781 0.191446
Si Si5 0.080911 0.173146 0.295847
Si Si6 0.073227 0.328039 0.639393
O O1 0.673592 0.500000 0.288106
O O2 0.667127 0.275412 0.503448
O O3 0.613814 0.312230 0.256152
O O4 0.683733 0.230881 0.173146
O O5 0.750000 0.196975 0.029695
O O6 0.692876 0.257333 0.827675
O O7 0.693020 0.000000 0.978565
O O8 0.160451 0.500000 0.283156
O O9 0.118437 0.735467 0.228601
O O10 0.482715 0.500000 0.280911
O O11 0.459080 0.780710 0.203656
O O12 0.534875 0.722463 0.259032
O O13 0.500000 0.623395 0.000000
O O14 0.074686 0.208007 0.491569
O O15 0.088979 0.000000 0.263890
O O16 0.070337 0.500000 0.573379
#
# Coordination Sequence:
#
# PCOD8213165 Si02
#       6
#     8   8   8   8   8   8
#     4   9  20  39  64  92 119 157 207 255 299 352
#     4  11  25  42  62  93 130 163 193 238 307 374
#     4  10  22  42  67  91 119 160 210 255 298 354
#     4  10  21  35  54  81 114 156 201 245 292 343
#     4  11  22  36  56  84 116 153 195 244 304 356
#     4   9  19  37  58  82 112 153 202 247 292 346
#
# _framework density 20.027822
#
# number of rings (size 3 to 8) (size 9 to 14) (size 15 to 20)
#    0.000    2.000    0.000    4.000    2.333    8.333 
#    0.000    3.333    0.000    0.000    0.000    0.000 
#    0.000    0.000    0.000    0.000    0.000    0.000 
#
# Total GULP energy -594885.775635 kJ/mol
# GULP energy per Si atom -12393.453659 kJ/mol
# Density = 1.998224 g / cm^3
# Si number density = 20.027822 Si / 1000 Ang^3
#
#
#
# Elastic Constant Matrix: (Units=GPa)
#
#
# Indices 1 2 3 4 5 6 
#
# 1 84.7689 30.7428 34.0270 0.0000 0.0000 0.0000
# 2 30.7428 91.0722 32.3321 0.0000 0.0000 0.0000
# 3 34.0270 32.3321 73.6355 0.0000 0.0000 0.0000
# 4 0.0000 0.0000 0.0000 22.8765 0.0000 0.0000
# 5 0.0000 0.0000 0.0000 0.0000 37.9063 0.0000
# 6 0.0000 0.0000 0.0000 0.0000 0.0000 30.7912
#
#
#
# Elastic Compliance Matrix: (Units=1/GPa)
#
#
# Indices 1 2 3 4 5 6 
#
# 1 0.015198 -0.003124 -0.005651 0.000000 0.000000 0.000000
# 2 -0.003124 0.013650 -0.004550 0.000000 0.000000 0.000000
# 3 -0.005651 -0.004550 0.018190 0.000000 0.000000 0.000000
# 4 0.000000 0.000000 0.000000 0.043713 0.000000 0.000000
# 5 0.000000 0.000000 0.000000 0.000000 0.026381 0.000000
# 6 0.000000 0.000000 0.000000 0.000000 0.000000 0.032477
#
#
# Mechanical properties :
#
#
# Convention : Reuss Voigt Hill
#
# Bulk Modulus (GPa) = 49.04997 49.29783 49.17390
# Shear Modulus (GPa) = 27.31413 28.47312 27.89363
#
# Velocity S-wave (km/s) = 3.69699 3.77461 3.73600
# Velocity P-wave (km/s) = 6.53970 6.60795 6.57391
#
# Compressibility (1/GPa) = 0.02038737
#
# Stress axis : x y z
#
# Youngs Moduli (GPa) = 65.79682 73.25917 54.97615
#
# Poissons Ratio (x) = 0.22887 0.31069
# Poissons Ratio (y) = 0.20555 0.25014
# Poissons Ratio (z) = 0.37185 0.33332
#
# Static dielectric constant tensor:
#      x y z
#    x 2.842440 0.000000 0.000000 
#    y 0.000000 3.565640 0.000000 
#    z 0.000000 0.000000 3.551400 
# 
# 
# High freq. dielectric constant tensor:
#      x y z
#    x 1.788500 0.000000 0.000000 
#    y 0.000000 1.775420 0.000000 
#    z 0.000000 0.000000 1.776100 
# 
# From -- ./inp_files/12824.got.cif
#   From: 2010.03.12/outbox.cif.g09.slc.cpg/sg51_7_cif.got.tgz:12824.got - 2010.04.16 13:43:02.
