data_PCOD8213015
_publ_section_title
;
Structure prediction by ZEFSAII (Michael W. Deem and Ramdas Pophale) SiO2 
 PCOD8213015
Probable space group: P M M A
;
_chemical_formula_sum "Si O2"
_cell_formula_units_Z 40
_cell_length_a 9.535237
_cell_length_b 26.080410
_cell_length_c 9.117832
_cell_angle_alpha 90.000000
_cell_angle_beta 90.000000
_cell_angle_gamma 90.000000
_cell_volume 2267.448816
_symmetry_space_group_name_H-M "P M M A"
_symmetry_group_IT_number 51
_symmetry_cell_setting 'orthorhombic'
loop_
_space_group_symop_operation_xyz
x,y,z
1/2-x,-y,z
1/2+x,-y,-z
-x,y,-z
-x,-y,-z
1/2+x,y,-z
1/2-x,y,z
x,-y,z
loop_
_atom_site_type_symbol
_atom_site_label
_atom_site_fract_x
_atom_site_fract_y
_atom_site_fract_z
Si Si1 0.412333 0.147461 0.645691
Si Si2 0.913787 0.665381 0.350622
Si Si3 0.089579 0.445846 0.644531
Si Si4 0.413577 0.757676 0.852710
Si Si5 0.412281 0.058454 0.858914
O O1 0.500000 0.154543 0.500000
O O2 0.250000 0.148251 0.601631
O O3 0.449386 0.193333 0.754752
O O4 0.454320 0.093916 0.722250
O O5 0.750000 0.673482 0.388316
O O6 0.942483 0.608726 0.276556
O O7 0.963919 0.706919 0.232934
O O8 0.000000 0.672536 0.500000
O O9 0.250000 0.444916 0.594011
O O10 0.060566 0.500000 0.734217
O O11 0.000000 0.447639 0.500000
O O12 0.250000 0.755104 0.892310
O O13 0.500000 0.762298 0.000000
O O14 0.250000 0.065997 0.900199
O O15 0.446383 0.000000 0.814184
O O16 0.500000 0.075611 0.000000
#
# Coordination Sequence:
#
# PCOD8213015 Si02
#       5
#     8   8   8   8   8
#     4  10  21  35  51  73  99 125 156 195 236 278
#     4   9  17  29  46  69  94 119 151 190 230 274
#     4   8  13  22  38  61  88 116 145 180 223 268
#     4  10  21  35  50  69  93 122 157 194 232 278
#     4   9  18  33  52  74 100 129 161 195 230 272
#
# _framework density 17.640971
#
# number of rings (size 3 to 8) (size 9 to 14) (size 15 to 20)
#    0.000    2.800    0.000    1.200    0.000    2.800 
#    0.000    0.000    0.000    0.600    0.000    0.000 
#    0.000    0.000    0.000    0.000    0.000    0.000 
#
# Total GULP energy -495613.959135 kJ/mol
# GULP energy per Si atom -12390.348978 kJ/mol
# Density = 1.760082 g / cm^3
# Si number density = 17.640971 Si / 1000 Ang^3
#
#
#
# Elastic Constant Matrix: (Units=GPa)
#
#
# Indices 1 2 3 4 5 6 
#
# 1 52.6348 46.3308 55.5575 0.0000 0.0000 0.0000
# 2 46.3308 152.8543 74.0809 0.0000 0.0000 0.0000
# 3 55.5575 74.0809 112.7912 0.0000 0.0000 0.0000
# 4 0.0000 0.0000 0.0000 8.6199 0.0000 0.0000
# 5 0.0000 0.0000 0.0000 0.0000 30.8428 0.0000
# 6 0.0000 0.0000 0.0000 0.0000 0.0000 8.6276
#
#
#
# Elastic Compliance Matrix: (Units=1/GPa)
#
#
# Indices 1 2 3 4 5 6 
#
# 1 0.041086 -0.003880 -0.017689 0.000000 0.000000 0.000000
# 2 -0.003880 0.009964 -0.004633 0.000000 0.000000 0.000000
# 3 -0.017689 -0.004633 0.020622 0.000000 0.000000 0.000000
# 4 0.000000 0.000000 0.000000 0.116011 0.000000 0.000000
# 5 0.000000 0.000000 0.000000 0.000000 0.032422 0.000000
# 6 0.000000 0.000000 0.000000 0.000000 0.000000 0.115907
#
#
# Mechanical properties :
#
#
# Convention : Reuss Voigt Hill
#
# Bulk Modulus (GPa) = 51.90234 74.46877 63.18555
# Shear Modulus (GPa) = 12.66343 19.10546 15.88445
#
# Velocity S-wave (km/s) = 2.68216 3.29449 3.00397
# Velocity P-wave (km/s) = 6.25119 7.53503 6.92294
#
# Compressibility (1/GPa) = 0.01926696
#
# Stress axis : x y z
#
# Youngs Moduli (GPa) = 24.33947 100.36582 48.49252
#
# Poissons Ratio (x) = 0.38944 0.85778
# Poissons Ratio (y) = 0.09444 0.22465
# Poissons Ratio (z) = 0.43054 0.46497
#
# Static dielectric constant tensor:
#      x y z
#    x 3.257730 0.000000 0.000000 
#    y 0.000000 4.045820 0.000000 
#    z 0.000000 0.000000 2.924230 
# 
# 
# High freq. dielectric constant tensor:
#      x y z
#    x 1.681700 0.000000 0.000000 
#    y 0.000000 1.716770 0.000000 
#    z 0.000000 0.000000 1.638610 
# 
# From -- ./inp_files/889.got.cif
#   From: 2010.03.12/outbox.cif.g09.slc.cpg/sg51_1_cif.got.tgz:889.got - 2010.04.16 13:43:02.
