data_PCOD8213471
_publ_section_title
;
Structure prediction by ZEFSAII (Michael W. Deem and Ramdas Pophale) SiO2 
 PCOD8213471
Probable space group: P M M A
;
_chemical_formula_sum "Si O2"
_cell_formula_units_Z 40
_cell_length_a 10.116010
_cell_length_b 15.376655
_cell_length_c 13.728650
_cell_angle_alpha 90.000000
_cell_angle_beta 90.000000
_cell_angle_gamma 90.000000
_cell_volume 2135.496941
_symmetry_space_group_name_H-M "P M M A"
_symmetry_group_IT_number 51
_symmetry_cell_setting 'orthorhombic'
loop_
_space_group_symop_operation_xyz
x,y,z
1/2-x,-y,z
1/2+x,-y,-z
-x,y,-z
-x,-y,-z
1/2+x,y,-z
1/2-x,y,z
x,-y,z
loop_
_atom_site_type_symbol
_atom_site_label
_atom_site_fract_x
_atom_site_fract_y
_atom_site_fract_z
Si Si1 0.250000 0.399014 0.364967
Si Si2 0.401518 0.000000 0.589181
Si Si3 0.404532 0.000000 0.908192
Si Si4 0.482791 0.329314 0.720011
Si Si5 0.396682 0.398341 0.923392
Si Si6 0.750000 0.398178 0.405726
Si Si7 0.098097 0.859277 0.749145
O O1 0.250000 0.500000 0.339036
O O2 0.374738 0.354601 0.316888
O O3 0.250000 0.383599 0.479639
O O4 0.500000 0.000000 0.500000
O O5 0.430019 0.085147 0.652806
O O6 0.250000 0.000000 0.552260
O O7 0.437519 0.914600 0.844902
O O8 0.250000 0.000000 0.939160
O O9 0.500000 0.000000 0.000000
O O10 0.446809 0.383986 0.814849
O O11 0.379093 0.351350 0.635604
O O12 0.488694 0.227336 0.745520
O O13 0.250000 0.356650 0.937372
O O14 0.386798 0.500000 0.943592
O O15 0.500000 0.355629 0.000000
O O16 0.750000 0.500000 0.377973
O O17 0.250000 0.830633 0.753318
#
# Coordination Sequence:
#
# PCOD8213471 Si02
#       7
#     4   4   4   8   8   4   8
#     4  11  26  40  57  90 125 160 207 270 318 355
#     4   9  19  37  60  84 114 153 187 229 290 350
#     4   9  19  39  66  92 122 157 191 239 300 360
#     4  12  22  40  62  86 122 162 204 256 308 364
#     4  10  21  36  57  83 111 150 196 241 295 357
#     4  11  22  40  63  84 113 162 215 254 308 379
#     4   9  19  39  60  85 119 155 197 236 287 360
#
# _framework density 18.731003999999999
#
# number of rings (size 3 to 8) (size 9 to 14) (size 15 to 20)
#    0.000    1.800    2.000    3.600    1.400    4.000 
#    3.600    1.000    0.000    0.000    0.000    0.000 
#    0.000    0.000    0.000    0.000    0.000    0.000 
#
# Total GULP energy -496067.443377 kJ/mol
# GULP energy per Si atom -12401.686084 kJ/mol
# Density = 1.868837 g / cm^3
# Si number density = 18.731004 Si / 1000 Ang^3
#
#
#
# Elastic Constant Matrix: (Units=GPa)
#
#
# Indices 1 2 3 4 5 6 
#
# 1 161.1982 56.2540 84.2676 0.0000 0.0000 0.0000
# 2 56.2540 100.8599 45.3854 0.0000 0.0000 0.0000
# 3 84.2676 45.3854 122.4377 0.0000 0.0000 0.0000
# 4 0.0000 0.0000 0.0000 8.6457 0.0000 0.0000
# 5 0.0000 0.0000 0.0000 0.0000 43.2866 0.0000
# 6 0.0000 0.0000 0.0000 0.0000 0.0000 29.3297
#
#
#
# Elastic Compliance Matrix: (Units=1/GPa)
#
#
# Indices 1 2 3 4 5 6 
#
# 1 0.010443 -0.003109 -0.006035 0.000000 0.000000 0.000000
# 2 -0.003109 0.012825 -0.002614 0.000000 0.000000 0.000000
# 3 -0.006035 -0.002614 0.013290 0.000000 0.000000 0.000000
# 4 0.000000 0.000000 0.000000 0.115665 0.000000 0.000000
# 5 0.000000 0.000000 0.000000 0.000000 0.023102 0.000000
# 6 0.000000 0.000000 0.000000 0.000000 0.000000 0.034095
#
#
# Mechanical properties :
#
#
# Convention : Reuss Voigt Hill
#
# Bulk Modulus (GPa) = 76.67663 84.03445 80.35554
# Shear Modulus (GPa) = 21.07170 29.49165 25.28167
#
# Velocity S-wave (km/s) = 3.35769 3.97228 3.67784
# Velocity P-wave (km/s) = 7.48710 8.12403 7.81206
#
# Compressibility (1/GPa) = 0.01304178
#
# Stress axis : x y z
#
# Youngs Moduli (GPa) = 95.75343 77.97169 75.24312
#
# Poissons Ratio (x) = 0.24242 0.45411
# Poissons Ratio (y) = 0.29770 0.19671
# Poissons Ratio (z) = 0.57790 0.20384
#
# Static dielectric constant tensor:
#      x y z
#    x 3.566420 0.000000 0.000000 
#    y 0.000000 3.449630 0.000000 
#    z 0.000000 0.000000 3.437920 
# 
# 
# High freq. dielectric constant tensor:
#      x y z
#    x 1.727620 0.000000 0.000000 
#    y 0.000000 1.724520 0.000000 
#    z 0.000000 0.000000 1.733160 
# 
# From -- ./inp_files/20632.got.cif
#   From: 2010.03.12/outbox.cif.g09.slc.cpg/sg51_11_cif.got.tgz:20632.got - 2010.04.16 13:43:02.
