data_PCOD8213457
_publ_section_title
;
Structure prediction by ZEFSAII (Michael W. Deem and Ramdas Pophale) SiO2 
 PCOD8213457
Probable space group: P M M A
;
_chemical_formula_sum "Si O2"
_cell_formula_units_Z 44
_cell_length_a 8.818463
_cell_length_b 15.295421
_cell_length_c 17.381491
_cell_angle_alpha 90.000000
_cell_angle_beta 90.000000
_cell_angle_gamma 90.000000
_cell_volume 2344.452079
_symmetry_space_group_name_H-M "P M M A"
_symmetry_group_IT_number 51
_symmetry_cell_setting 'orthorhombic'
loop_
_space_group_symop_operation_xyz
x,y,z
1/2-x,-y,z
1/2+x,-y,-z
-x,y,-z
-x,-y,-z
1/2+x,y,-z
1/2-x,y,z
x,-y,z
loop_
_atom_site_type_symbol
_atom_site_label
_atom_site_fract_x
_atom_site_fract_y
_atom_site_fract_z
Si Si1 0.072013 0.401477 0.419107
Si Si2 0.581727 0.268966 0.306539
Si Si3 0.926012 0.097476 0.231185
Si Si4 0.579706 0.330119 0.133473
Si Si5 0.069894 0.159446 0.078034
Si Si6 0.428132 0.500000 0.082903
O O1 0.250000 0.399386 0.429096
O O2 0.018952 0.500000 0.394421
O O3 0.000000 0.375128 0.500000
O O4 0.027856 0.328164 0.357399
O O5 0.750000 0.270572 0.343671
O O6 0.522105 0.168234 0.296311
O O7 0.587032 0.306930 0.221965
O O8 0.750000 0.116556 0.210759
O O9 0.020302 0.104104 0.152420
O O10 0.948807 0.000000 0.265164
O O11 0.750000 0.342683 0.100217
O O12 0.494469 0.257283 0.083930
O O13 0.482658 0.417071 0.130043
O O14 0.250000 0.159962 0.072572
O O15 0.000000 0.117345 0.000000
O O16 0.250000 0.500000 0.075846
O O17 0.500000 0.500000 0.000000
#
# Coordination Sequence:
#
# PCOD8213457 Si02
#       6
#     8   8   8   8   8   4
#     4  10  21  36  56  84 116 149 181 217 260 312
#     4   9  19  35  57  82 109 142 176 217 268 320
#     4   9  19  37  58  80 107 141 182 226 275 331
#     4  10  21  37  53  73 101 138 181 223 272 326
#     4  11  21  34  52  74 102 137 178 228 282 332
#     4  12  24  36  50  70  99 136 181 230 276 322
#
# _framework density 18.767710999999998
#
# number of rings (size 3 to 8) (size 9 to 14) (size 15 to 20)
#    0.000    2.000    0.000    5.182    1.273    5.455 
#    0.000    0.000    0.000    0.545    0.000    0.000 
#    0.000    0.000    0.000    0.000    0.000    0.000 
#
# Total GULP energy -545505.073128 kJ/mol
# GULP energy per Si atom -12397.842571 kJ/mol
# Density = 1.872500 g / cm^3
# Si number density = 18.767711 Si / 1000 Ang^3
#
#
#
# Elastic Constant Matrix: (Units=GPa)
#
#
# Indices 1 2 3 4 5 6 
#
# 1 121.4254 40.6473 32.4348 0.0000 0.0000 0.0000
# 2 40.6473 133.7480 38.5737 0.0000 0.0000 0.0000
# 3 32.4348 38.5737 66.2149 0.0000 0.0000 0.0000
# 4 0.0000 0.0000 0.0000 15.1769 0.0000 0.0000
# 5 0.0000 0.0000 0.0000 0.0000 32.0791 0.0000
# 6 0.0000 0.0000 0.0000 0.0000 0.0000 24.7462
#
#
#
# Elastic Compliance Matrix: (Units=1/GPa)
#
#
# Indices 1 2 3 4 5 6 
#
# 1 0.009873 -0.001930 -0.003712 0.000000 0.000000 0.000000
# 2 -0.001930 0.009364 -0.004510 0.000000 0.000000 0.000000
# 3 -0.003712 -0.004510 0.019548 0.000000 0.000000 0.000000
# 4 0.000000 0.000000 0.000000 0.065890 0.000000 0.000000
# 5 0.000000 0.000000 0.000000 0.000000 0.031173 0.000000
# 6 0.000000 0.000000 0.000000 0.000000 0.000000 0.040410
#
#
# Mechanical properties :
#
#
# Convention : Reuss Voigt Hill
#
# Bulk Modulus (GPa) = 54.10770 60.52223 57.31496
# Shear Modulus (GPa) = 24.66444 28.38261 26.52353
#
# Velocity S-wave (km/s) = 3.62912 3.89306 3.76340
# Velocity P-wave (km/s) = 6.81568 7.24748 7.03489
#
# Compressibility (1/GPa) = 0.01848166
#
# Stress axis : x y z
#
# Youngs Moduli (GPa) = 101.28540 106.79341 51.15702
#
# Poissons Ratio (x) = 0.20611 0.18989
# Poissons Ratio (y) = 0.19548 0.23070
# Poissons Ratio (z) = 0.37596 0.48159
#
# Static dielectric constant tensor:
#      x y z
#    x 2.752440 0.000000 0.000000 
#    y 0.000000 3.663830 0.000000 
#    z 0.000000 0.000000 3.293760 
# 
# 
# High freq. dielectric constant tensor:
#      x y z
#    x 1.735760 0.000000 0.000000 
#    y 0.000000 1.735660 0.000000 
#    z 0.000000 0.000000 1.701800 
# 
# From -- ./inp_files/27351.got.cif
#   From: 2010.03.12/outbox.cif.g09.slc.cpg/sg51_14_cif.got.tgz:27351.got - 2010.04.16 13:43:02.
