data_PCOD8213753
_publ_section_title
;
Structure prediction by ZEFSAII (Michael W. Deem and Ramdas Pophale) SiO2 
 PCOD8213753
Probable space group: P M M A
;
_chemical_formula_sum "Si O2"
_cell_formula_units_Z 56
_cell_length_a 8.765588
_cell_length_b 15.389939
_cell_length_c 19.917768
_cell_angle_alpha 90.000000
_cell_angle_beta 90.000000
_cell_angle_gamma 90.000000
_cell_volume 2686.944042
_symmetry_space_group_name_H-M "P M M A"
_symmetry_group_IT_number 51
_symmetry_cell_setting 'orthorhombic'
loop_
_space_group_symop_operation_xyz
x,y,z
1/2-x,-y,z
1/2+x,-y,-z
-x,y,-z
-x,-y,-z
1/2+x,y,-z
1/2-x,y,z
x,-y,z
loop_
_atom_site_type_symbol
_atom_site_label
_atom_site_fract_x
_atom_site_fract_y
_atom_site_fract_z
Si Si1 0.583039 0.901086 0.299267
Si Si2 0.083069 0.400219 0.304006
Si Si3 0.430346 0.848762 0.432586
Si Si4 0.071336 0.599678 0.829997
Si Si5 0.930040 0.659635 0.433596
Si Si6 0.070869 0.898150 0.164743
Si Si7 0.069724 0.754122 0.927149
O O1 0.750000 0.855210 0.308267
O O2 0.483546 0.898120 0.366443
O O3 0.493596 0.861478 0.235789
O O4 0.611299 0.000000 0.281526
O O5 0.250000 0.356599 0.317384
O O6 0.107301 0.500000 0.289154
O O7 0.007626 0.361435 0.237016
O O8 0.970692 0.392829 0.367140
O O9 0.500000 0.892741 0.500000
O O10 0.250000 0.851884 0.438127
O O11 0.490547 0.751874 0.426467
O O12 0.250000 0.602641 0.816325
O O13 0.021455 0.500000 0.847550
O O14 0.023000 0.665186 0.889033
O O15 0.750000 0.668613 0.441795
O O16 0.000000 0.612832 0.500000
O O17 0.250000 0.882516 0.165052
O O18 0.995760 0.841083 0.106604
O O19 0.032662 0.000000 0.152473
O O20 0.250000 0.764471 0.931350
O O21 0.000000 0.745200 0.000000
#
# Coordination Sequence:
#
# PCOD8213753 Si02
#       7
#     8   8   8   8   8   8   8
#     4  10  21  38  60  86 116 152 196 243 294 354
#     4  10  21  37  58  85 115 150 195 243 294 354
#     4  11  22  37  56  80 113 152 196 246 298 354
#     4   9  20  40  63  89 123 162 203 249 301 359
#     4  11  22  37  56  79 112 151 195 245 299 356
#     4  10  22  41  64  91 124 162 204 252 305 361
#     4  11  24  41  64  94 126 161 203 247 299 365
#
# _framework density 20.841521
#
# number of rings (size 3 to 8) (size 9 to 14) (size 15 to 20)
#    0.000    1.714    0.000    5.143    2.000    4.857 
#    0.000    0.000    0.000    0.000    0.000    0.000 
#    0.000    0.000    0.000    0.000    0.000    0.000 
#
# Total GULP energy -694248.341647 kJ/mol
# GULP energy per Si atom -12397.291815 kJ/mol
# Density = 2.079408 g / cm^3
# Si number density = 20.841521 Si / 1000 Ang^3
#
#
#
# Elastic Constant Matrix: (Units=GPa)
#
#
# Indices 1 2 3 4 5 6 
#
# 1 159.6088 41.9454 80.8729 0.0000 0.0000 0.0000
# 2 41.9454 66.4612 51.9605 0.0000 0.0000 0.0000
# 3 80.8729 51.9605 190.8588 0.0000 0.0000 0.0000
# 4 0.0000 0.0000 0.0000 32.6878 0.0000 0.0000
# 5 0.0000 0.0000 0.0000 0.0000 37.8138 0.0000
# 6 0.0000 0.0000 0.0000 0.0000 0.0000 24.3748
#
#
#
# Elastic Compliance Matrix: (Units=1/GPa)
#
#
# Indices 1 2 3 4 5 6 
#
# 1 0.008493 -0.003235 -0.002718 0.000000 0.000000 0.000000
# 2 -0.003235 0.020347 -0.004169 0.000000 0.000000 0.000000
# 3 -0.002718 -0.004169 0.007526 0.000000 0.000000 0.000000
# 4 0.000000 0.000000 0.000000 0.030592 0.000000 0.000000
# 5 0.000000 0.000000 0.000000 0.000000 0.026445 0.000000
# 6 0.000000 0.000000 0.000000 0.000000 0.000000 0.041026
#
#
# Mechanical properties :
#
#
# Convention : Reuss Voigt Hill
#
# Bulk Modulus (GPa) = 62.02423 85.16516 73.59469
# Shear Modulus (GPa) = 31.24080 35.11860 33.17970
#
# Velocity S-wave (km/s) = 3.87585 4.10937 3.99432
# Velocity P-wave (km/s) = 7.06075 7.96667 7.52735
#
# Compressibility (1/GPa) = 0.01612273
#
# Stress axis : x y z
#
# Youngs Moduli (GPa) = 117.74923 49.14676 132.87238
#
# Poissons Ratio (x) = 0.15899 0.36113
# Poissons Ratio (y) = 0.38092 0.55390
# Poissons Ratio (z) = 0.32003 0.20488
#
# Static dielectric constant tensor:
#      x y z
#    x 4.102300 0.000000 0.000000 
#    y 0.000000 3.678400 0.000000 
#    z 0.000000 0.000000 3.978530 
# 
# 
# High freq. dielectric constant tensor:
#      x y z
#    x 1.831680 0.000000 0.000000 
#    y 0.000000 1.802200 0.000000 
#    z 0.000000 0.000000 1.822170 
# 
# From -- ./inp_files/32045.got.cif
#   From: 2010.03.12/outbox.cif.g09.slc.cpg/sg51_17_cif.got.tgz:32045.got - 2010.04.16 13:43:02.
