data_PCOD8213591
_publ_section_title
;
Structure prediction by ZEFSAII (Michael W. Deem and Ramdas Pophale) SiO2 
 PCOD8213591
Probable space group: P M M A
;
_chemical_formula_sum "Si O2"
_cell_formula_units_Z 40
_cell_length_a 17.942764
_cell_length_b 7.439265
_cell_length_c 14.848616
_cell_angle_alpha 90.000000
_cell_angle_beta 90.000000
_cell_angle_gamma 90.000000
_cell_volume 1982.007759
_symmetry_space_group_name_H-M "P M M A"
_symmetry_group_IT_number 51
_symmetry_cell_setting 'orthorhombic'
loop_
_space_group_symop_operation_xyz
x,y,z
1/2-x,-y,z
1/2+x,-y,-z
-x,y,-z
-x,-y,-z
1/2+x,y,-z
1/2-x,y,z
x,-y,z
loop_
_atom_site_type_symbol
_atom_site_label
_atom_site_fract_x
_atom_site_fract_y
_atom_site_fract_z
Si Si1 0.837413 0.293971 0.857275
Si Si2 0.580202 0.287461 0.679262
Si Si3 0.838570 0.000000 0.197672
Si Si4 0.837982 0.000000 0.995887
Si Si5 0.666281 0.713287 0.506999
Si Si6 0.409539 0.287399 0.678200
O O1 0.750000 0.270578 0.838196
O O2 0.858158 0.500000 0.878055
O O3 0.880008 0.219032 0.769709
O O4 0.864361 0.178028 0.942638
O O5 0.585282 0.500000 0.673885
O O6 0.622259 0.205245 0.592482
O O7 0.495012 0.224552 0.678727
O O8 0.866759 0.817740 0.243785
O O9 0.750000 0.000000 0.199098
O O10 0.871515 0.000000 0.096107
O O11 0.750000 0.000000 0.003260
O O12 0.750000 0.791495 0.506208
O O13 0.668152 0.500000 0.512944
O O14 0.624597 0.773757 0.416741
O O15 0.400177 0.500000 0.695581
#
# Coordination Sequence:
#
# PCOD8213591 Si02
#       6
#     8   8   4   4   8   8
#     4   9  17  32  55  81 109 141 178 222 270 319
#     4   9  17  31  53  82 114 145 178 218 266 320
#     4  11  24  41  59  79 104 137 182 230 270 317
#     4   9  20  37  56  79 104 133 177 230 276 319
#     4   9  16  29  53  82 111 147 186 220 259 310
#     4  10  21  37  56  80 112 147 180 218 266 317
#
# _framework density 20.181557000000002
#
# number of rings (size 3 to 8) (size 9 to 14) (size 15 to 20)
#    0.000    2.600    0.000    1.800    0.000    7.600 
#    0.000    7.000    0.000    4.800    0.000    0.000 
#    0.000    0.000    0.000    0.000    0.000    0.000 
#
# Total GULP energy -495997.671425 kJ/mol
# GULP energy per Si atom -12399.941786 kJ/mol
# Density = 2.013562 g / cm^3
# Si number density = 20.181557 Si / 1000 Ang^3
#
#
#
# Elastic Constant Matrix: (Units=GPa)
#
#
# Indices 1 2 3 4 5 6 
#
# 1 125.2435 32.2592 80.8690 0.0000 0.0000 0.0000
# 2 32.2592 79.3483 62.0414 0.0000 0.0000 0.0000
# 3 80.8690 62.0414 210.1709 0.0000 0.0000 0.0000
# 4 0.0000 0.0000 0.0000 -311.1604 0.0000 0.0000
# 5 0.0000 0.0000 0.0000 0.0000 7.3163 0.0000
# 6 0.0000 0.0000 0.0000 0.0000 0.0000 13.7621
#
#
#
# Elastic Compliance Matrix: (Units=1/GPa)
#
#
# Indices 1 2 3 4 5 6 
#
# 1 0.010756 -0.001478 -0.003702 0.000000 0.000000 0.000000
# 2 -0.001478 0.016587 -0.004328 0.000000 0.000000 0.000000
# 3 -0.003702 -0.004328 0.007460 0.000000 0.000000 0.000000
# 4 0.000000 0.000000 0.000000 -0.003214 0.000000 0.000000
# 5 0.000000 0.000000 0.000000 0.000000 0.136681 0.000000
# 6 0.000000 0.000000 0.000000 0.000000 0.000000 0.072664
#
#
# Mechanical properties :
#
#
# Convention : Reuss Voigt Hill
#
# Bulk Modulus (GPa) = 63.34296 85.01132 74.17714
# Shear Modulus (GPa) = 18.85278 -42.04354 -11.59538
#
# Velocity S-wave (km/s) = 3.05972 -4.56923 -2.39958
# Velocity P-wave (km/s) = 6.62851 3.79177 5.39976
#
# Compressibility (1/GPa) = 0.01578707
#
# Stress axis : x y z
#
# Youngs Moduli (GPa) = 92.97442 60.28670 134.04612
#
# Poissons Ratio (x) = 0.08910 0.49627
# Poissons Ratio (y) = 0.13742 0.58013
# Poissons Ratio (z) = 0.34421 0.26091
#
# Static dielectric constant tensor:
#      x y z
#    x 3.713060 0.000000 0.000000 
#    y 0.000000 3.422110 0.000000 
#    z 0.000000 0.000000 3.878040 
# 
# 
# High freq. dielectric constant tensor:
#      x y z
#    x 1.783460 0.000000 0.000000 
#    y 0.000000 1.778450 0.000000 
#    z 0.000000 0.000000 1.789930 
# 
# From -- ./inp_files/17919.got.cif
#   From: 2010.03.12/outbox.cif.g09.slc.cpg/sg51_9_cif.got.tgz:17919.got - 2010.04.16 13:43:02.
