data_PCOD8213824
_publ_section_title
;
Structure prediction by ZEFSAII (Michael W. Deem and Ramdas Pophale) SiO2 
 PCOD8213824
Probable space group: P M M A
;
_chemical_formula_sum "Si O2"
_cell_formula_units_Z 64
_cell_length_a 9.301789
_cell_length_b 23.814520
_cell_length_c 14.849872
_cell_angle_alpha 90.000000
_cell_angle_beta 90.000000
_cell_angle_gamma 90.000000
_cell_volume 3289.508602
_symmetry_space_group_name_H-M "P M M A"
_symmetry_group_IT_number 51
_symmetry_cell_setting 'orthorhombic'
loop_
_space_group_symop_operation_xyz
x,y,z
1/2-x,-y,z
1/2+x,-y,-z
-x,y,-z
-x,-y,-z
1/2+x,y,-z
1/2-x,y,z
x,-y,z
loop_
_atom_site_type_symbol
_atom_site_label
_atom_site_fract_x
_atom_site_fract_y
_atom_site_fract_z
Si Si1 0.419149 0.838066 0.905955
Si Si2 0.088015 0.908882 0.584569
Si Si3 0.089394 0.775709 0.583265
Si Si4 0.910243 0.565468 0.082024
Si Si5 0.080936 0.265086 0.776196
Si Si6 0.080822 0.062725 0.779756
Si Si7 0.580559 0.378126 0.770597
Si Si8 0.583542 0.563761 0.587254
O O1 0.250000 0.844172 0.924324
O O2 0.454013 0.782503 0.849127
O O3 0.480313 0.891923 0.850563
O O4 0.500000 0.834496 0.000000
O O5 0.250000 0.931849 0.575621
O O6 0.084808 0.842273 0.583295
O O7 0.017240 0.929164 0.678939
O O8 0.000000 0.933622 0.500000
O O9 0.250000 0.753223 0.570355
O O10 0.027170 0.755107 0.678323
O O11 0.000000 0.750486 0.500000
O O12 0.750000 0.592726 0.087728
O O13 0.892633 0.500000 0.065053
O O14 0.001449 0.574291 0.172081
O O15 0.000000 0.593302 0.000000
O O16 0.250000 0.279307 0.775927
O O17 0.987391 0.319160 0.800490
O O18 0.250000 0.073460 0.771542
O O19 0.044087 0.000000 0.814645
O O20 0.750000 0.378495 0.790819
O O21 0.547115 0.393310 0.667329
O O22 0.500000 0.585690 0.500000
O O23 0.750000 0.565250 0.563303
O O24 0.536792 0.500000 0.612888
#
# Coordination Sequence:
#
# PCOD8213824 Si02
#       8
#     8   8   8   8   8   8   8   8
#     4  10  21  39  60  80 104 138 181 228 279 334
#     4   9  16  29  50  77 107 141 178 214 260 317
#     4   9  17  31  52  75 101 137 178 219 264 318
#     4  10  21  38  61  87 114 146 183 224 274 331
#     4  10  21  38  56  75 106 146 186 226 274 334
#     4   9  17  32  56  82 109 143 181 220 269 335
#     4  11  23  37  56  84 117 149 187 234 283 333
#     4   9  19  36  57  81 112 151 191 232 277 325
#
# _framework density 19.455793
#
# number of rings (size 3 to 8) (size 9 to 14) (size 15 to 20)
#    0.000    2.375    1.250    1.125    0.000    4.750 
#    0.000    5.625    0.000    0.750    0.000    0.000 
#    0.000    0.000    0.000    0.000    0.000    0.000 
#
# Total GULP energy -793506.674889 kJ/mol
# GULP energy per Si atom -12398.541795 kJ/mol
# Density = 1.941151 g / cm^3
# Si number density = 19.455793 Si / 1000 Ang^3
#
#
#
# Elastic Constant Matrix: (Units=GPa)
#
#
# Indices 1 2 3 4 5 6 
#
# 1 81.7742 34.9919 63.5019 0.0000 0.0000 0.0000
# 2 34.9919 69.4602 42.1458 0.0000 0.0000 0.0000
# 3 63.5019 42.1458 145.9730 0.0000 0.0000 0.0000
# 4 0.0000 0.0000 0.0000 13.1691 0.0000 0.0000
# 5 0.0000 0.0000 0.0000 0.0000 38.1405 0.0000
# 6 0.0000 0.0000 0.0000 0.0000 0.0000 16.7193
#
#
#
# Elastic Compliance Matrix: (Units=1/GPa)
#
#
# Indices 1 2 3 4 5 6 
#
# 1 0.020281 -0.005897 -0.007120 0.000000 0.000000 0.000000
# 2 -0.005897 0.019169 -0.002969 0.000000 0.000000 0.000000
# 3 -0.007120 -0.002969 0.010805 0.000000 0.000000 0.000000
# 4 0.000000 0.000000 0.000000 0.075935 0.000000 0.000000
# 5 0.000000 0.000000 0.000000 0.000000 0.026219 0.000000
# 6 0.000000 0.000000 0.000000 0.000000 0.000000 0.059811
#
#
# Mechanical properties :
#
#
# Convention : Reuss Voigt Hill
#
# Bulk Modulus (GPa) = 54.69577 64.27628 59.48603
# Shear Modulus (GPa) = 19.97698 24.04366 22.01032
#
# Velocity S-wave (km/s) = 3.20783 3.51922 3.36713
# Velocity P-wave (km/s) = 6.47257 7.04429 6.76447
#
# Compressibility (1/GPa) = 0.01828295
#
# Stress axis : x y z
#
# Youngs Moduli (GPa) = 49.30617 52.16761 92.54601
#
# Poissons Ratio (x) = 0.30762 0.65896
# Poissons Ratio (y) = 0.29075 0.27480
# Poissons Ratio (z) = 0.35108 0.15490
#
# Static dielectric constant tensor:
#      x y z
#    x 3.533500 0.000000 0.000000 
#    y 0.000000 3.410900 0.000000 
#    z 0.000000 0.000000 3.636470 
# 
# 
# High freq. dielectric constant tensor:
#      x y z
#    x 1.737900 0.000000 0.000000 
#    y 0.000000 1.750630 0.000000 
#    z 0.000000 0.000000 1.764420 
# 
# From -- ./inp_files/22338.got.cif
#   From: 2010.03.12/outbox.cif.g09.slc.cpg/sg51_12_cif.got.tgz:22338.got - 2010.04.16 13:43:02.
