data_PCOD8213863
_publ_section_title
;
Structure prediction by ZEFSAII (Michael W. Deem and Ramdas Pophale) SiO2 
 PCOD8213863
Probable space group: P M M A
;
_chemical_formula_sum "Si O2"
_cell_formula_units_Z 64
_cell_length_a 18.225572
_cell_length_b 8.944699
_cell_length_c 20.524222
_cell_angle_alpha 90.000000
_cell_angle_beta 90.000000
_cell_angle_gamma 90.000000
_cell_volume 3345.904966
_symmetry_space_group_name_H-M "P M M A"
_symmetry_group_IT_number 51
_symmetry_cell_setting 'orthorhombic'
loop_
_space_group_symop_operation_xyz
x,y,z
1/2-x,-y,z
1/2+x,-y,-z
-x,y,-z
-x,-y,-z
1/2+x,y,-z
1/2-x,y,z
x,-y,z
loop_
_atom_site_type_symbol
_atom_site_label
_atom_site_fract_x
_atom_site_fract_y
_atom_site_fract_z
Si Si1 0.834897 0.671917 0.009163
Si Si2 0.666689 0.676709 0.761271
Si Si3 0.571066 0.675483 0.883040
Si Si4 0.665325 0.675142 0.242153
Si Si5 0.165180 0.825140 0.370984
Si Si6 0.415221 0.176599 0.875302
Si Si7 0.417323 0.177932 0.497691
Si Si8 0.164682 0.170799 0.624689
O O1 0.750000 0.701413 0.993846
O O2 0.848599 0.500000 0.029152
O O3 0.859553 0.775323 0.068332
O O4 0.879796 0.714945 0.945141
O O5 0.750000 0.731763 0.774755
O O6 0.664528 0.500000 0.755522
O O7 0.614671 0.732374 0.819497
O O8 0.636225 0.745658 0.694285
O O9 0.554259 0.500000 0.878876
O O10 0.495664 0.762754 0.890676
O O11 0.750000 0.715787 0.227266
O O12 0.651130 0.500000 0.235705
O O13 0.612899 0.760372 0.192879
O O14 0.643167 0.727499 0.314162
O O15 0.250000 0.788161 0.383192
O O16 0.120951 0.759198 0.432514
O O17 0.151131 0.000000 0.362332
O O18 0.417842 0.000000 0.871187
O O19 0.500000 0.237228 0.500000
O O20 0.376808 0.237586 0.562081
O O21 0.412725 0.000000 0.496678
O O22 0.250000 0.180341 0.608560
O O23 0.141213 0.000000 0.639565
#
# Coordination Sequence:
#
# PCOD8213863 Si02
#       8
#     8   8   8   8   8   8   8   8
#     4  10  21  39  63  86 108 141 185 227 267 316
#     4   9  18  34  56  81 107 137 177 223 268 314
#     4  10  21  38  59  82 111 146 181 219 266 320
#     4  10  21  38  59  81 106 139 180 224 270 323
#     4   9  17  30  49  73 102 137 175 214 260 316
#     4  12  25  38  55  82 115 147 179 219 268 320
#     4   9  17  29  47  72 101 134 174 218 262 312
#     4   9  17  31  52  76 102 134 173 218 267 316
#
# _framework density 19.127859000000001
#
# number of rings (size 3 to 8) (size 9 to 14) (size 15 to 20)
#    0.000    2.250    0.000    3.000    0.000    9.000 
#    0.000    1.875    0.000    6.000    0.000    0.000 
#    0.000    0.000    0.000    0.000    0.000    0.000 
#
# Total GULP energy -793811.234209 kJ/mol
# GULP energy per Si atom -12403.300535 kJ/mol
# Density = 1.908432 g / cm^3
# Si number density = 19.127859 Si / 1000 Ang^3
#
#
#
# Elastic Constant Matrix: (Units=GPa)
#
#
# Indices 1 2 3 4 5 6 
#
# 1 89.2044 30.3004 55.1621 0.0000 0.0000 0.0000
# 2 30.3004 51.7501 34.7891 0.0000 0.0000 0.0000
# 3 55.1621 34.7891 132.0284 0.0000 0.0000 0.0000
# 4 0.0000 0.0000 0.0000 33.3080 0.0000 0.0000
# 5 0.0000 0.0000 0.0000 0.0000 21.3442 0.0000
# 6 0.0000 0.0000 0.0000 0.0000 0.0000 19.4450
#
#
#
# Elastic Compliance Matrix: (Units=1/GPa)
#
#
# Indices 1 2 3 4 5 6 
#
# 1 0.016578 -0.006138 -0.005309 0.000000 0.000000 0.000000
# 2 -0.006138 0.025756 -0.004222 0.000000 0.000000 0.000000
# 3 -0.005309 -0.004222 0.010905 0.000000 0.000000 0.000000
# 4 0.000000 0.000000 0.000000 0.030023 0.000000 0.000000
# 5 0.000000 0.000000 0.000000 0.000000 0.046851 0.000000
# 6 0.000000 0.000000 0.000000 0.000000 0.000000 0.051427
#
#
# Mechanical properties :
#
#
# Convention : Reuss Voigt Hill
#
# Bulk Modulus (GPa) = 45.66074 57.05401 51.35737
# Shear Modulus (GPa) = 22.70890 25.00152 23.85521
#
# Velocity S-wave (km/s) = 3.44934 3.61927 3.53533
# Velocity P-wave (km/s) = 6.30770 6.88171 6.60095
#
# Compressibility (1/GPa) = 0.02190065
#
# Stress axis : x y z
#
# Youngs Moduli (GPa) = 60.32073 38.82632 91.70225
#
# Poissons Ratio (x) = 0.23830 0.48686
# Poissons Ratio (y) = 0.37023 0.38719
# Poissons Ratio (z) = 0.32025 0.16393
#
# Static dielectric constant tensor:
#      x y z
#    x 3.554950 0.000000 0.000000 
#    y 0.000000 3.289150 0.000000 
#    z 0.000000 0.000000 3.693440 
# 
# 
# High freq. dielectric constant tensor:
#      x y z
#    x 1.746080 0.000000 0.000000 
#    y 0.000000 1.719570 0.000000 
#    z 0.000000 0.000000 1.759930 
# 
# From -- ./inp_files/33807.got.cif
#   From: 2010.03.12/outbox.cif.g09.slc.cpg/sg51_17_cif.got.tgz:33807.got - 2010.04.16 13:43:02.
