data_PCOD8213475
_publ_section_title
;
Structure prediction by ZEFSAII (Michael W. Deem and Ramdas Pophale) SiO2 
 PCOD8213475
Probable space group: P M M A
;
_chemical_formula_sum "Si O2"
_cell_formula_units_Z 48
_cell_length_a 10.110117
_cell_length_b 8.979285
_cell_length_c 28.819338
_cell_angle_alpha 90.000000
_cell_angle_beta 90.000000
_cell_angle_gamma 90.000000
_cell_volume 2616.266246
_symmetry_space_group_name_H-M "P M M A"
_symmetry_group_IT_number 51
_symmetry_cell_setting 'orthorhombic'
loop_
_space_group_symop_operation_xyz
x,y,z
1/2-x,-y,z
1/2+x,-y,-z
-x,y,-z
-x,-y,-z
1/2+x,y,-z
1/2-x,y,z
x,-y,z
loop_
_atom_site_type_symbol
_atom_site_label
_atom_site_fract_x
_atom_site_fract_y
_atom_site_fract_z
Si Si1 0.750000 0.828127 0.941014
Si Si2 0.598966 0.827603 0.540173
Si Si3 0.597513 0.669232 0.198778
Si Si4 0.750000 0.171646 0.050745
Si Si5 0.005638 0.675441 0.901324
Si Si6 0.900827 0.324761 0.636275
Si Si7 0.902237 0.825173 0.292166
O O1 0.626491 0.745597 0.919812
O O2 0.750000 0.000000 0.925955
O O3 0.750000 0.811672 0.995854
O O4 0.500000 0.773990 0.500000
O O5 0.750000 0.800256 0.523827
O O6 0.564253 0.731922 0.585137
O O7 0.575011 0.000000 0.552447
O O8 0.750000 0.691951 0.185227
O O9 0.570363 0.500000 0.214653
O O10 0.513813 0.711052 0.153437
O O11 0.554785 0.776461 0.240601
O O12 0.622566 0.250852 0.070478
O O13 0.750000 0.000000 0.066082
O O14 0.009571 0.500000 0.910376
O O15 0.750000 0.279950 0.649351
O O16 0.920193 0.500000 0.637510
O O17 0.002272 0.252666 0.671665
O O18 0.750000 0.777254 0.301664
O O19 0.920322 0.000000 0.296861
#
# Coordination Sequence:
#
# PCOD8213475 Si02
#       7
#     4   8   8   4   8   8   8
#     4  11  25  41  55  83 121 153 187 231 286 337
#     4   9  18  33  53  77 108 146 186 230 277 326
#     4   9  18  36  59  83 111 142 180 227 279 333
#     4  11  23  39  61  85 115 153 189 231 282 339
#     4  11  22  39  62  87 113 148 191 235 282 337
#     4  10  21  37  56  80 112 151 190 229 278 332
#     4  10  21  36  57  85 111 140 183 231 277 331
#
# _framework density 18.346755000000002
#
# number of rings (size 3 to 8) (size 9 to 14) (size 15 to 20)
#    0.000    2.000    0.833    2.500    0.000    7.667 
#    1.500    1.667    0.000    0.000    0.000    0.000 
#    0.000    0.000    0.000    0.000    0.000    0.000 
#
# Total GULP energy -595325.542111 kJ/mol
# GULP energy per Si atom -12402.615461 kJ/mol
# Density = 1.830500 g / cm^3
# Si number density = 18.346755 Si / 1000 Ang^3
#
#
#
# Elastic Constant Matrix: (Units=GPa)
#
#
# Indices 1 2 3 4 5 6 
#
# 1 136.7566 72.8037 86.8237 0.0000 0.0000 0.0000
# 2 72.8037 110.4673 80.2410 0.0000 0.0000 0.0000
# 3 86.8237 80.2410 126.9373 0.0000 0.0000 0.0000
# 4 0.0000 0.0000 0.0000 38.6431 0.0000 0.0000
# 5 0.0000 0.0000 0.0000 0.0000 48.3340 0.0000
# 6 0.0000 0.0000 0.0000 0.0000 0.0000 23.1199
#
#
#
# Elastic Compliance Matrix: (Units=1/GPa)
#
#
# Indices 1 2 3 4 5 6 
#
# 1 0.013890 -0.004166 -0.006867 0.000000 0.000000 0.000000
# 2 -0.004166 0.017988 -0.008521 0.000000 0.000000 0.000000
# 3 -0.006867 -0.008521 0.017961 0.000000 0.000000 0.000000
# 4 0.000000 0.000000 0.000000 0.025878 0.000000 0.000000
# 5 0.000000 0.000000 0.000000 0.000000 0.020689 0.000000
# 6 0.000000 0.000000 0.000000 0.000000 0.000000 0.043253
#
#
# Mechanical properties :
#
#
# Convention : Reuss Voigt Hill
#
# Bulk Modulus (GPa) = 93.19174 94.87757 94.03466
# Shear Modulus (GPa) = 27.42081 30.97224 29.19652
#
# Velocity S-wave (km/s) = 3.87018 4.11318 3.99353
# Velocity P-wave (km/s) = 8.41879 8.62458 8.52231
#
# Compressibility (1/GPa) = 0.01073056
#
# Stress axis : x y z
#
# Youngs Moduli (GPa) = 71.99530 55.59407 55.67574
#
# Poissons Ratio (x) = 0.23161 0.38232
# Poissons Ratio (y) = 0.29994 0.47441
# Poissons Ratio (z) = 0.49439 0.47371
#
# Static dielectric constant tensor:
#      x y z
#    x 3.406210 0.000000 0.000000 
#    y 0.000000 3.528570 0.000000 
#    z 0.000000 0.000000 3.464940 
# 
# 
# High freq. dielectric constant tensor:
#      x y z
#    x 1.711740 0.000000 0.000000 
#    y 0.000000 1.722070 0.000000 
#    z 0.000000 0.000000 1.717370 
# 
# From -- ./inp_files/37167.got.cif
#   From: 2010.03.12/outbox.cif.g09.slc.cpg/sg51_19_cif.got.tgz:37167.got - 2010.04.16 13:43:02.
