data_PCOD8213764
_publ_section_title
;
Structure prediction by ZEFSAII (Michael W. Deem and Ramdas Pophale) SiO2 
 PCOD8213764
Probable space group: P M M A
;
_chemical_formula_sum "Si O2"
_cell_formula_units_Z 64
_cell_length_a 28.713012
_cell_length_b 8.878520
_cell_length_c 12.496302
_cell_angle_alpha 90.000000
_cell_angle_beta 90.000000
_cell_angle_gamma 90.000000
_cell_volume 3185.670414
_symmetry_space_group_name_H-M "P M M A"
_symmetry_group_IT_number 51
_symmetry_cell_setting 'orthorhombic'
loop_
_space_group_symop_operation_xyz
x,y,z
1/2-x,-y,z
1/2+x,-y,-z
-x,y,-z
-x,-y,-z
1/2+x,y,-z
1/2-x,y,z
x,-y,z
loop_
_atom_site_type_symbol
_atom_site_label
_atom_site_fract_x
_atom_site_fract_y
_atom_site_fract_z
Si Si1 0.695261 0.835156 0.821893
Si Si2 0.390230 0.324916 0.864981
Si Si3 0.390038 0.823436 0.466134
Si Si4 0.954766 0.675430 0.943288
Si Si5 0.543809 0.320831 0.703280
Si Si6 0.697189 0.822049 0.059628
Si Si7 0.553698 0.177303 0.323493
Si Si8 0.696452 0.324358 0.610272
O O1 0.750000 0.856752 0.823213
O O2 0.680575 0.715874 0.731575
O O3 0.672726 0.000000 0.797640
O O4 0.681249 0.776330 0.939498
O O5 0.391396 0.500000 0.834559
O O6 0.337388 0.263632 0.859441
O O7 0.422551 0.235852 0.783667
O O8 0.409644 0.294210 0.984182
O O9 0.414365 0.738239 0.368663
O O10 0.413680 0.778823 0.577383
O O11 0.336331 0.767625 0.471281
O O12 0.392298 0.000000 0.445370
O O13 0.965026 0.500000 0.929526
O O14 0.947527 0.741432 0.824085
O O15 0.000000 0.750224 0.000000
O O16 0.542430 0.500000 0.697937
O O17 0.495561 0.256660 0.657809
O O18 0.750000 0.769194 0.083962
O O19 0.692639 0.000000 0.076228
O O20 0.545661 0.000000 0.315309
O O21 0.750000 0.276920 0.589127
O O22 0.689056 0.500000 0.592406
#
# Coordination Sequence:
#
# PCOD8213764 Si02
#       8
#     8   8   8   8   8   8   8   8
#     4   8  15  30  52  77 110 152 191 231 285 347
#     4  11  22  37  61  88 119 158 201 248 297 353
#     4  11  25  42  61  87 119 157 202 249 298 358
#     4   9  18  36  58  86 122 154 186 231 291 353
#     4  11  22  39  65  92 122 157 196 245 301 356
#     4   9  19  36  56  82 119 160 201 245 294 352
#     4  11  24  43  62  84 118 159 203 250 302 357
#     4  10  21  37  58  86 118 151 193 247 301 353
#
# _framework density 20.089963999999998
#
# number of rings (size 3 to 8) (size 9 to 14) (size 15 to 20)
#    0.000    2.000    1.250    3.000    1.750    5.000 
#    0.000    4.375    0.000    0.750    0.000    0.000 
#    0.000    0.000    0.000    0.000    0.000    0.000 
#
# Total GULP energy -793579.183870 kJ/mol
# GULP energy per Si atom -12399.674748 kJ/mol
# Density = 2.004424 g / cm^3
# Si number density = 20.089964 Si / 1000 Ang^3
#
#
#
# Elastic Constant Matrix: (Units=GPa)
#
#
# Indices 1 2 3 4 5 6 
#
# 1 105.3380 38.1347 28.5576 0.0000 0.0000 0.0000
# 2 38.1347 69.3102 36.8337 0.0000 0.0000 0.0000
# 3 28.5576 36.8337 69.1204 0.0000 0.0000 0.0000
# 4 0.0000 0.0000 0.0000 28.1288 0.0000 0.0000
# 5 0.0000 0.0000 0.0000 0.0000 29.6117 0.0000
# 6 0.0000 0.0000 0.0000 0.0000 0.0000 32.6627
#
#
#
# Elastic Compliance Matrix: (Units=1/GPa)
#
#
# Indices 1 2 3 4 5 6 
#
# 1 0.012053 -0.005560 -0.002017 0.000000 0.000000 0.000000
# 2 -0.005560 0.022692 -0.009796 0.000000 0.000000 0.000000
# 3 -0.002017 -0.009796 0.020521 0.000000 0.000000 0.000000
# 4 0.000000 0.000000 0.000000 0.035551 0.000000 0.000000
# 5 0.000000 0.000000 0.000000 0.000000 0.033770 0.000000
# 6 0.000000 0.000000 0.000000 0.000000 0.000000 0.030616
#
#
# Mechanical properties :
#
#
# Convention : Reuss Voigt Hill
#
# Bulk Modulus (GPa) = 48.72908 50.09117 49.41013
# Shear Modulus (GPa) = 25.40802 27.43017 26.41909
#
# Velocity S-wave (km/s) = 3.56014 3.69910 3.63028
# Velocity P-wave (km/s) = 6.41931 6.57510 6.49767
#
# Compressibility (1/GPa) = 0.02052163
#
# Stress axis : x y z
#
# Youngs Moduli (GPa) = 82.96860 44.06744 48.73084
#
# Poissons Ratio (x) = 0.24499 0.09829
# Poissons Ratio (y) = 0.46127 0.47735
# Poissons Ratio (z) = 0.16735 0.43167
#
# Static dielectric constant tensor:
#      x y z
#    x 3.706880 0.000000 0.000000 
#    y 0.000000 3.510200 0.000000 
#    z 0.000000 0.000000 3.701190 
# 
# 
# High freq. dielectric constant tensor:
#      x y z
#    x 1.791370 0.000000 0.000000 
#    y 0.000000 1.775310 0.000000 
#    z 0.000000 0.000000 1.772010 
# 
# From -- ./inp_files/19452.got.cif
#   From: 2010.03.12/outbox.cif.g09.slc.cpg/sg51_10_cif.got.tgz:19452.got - 2010.04.16 13:43:02.
