data_PCOD8213390
_publ_section_title
;
Structure prediction by ZEFSAII (Michael W. Deem and Ramdas Pophale) SiO2 
 PCOD8213390
Probable space group: P M M A
;
_chemical_formula_sum "Si O2"
_cell_formula_units_Z 48
_cell_length_a 7.748827
_cell_length_b 8.960303
_cell_length_c 34.944373
_cell_angle_alpha 90.000000
_cell_angle_beta 90.000000
_cell_angle_gamma 90.000000
_cell_volume 2426.252039
_symmetry_space_group_name_H-M "P M M A"
_symmetry_group_IT_number 51
_symmetry_cell_setting 'orthorhombic'
loop_
_space_group_symop_operation_xyz
x,y,z
1/2-x,-y,z
1/2+x,-y,-z
-x,y,-z
-x,-y,-z
1/2+x,y,-z
1/2-x,y,z
x,-y,z
loop_
_atom_site_type_symbol
_atom_site_label
_atom_site_fract_x
_atom_site_fract_y
_atom_site_fract_z
Si Si1 0.250000 0.822301 0.738474
Si Si2 0.947837 0.162823 0.615527
Si Si3 0.548406 0.164001 0.960544
Si Si4 0.951764 0.332258 0.458579
Si Si5 0.750000 0.177087 0.174195
Si Si6 0.952669 0.324880 0.690589
Si Si7 0.056206 0.821181 0.121828
O O1 0.250000 0.768759 0.782289
O O2 0.426951 0.758582 0.720934
O O3 0.250000 0.000000 0.733884
O O4 0.750000 0.138025 0.624416
O O5 0.018727 0.271226 0.648684
O O6 0.964439 0.232080 0.573748
O O7 0.040771 0.000000 0.616924
O O8 0.750000 0.145948 0.957345
O O9 0.492260 0.239993 0.920174
O O10 0.459728 0.000000 0.963336
O O11 0.500000 0.253467 0.000000
O O12 0.750000 0.332286 0.452172
O O13 0.027674 0.500000 0.455636
O O14 0.000000 0.264325 0.500000
O O15 0.577617 0.239541 0.153468
O O16 0.750000 0.000000 0.172031
O O17 0.750000 0.287859 0.698259
O O18 0.986562 0.500000 0.693100
O O19 0.250000 0.764043 0.132051
O O20 0.056471 0.000000 0.120118
#
# Coordination Sequence:
#
# PCOD8213390 Si02
#       7
#     4   8   8   8   4   8   8
#     4  11  23  37  57  87 117 145 187 239 291 347
#     4  10  21  37  58  84 113 145 181 226 281 336
#     4   8  13  18  26  43  66  99 147 206 262 301
#     4  10  21  36  55  79 109 149 194 235 274 323
#     4   9  18  29  43  63  89 129 169 211 271 329
#     4  10  22  41  64  87 114 150 189 232 286 348
#     4   8  14  24  35  50  77 114 160 210 259 314
#
# _framework density 19.783601000000001
#
# number of rings (size 3 to 8) (size 9 to 14) (size 15 to 20)
#    0.000    2.667    0.000    2.750    2.333    4.000 
#    0.000    1.667    0.000    0.000    0.000    0.000 
#    0.000    0.000    0.000    0.000    0.000    3.333 
#
# Total GULP energy -594718.877590 kJ/mol
# GULP energy per Si atom -12389.976616 kJ/mol
# Density = 1.973857 g / cm^3
# Si number density = 19.783601 Si / 1000 Ang^3
#
#
#
# Elastic Constant Matrix: (Units=GPa)
#
#
# Indices 1 2 3 4 5 6 
#
# 1 81.8269 29.7480 63.8501 0.0000 0.0000 0.0000
# 2 29.7480 70.8043 50.6693 0.0000 0.0000 0.0000
# 3 63.8501 50.6693 193.6198 0.0000 0.0000 0.0000
# 4 0.0000 0.0000 0.0000 2.3336 0.0000 0.0000
# 5 0.0000 0.0000 0.0000 0.0000 36.5002 0.0000
# 6 0.0000 0.0000 0.0000 0.0000 0.0000 17.9656
#
#
#
# Elastic Compliance Matrix: (Units=1/GPa)
#
#
# Indices 1 2 3 4 5 6 
#
# 1 0.017296 -0.003919 -0.004678 0.000000 0.000000 0.000000
# 2 -0.003919 0.018266 -0.003488 0.000000 0.000000 0.000000
# 3 -0.004678 -0.003488 0.007620 0.000000 0.000000 0.000000
# 4 0.000000 0.000000 0.000000 0.428518 0.000000 0.000000
# 5 0.000000 0.000000 0.000000 0.000000 0.027397 0.000000
# 6 0.000000 0.000000 0.000000 0.000000 0.000000 0.055662
#
#
# Mechanical properties :
#
#
# Convention : Reuss Voigt Hill
#
# Bulk Modulus (GPa) = 52.59735 70.53177 61.56456
# Shear Modulus (GPa) = 8.54312 24.82545 16.68429
#
# Velocity S-wave (km/s) = 2.08030 3.54623 2.90718
# Velocity P-wave (km/s) = 5.69335 7.24546 6.51579
#
# Compressibility (1/GPa) = 0.01901237
#
# Stress axis : x y z
#
# Youngs Moduli (GPa) = 57.81667 54.74687 131.23035
#
# Poissons Ratio (x) = 0.21455 0.61391
# Poissons Ratio (y) = 0.22659 0.45769
# Poissons Ratio (z) = 0.27047 0.19094
#
# Static dielectric constant tensor:
#      x y z
#    x 3.664900 0.000000 0.000000 
#    y 0.000000 3.249870 0.000000 
#    z 0.000000 0.000000 3.990090 
# 
# 
# High freq. dielectric constant tensor:
#      x y z
#    x 1.772930 0.000000 0.000000 
#    y 0.000000 1.714210 0.000000 
#    z 0.000000 0.000000 1.783580 
# 
# From -- ./inp_files/37099.got.cif
#   From: 2010.03.12/outbox.cif.g09.slc.cpg/sg51_19_cif.got.tgz:37099.got - 2010.04.16 13:43:02.
