data_PCOD8213349
_publ_section_title
;
Structure prediction by ZEFSAII (Michael W. Deem and Ramdas Pophale) SiO2 
 PCOD8213349
Probable space group: P M M A
;
_chemical_formula_sum "Si O2"
_cell_formula_units_Z 40
_cell_length_a 9.252807
_cell_length_b 9.281785
_cell_length_c 25.595038
_cell_angle_alpha 90.000000
_cell_angle_beta 90.000000
_cell_angle_gamma 90.000000
_cell_volume 2198.167520
_symmetry_space_group_name_H-M "P M M A"
_symmetry_group_IT_number 51
_symmetry_cell_setting 'orthorhombic'
loop_
_space_group_symop_operation_xyz
x,y,z
1/2-x,-y,z
1/2+x,-y,-z
-x,y,-z
-x,-y,-z
1/2+x,y,-z
1/2-x,y,z
x,-y,z
loop_
_atom_site_type_symbol
_atom_site_label
_atom_site_fract_x
_atom_site_fract_y
_atom_site_fract_z
Si Si1 0.918996 0.166158 0.553040
Si Si2 0.916767 0.669618 0.357816
Si Si3 0.582071 0.332614 0.949089
Si Si4 0.417899 0.167068 0.152196
Si Si5 0.581751 0.834821 0.254350
O O1 0.750000 0.197888 0.545668
O O2 0.000000 0.207572 0.500000
O O3 0.981419 0.266765 0.597865
O O4 0.947574 0.000000 0.567919
O O5 0.750000 0.708949 0.369993
O O6 0.940644 0.500000 0.354608
O O7 0.966045 0.738300 0.303152
O O8 0.750000 0.300077 0.957510
O O9 0.549810 0.500000 0.940574
O O10 0.522168 0.250903 0.898210
O O11 0.500000 0.273397 0.000000
O O12 0.250000 0.199257 0.160617
O O13 0.498930 0.223888 0.203592
O O14 0.450367 0.000000 0.142925
O O15 0.750000 0.818954 0.242658
O O16 0.539129 0.000000 0.266550
#
# Coordination Sequence:
#
# PCOD8213349 Si02
#       5
#     8   8   8   8   8
#     4  10  21  37  58  82 106 136 175 215 256 304
#     4  10  21  36  54  78 108 140 173 211 256 304
#     4   9  18  32  48  67  93 125 159 195 239 291
#     4   9  18  32  49  70  96 125 159 201 247 293
#     4   9  18  33  52  73  99 132 168 206 249 297
#
# _framework density 18.196975999999999
#
# number of rings (size 3 to 8) (size 9 to 14) (size 15 to 20)
#    0.000    2.600    0.000    1.200    0.000    5.600 
#    0.000    2.000    0.000    0.000    0.000    0.000 
#    0.000    0.000    0.000    0.000    0.000    0.000 
#
# Total GULP energy -496130.095617 kJ/mol
# GULP energy per Si atom -12403.252390 kJ/mol
# Density = 1.815556 g / cm^3
# Si number density = 18.196976 Si / 1000 Ang^3
#
#
#
# Elastic Constant Matrix: (Units=GPa)
#
#
# Indices 1 2 3 4 5 6 
#
# 1 71.9748 44.6568 78.0356 0.0000 0.0000 0.0000
# 2 44.6568 73.1800 78.7175 0.0000 0.0000 0.0000
# 3 78.0356 78.7175 183.8138 0.0000 0.0000 0.0000
# 4 0.0000 0.0000 0.0000 -0.4795 0.0000 0.0000
# 5 0.0000 0.0000 0.0000 0.0000 40.2870 0.0000
# 6 0.0000 0.0000 0.0000 0.0000 0.0000 23.7421
#
#
#
# Elastic Compliance Matrix: (Units=1/GPa)
#
#
# Indices 1 2 3 4 5 6 
#
# 1 0.028054 -0.007988 -0.008489 0.000000 0.000000 0.000000
# 2 -0.007988 0.027610 -0.008433 0.000000 0.000000 0.000000
# 3 -0.008489 -0.008433 0.012656 0.000000 0.000000 0.000000
# 4 0.000000 0.000000 0.000000 -2.085319 0.000000 0.000000
# 5 0.000000 0.000000 0.000000 0.000000 0.024822 0.000000
# 6 0.000000 0.000000 0.000000 0.000000 0.000000 0.042119
#
#
# Mechanical properties :
#
#
# Convention : Reuss Voigt Hill
#
# Bulk Modulus (GPa) = 54.05396 81.30981 67.68189
# Shear Modulus (GPa) = -2.63982 21.21381 9.28700
#
# Velocity S-wave (km/s) = -1.20575 3.41807 2.26156
# Velocity P-wave (km/s) = 5.27550 7.76902 6.64036
#
# Compressibility (1/GPa) = 0.01850003
#
# Stress axis : x y z
#
# Youngs Moduli (GPa) = 35.64592 36.21824 79.01674
#
# Poissons Ratio (x) = 0.28931 0.67078
# Poissons Ratio (y) = 0.28473 0.66634
# Poissons Ratio (z) = 0.30260 0.30542
#
# Static dielectric constant tensor:
#      x y z
#    x 3.323580 0.000000 0.000000 
#    y 0.000000 3.297470 0.000000 
#    z 0.000000 0.000000 3.536190 
# 
# 
# High freq. dielectric constant tensor:
#      x y z
#    x 1.700420 0.000000 0.000000 
#    y 0.000000 1.698530 0.000000 
#    z 0.000000 0.000000 1.715810 
# 
# From -- ./inp_files/32803.got.cif
#   From: 2010.03.12/outbox.cif.g09.slc.cpg/sg51_17_cif.got.tgz:32803.got - 2010.04.16 13:43:02.
