data_PCOD8213995
_publ_section_title
;
Structure prediction by ZEFSAII (Michael W. Deem and Ramdas Pophale) SiO2 
 PCOD8213995
Probable space group: P M M A
;
_chemical_formula_sum "Si O2"
_cell_formula_units_Z 48
_cell_length_a 8.810259
_cell_length_b 9.256939
_cell_length_c 30.845432
_cell_angle_alpha 90.000000
_cell_angle_beta 90.000000
_cell_angle_gamma 90.000000
_cell_volume 2515.630982
_symmetry_space_group_name_H-M "P M M A"
_symmetry_group_IT_number 51
_symmetry_cell_setting 'orthorhombic'
loop_
_space_group_symop_operation_xyz
x,y,z
1/2-x,-y,z
1/2+x,-y,-z
-x,y,-z
-x,-y,-z
1/2+x,y,-z
1/2-x,y,z
x,-y,z
loop_
_atom_site_type_symbol
_atom_site_label
_atom_site_fract_x
_atom_site_fract_y
_atom_site_fract_z
Si Si1 0.926727 0.831576 0.798088
Si Si2 0.429182 0.835093 0.543556
Si Si3 0.069937 0.340672 0.624443
Si Si4 0.072598 0.332685 0.876863
Si Si5 0.928643 0.835620 0.954741
Si Si6 0.925839 0.330019 0.278812
O O1 0.750000 0.807723 0.808175
O O2 0.025389 0.753098 0.834264
O O3 0.966984 0.763045 0.751936
O O4 0.968559 0.000000 0.797726
O O5 0.500000 0.765382 0.500000
O O6 0.250000 0.817042 0.541012
O O7 0.497034 0.759319 0.586439
O O8 0.480716 0.000000 0.547147
O O9 0.250000 0.347205 0.621212
O O10 0.001445 0.500000 0.617612
O O11 0.027094 0.283706 0.672346
O O12 0.250000 0.311531 0.884741
O O13 0.029645 0.500000 0.870630
O O14 0.984755 0.271549 0.917974
O O15 0.750000 0.822682 0.958862
O O16 0.977679 0.000000 0.943399
O O17 0.000000 0.785618 0.000000
O O18 0.750000 0.293280 0.269490
O O19 0.954251 0.500000 0.271571
#
# Coordination Sequence:
#
# PCOD8213995 Si02
#       6
#     8   8   8   8   8   8
#     4  11  24  39  55  79 110 142 177 217 263 316
#     4   9  17  29  45  66  93 126 163 202 246 296
#     4   8  15  29  49  72  97 125 160 204 250 298
#     4  11  24  40  59  84 112 144 184 227 270 317
#     4  10  21  38  61  88 117 150 187 226 270 319
#     4   9  18  34  56  80 104 132 170 215 262 313
#
# _framework density 19.080701000000001
#
# number of rings (size 3 to 8) (size 9 to 14) (size 15 to 20)
#    0.000    2.333    0.000    3.500    0.000    9.333 
#    0.000    2.500    0.000    3.000    0.000    0.000 
#    0.000    0.000    0.000    0.000    0.000    0.000 
#
# Total GULP energy -595220.339887 kJ/mol
# GULP energy per Si atom -12400.423748 kJ/mol
# Density = 1.903727 g / cm^3
# Si number density = 19.080701 Si / 1000 Ang^3
#
#
#
# Elastic Constant Matrix: (Units=GPa)
#
#
# Indices 1 2 3 4 5 6 
#
# 1 39.4404 27.8791 27.0615 0.0000 0.0000 0.0000
# 2 27.8791 87.4051 62.4085 0.0000 0.0000 0.0000
# 3 27.0615 62.4085 147.3306 0.0000 0.0000 0.0000
# 4 0.0000 0.0000 0.0000 42.7562 0.0000 0.0000
# 5 0.0000 0.0000 0.0000 0.0000 33.9714 0.0000
# 6 0.0000 0.0000 0.0000 0.0000 0.0000 26.2000
#
#
#
# Elastic Compliance Matrix: (Units=1/GPa)
#
#
# Indices 1 2 3 4 5 6 
#
# 1 0.033278 -0.008960 -0.002317 0.000000 0.000000 0.000000
# 2 -0.008960 0.018814 -0.006324 0.000000 0.000000 0.000000
# 3 -0.002317 -0.006324 0.009892 0.000000 0.000000 0.000000
# 4 0.000000 0.000000 0.000000 0.023388 0.000000 0.000000
# 5 0.000000 0.000000 0.000000 0.000000 0.029437 0.000000
# 6 0.000000 0.000000 0.000000 0.000000 0.000000 0.038168
#
#
# Mechanical properties :
#
#
# Convention : Reuss Voigt Hill
#
# Bulk Modulus (GPa) = 37.33830 56.54159 46.93995
# Shear Modulus (GPa) = 25.36700 31.04064 28.20382
#
# Velocity S-wave (km/s) = 3.65013 4.03775 3.84882
# Velocity P-wave (km/s) = 6.11357 7.17182 6.66374
#
# Compressibility (1/GPa) = 0.02678215
#
# Stress axis : x y z
#
# Youngs Moduli (GPa) = 30.04979 53.15117 101.09406
#
# Poissons Ratio (x) = 0.47624 0.23424
# Poissons Ratio (y) = 0.26925 0.63930
# Poissons Ratio (z) = 0.06963 0.33612
#
# Static dielectric constant tensor:
#      x y z
#    x 3.278000 0.000000 0.000000 
#    y 0.000000 3.613010 0.000000 
#    z 0.000000 0.000000 2.123510 
# 
# 
# High freq. dielectric constant tensor:
#      x y z
#    x 1.724760 0.000000 0.000000 
#    y 0.000000 1.738740 0.000000 
#    z 0.000000 0.000000 1.759620 
# 
# From -- ./inp_files/37015.got.cif
#   From: 2010.03.12/outbox.cif.g09.slc.cpg/sg51_19_cif.got.tgz:37015.got - 2010.04.16 13:43:02.
