data_PCOD8213772
_publ_section_title
;
Structure prediction by ZEFSAII (Michael W. Deem and Ramdas Pophale) SiO2 
 PCOD8213772
Probable space group: P M M A
;
_chemical_formula_sum "Si O2"
_cell_formula_units_Z 48
_cell_length_a 17.657825
_cell_length_b 8.093973
_cell_length_c 15.496354
_cell_angle_alpha 90.000000
_cell_angle_beta 90.000000
_cell_angle_gamma 90.000000
_cell_volume 2214.769268
_symmetry_space_group_name_H-M "P M M A"
_symmetry_group_IT_number 51
_symmetry_cell_setting 'orthorhombic'
loop_
_space_group_symop_operation_xyz
x,y,z
1/2-x,-y,z
1/2+x,-y,-z
-x,y,-z
-x,-y,-z
1/2+x,y,-z
1/2-x,y,z
x,-y,z
loop_
_atom_site_type_symbol
_atom_site_label
_atom_site_fract_x
_atom_site_fract_y
_atom_site_fract_z
Si Si1 0.898364 0.311184 0.320218
Si Si2 0.835910 0.308776 0.508658
Si Si3 0.061616 0.814344 0.342947
Si Si4 0.166776 0.312974 0.196440
Si Si5 0.838799 0.000000 0.212728
Si Si6 0.964436 0.000000 0.096666
Si Si7 0.528621 0.676651 0.903029
O O1 0.879156 0.500000 0.288824
O O2 0.857466 0.276393 0.410302
O O3 0.989336 0.303612 0.331125
O O4 0.865828 0.169609 0.257589
O O5 0.750000 0.244672 0.524608
O O6 0.841543 0.500000 0.533223
O O7 0.895958 0.212237 0.566776
O O8 0.122726 0.789357 0.267759
O O9 0.030715 0.000000 0.340059
O O10 0.250000 0.236479 0.180104
O O11 0.174209 0.500000 0.229889
O O12 0.119701 0.307789 0.105868
O O13 0.874478 0.000000 0.114316
O O14 0.750000 0.000000 0.201878
O O15 0.993450 0.834460 0.146282
O O16 0.000000 0.000000 0.000000
O O17 0.502609 0.500000 0.861537
O O18 0.500000 0.682182 0.000000
#
# Coordination Sequence:
#
# PCOD8213772 Si02
#       7
#     8   8   8   8   4   4   8
#     4  11  24  44  68  94 129 176 225 275 330 387
#     4  10  22  40  61  88 126 174 225 277 334 389
#     4  12  24  37  58  92 128 172 226 274 324 389
#     4  10  21  37  58  87 125 168 212 263 326 390
#     4  12  26  44  69 101 134 169 218 276 327 385
#     4  10  22  42  66  93 126 165 206 252 314 387
#     4   9  19  38  64  91 121 161 208 260 316 384
#
# _framework density 21.672684
#
# number of rings (size 3 to 8) (size 9 to 14) (size 15 to 20)
#    0.000    1.500    0.833    4.000    2.333    7.667 
#    0.000    3.333    0.000    1.000    0.000    0.000 
#    0.000    0.000    0.000    0.000    0.000    0.000 
#
# Total GULP energy -594627.679268 kJ/mol
# GULP energy per Si atom -12388.076651 kJ/mol
# Density = 2.162336 g / cm^3
# Si number density = 21.672684 Si / 1000 Ang^3
#
#
#
# Elastic Constant Matrix: (Units=GPa)
#
#
# Indices 1 2 3 4 5 6 
#
# 1 159.3995 52.7655 48.4924 0.0000 0.0000 0.0000
# 2 52.7655 157.3515 28.5796 0.0000 0.0000 0.0000
# 3 48.4924 28.5796 80.5719 0.0000 0.0000 0.0000
# 4 0.0000 0.0000 0.0000 3.8883 0.0000 0.0000
# 5 0.0000 0.0000 0.0000 0.0000 39.8552 0.0000
# 6 0.0000 0.0000 0.0000 0.0000 0.0000 26.6071
#
#
#
# Elastic Compliance Matrix: (Units=1/GPa)
#
#
# Indices 1 2 3 4 5 6 
#
# 1 0.008222 -0.001986 -0.004244 0.000000 0.000000 0.000000
# 2 -0.001986 0.007273 -0.001384 0.000000 0.000000 0.000000
# 3 -0.004244 -0.001384 0.015456 0.000000 0.000000 0.000000
# 4 0.000000 0.000000 0.000000 0.257183 0.000000 0.000000
# 5 0.000000 0.000000 0.000000 0.000000 0.025091 0.000000
# 6 0.000000 0.000000 0.000000 0.000000 0.000000 0.037584
#
#
# Mechanical properties :
#
#
# Convention : Reuss Voigt Hill
#
# Bulk Modulus (GPa) = 63.60376 72.99978 68.30177
# Shear Modulus (GPa) = 13.46696 31.90248 22.68472
#
# Velocity S-wave (km/s) = 2.49545 3.84085 3.23878
# Velocity P-wave (km/s) = 6.14119 7.30927 6.75054
#
# Compressibility (1/GPa) = 0.01572234
#
# Stress axis : x y z
#
# Youngs Moduli (GPa) = 121.62232 137.50047 64.69771
#
# Poissons Ratio (x) = 0.27312 0.27457
# Poissons Ratio (y) = 0.24159 0.08955
# Poissons Ratio (z) = 0.51616 0.19033
#
# Static dielectric constant tensor:
#      x y z
#    x 4.147440 0.000000 0.000000 
#    y 0.000000 5.203280 0.000000 
#    z 0.000000 0.000000 3.972710 
# 
# 
# High freq. dielectric constant tensor:
#      x y z
#    x 1.852120 0.000000 0.000000 
#    y 0.000000 1.870220 0.000000 
#    z 0.000000 0.000000 1.834660 
# 
# From -- ./inp_files/25006.got.cif
#   From: 2010.03.12/outbox.cif.g09.slc.cpg/sg51_13_cif.got.tgz:25006.got - 2010.04.16 13:43:02.
