data_PCOD8213837
_publ_section_title
;
Structure prediction by ZEFSAII (Michael W. Deem and Ramdas Pophale) SiO2 
 PCOD8213837
Probable space group: P M M A
;
_chemical_formula_sum "Si O2"
_cell_formula_units_Z 36
_cell_length_a 8.792397
_cell_length_b 12.462650
_cell_length_c 19.786976
_cell_angle_alpha 90.000000
_cell_angle_beta 90.000000
_cell_angle_gamma 90.000000
_cell_volume 2168.188891
_symmetry_space_group_name_H-M "P M M A"
_symmetry_group_IT_number 51
_symmetry_cell_setting 'orthorhombic'
loop_
_space_group_symop_operation_xyz
x,y,z
1/2-x,-y,z
1/2+x,-y,-z
-x,y,-z
-x,-y,-z
1/2+x,y,-z
1/2-x,y,z
x,-y,z
loop_
_atom_site_type_symbol
_atom_site_label
_atom_site_fract_x
_atom_site_fract_y
_atom_site_fract_z
Si Si1 0.928107 0.125207 0.286608
Si Si2 0.429149 0.196318 0.154592
Si Si3 0.569161 0.000000 0.074110
Si Si4 0.426814 0.624896 0.928925
Si Si5 0.917565 0.127406 0.435020
O O1 0.750000 0.153337 0.279517
O O2 0.989666 0.156343 0.361839
O O3 0.027412 0.191388 0.233441
O O4 0.953712 0.000000 0.272494
O O5 0.250000 0.182200 0.144965
O O6 0.484117 0.311865 0.129050
O O7 0.516052 0.105139 0.113293
O O8 0.750000 0.000000 0.069537
O O9 0.500000 0.000000 0.000000
O O10 0.250000 0.656915 0.930017
O O11 0.450192 0.500000 0.913612
O O12 0.500000 0.657776 0.000000
O O13 0.750000 0.176065 0.436698
O O14 0.000000 0.179016 0.500000
O O15 0.912317 0.000000 0.442049
#
# Coordination Sequence:
#
# PCOD8213837 Si02
#       5
#     8   8   4   8   8
#     4   9  17  30  46  64  93 132 166 198 238 285
#     4  12  23  34  50  74 100 127 162 201 244 290
#     4  12  24  38  52  68  95 128 163 200 238 288
#     4  10  21  38  58  76  95 123 159 200 247 294
#     4   8  14  24  39  60  86 121 161 197 234 274
#
# _framework density 16.603719999999999
#
# number of rings (size 3 to 8) (size 9 to 14) (size 15 to 20)
#    0.000    2.000    1.111    5.667    0.000    2.222 
#    0.000    2.222    0.000    0.000    0.000    0.000 
#    0.000    0.889    0.000    2.889    0.000    3.556 
#
# Total GULP energy -446306.903496 kJ/mol
# GULP energy per Si atom -12397.413986 kJ/mol
# Density = 1.656593 g / cm^3
# Si number density = 16.603720 Si / 1000 Ang^3
#
#
#
# Elastic Constant Matrix: (Units=GPa)
#
#
# Indices 1 2 3 4 5 6 
#
# 1 113.1149 31.9567 62.6354 0.0000 0.0000 0.0000
# 2 31.9567 46.1661 40.7344 0.0000 0.0000 0.0000
# 3 62.6354 40.7344 151.8999 0.0000 0.0000 0.0000
# 4 0.0000 0.0000 0.0000 11.1795 0.0000 0.0000
# 5 0.0000 0.0000 0.0000 0.0000 33.6137 0.0000
# 6 0.0000 0.0000 0.0000 0.0000 0.0000 20.8333
#
#
#
# Elastic Compliance Matrix: (Units=1/GPa)
#
#
# Indices 1 2 3 4 5 6 
#
# 1 0.012381 -0.005326 -0.003677 0.000000 0.000000 0.000000
# 2 -0.005326 0.030666 -0.006027 0.000000 0.000000 0.000000
# 3 -0.003677 -0.006027 0.009716 0.000000 0.000000 0.000000
# 4 0.000000 0.000000 0.000000 0.089449 0.000000 0.000000
# 5 0.000000 0.000000 0.000000 0.000000 0.029750 0.000000
# 6 0.000000 0.000000 0.000000 0.000000 0.000000 0.048000
#
#
# Mechanical properties :
#
#
# Convention : Reuss Voigt Hill
#
# Bulk Modulus (GPa) = 44.04891 64.64820 54.34855
# Shear Modulus (GPa) = 19.41061 24.84893 22.12977
#
# Velocity S-wave (km/s) = 3.42285 3.87277 3.65474
# Velocity P-wave (km/s) = 6.49679 7.68234 7.11430
#
# Compressibility (1/GPa) = 0.02270204
#
# Stress axis : x y z
#
# Youngs Moduli (GPa) = 80.76625 32.60954 102.92420
#
# Poissons Ratio (x) = 0.17368 0.37847
# Poissons Ratio (y) = 0.43016 0.62036
# Poissons Ratio (z) = 0.29699 0.19655
#
# Static dielectric constant tensor:
#      x y z
#    x 3.286230 0.000000 0.000000 
#    y 0.000000 2.783700 0.000000 
#    z 0.000000 0.000000 3.404960 
# 
# 
# High freq. dielectric constant tensor:
#      x y z
#    x 1.646920 0.000000 0.000000 
#    y 0.000000 1.588160 0.000000 
#    z 0.000000 0.000000 1.652790 
# 
# From -- ./inp_files/31286.got.cif
#   From: 2010.03.12/outbox.cif.g09.slc.cpg/sg51_16_cif.got.tgz:31286.got - 2010.04.16 13:43:02.
