data_PCOD8213382
_publ_section_title
;
Structure prediction by ZEFSAII (Michael W. Deem and Ramdas Pophale) SiO2 
 PCOD8213382
Probable space group: P M M A
;
_chemical_formula_sum "Si O2"
_cell_formula_units_Z 48
_cell_length_a 7.659588
_cell_length_b 9.500031
_cell_length_c 34.156340
_cell_angle_alpha 90.000000
_cell_angle_beta 90.000000
_cell_angle_gamma 90.000000
_cell_volume 2485.431284
_symmetry_space_group_name_H-M "P M M A"
_symmetry_group_IT_number 51
_symmetry_cell_setting 'orthorhombic'
loop_
_space_group_symop_operation_xyz
x,y,z
1/2-x,-y,z
1/2+x,-y,-z
-x,y,-z
-x,-y,-z
1/2+x,y,-z
1/2-x,y,z
x,-y,z
loop_
_atom_site_type_symbol
_atom_site_label
_atom_site_fract_x
_atom_site_fract_y
_atom_site_fract_z
Si Si1 0.250000 0.662955 0.746839
Si Si2 0.550046 0.155036 0.614546
Si Si3 0.545720 0.343588 0.957682
Si Si4 0.046050 0.342111 0.543253
Si Si5 0.750000 0.164046 0.174404
Si Si6 0.952546 0.337238 0.686448
Si Si7 0.048858 0.836362 0.114821
O O1 0.250000 0.500000 0.758424
O O2 0.250000 0.752513 0.785690
O O3 0.425922 0.701218 0.723141
O O4 0.750000 0.133126 0.624482
O O5 0.536856 0.234280 0.573471
O O6 0.472159 0.248090 0.649825
O O7 0.459398 0.000000 0.612459
O O8 0.750000 0.354136 0.952800
O O9 0.461329 0.500000 0.954336
O O10 0.474416 0.245238 0.923089
O O11 0.500000 0.277138 0.000000
O O12 0.250000 0.343969 0.550141
O O13 0.968605 0.500000 0.549169
O O14 0.000000 0.287192 0.500000
O O15 0.574570 0.205679 0.150934
O O16 0.750000 0.000000 0.184402
O O17 0.750000 0.303669 0.696820
O O18 0.974828 0.500000 0.674668
O O19 0.250000 0.796968 0.125117
O O20 0.031258 0.000000 0.104822
#
# Coordination Sequence:
#
# PCOD8213382 Si02
#       7
#     4   8   8   8   4   8   8
#     4  10  22  38  58  86 112 138 182 228 272 332
#     4  10  21  36  55  81 111 143 179 221 273 329
#     4   9  18  31  48  74 105 137 175 221 271 318
#     4  10  21  36  55  78 105 142 187 229 270 320
#     4  10  22  38  56  80 108 142 180 222 274 326
#     4   9  19  37  59  82 112 146 179 223 273 324
#     4   9  19  36  54  74 104 141 181 221 263 318
#
# _framework density 19.312543999999999
#
# number of rings (size 3 to 8) (size 9 to 14) (size 15 to 20)
#    0.000    2.500    0.000    1.000    2.333    4.667 
#    0.000    0.000    0.000    0.000    0.000    0.000 
#    0.000    0.000    0.000    0.000    0.000    0.000 
#
# Total GULP energy -595092.445329 kJ/mol
# GULP energy per Si atom -12397.759278 kJ/mol
# Density = 1.926859 g / cm^3
# Si number density = 19.312544 Si / 1000 Ang^3
#
#
#
# Elastic Constant Matrix: (Units=GPa)
#
#
# Indices 1 2 3 4 5 6 
#
# 1 72.1718 35.3832 50.0152 0.0000 0.0000 0.0000
# 2 35.3832 102.1581 95.1765 0.0000 0.0000 0.0000
# 3 50.0152 95.1765 181.1005 0.0000 0.0000 0.0000
# 4 0.0000 0.0000 0.0000 151.3468 0.0000 0.0000
# 5 0.0000 0.0000 0.0000 0.0000 30.4375 0.0000
# 6 0.0000 0.0000 0.0000 0.0000 0.0000 16.7915
#
#
#
# Elastic Compliance Matrix: (Units=1/GPa)
#
#
# Indices 1 2 3 4 5 6 
#
# 1 0.017615 -0.003074 -0.003249 0.000000 0.000000 0.000000
# 2 -0.003074 0.019716 -0.009513 0.000000 0.000000 0.000000
# 3 -0.003249 -0.009513 0.011419 0.000000 0.000000 0.000000
# 4 0.000000 0.000000 0.000000 0.006607 0.000000 0.000000
# 5 0.000000 0.000000 0.000000 0.000000 0.032854 0.000000
# 6 0.000000 0.000000 0.000000 0.000000 0.000000 0.059554
#
#
# Mechanical properties :
#
#
# Convention : Reuss Voigt Hill
#
# Bulk Modulus (GPa) = 58.55638 79.62002 69.08820
# Shear Modulus (GPa) = 27.00825 51.37220 39.19023
#
# Velocity S-wave (km/s) = 3.74369 5.16316 4.50962
# Velocity P-wave (km/s) = 7.00522 8.76703 7.93517
#
# Compressibility (1/GPa) = 0.01707756
#
# Stress axis : x y z
#
# Youngs Moduli (GPa) = 56.77133 50.72020 87.57663
#
# Poissons Ratio (x) = 0.15590 0.28456
# Poissons Ratio (y) = 0.17450 0.83310
# Poissons Ratio (z) = 0.18447 0.48249
#
# Static dielectric constant tensor:
#      x y z
#    x 3.812360 0.000000 0.000000 
#    y 0.000000 3.818370 0.000000 
#    z 0.000000 0.000000 3.507920 
# 
# 
# High freq. dielectric constant tensor:
#      x y z
#    x 1.754030 0.000000 0.000000 
#    y 0.000000 1.747160 0.000000 
#    z 0.000000 0.000000 1.744930 
# 
# From -- ./inp_files/37101.got.cif
#   From: 2010.03.12/outbox.cif.g09.slc.cpg/sg51_19_cif.got.tgz:37101.got - 2010.04.16 13:43:02.
