data_PCOD8213334
_publ_section_title
;
Structure prediction by ZEFSAII (Michael W. Deem and Ramdas Pophale) SiO2 
 PCOD8213334
Probable space group: P M M A
;
_chemical_formula_sum "Si O2"
_cell_formula_units_Z 48
_cell_length_a 9.172394
_cell_length_b 9.192208
_cell_length_c 30.634475
_cell_angle_alpha 90.000000
_cell_angle_beta 90.000000
_cell_angle_gamma 90.000000
_cell_volume 2582.932082
_symmetry_space_group_name_H-M "P M M A"
_symmetry_group_IT_number 51
_symmetry_cell_setting 'orthorhombic'
loop_
_space_group_symop_operation_xyz
x,y,z
1/2-x,-y,z
1/2+x,-y,-z
-x,y,-z
-x,-y,-z
1/2+x,y,-z
1/2-x,y,z
x,-y,z
loop_
_atom_site_type_symbol
_atom_site_label
_atom_site_fract_x
_atom_site_fract_y
_atom_site_fract_z
Si Si1 0.078598 0.167272 0.794315
Si Si2 0.581754 0.670859 0.870581
Si Si3 0.920173 0.167222 0.956955
Si Si4 0.079526 0.832086 0.544106
Si Si5 0.581860 0.167639 0.707151
Si Si6 0.917444 0.671230 0.620008
O O1 0.250000 0.190085 0.792518
O O2 0.013821 0.267419 0.831677
O O3 0.013083 0.218324 0.748238
O O4 0.036001 0.000000 0.803719
O O5 0.750000 0.712505 0.862275
O O6 0.558278 0.500000 0.873509
O O7 0.525718 0.740232 0.915710
O O8 0.750000 0.187787 0.964930
O O9 0.962117 0.000000 0.948019
O O10 0.000000 0.226673 0.000000
O O11 0.250000 0.803445 0.538091
O O12 0.000000 0.782783 0.500000
O O13 0.020527 0.734518 0.583005
O O14 0.045515 0.000000 0.554731
O O15 0.750000 0.195271 0.719011
O O16 0.532230 0.263123 0.666108
O O17 0.552341 0.000000 0.695335
O O18 0.750000 0.714481 0.610129
O O19 0.938749 0.500000 0.622038
#
# Coordination Sequence:
#
# PCOD8213334 Si02
#       6
#     8   8   8   8   8   8
#     4  10  21  36  55  80 108 138 175 220 267 314
#     4  10  21  36  54  77 106 141 179 217 260 313
#     4   9  18  33  53  76 102 134 173 216 260 308
#     4  10  21  37  58  82 107 139 180 224 268 314
#     4   9  18  34  56  79 105 141 182 221 261 309
#     4  10  21  36  55  81 112 144 177 215 262 316
#
# _framework density 18.583531000000001
#
# number of rings (size 3 to 8) (size 9 to 14) (size 15 to 20)
#    0.000    2.333    0.000    2.000    0.000    6.667 
#    0.000    5.000    0.000    0.000    0.000    0.000 
#    0.000    0.000    0.000    0.000    0.000    0.000 
#
# Total GULP energy -595426.577302 kJ/mol
# GULP energy per Si atom -12404.720360 kJ/mol
# Density = 1.854123 g / cm^3
# Si number density = 18.583531 Si / 1000 Ang^3
#
#
#
# Elastic Constant Matrix: (Units=GPa)
#
#
# Indices 1 2 3 4 5 6 
#
# 1 77.5581 45.9674 74.6189 0.0000 0.0000 0.0000
# 2 45.9674 77.9319 75.1350 0.0000 0.0000 0.0000
# 3 74.6189 75.1350 168.6220 0.0000 0.0000 0.0000
# 4 0.0000 0.0000 0.0000 -10.7662 0.0000 0.0000
# 5 0.0000 0.0000 0.0000 0.0000 38.1866 0.0000
# 6 0.0000 0.0000 0.0000 0.0000 0.0000 25.5456
#
#
#
# Elastic Compliance Matrix: (Units=1/GPa)
#
#
# Indices 1 2 3 4 5 6 
#
# 1 0.024451 -0.006996 -0.007703 0.000000 0.000000 0.000000
# 2 -0.006996 0.024497 -0.007820 0.000000 0.000000 0.000000
# 3 -0.007703 -0.007820 0.012823 0.000000 0.000000 0.000000
# 4 0.000000 0.000000 0.000000 -0.092883 0.000000 0.000000
# 5 0.000000 0.000000 0.000000 0.000000 0.026187 0.000000
# 6 0.000000 0.000000 0.000000 0.000000 0.000000 0.039146
#
#
# Mechanical properties :
#
#
# Convention : Reuss Voigt Hill
#
# Bulk Modulus (GPa) = 59.75572 79.50606 69.63089
# Shear Modulus (GPa) = 58.93740 19.15257 39.04499
#
# Velocity S-wave (km/s) = 5.63770 3.21381 4.58870
# Velocity P-wave (km/s) = 8.63732 7.52645 8.10095
#
# Compressibility (1/GPa) = 0.01673480
#
# Stress axis : x y z
#
# Youngs Moduli (GPa) = 40.89872 40.82102 77.98221
#
# Poissons Ratio (x) = 0.28557 0.60068
# Poissons Ratio (y) = 0.28611 0.60980
# Poissons Ratio (z) = 0.31503 0.31921
#
# Static dielectric constant tensor:
#      x y z
#    x 3.318470 0.000000 0.000000 
#    y 0.000000 3.367300 0.000000 
#    z 0.000000 0.000000 3.529220 
# 
# 
# High freq. dielectric constant tensor:
#      x y z
#    x 1.718280 0.000000 0.000000 
#    y 0.000000 1.716600 0.000000 
#    z 0.000000 0.000000 1.732550 
# 
# From -- ./inp_files/36905.got.cif
#   From: 2010.03.12/outbox.cif.g09.slc.cpg/sg51_19_cif.got.tgz:36905.got - 2010.04.16 13:43:02.
