data_PCOD8213549
_publ_section_title
;
Structure prediction by ZEFSAII (Michael W. Deem and Ramdas Pophale) SiO2 
 PCOD8213549
Probable space group: P M M A
;
_chemical_formula_sum "Si O2"
_cell_formula_units_Z 48
_cell_length_a 14.969277
_cell_length_b 7.655713
_cell_length_c 20.851962
_cell_angle_alpha 90.000000
_cell_angle_beta 90.000000
_cell_angle_gamma 90.000000
_cell_volume 2389.645032
_symmetry_space_group_name_H-M "P M M A"
_symmetry_group_IT_number 51
_symmetry_cell_setting 'orthorhombic'
loop_
_space_group_symop_operation_xyz
x,y,z
1/2-x,-y,z
1/2+x,-y,-z
-x,y,-z
-x,-y,-z
1/2+x,y,-z
1/2-x,y,z
x,-y,z
loop_
_atom_site_type_symbol
_atom_site_label
_atom_site_fract_x
_atom_site_fract_y
_atom_site_fract_z
Si Si1 0.350614 0.207448 0.500000
Si Si2 0.894636 0.000000 0.927406
Si Si3 0.149665 0.301943 0.833954
Si Si4 0.850335 0.301943 0.833954
Si Si5 1.000000 0.296177 0.263396
Si Si6 0.894635 0.000000 0.072594
Si Si7 0.500000 0.802308 0.407559
O O1 0.250000 0.290258 0.500000
O O2 0.408136 0.276171 0.562015
O O3 0.408137 0.276171 0.437985
O O4 0.339125 0.000000 0.500000
O O5 0.858457 0.824464 0.894653
O O6 0.000000 0.000000 0.924130
O O7 0.859198 0.000000 1.000000
O O8 0.250000 0.295736 0.807229
O O9 0.123500 0.500000 0.855075
O O10 0.086655 0.236281 0.776549
O O11 0.141543 0.175536 0.894653
O O12 0.750000 0.295736 0.807229
O O13 0.876500 0.500000 0.855075
O O14 0.913345 0.236281 0.776549
O O15 1.000000 0.500000 0.276769
O O16 1.000000 0.203698 0.331275
O O17 0.500000 0.000000 0.430696
#
# Coordination Sequence:
#
# PCOD8213549 Si02
#       7
#     8   4   8   8   8   4   8
#     4   8  15  31  50  74 108 140 178 226 275 329
#     4  11  23  39  63  90 117 151 192 240 291 347
#     4  10  22  40  60  83 116 156 194 238 291 344
#     4  10  22  40  60  83 116 156 194 238 291 344
#     4  10  21  37  55  79 114 149 186 233 284 340
#     4  11  23  39  63  90 117 151 192 240 291 347
#     4   9  18  30  52  78 103 141 182 227 277 327
#
# _framework density 20.086663000000001
#
# number of rings (size 3 to 8) (size 9 to 14) (size 15 to 20)
#    0.000    2.333    1.667    1.500    2.333    3.333 
#    0.000    5.000    0.000    1.000    0.000    0.000 
#    0.000    0.000    0.000    0.000    0.000    0.000 
#
# Total GULP energy -594928.487946 kJ/mol
# GULP energy per Si atom -12394.343499 kJ/mol
# Density = 2.004095 g / cm^3
# Si number density = 20.086663 Si / 1000 Ang^3
#
#
#
# Elastic Constant Matrix: (Units=GPa)
#
#
# Indices 1 2 3 4 5 6 
#
# 1 174.2177 25.5865 74.2541 0.0000 0.0000 0.0000
# 2 25.5865 67.6378 44.5971 0.0000 0.0000 0.0000
# 3 74.2541 44.5971 166.7858 0.0000 0.0000 0.0000
# 4 0.0000 0.0000 0.0000 -0.9012 0.0000 0.0000
# 5 0.0000 0.0000 0.0000 0.0000 1.1061 0.0000
# 6 0.0000 0.0000 0.0000 0.0000 0.0000 15.7427
#
#
#
# Elastic Compliance Matrix: (Units=1/GPa)
#
#
# Indices 1 2 3 4 5 6 
#
# 1 0.007114 -0.000732 -0.002971 0.000000 0.000000 0.000000
# 2 -0.000732 0.018024 -0.004494 0.000000 0.000000 0.000000
# 3 -0.002971 -0.004494 0.008520 0.000000 0.000000 0.000000
# 4 0.000000 0.000000 0.000000 -1.109590 0.000000 0.000000
# 5 0.000000 0.000000 0.000000 0.000000 0.904082 0.000000
# 6 0.000000 0.000000 0.000000 0.000000 0.000000 0.063521
#
#
# Mechanical properties :
#
#
# Convention : Reuss Voigt Hill
#
# Bulk Modulus (GPa) = 57.92258 77.50186 67.71222
# Shear Modulus (GPa) = -58.01894 20.80309 -18.60793
#
# Velocity S-wave (km/s) = -5.38024 3.22167 -3.04695
# Velocity P-wave (km/s) = 3.11401 7.24613 4.62652
#
# Compressibility (1/GPa) = 0.01726443
#
# Stress axis : x y z
#
# Youngs Moduli (GPa) = 140.56961 55.48016 117.36784
#
# Poissons Ratio (x) = 0.04060 0.34875
# Poissons Ratio (y) = 0.10288 0.52742
# Poissons Ratio (z) = 0.41770 0.24931
#
# Static dielectric constant tensor:
#      x y z
#    x 4.015530 0.000000 0.000000 
#    y 0.000000 3.547880 0.000000 
#    z 0.000000 0.000000 3.502310 
# 
# 
# High freq. dielectric constant tensor:
#      x y z
#    x 1.801490 0.000000 0.000000 
#    y 0.000000 1.772790 0.000000 
#    z 0.000000 0.000000 1.768270 
# 
# From -- ./inp_files/29636.got.cif
#   From: 2010.03.12/outbox.cif.g09.slc.cpg/sg51_15_cif.got.tgz:29636.got - 2010.04.16 13:43:02.
