data_PCOD8213741
_publ_section_title
;
Structure prediction by ZEFSAII (Michael W. Deem and Ramdas Pophale) SiO2 
 PCOD8213741
Probable space group: P M M A
;
_chemical_formula_sum "Si O2"
_cell_formula_units_Z 56
_cell_length_a 22.714010
_cell_length_b 8.833820
_cell_length_c 14.439626
_cell_angle_alpha 90.000000
_cell_angle_beta 90.000000
_cell_angle_gamma 90.000000
_cell_volume 2897.332267
_symmetry_space_group_name_H-M "P M M A"
_symmetry_group_IT_number 51
_symmetry_cell_setting 'orthorhombic'
loop_
_space_group_symop_operation_xyz
x,y,z
1/2-x,-y,z
1/2+x,-y,-z
-x,y,-z
-x,-y,-z
1/2+x,y,-z
1/2-x,y,z
x,-y,z
loop_
_atom_site_type_symbol
_atom_site_label
_atom_site_fract_x
_atom_site_fract_y
_atom_site_fract_z
Si Si1 0.024108 0.177715 0.406901
Si Si2 0.979131 0.179333 0.213704
Si Si3 0.405134 0.323144 0.150518
Si Si4 0.654798 0.821034 0.193723
Si Si5 0.250000 0.678115 0.461714
Si Si6 0.636958 0.676936 0.648215
Si Si7 0.250000 0.680953 0.674014
Si Si8 0.684312 0.674423 0.005513
O O1 0.091558 0.220775 0.406479
O O2 0.000000 0.254222 0.500000
O O3 0.991116 0.243346 0.316803
O O4 0.014874 0.000000 0.409002
O O5 0.913357 0.233829 0.189166
O O6 0.030260 0.245616 0.146820
O O7 0.984562 0.000000 0.207690
O O8 0.416472 0.500000 0.141698
O O9 0.367793 0.284722 0.242817
O O10 0.364547 0.264178 0.066331
O O11 0.690776 0.742101 0.276741
O O12 0.683347 0.776135 0.096796
O O13 0.659041 0.000000 0.209294
O O14 0.250000 0.500000 0.470833
O O15 0.303485 0.733583 0.398423
O O16 0.250000 0.741356 0.567252
O O17 0.625183 0.500000 0.631235
O O18 0.250000 0.500000 0.679862
O O19 0.750000 0.688882 0.961981
O O20 0.671447 0.500000 0.031702
#
# Coordination Sequence:
#
# PCOD8213741 Si02
#       8
#     8   8   8   8   4   8   4   8
#     4   9  18  33  53  75 104 142 182 223 271 320
#     4   9  20  37  55  78 110 146 181 226 281 328
#     4   9  19  35  58  86 112 143 184 226 270 328
#     4  11  23  39  59  82 109 144 188 231 273 325
#     4   9  20  35  54  81 112 144 177 219 272 321
#     4   9  18  34  54  80 111 141 178 221 264 319
#     4  11  23  39  56  79 112 148 183 225 276 325
#     4  10  21  37  58  84 113 147 184 224 276 328
#
# _framework density 19.328126000000001
#
# number of rings (size 3 to 8) (size 9 to 14) (size 15 to 20)
#    0.000    2.429    0.714    0.643    3.000    2.571 
#    0.000    3.929    0.000    0.000    0.000    0.000 
#    0.000    0.000    0.000    0.000    0.000    0.000 
#
# Total GULP energy -694114.037633 kJ/mol
# GULP energy per Si atom -12394.893529 kJ/mol
# Density = 1.928413 g / cm^3
# Si number density = 19.328126 Si / 1000 Ang^3
#
#
#
# Elastic Constant Matrix: (Units=GPa)
#
#
# Indices 1 2 3 4 5 6 
#
# 1 138.0489 21.8892 50.5373 0.0000 0.0000 0.0000
# 2 21.8892 30.2282 17.7478 0.0000 0.0000 0.0000
# 3 50.5373 17.7478 78.4153 0.0000 0.0000 0.0000
# 4 0.0000 0.0000 0.0000 18.0242 0.0000 0.0000
# 5 0.0000 0.0000 0.0000 0.0000 2.2077 0.0000
# 6 0.0000 0.0000 0.0000 0.0000 0.0000 32.9664
#
#
#
# Elastic Compliance Matrix: (Units=1/GPa)
#
#
# Indices 1 2 3 4 5 6 
#
# 1 0.009871 -0.003936 -0.005471 0.000000 0.000000 0.000000
# 2 -0.003936 0.039721 -0.006454 0.000000 0.000000 0.000000
# 3 -0.005471 -0.006454 0.017739 0.000000 0.000000 0.000000
# 4 0.000000 0.000000 0.000000 0.055481 0.000000 0.000000
# 5 0.000000 0.000000 0.000000 0.000000 0.452970 0.000000
# 6 0.000000 0.000000 0.000000 0.000000 0.000000 0.030334
#
#
# Mechanical properties :
#
#
# Convention : Reuss Voigt Hill
#
# Bulk Modulus (GPa) = 28.08156 47.44900 37.76528
# Shear Modulus (GPa) = 7.69580 21.07420 14.38500
#
# Velocity S-wave (km/s) = 1.99757 3.30561 2.73106
# Velocity P-wave (km/s) = 4.45879 6.25875 5.43382
#
# Compressibility (1/GPa) = 0.03561056
#
# Stress axis : x y z
#
# Youngs Moduli (GPa) = 101.31137 25.17581 56.37305
#
# Poissons Ratio (x) = 0.09908 0.30840
# Poissons Ratio (y) = 0.39872 0.36381
# Poissons Ratio (z) = 0.55424 0.16247
#
# Static dielectric constant tensor:
#      x y z
#    x 3.956410 0.000000 0.000000 
#    y 0.000000 3.287000 0.000000 
#    z 0.000000 0.000000 3.726900 
# 
# 
# High freq. dielectric constant tensor:
#      x y z
#    x 1.763500 0.000000 0.000000 
#    y 0.000000 1.732200 0.000000 
#    z 0.000000 0.000000 1.753810 
# 
# From -- ./inp_files/25879.got.cif
#   From: 2010.03.12/outbox.cif.g09.slc.cpg/sg51_13_cif.got.tgz:25879.got - 2010.04.16 13:43:02.
