data_PCOD8213344
_publ_section_title
;
Structure prediction by ZEFSAII (Michael W. Deem and Ramdas Pophale) SiO2 
 PCOD8213344
Probable space group: P M M A
;
_chemical_formula_sum "Si O2"
_cell_formula_units_Z 48
_cell_length_a 9.104496
_cell_length_b 9.599471
_cell_length_c 30.627803
_cell_angle_alpha 90.000000
_cell_angle_beta 90.000000
_cell_angle_gamma 90.000000
_cell_volume 2676.819303
_symmetry_space_group_name_H-M "P M M A"
_symmetry_group_IT_number 51
_symmetry_cell_setting 'orthorhombic'
loop_
_space_group_symop_operation_xyz
x,y,z
1/2-x,-y,z
1/2+x,-y,-z
-x,y,-z
-x,-y,-z
1/2+x,y,-z
1/2-x,y,z
x,-y,z
loop_
_atom_site_type_symbol
_atom_site_label
_atom_site_fract_x
_atom_site_fract_y
_atom_site_fract_z
Si Si1 0.578420 0.340034 0.288057
Si Si2 0.580815 0.838985 0.206272
Si Si3 0.578709 0.661600 0.044610
Si Si4 0.920348 0.837390 0.882071
Si Si5 0.422042 0.839855 0.456283
Si Si6 0.077758 0.340081 0.375279
O O1 0.750000 0.319282 0.295744
O O2 0.537311 0.500000 0.278591
O O3 0.523467 0.250213 0.247097
O O4 0.497957 0.284958 0.331289
O O5 0.750000 0.803898 0.194987
O O6 0.481101 0.797117 0.165376
O O7 0.561564 0.000000 0.218580
O O8 0.750000 0.695712 0.039952
O O9 0.550999 0.500000 0.055264
O O10 0.511191 0.751531 0.083010
O O11 0.500000 0.705519 0.000000
O O12 0.750000 0.796072 0.884544
O O13 0.944933 0.000000 0.891600
O O14 0.500000 0.785509 0.500000
O O15 0.250000 0.817798 0.462827
O O16 0.481665 0.750070 0.415749
O O17 0.462486 0.000000 0.447016
O O18 0.250000 0.319619 0.369185
O O19 0.035273 0.500000 0.384298
#
# Coordination Sequence:
#
# PCOD8213344 Si02
#       6
#     8   8   8   8   8   8
#     4   9  18  32  49  70  96 125 159 199 241 287
#     4   9  18  33  51  71  98 131 165 203 247 293
#     4  10  21  37  57  80 106 137 173 213 257 304
#     4  10  21  36  54  78 107 138 173 212 254 302
#     4   9  18  32  48  67  92 121 153 190 232 278
#     4   9  18  32  48  67  93 123 154 190 234 283
#
# _framework density 17.931730000000002
#
# number of rings (size 3 to 8) (size 9 to 14) (size 15 to 20)
#    0.000    2.667    0.000    1.000    0.000    5.333 
#    0.000    1.667    0.000    0.000    0.000    0.000 
#    0.000    0.000    0.000    0.000    0.000    0.000 
#
# Total GULP energy -595349.843793 kJ/mol
# GULP energy per Si atom -12403.121746 kJ/mol
# Density = 1.789092 g / cm^3
# Si number density = 17.931730 Si / 1000 Ang^3
#
#
#
# Elastic Constant Matrix: (Units=GPa)
#
#
# Indices 1 2 3 4 5 6 
#
# 1 74.4308 42.7838 71.3884 0.0000 0.0000 0.0000
# 2 42.7838 70.2571 84.4122 0.0000 0.0000 0.0000
# 3 71.3884 84.4122 177.2972 0.0000 0.0000 0.0000
# 4 0.0000 0.0000 0.0000 44.6939 0.0000 0.0000
# 5 0.0000 0.0000 0.0000 0.0000 39.3426 0.0000
# 6 0.0000 0.0000 0.0000 0.0000 0.0000 34.7796
#
#
#
# Elastic Compliance Matrix: (Units=1/GPa)
#
#
# Indices 1 2 3 4 5 6 
#
# 1 0.023195 -0.006785 -0.006109 0.000000 0.000000 0.000000
# 2 -0.006785 0.035243 -0.014047 0.000000 0.000000 0.000000
# 3 -0.006109 -0.014047 0.014788 0.000000 0.000000 0.000000
# 4 0.000000 0.000000 0.000000 0.022374 0.000000 0.000000
# 5 0.000000 0.000000 0.000000 0.000000 0.025418 0.000000
# 6 0.000000 0.000000 0.000000 0.000000 0.000000 0.028753
#
#
# Mechanical properties :
#
#
# Convention : Reuss Voigt Hill
#
# Bulk Modulus (GPa) = 51.69821 79.90598 65.80209
# Shear Modulus (GPa) = 23.79822 31.98993 27.89407
#
# Velocity S-wave (km/s) = 3.64697 4.22831 3.94835
# Velocity P-wave (km/s) = 6.82840 8.27623 7.58693
#
# Compressibility (1/GPa) = 0.01934303
#
# Stress axis : x y z
#
# Youngs Moduli (GPa) = 43.11358 28.37469 67.62234
#
# Poissons Ratio (x) = 0.19252 0.41310
# Poissons Ratio (y) = 0.29252 0.94991
# Poissons Ratio (z) = 0.26338 0.39859
#
# Static dielectric constant tensor:
#      x y z
#    x 3.225660 0.000000 0.000000 
#    y 0.000000 3.319820 0.000000 
#    z 0.000000 0.000000 3.453780 
# 
# 
# High freq. dielectric constant tensor:
#      x y z
#    x 1.693460 0.000000 0.000000 
#    y 0.000000 1.689080 0.000000 
#    z 0.000000 0.000000 1.702510 
# 
# From -- ./inp_files/36131.got.cif
#   From: 2010.03.12/outbox.cif.g09.slc.cpg/sg51_19_cif.got.tgz:36131.got - 2010.04.16 13:43:02.
