data_PCOD8213925
_publ_section_title
;
Structure prediction by ZEFSAII (Michael W. Deem and Ramdas Pophale) SiO2 
 PCOD8213925
Probable space group: P M M A
;
_chemical_formula_sum "Si O2"
_cell_formula_units_Z 40
_cell_length_a 8.898960
_cell_length_b 25.790367
_cell_length_c 9.477094
_cell_angle_alpha 90.000000
_cell_angle_beta 90.000000
_cell_angle_gamma 90.000000
_cell_volume 2175.063624
_symmetry_space_group_name_H-M "P M M A"
_symmetry_group_IT_number 51
_symmetry_cell_setting 'orthorhombic'
loop_
_space_group_symop_operation_xyz
x,y,z
1/2-x,-y,z
1/2+x,-y,-z
-x,y,-z
-x,-y,-z
1/2+x,y,-z
1/2-x,y,z
x,-y,z
loop_
_atom_site_type_symbol
_atom_site_label
_atom_site_fract_x
_atom_site_fract_y
_atom_site_fract_z
Si Si1 0.425018 0.268064 0.849559
Si Si2 0.574608 0.056227 0.847118
Si Si3 0.425564 0.845836 0.847636
Si Si4 0.424039 0.560904 0.145209
Si Si5 0.071392 0.639143 0.652057
O O1 0.250000 0.274419 0.877582
O O2 0.459465 0.210993 0.781770
O O3 0.482939 0.310768 0.739992
O O4 0.500000 0.277042 0.000000
O O5 0.750000 0.066801 0.863579
O O6 0.500463 0.105308 0.762618
O O7 0.546022 0.000000 0.771980
O O8 0.500000 0.054040 0.000000
O O9 0.250000 0.856385 0.859503
O O10 0.500000 0.844887 0.000000
O O11 0.250000 0.577024 0.141510
O O12 0.444937 0.500000 0.167084
O O13 0.507890 0.587683 0.274914
O O14 0.500000 0.579585 0.000000
O O15 0.250000 0.635190 0.640121
O O16 0.000000 0.644532 0.500000
#
# Coordination Sequence:
#
# PCOD8213925 Si02
#       5
#     8   8   8   8   8
#     4   9  19  33  50  72  97 127 164 207 250 296
#     4   9  15  21  30  48  77 112 148 186 230 281
#     4   9  15  24  38  57  82 113 151 192 235 284
#     4  10  21  38  60  85 111 139 172 209 249 295
#     4  11  23  38  55  77 106 138 173 212 256 304
#
# _framework density 18.390269
#
# number of rings (size 3 to 8) (size 9 to 14) (size 15 to 20)
#    0.000    2.400    0.000    4.200    0.000    6.800 
#    0.000    0.000    0.000    0.000    0.000    0.000 
#    0.000    0.800    0.000    1.800    0.000   10.200 
#
# Total GULP energy -495648.809513 kJ/mol
# GULP energy per Si atom -12391.220238 kJ/mol
# Density = 1.834841 g / cm^3
# Si number density = 18.390269 Si / 1000 Ang^3
#
#
#
# Elastic Constant Matrix: (Units=GPa)
#
#
# Indices 1 2 3 4 5 6 
#
# 1 107.0012 60.5482 40.9339 0.0000 0.0000 0.0000
# 2 60.5482 122.2714 55.7426 0.0000 0.0000 0.0000
# 3 40.9339 55.7426 85.4091 0.0000 0.0000 0.0000
# 4 0.0000 0.0000 0.0000 5.5847 0.0000 0.0000
# 5 0.0000 0.0000 0.0000 0.0000 22.8256 0.0000
# 6 0.0000 0.0000 0.0000 0.0000 0.0000 24.1429
#
#
#
# Elastic Compliance Matrix: (Units=1/GPa)
#
#
# Indices 1 2 3 4 5 6 
#
# 1 0.013503 -0.005319 -0.003000 0.000000 0.000000 0.000000
# 2 -0.005319 0.013738 -0.006417 0.000000 0.000000 0.000000
# 3 -0.003000 -0.006417 0.017334 0.000000 0.000000 0.000000
# 4 0.000000 0.000000 0.000000 0.179061 0.000000 0.000000
# 5 0.000000 0.000000 0.000000 0.000000 0.043811 0.000000
# 6 0.000000 0.000000 0.000000 0.000000 0.000000 0.041420
#
#
# Mechanical properties :
#
#
# Convention : Reuss Voigt Hill
#
# Bulk Modulus (GPa) = 66.21090 69.90346 68.05718
# Shear Modulus (GPa) = 14.56142 21.00777 17.78459
#
# Velocity S-wave (km/s) = 2.81695 3.38351 3.11314
# Velocity P-wave (km/s) = 6.83093 7.30464 7.07175
#
# Compressibility (1/GPa) = 0.01510325
#
# Stress axis : x y z
#
# Youngs Moduli (GPa) = 74.05623 72.79164 57.68917
#
# Poissons Ratio (x) = 0.38718 0.17308
# Poissons Ratio (y) = 0.39390 0.37018
# Poissons Ratio (z) = 0.22219 0.46709
#
# Static dielectric constant tensor:
#      x y z
#    x 3.533670 0.000000 0.000000 
#    y 0.000000 4.693400 0.000000 
#    z 0.000000 0.000000 2.137480 
# 
# 
# High freq. dielectric constant tensor:
#      x y z
#    x 1.728740 0.000000 0.000000 
#    y 0.000000 1.747230 0.000000 
#    z 0.000000 0.000000 1.642970 
# 
# From -- ./inp_files/5489.got.cif
#   From: 2010.03.12/outbox.cif.g09.slc.cpg/sg51_3_cif.got.tgz:5489.got - 2010.04.16 13:43:02.
