data_PCOD8213740
_publ_section_title
;
Structure prediction by ZEFSAII (Michael W. Deem and Ramdas Pophale) SiO2 
 PCOD8213740
Probable space group: P M M A
;
_chemical_formula_sum "Si O2"
_cell_formula_units_Z 48
_cell_length_a 14.804211
_cell_length_b 8.986442
_cell_length_c 18.598785
_cell_angle_alpha 90.000000
_cell_angle_beta 90.000000
_cell_angle_gamma 90.000000
_cell_volume 2474.329973
_symmetry_space_group_name_H-M "P M M A"
_symmetry_group_IT_number 51
_symmetry_cell_setting 'orthorhombic'
loop_
_space_group_symop_operation_xyz
x,y,z
1/2-x,-y,z
1/2+x,-y,-z
-x,y,-z
-x,-y,-z
1/2+x,y,-z
1/2-x,y,z
x,-y,z
loop_
_atom_site_type_symbol
_atom_site_label
_atom_site_fract_x
_atom_site_fract_y
_atom_site_fract_z
Si Si1 0.647698 0.670975 0.916112
Si Si2 0.487245 0.825149 0.673468
Si Si3 0.146733 0.327917 0.401708
Si Si4 0.645209 0.329811 0.432783
Si Si5 0.355577 0.171154 0.937635
Si Si6 0.020546 0.673429 0.823272
O O1 0.750000 0.704609 0.890468
O O2 0.637359 0.500000 0.941027
O O3 0.581394 0.706621 0.849996
O O4 0.619636 0.774505 0.982509
O O5 0.585873 0.771400 0.649737
O O6 0.412705 0.779749 0.615446
O O7 0.460687 0.757065 0.749546
O O8 0.488010 0.000000 0.681153
O O9 0.250000 0.287593 0.384880
O O10 0.127548 0.500000 0.384743
O O11 0.123798 0.293311 0.484444
O O12 0.750000 0.302958 0.415951
O O13 0.618308 0.500000 0.415858
O O14 0.250000 0.193050 0.922683
O O15 0.408016 0.270833 0.881118
O O16 0.384983 0.000000 0.930270
O O17 0.036403 0.500000 0.810398
#
# Coordination Sequence:
#
# PCOD8213740 Si02
#       6
#     8   8   8   8   8   8
#     4   9  19  37  60  84 108 138 181 228 271 321
#     4  12  25  37  53  82 119 153 183 225 283 339
#     4   9  19  38  63  86 109 143 188 233 274 324
#     4   9  19  38  63  86 108 142 189 234 275 326
#     4  10  21  37  58  84 113 144 178 222 278 333
#     4  11  23  38  57  80 109 149 191 229 271 322
#
# _framework density 19.399191999999999
#
# number of rings (size 3 to 8) (size 9 to 14) (size 15 to 20)
#    0.000    2.000    0.000    4.500    0.000    9.000 
#    0.000    3.333    0.000    0.000    0.000    0.000 
#    0.000    0.000    0.000    0.000    0.000    0.000 
#
# Total GULP energy -595413.949078 kJ/mol
# GULP energy per Si atom -12404.457272 kJ/mol
# Density = 1.935504 g / cm^3
# Si number density = 19.399192 Si / 1000 Ang^3
#
#
#
# Elastic Constant Matrix: (Units=GPa)
#
#
# Indices 1 2 3 4 5 6 
#
# 1 48.8975 25.4034 9.2302 0.0000 0.0000 0.0000
# 2 25.4034 100.4066 25.2134 0.0000 0.0000 0.0000
# 3 9.2302 25.2134 38.2394 0.0000 0.0000 0.0000
# 4 0.0000 0.0000 0.0000 -19.2078 0.0000 0.0000
# 5 0.0000 0.0000 0.0000 0.0000 8.0488 0.0000
# 6 0.0000 0.0000 0.0000 0.0000 0.0000 23.5769
#
#
#
# Elastic Compliance Matrix: (Units=1/GPa)
#
#
# Indices 1 2 3 4 5 6 
#
# 1 0.023688 -0.005462 -0.002117 0.000000 0.000000 0.000000
# 2 -0.005462 0.013195 -0.007382 0.000000 0.000000 0.000000
# 3 -0.002117 -0.007382 0.031529 0.000000 0.000000 0.000000
# 4 0.000000 0.000000 0.000000 -0.052062 0.000000 0.000000
# 5 0.000000 0.000000 0.000000 0.000000 0.124243 0.000000
# 6 0.000000 0.000000 0.000000 0.000000 0.000000 0.042414
#
#
# Mechanical properties :
#
#
# Convention : Reuss Voigt Hill
#
# Bulk Modulus (GPa) = 25.97950 34.13751 30.05851
# Shear Modulus (GPa) = 22.14760 10.99666 16.57213
#
# Velocity S-wave (km/s) = 3.38254 2.38347 2.92596
# Velocity P-wave (km/s) = 5.35505 5.02097 5.19070
#
# Compressibility (1/GPa) = 0.03849189
#
# Stress axis : x y z
#
# Youngs Moduli (GPa) = 42.21550 75.78608 31.71661
#
# Poissons Ratio (x) = 0.41392 0.06713
# Poissons Ratio (y) = 0.23057 0.23413
# Poissons Ratio (z) = 0.08935 0.55945
#
# Static dielectric constant tensor:
#      x y z
#    x 3.668490 0.000000 0.000000 
#    y 0.000000 3.507780 0.000000 
#    z 0.000000 0.000000 3.444360 
# 
# 
# High freq. dielectric constant tensor:
#      x y z
#    x 1.767940 0.000000 0.000000 
#    y 0.000000 1.753120 0.000000 
#    z 0.000000 0.000000 1.750590 
# 
# From -- ./inp_files/29392.got.cif
#   From: 2010.03.12/outbox.cif.g09.slc.cpg/sg51_15_cif.got.tgz:29392.got - 2010.04.16 13:43:02.
