data_PCOD8213859
_publ_section_title
;
Structure prediction by ZEFSAII (Michael W. Deem and Ramdas Pophale) SiO2 
 PCOD8213859
Probable space group: P M M A
;
_chemical_formula_sum "Si O2"
_cell_formula_units_Z 64
_cell_length_a 17.908875
_cell_length_b 9.124542
_cell_length_c 20.851199
_cell_angle_alpha 90.000000
_cell_angle_beta 90.000000
_cell_angle_gamma 90.000000
_cell_volume 3407.300311
_symmetry_space_group_name_H-M "P M M A"
_symmetry_group_IT_number 51
_symmetry_cell_setting 'orthorhombic'
loop_
_space_group_symop_operation_xyz
x,y,z
1/2-x,-y,z
1/2+x,-y,-z
-x,y,-z
-x,-y,-z
1/2+x,y,-z
1/2-x,y,z
x,-y,z
loop_
_atom_site_type_symbol
_atom_site_label
_atom_site_fract_x
_atom_site_fract_y
_atom_site_fract_z
Si Si1 0.836507 0.667065 0.005961
Si Si2 0.664820 0.671587 0.751334
Si Si3 0.576921 0.668452 0.877572
Si Si4 0.663788 0.674541 0.227303
Si Si5 0.339031 0.164664 0.374153
Si Si6 0.423716 0.173610 0.885456
Si Si7 0.338735 0.333270 0.496224
Si Si8 0.161574 0.338011 0.633935
O O1 0.750000 0.707165 0.009590
O O2 0.850844 0.500000 0.028965
O O3 0.880290 0.777466 0.051317
O O4 0.862503 0.688085 0.933239
O O5 0.750000 0.719847 0.764783
O O6 0.660290 0.500000 0.738076
O O7 0.615363 0.718546 0.811717
O O8 0.631785 0.751583 0.688771
O O9 0.549444 0.500000 0.873766
O O10 0.508336 0.773971 0.892067
O O11 0.750000 0.713383 0.212901
O O12 0.651853 0.500000 0.223207
O O13 0.612317 0.755772 0.177114
O O14 0.638283 0.735700 0.298163
O O15 0.250000 0.170329 0.376257
O O16 0.373256 0.239042 0.438194
O O17 0.369302 0.000000 0.371430
O O18 0.420771 0.000000 0.879735
O O19 0.250000 0.331522 0.490784
O O20 0.367704 0.500000 0.490258
O O21 0.362838 0.262932 0.566056
O O22 0.250000 0.351436 0.635519
O O23 0.126724 0.500000 0.632559
#
# Coordination Sequence:
#
# PCOD8213859 Si02
#       8
#     8   8   8   8   8   8   8   8
#     4  10  21  39  63  86 105 129 165 209 254 298
#     4   9  17  31  52  76  99 125 163 212 260 302
#     4  10  21  38  59  80 102 131 169 211 253 298
#     4   9  17  32  54  76  99 132 175 219 260 302
#     4   9  16  24  36  60  96 134 167 199 241 297
#     4  12  25  37  51  76 110 143 172 203 244 298
#     4   8  12  20  36  59  89 124 161 203 250 296
#     4   7  11  21  40  66  92 120 160 210 258 299
#
# _framework density 18.783199
#
# number of rings (size 3 to 8) (size 9 to 14) (size 15 to 20)
#    0.000    2.750    0.000    4.125    0.000    7.500 
#    0.000    0.625    0.000    4.500    0.000    0.875 
#    0.000    7.000    0.000    0.000    0.000    0.000 
#
# Total GULP energy -793125.060556 kJ/mol
# GULP energy per Si atom -12392.579071 kJ/mol
# Density = 1.874045 g / cm^3
# Si number density = 18.783199 Si / 1000 Ang^3
#
#
#
# Elastic Constant Matrix: (Units=GPa)
#
#
# Indices 1 2 3 4 5 6 
#
# 1 40.8465 17.4897 11.0590 0.0000 0.0000 0.0000
# 2 17.4897 63.8962 34.6681 0.0000 0.0000 0.0000
# 3 11.0590 34.6681 123.9504 0.0000 0.0000 0.0000
# 4 0.0000 0.0000 0.0000 4.0515 0.0000 0.0000
# 5 0.0000 0.0000 0.0000 0.0000 21.1626 0.0000
# 6 0.0000 0.0000 0.0000 0.0000 0.0000 11.5683
#
#
#
# Elastic Compliance Matrix: (Units=1/GPa)
#
#
# Indices 1 2 3 4 5 6 
#
# 1 0.027750 -0.007371 -0.000414 0.000000 0.000000 0.000000
# 2 -0.007371 0.020408 -0.005050 0.000000 0.000000 0.000000
# 3 -0.000414 -0.005050 0.009517 0.000000 0.000000 0.000000
# 4 0.000000 0.000000 0.000000 0.246819 0.000000 0.000000
# 5 0.000000 0.000000 0.000000 0.000000 0.047253 0.000000
# 6 0.000000 0.000000 0.000000 0.000000 0.000000 0.086443
#
#
# Mechanical properties :
#
#
# Convention : Reuss Voigt Hill
#
# Bulk Modulus (GPa) = 31.24585 39.45853 35.35219
# Shear Modulus (GPa) = 10.53672 18.38823 14.46248
#
# Velocity S-wave (km/s) = 2.37104 3.13225 2.77784
# Velocity P-wave (km/s) = 4.91598 5.84245 5.39913
#
# Compressibility (1/GPa) = 0.03200426
#
# Stress axis : x y z
#
# Youngs Moduli (GPa) = 36.03575 48.99997 105.07220
#
# Poissons Ratio (x) = 0.36118 0.04353
# Poissons Ratio (y) = 0.26562 0.53065
# Poissons Ratio (z) = 0.01493 0.24747
#
# Static dielectric constant tensor:
#      x y z
#    x 3.046480 0.000000 0.000000 
#    y 0.000000 3.292550 0.000000 
#    z 0.000000 0.000000 3.939050 
# 
# 
# High freq. dielectric constant tensor:
#      x y z
#    x 1.684860 0.000000 0.000000 
#    y 0.000000 1.700510 0.000000 
#    z 0.000000 0.000000 1.758200 
# 
# From -- ./inp_files/33805.got.cif
#   From: 2010.03.12/outbox.cif.g09.slc.cpg/sg51_17_cif.got.tgz:33805.got - 2010.04.16 13:43:02.
