data_PCOD8213252
_publ_section_title
;
Structure prediction by ZEFSAII (Michael W. Deem and Ramdas Pophale) SiO2 
 PCOD8213252
Probable space group: P M M A
;
_chemical_formula_sum "Si O2"
_cell_formula_units_Z 48
_cell_length_a 8.910396
_cell_length_b 9.842482
_cell_length_c 30.676071
_cell_angle_alpha 90.000000
_cell_angle_beta 90.000000
_cell_angle_gamma 90.000000
_cell_volume 2690.304073
_symmetry_space_group_name_H-M "P M M A"
_symmetry_group_IT_number 51
_symmetry_cell_setting 'orthorhombic'
loop_
_space_group_symop_operation_xyz
x,y,z
1/2-x,-y,z
1/2+x,-y,-z
-x,y,-z
-x,-y,-z
1/2+x,y,-z
1/2-x,y,z
x,-y,z
loop_
_atom_site_type_symbol
_atom_site_label
_atom_site_fract_x
_atom_site_fract_y
_atom_site_fract_z
Si Si1 0.573810 0.844156 0.954780
Si Si2 0.574841 0.342723 0.116792
Si Si3 0.075725 0.343612 0.207098
Si Si4 0.928279 0.847724 0.716815
Si Si5 0.571570 0.152465 0.620242
Si Si6 0.072826 0.344766 0.455366
O O1 0.750000 0.823352 0.959171
O O2 0.512954 0.748898 0.917110
O O3 0.532255 0.000000 0.943792
O O4 0.500000 0.798398 0.000000
O O5 0.750000 0.311087 0.113521
O O6 0.539259 0.500000 0.106693
O O7 0.518280 0.303428 0.164699
O O8 0.250000 0.311023 0.197867
O O9 0.052558 0.500000 0.219777
O O10 0.009224 0.255917 0.247083
O O11 0.750000 0.841674 0.716664
O O12 0.987236 0.806428 0.668558
O O13 0.982685 0.000000 0.728386
O O14 0.750000 0.159083 0.620004
O O15 0.506295 0.255840 0.584378
O O16 0.517702 0.000000 0.608809
O O17 0.250000 0.327948 0.459564
O O18 0.026394 0.500000 0.446295
O O19 0.000000 0.291485 0.500000
#
# Coordination Sequence:
#
# PCOD8213252 Si02
#       6
#     8   8   8   8   8   8
#     4  10  21  37  57  80 105 133 166 205 248 293
#     4  10  21  36  53  74 102 136 171 205 242 286
#     4   9  17  29  46  69  95 121 152 193 237 279
#     4   8  14  25  42  65  91 116 145 185 231 276
#     4   8  14  25  41  62  87 113 143 182 226 270
#     4   9  17  28  42  61  85 112 143 180 221 266
#
# _framework density 17.841849
#
# number of rings (size 3 to 8) (size 9 to 14) (size 15 to 20)
#    0.000    3.000    0.000    2.000    0.000    4.000 
#    0.000    5.000    0.000    1.000    0.000    7.000 
#    0.000    0.000    0.000    0.000    0.000    0.000 
#
# Total GULP energy -595099.573200 kJ/mol
# GULP energy per Si atom -12397.907775 kJ/mol
# Density = 1.780124 g / cm^3
# Si number density = 17.841849 Si / 1000 Ang^3
#
#
#
# Elastic Constant Matrix: (Units=GPa)
#
#
# Indices 1 2 3 4 5 6 
#
# 1 36.2850 27.8317 35.6738 0.0000 0.0000 0.0000
# 2 27.8317 96.6001 95.3690 0.0000 0.0000 0.0000
# 3 35.6738 95.3690 159.1947 0.0000 0.0000 0.0000
# 4 0.0000 0.0000 0.0000 40.6523 0.0000 0.0000
# 5 0.0000 0.0000 0.0000 0.0000 24.8830 0.0000
# 6 0.0000 0.0000 0.0000 0.0000 0.0000 17.6377
#
#
#
# Elastic Compliance Matrix: (Units=1/GPa)
#
#
# Indices 1 2 3 4 5 6 
#
# 1 0.036720 -0.006011 -0.004628 0.000000 0.000000 0.000000
# 2 -0.006011 0.026321 -0.014421 0.000000 0.000000 0.000000
# 3 -0.004628 -0.014421 0.015958 0.000000 0.000000 0.000000
# 4 0.000000 0.000000 0.000000 0.024599 0.000000 0.000000
# 5 0.000000 0.000000 0.000000 0.000000 0.040188 0.000000
# 6 0.000000 0.000000 0.000000 0.000000 0.000000 0.056697
#
#
# Mechanical properties :
#
#
# Convention : Reuss Voigt Hill
#
# Bulk Modulus (GPa) = 34.62659 67.75874 51.19266
# Shear Modulus (GPa) = 19.21384 25.51495 22.36440
#
# Velocity S-wave (km/s) = 3.28517 3.78572 3.54429
# Velocity P-wave (km/s) = 5.81717 7.56100 6.74567
#
# Compressibility (1/GPa) = 0.02887954
#
# Stress axis : x y z
#
# Youngs Moduli (GPa) = 27.23333 37.99193 62.66424
#
# Poissons Ratio (x) = 0.22836 0.28998
# Poissons Ratio (y) = 0.16369 0.90371
# Poissons Ratio (z) = 0.12602 0.54790
#
# Static dielectric constant tensor:
#      x y z
#    x 2.967280 0.000000 0.000000 
#    y 0.000000 3.437710 0.000000 
#    z 0.000000 0.000000 3.643820 
# 
# 
# High freq. dielectric constant tensor:
#      x y z
#    x 1.656070 0.000000 0.000000 
#    y 0.000000 1.690240 0.000000 
#    z 0.000000 0.000000 1.700890 
# 
# From -- ./inp_files/36119.got.cif
#   From: 2010.03.12/outbox.cif.g09.slc.cpg/sg51_19_cif.got.tgz:36119.got - 2010.04.16 13:43:02.
