data_PCOD8213599
_publ_section_title
;
Structure prediction by ZEFSAII (Michael W. Deem and Ramdas Pophale) SiO2 
 PCOD8213599
Probable space group: P M M A
;
_chemical_formula_sum "Si O2"
_cell_formula_units_Z 56
_cell_length_a 8.770965
_cell_length_b 14.375176
_cell_length_c 23.309544
_cell_angle_alpha 90.000000
_cell_angle_beta 90.000000
_cell_angle_gamma 90.000000
_cell_volume 2938.964405
_symmetry_space_group_name_H-M "P M M A"
_symmetry_group_IT_number 51
_symmetry_cell_setting 'orthorhombic'
loop_
_space_group_symop_operation_xyz
x,y,z
1/2-x,-y,z
1/2+x,-y,-z
-x,y,-z
-x,-y,-z
1/2+x,y,-z
1/2-x,y,z
x,-y,z
loop_
_atom_site_type_symbol
_atom_site_label
_atom_site_fract_x
_atom_site_fract_y
_atom_site_fract_z
Si Si1 0.929048 0.606095 0.561589
Si Si2 0.574912 0.109004 0.162167
Si Si3 0.070926 0.106757 0.282791
Si Si4 0.069831 0.397632 0.763347
Si Si5 0.068735 0.727724 0.660505
Si Si6 0.571822 0.607026 0.107663
Si Si7 0.071049 0.219981 0.058791
O O1 0.750000 0.624750 0.559037
O O2 0.964643 0.500000 0.580885
O O3 0.000000 0.626072 0.500000
O O4 0.006611 0.678209 0.604278
O O5 0.750000 0.141261 0.163557
O O6 0.501545 0.137820 0.222488
O O7 0.490319 0.160454 0.111288
O O8 0.557739 0.000000 0.151198
O O9 0.250000 0.123168 0.279476
O O10 0.998277 0.168238 0.333869
O O11 0.030483 0.000000 0.296714
O O12 0.250000 0.404446 0.757846
O O13 0.999494 0.500000 0.751976
O O14 0.004918 0.327550 0.716026
O O15 0.027002 0.364318 0.827276
O O16 0.250000 0.731365 0.657604
O O17 0.750000 0.624174 0.096572
O O18 0.528820 0.500000 0.095743
O O19 0.474734 0.671789 0.065629
O O20 0.250000 0.209268 0.055214
O O21 0.000000 0.180817 0.000000
#
# Coordination Sequence:
#
# PCOD8213599 Si02
#       7
#     8   8   8   8   8   8   8
#     4  10  21  37  56  80 114 155 197 238 278 324
#     4  10  21  39  62  85 110 140 175 218 271 331
#     4  10  21  37  57  83 115 148 183 225 272 323
#     4   8  15  28  48  76 107 137 169 208 259 318
#     4  11  20  31  54  84 114 149 188 230 275 325
#     4   9  18  35  57  78 104 139 178 221 268 319
#     4  12  25  39  56  77 104 138 178 224 271 325
#
# _framework density 19.05433
#
# number of rings (size 3 to 8) (size 9 to 14) (size 15 to 20)
#    0.000    2.000    0.000    5.143    0.000    5.143 
#    0.000    0.714    0.000    2.143    0.000    0.000 
#    0.000    0.000    0.000    0.000    0.000    0.000 
#
# Total GULP energy -694514.857090 kJ/mol
# GULP energy per Si atom -12402.051019 kJ/mol
# Density = 1.901096 g / cm^3
# Si number density = 19.054330 Si / 1000 Ang^3
#
#
#
# Elastic Constant Matrix: (Units=GPa)
#
#
# Indices 1 2 3 4 5 6 
#
# 1 117.2696 56.5001 59.1010 0.0000 0.0000 0.0000
# 2 56.5001 88.5071 63.0521 0.0000 0.0000 0.0000
# 3 59.1010 63.0521 100.0981 0.0000 0.0000 0.0000
# 4 0.0000 0.0000 0.0000 8.9825 0.0000 0.0000
# 5 0.0000 0.0000 0.0000 0.0000 32.5981 0.0000
# 6 0.0000 0.0000 0.0000 0.0000 0.0000 30.8424
#
#
#
# Elastic Compliance Matrix: (Units=1/GPa)
#
#
# Indices 1 2 3 4 5 6 
#
# 1 0.013376 -0.005283 -0.004569 0.000000 0.000000 0.000000
# 2 -0.005283 0.022583 -0.011106 0.000000 0.000000 0.000000
# 3 -0.004569 -0.011106 0.019684 0.000000 0.000000 0.000000
# 4 0.000000 0.000000 0.000000 0.111327 0.000000 0.000000
# 5 0.000000 0.000000 0.000000 0.000000 0.030677 0.000000
# 6 0.000000 0.000000 0.000000 0.000000 0.000000 0.032423
#
#
# Mechanical properties :
#
#
# Convention : Reuss Voigt Hill
#
# Bulk Modulus (GPa) = 72.85753 73.68682 73.27218
# Shear Modulus (GPa) = 18.07921 22.96603 20.52262
#
# Velocity S-wave (km/s) = 3.08364 3.47550 3.28542
# Velocity P-wave (km/s) = 7.14130 7.40685 7.27529
#
# Compressibility (1/GPa) = 0.01372542
#
# Stress axis : x y z
#
# Youngs Moduli (GPa) = 74.76200 44.28144 50.80389
#
# Poissons Ratio (x) = 0.23396 0.23214
# Poissons Ratio (y) = 0.39500 0.56420
# Poissons Ratio (z) = 0.34162 0.49177
#
# Static dielectric constant tensor:
#      x y z
#    x 3.391390 0.000000 0.000000 
#    y 0.000000 3.666530 0.000000 
#    z 0.000000 0.000000 3.469350 
# 
# 
# High freq. dielectric constant tensor:
#      x y z
#    x 1.736710 0.000000 0.000000 
#    y 0.000000 1.746290 0.000000 
#    z 0.000000 0.000000 1.730140 
# 
# From -- ./inp_files/31866.got.cif
#   From: 2010.03.12/outbox.cif.g09.slc.cpg/sg51_16_cif.got.tgz:31866.got - 2010.04.16 13:43:02.
