data_PCOD8213620
_publ_section_title
;
Structure prediction by ZEFSAII (Michael W. Deem and Ramdas Pophale) SiO2 
 PCOD8213620
Probable space group: P M M A
;
_chemical_formula_sum "Si O2"
_cell_formula_units_Z 48
_cell_length_a 28.677318
_cell_length_b 8.729622
_cell_length_c 10.011600
_cell_angle_alpha 90.000000
_cell_angle_beta 90.000000
_cell_angle_gamma 90.000000
_cell_volume 2506.325430
_symmetry_space_group_name_H-M "P M M A"
_symmetry_group_IT_number 51
_symmetry_cell_setting 'orthorhombic'
loop_
_space_group_symop_operation_xyz
x,y,z
1/2-x,-y,z
1/2+x,-y,-z
-x,y,-z
-x,-y,-z
1/2+x,y,-z
1/2-x,y,z
x,-y,z
loop_
_atom_site_type_symbol
_atom_site_label
_atom_site_fract_x
_atom_site_fract_y
_atom_site_fract_z
Si Si1 0.368942 0.320310 0.999273
Si Si2 0.802056 0.817746 0.497297
Si Si3 0.304854 0.172182 0.205036
Si Si4 0.478043 0.681348 0.638300
Si Si5 0.378749 0.818370 0.711186
Si Si6 0.534316 0.318314 0.889171
O O1 0.372127 0.500000 0.970817
O O2 0.325113 0.283081 0.091956
O O3 0.413952 0.258224 0.080276
O O4 0.365054 0.236998 0.857973
O O5 0.750000 0.754847 0.462767
O O6 0.817279 0.764858 0.646536
O O7 0.839275 0.754471 0.390420
O O8 0.800384 0.000000 0.495981
O O9 0.250000 0.171878 0.185862
O O10 0.324543 0.000000 0.185506
O O11 0.500000 0.736798 0.500000
O O12 0.470399 0.500000 0.643702
O O13 0.428490 0.757575 0.664007
O O14 0.515831 0.738367 0.746464
O O15 0.379783 0.000000 0.709367
O O16 0.533673 0.500000 0.895286
O O17 0.500000 0.248658 0.000000
#
# Coordination Sequence:
#
# PCOD8213620 Si02
#       6
#     8   8   8   8   8   8
#     4  11  22  36  57  83 113 147 186 229 273 329
#     4   8  17  36  59  80 107 145 183 222 273 332
#     4   9  19  38  61  83 109 142 181 225 277 334
#     4  10  21  37  57  79 108 147 188 228 279 340
#     4  11  22  36  56  84 115 146 188 234 278 328
#     4   9  17  34  55  75 105 146 184 219 267 326
#
# _framework density 19.151541999999999
#
# number of rings (size 3 to 8) (size 9 to 14) (size 15 to 20)
#    0.000    2.333    1.667    2.000    2.333    1.333 
#    0.000    5.000    0.000    3.500    0.000    0.000 
#    0.000    0.000    0.000    0.000    0.000    0.000 
#
# Total GULP energy -595110.335995 kJ/mol
# GULP energy per Si atom -12398.132000 kJ/mol
# Density = 1.910795 g / cm^3
# Si number density = 19.151542 Si / 1000 Ang^3
#
#
#
# Elastic Constant Matrix: (Units=GPa)
#
#
# Indices 1 2 3 4 5 6 
#
# 1 91.7550 21.3769 77.0734 0.0000 0.0000 0.0000
# 2 21.3769 31.4756 26.6723 0.0000 0.0000 0.0000
# 3 77.0734 26.6723 177.4340 0.0000 0.0000 0.0000
# 4 0.0000 0.0000 0.0000 16.9954 0.0000 0.0000
# 5 0.0000 0.0000 0.0000 0.0000 42.1002 0.0000
# 6 0.0000 0.0000 0.0000 0.0000 0.0000 28.6198
#
#
#
# Elastic Compliance Matrix: (Units=1/GPa)
#
#
# Indices 1 2 3 4 5 6 
#
# 1 0.018253 -0.006507 -0.006951 0.000000 0.000000 0.000000
# 2 -0.006507 0.038728 -0.002995 0.000000 0.000000 0.000000
# 3 -0.006951 -0.002995 0.009105 0.000000 0.000000 0.000000
# 4 0.000000 0.000000 0.000000 0.058839 0.000000 0.000000
# 5 0.000000 0.000000 0.000000 0.000000 0.023753 0.000000
# 6 0.000000 0.000000 0.000000 0.000000 0.000000 0.034941
#
#
# Mechanical properties :
#
#
# Convention : Reuss Voigt Hill
#
# Bulk Modulus (GPa) = 30.13769 61.21220 45.67495
# Shear Modulus (GPa) = 21.96981 29.24587 25.60784
#
# Velocity S-wave (km/s) = 3.39064 3.91202 3.66063
# Velocity P-wave (km/s) = 5.57667 7.24131 6.46281
#
# Compressibility (1/GPa) = 0.03318104
#
# Stress axis : x y z
#
# Youngs Moduli (GPa) = 54.78567 25.82109 109.82577
#
# Poissons Ratio (x) = 0.16801 0.76335
# Poissons Ratio (y) = 0.35648 0.32896
# Poissons Ratio (z) = 0.38079 0.07734
#
# Static dielectric constant tensor:
#      x y z
#    x 3.652890 0.000000 0.000000 
#    y 0.000000 3.163170 0.000000 
#    z 0.000000 0.000000 3.811000 
# 
# 
# High freq. dielectric constant tensor:
#      x y z
#    x 1.751690 0.000000 0.000000 
#    y 0.000000 1.710930 0.000000 
#    z 0.000000 0.000000 1.759330 
# 
# From -- ./inp_files/12764.got.cif
#   From: 2010.03.12/outbox.cif.g09.slc.cpg/sg51_7_cif.got.tgz:12764.got - 2010.04.16 13:43:02.
