data_PCOD8213683
_publ_section_title
;
Structure prediction by ZEFSAII (Michael W. Deem and Ramdas Pophale) SiO2 
 PCOD8213683
Probable space group: P M M A
;
_chemical_formula_sum "Si O2"
_cell_formula_units_Z 48
_cell_length_a 8.833271
_cell_length_b 9.161951
_cell_length_c 30.745645
_cell_angle_alpha 90.000000
_cell_angle_beta 90.000000
_cell_angle_gamma 90.000000
_cell_volume 2488.244929
_symmetry_space_group_name_H-M "P M M A"
_symmetry_group_IT_number 51
_symmetry_cell_setting 'orthorhombic'
loop_
_space_group_symop_operation_xyz
x,y,z
1/2-x,-y,z
1/2+x,-y,-z
-x,y,-z
-x,-y,-z
1/2+x,y,-z
1/2-x,y,z
x,-y,z
loop_
_atom_site_type_symbol
_atom_site_label
_atom_site_fract_x
_atom_site_fract_y
_atom_site_fract_z
Si Si1 0.077086 0.329841 0.628584
Si Si2 0.928107 0.166270 0.045128
Si Si3 0.073701 0.330598 0.123904
Si Si4 0.925699 0.670231 0.717806
Si Si5 0.925876 0.171041 0.203695
Si Si6 0.927837 0.832651 0.456256
O O1 0.250000 0.281612 0.638118
O O2 0.067234 0.500000 0.619167
O O3 0.010265 0.250294 0.586159
O O4 0.973877 0.284860 0.669294
O O5 0.750000 0.179523 0.040762
O O6 0.983194 0.271944 0.082774
O O7 0.977369 0.000000 0.055821
O O8 0.000000 0.219224 0.000000
O O9 0.250000 0.304151 0.115713
O O10 0.035448 0.500000 0.130404
O O11 0.025100 0.246117 0.166832
O O12 0.750000 0.707062 0.724747
O O13 0.958860 0.500000 0.726366
O O14 0.026914 0.764670 0.750065
O O15 0.750000 0.203596 0.194976
O O16 0.959919 0.000000 0.203227
O O17 0.750000 0.812159 0.460028
O O18 0.000000 0.765181 0.500000
O O19 0.977116 0.000000 0.451286
#
# Coordination Sequence:
#
# PCOD8213683 Si02
#       6
#     8   8   8   8   8   8
#     4   9  18  33  52  74 102 137 174 213 261 316
#     4  10  21  38  61  88 117 151 191 233 279 330
#     4  11  24  40  59  85 116 150 188 230 277 328
#     4  10  21  37  57  82 111 142 178 221 270 324
#     4  11  24  40  59  84 112 144 184 227 272 325
#     4   9  18  32  49  70  98 132 170 213 261 313
#
# _framework density 19.290704999999999
#
# number of rings (size 3 to 8) (size 9 to 14) (size 15 to 20)
#    0.000    2.000    0.000    3.000    0.000   10.667 
#    0.000    1.667    0.000    0.000    0.000    0.000 
#    0.000    0.000    0.000    0.000    0.000    0.000 
#
# Total GULP energy -595418.088346 kJ/mol
# GULP energy per Si atom -12404.543507 kJ/mol
# Density = 1.924680 g / cm^3
# Si number density = 19.290705 Si / 1000 Ang^3
#
#
#
# Elastic Constant Matrix: (Units=GPa)
#
#
# Indices 1 2 3 4 5 6 
#
# 1 50.9202 33.0676 28.7883 0.0000 0.0000 0.0000
# 2 33.0676 72.8499 53.8041 0.0000 0.0000 0.0000
# 3 28.7883 53.8041 130.9970 0.0000 0.0000 0.0000
# 4 0.0000 0.0000 0.0000 40.0351 0.0000 0.0000
# 5 0.0000 0.0000 0.0000 0.0000 41.4020 0.0000
# 6 0.0000 0.0000 0.0000 0.0000 0.0000 9.5916
#
#
#
# Elastic Compliance Matrix: (Units=1/GPa)
#
#
# Indices 1 2 3 4 5 6 
#
# 1 0.028010 -0.011724 -0.001340 0.000000 0.000000 0.000000
# 2 -0.011724 0.024612 -0.007532 0.000000 0.000000 0.000000
# 3 -0.001340 -0.007532 0.011022 0.000000 0.000000 0.000000
# 4 0.000000 0.000000 0.000000 0.024978 0.000000 0.000000
# 5 0.000000 0.000000 0.000000 0.000000 0.024153 0.000000
# 6 0.000000 0.000000 0.000000 0.000000 0.000000 0.104258
#
#
# Mechanical properties :
#
#
# Convention : Reuss Voigt Hill
#
# Bulk Modulus (GPa) = 44.54255 54.00966 49.27610
# Shear Modulus (GPa) = 18.81751 27.47954 23.14853
#
# Velocity S-wave (km/s) = 3.12664 3.77834 3.46784
# Velocity P-wave (km/s) = 6.01455 6.86244 6.45244
#
# Compressibility (1/GPa) = 0.02245045
#
# Stress axis : x y z
#
# Youngs Moduli (GPa) = 35.70151 40.63112 90.72864
#
# Poissons Ratio (x) = 0.47638 0.12158
# Poissons Ratio (y) = 0.41858 0.68338
# Poissons Ratio (z) = 0.04784 0.30604
#
# Static dielectric constant tensor:
#      x y z
#    x 3.536850 0.000000 0.000000 
#    y 0.000000 3.551040 0.000000 
#    z 0.000000 0.000000 4.002590 
# 
# 
# High freq. dielectric constant tensor:
#      x y z
#    x 1.754550 0.000000 0.000000 
#    y 0.000000 1.746400 0.000000 
#    z 0.000000 0.000000 1.765840 
# 
# From -- ./inp_files/36939.got.cif
#   From: 2010.03.12/outbox.cif.g09.slc.cpg/sg51_19_cif.got.tgz:36939.got - 2010.04.16 13:43:02.
