data_PCOD8213122
_publ_section_title
;
Structure prediction by ZEFSAII (Michael W. Deem and Ramdas Pophale) SiO2 
 PCOD8213122
Probable space group: P M M A
;
_chemical_formula_sum "Si O2"
_cell_formula_units_Z 36
_cell_length_a 9.465012
_cell_length_b 7.869810
_cell_length_c 24.541712
_cell_angle_alpha 90.000000
_cell_angle_beta 90.000000
_cell_angle_gamma 90.000000
_cell_volume 1828.059266
_symmetry_space_group_name_H-M "P M M A"
_symmetry_group_IT_number 51
_symmetry_cell_setting 'orthorhombic'
loop_
_space_group_symop_operation_xyz
x,y,z
1/2-x,-y,z
1/2+x,-y,-z
-x,y,-z
-x,-y,-z
1/2+x,y,-z
1/2-x,y,z
x,-y,z
loop_
_atom_site_type_symbol
_atom_site_label
_atom_site_fract_x
_atom_site_fract_y
_atom_site_fract_z
Si Si1 0.914963 0.194406 0.133936
Si Si2 0.915430 0.500000 0.055383
Si Si3 0.409469 0.693834 0.355755
Si Si4 0.093837 0.804750 0.547912
Si Si5 0.909829 0.198247 0.761574
O O1 0.750000 0.205182 0.146221
O O2 0.958301 0.327613 0.087199
O O3 0.992539 0.254948 0.188576
O O4 0.958066 0.000000 0.117324
O O5 0.750000 0.500000 0.042356
O O6 0.000000 0.500000 0.000000
O O7 0.250000 0.768792 0.361179
O O8 0.412033 0.500000 0.374290
O O9 0.516310 0.794120 0.394162
O O10 0.460803 0.708598 0.293293
O O11 0.250000 0.718431 0.550497
O O12 0.000000 0.717410 0.500000
O O13 0.114772 0.000000 0.532949
O O14 0.750000 0.250987 0.776363
O O15 0.923343 0.000000 0.750372
#
# Coordination Sequence:
#
# PCOD8213122 Si02
#       5
#     8   4   8   8   8
#     4   9  19  36  56  79 110 146 183 225 273 325
#     4  10  22  38  56  82 112 146 185 226 273 320
#     4  10  21  35  52  78 110 142 175 216 267 322
#     4  10  21  37  57  78 100 133 178 224 271 324
#     4   9  18  33  54  80 108 139 177 220 265 314
#
# _framework density 19.693014999999999
#
# number of rings (size 3 to 8) (size 9 to 14) (size 15 to 20)
#    0.000    2.444    0.000    1.333    1.556    5.333 
#    0.000    2.222    0.000    0.000    0.000    0.000 
#    0.000    0.000    0.000    0.000    0.000    0.000 
#
# Total GULP energy -446358.944126 kJ/mol
# GULP energy per Si atom -12398.859559 kJ/mol
# Density = 1.964819 g / cm^3
# Si number density = 19.693015 Si / 1000 Ang^3
#
#
#
# Elastic Constant Matrix: (Units=GPa)
#
#
# Indices 1 2 3 4 5 6 
#
# 1 107.0983 31.7591 87.1189 0.0000 0.0000 0.0000
# 2 31.7591 62.5160 45.3369 0.0000 0.0000 0.0000
# 3 87.1189 45.3369 153.9222 0.0000 0.0000 0.0000
# 4 0.0000 0.0000 0.0000 14.3505 0.0000 0.0000
# 5 0.0000 0.0000 0.0000 0.0000 42.4858 0.0000
# 6 0.0000 0.0000 0.0000 0.0000 0.0000 17.4653
#
#
#
# Elastic Compliance Matrix: (Units=1/GPa)
#
#
# Indices 1 2 3 4 5 6 
#
# 1 0.017534 -0.002175 -0.009283 0.000000 0.000000 0.000000
# 2 -0.002175 0.020611 -0.004840 0.000000 0.000000 0.000000
# 3 -0.009283 -0.004840 0.013177 0.000000 0.000000 0.000000
# 4 0.000000 0.000000 0.000000 0.069684 0.000000 0.000000
# 5 0.000000 0.000000 0.000000 0.000000 0.023537 0.000000
# 6 0.000000 0.000000 0.000000 0.000000 0.000000 0.057256
#
#
# Mechanical properties :
#
#
# Convention : Reuss Voigt Hill
#
# Bulk Modulus (GPa) = 53.40514 72.44073 62.92293
# Shear Modulus (GPa) = 20.77828 25.48178 23.13003
#
# Velocity S-wave (km/s) = 3.25177 3.60105 3.43086
# Velocity P-wave (km/s) = 6.42467 7.35901 6.90765
#
# Compressibility (1/GPa) = 0.01872479
#
# Stress axis : x y z
#
# Youngs Moduli (GPa) = 57.03300 48.51868 75.89231
#
# Poissons Ratio (x) = 0.10553 0.70453
# Poissons Ratio (y) = 0.12405 0.36729
# Poissons Ratio (z) = 0.52945 0.23481
#
# Static dielectric constant tensor:
#      x y z
#    x 3.844530 0.000000 0.000000 
#    y 0.000000 3.587200 0.000000 
#    z 0.000000 0.000000 3.459450 
# 
# 
# High freq. dielectric constant tensor:
#      x y z
#    x 1.764920 0.000000 0.000000 
#    y 0.000000 1.762780 0.000000 
#    z 0.000000 0.000000 1.762120 
# 
# From -- ./inp_files/34334.got.cif
#   From: 2010.03.12/outbox.cif.g09.slc.cpg/sg51_18_cif.got.tgz:34334.got - 2010.04.16 13:43:02.
