data_PCOD8213043
_publ_section_title
;
Structure prediction by ZEFSAII (Michael W. Deem and Ramdas Pophale) SiO2 
 PCOD8213043
Probable space group: P M M A
;
_chemical_formula_sum "Si O2"
_cell_formula_units_Z 48
_cell_length_a 9.483542
_cell_length_b 9.375848
_cell_length_c 30.714503
_cell_angle_alpha 90.000000
_cell_angle_beta 90.000000
_cell_angle_gamma 90.000000
_cell_volume 2731.018375
_symmetry_space_group_name_H-M "P M M A"
_symmetry_group_IT_number 51
_symmetry_cell_setting 'orthorhombic'
loop_
_space_group_symop_operation_xyz
x,y,z
1/2-x,-y,z
1/2+x,-y,-z
-x,y,-z
-x,-y,-z
1/2+x,y,-z
1/2-x,y,z
x,-y,z
loop_
_atom_site_type_symbol
_atom_site_label
_atom_site_fract_x
_atom_site_fract_y
_atom_site_fract_z
Si Si1 0.414744 0.334187 0.626734
Si Si2 0.414396 0.834543 0.302514
Si Si3 0.586457 0.165383 0.958016
Si Si4 0.586438 0.835501 0.458087
Si Si5 0.918029 0.339976 0.874833
Si Si6 0.417292 0.157856 0.204636
O O1 0.250000 0.307796 0.634537
O O2 0.452171 0.500000 0.623238
O O3 0.496710 0.266842 0.666777
O O4 0.464761 0.258635 0.582426
O O5 0.250000 0.804768 0.310378
O O6 0.458897 0.793414 0.253250
O O7 0.449285 0.000000 0.311812
O O8 0.750000 0.196552 0.967165
O O9 0.529176 0.254135 0.916989
O O10 0.559904 0.000000 0.947573
O O11 0.500000 0.215955 0.000000
O O12 0.500000 0.784267 0.500000
O O13 0.750000 0.810551 0.468389
O O14 0.554256 0.000000 0.446941
O O15 0.750000 0.339525 0.873387
O O16 0.977888 0.500000 0.877118
O O17 0.979471 0.266547 0.831121
O O18 0.250000 0.151294 0.201036
O O19 0.478382 0.000000 0.195140
#
# Coordination Sequence:
#
# PCOD8213043 Si02
#       6
#     8   8   8   8   8   8
#     4  10  21  35  50  71 101 135 166 195 233 285
#     4   9  18  32  51  75  99 124 159 202 243 282
#     4   9  17  29  45  64  86 114 148 185 224 266
#     4   9  18  33  52  72  94 123 160 200 239 279
#     4   9  16  25  40  64  91 118 148 182 223 272
#     4   8  14  26  44  66  92 119 148 187 232 273
#
# _framework density 17.575862999999998
#
# number of rings (size 3 to 8) (size 9 to 14) (size 15 to 20)
#    0.000    3.000    0.000    2.000    0.000    5.333 
#    0.000    3.333    0.000    1.000    0.000    2.333 
#    0.000    0.000    0.000    0.000    0.000    0.000 
#
# Total GULP energy -595153.875418 kJ/mol
# GULP energy per Si atom -12399.039071 kJ/mol
# Density = 1.753586 g / cm^3
# Si number density = 17.575863 Si / 1000 Ang^3
#
#
#
# Elastic Constant Matrix: (Units=GPa)
#
#
# Indices 1 2 3 4 5 6 
#
# 1 32.0416 36.5201 49.2353 0.0000 0.0000 0.0000
# 2 36.5201 119.9320 102.3543 0.0000 0.0000 0.0000
# 3 49.2353 102.3543 179.6599 0.0000 0.0000 0.0000
# 4 0.0000 0.0000 0.0000 14.3541 0.0000 0.0000
# 5 0.0000 0.0000 0.0000 0.0000 27.0742 0.0000
# 6 0.0000 0.0000 0.0000 0.0000 0.0000 19.1863
#
#
#
# Elastic Compliance Matrix: (Units=1/GPa)
#
#
# Indices 1 2 3 4 5 6 
#
# 1 0.057522 -0.007907 -0.011259 0.000000 0.000000 0.000000
# 2 -0.007907 0.017316 -0.007698 0.000000 0.000000 0.000000
# 3 -0.011259 -0.007698 0.013037 0.000000 0.000000 0.000000
# 4 0.000000 0.000000 0.000000 0.069667 0.000000 0.000000
# 5 0.000000 0.000000 0.000000 0.000000 0.036936 0.000000
# 6 0.000000 0.000000 0.000000 0.000000 0.000000 0.052121
#
#
# Mechanical properties :
#
#
# Convention : Reuss Voigt Hill
#
# Bulk Modulus (GPa) = 29.28518 78.65033 53.96776
# Shear Modulus (GPa) = 16.04063 21.69116 18.86589
#
# Velocity S-wave (km/s) = 3.02429 3.51685 3.27983
# Velocity P-wave (km/s) = 5.37526 7.83181 6.71679
#
# Compressibility (1/GPa) = 0.03414696
#
# Stress axis : x y z
#
# Youngs Moduli (GPa) = 17.38452 57.75172 76.70345
#
# Poissons Ratio (x) = 0.45664 0.86362
# Poissons Ratio (y) = 0.13746 0.59046
# Poissons Ratio (z) = 0.19573 0.44457
#
# Static dielectric constant tensor:
#      x y z
#    x 2.841570 0.000000 0.000000 
#    y 0.000000 3.381250 0.000000 
#    z 0.000000 0.000000 3.444990 
# 
# 
# High freq. dielectric constant tensor:
#      x y z
#    x 1.635060 0.000000 0.000000 
#    y 0.000000 1.680390 0.000000 
#    z 0.000000 0.000000 1.692600 
# 
# From -- ./inp_files/36501.got.cif
#   From: 2010.03.12/outbox.cif.g09.slc.cpg/sg51_19_cif.got.tgz:36501.got - 2010.04.16 13:43:02.
