data_PCOD8213801
_publ_section_title
;
Structure prediction by ZEFSAII (Michael W. Deem and Ramdas Pophale) SiO2 
 PCOD8213801
Probable space group: P M M A
;
_chemical_formula_sum "Si O2"
_cell_formula_units_Z 48
_cell_length_a 8.366713
_cell_length_b 14.456936
_cell_length_c 20.130513
_cell_angle_alpha 90.000000
_cell_angle_beta 90.000000
_cell_angle_gamma 90.000000
_cell_volume 2434.927153
_symmetry_space_group_name_H-M "P M M A"
_symmetry_group_IT_number 51
_symmetry_cell_setting 'orthorhombic'
loop_
_space_group_symop_operation_xyz
x,y,z
1/2-x,-y,z
1/2+x,-y,-z
-x,y,-z
-x,-y,-z
1/2+x,y,-z
1/2-x,y,z
x,-y,z
loop_
_atom_site_type_symbol
_atom_site_label
_atom_site_fract_x
_atom_site_fract_y
_atom_site_fract_z
Si Si1 0.437838 0.698209 0.806996
Si Si2 0.564363 0.000000 0.861313
Si Si3 0.937309 0.192934 0.926722
Si Si4 0.563577 0.000000 0.283322
Si Si5 0.565487 0.500000 0.232218
Si Si6 0.935103 0.805534 0.683640
Si Si7 0.435360 0.316539 0.568777
Si Si8 0.432953 0.500000 0.375702
O O1 0.250000 0.702191 0.790821
O O2 0.472357 0.733211 0.880794
O O3 0.507451 0.593748 0.799405
O O4 0.529541 0.764430 0.756071
O O5 0.519614 0.088956 0.904922
O O6 0.457757 0.000000 0.795786
O O7 0.750000 0.000000 0.839982
O O8 0.750000 0.211544 0.922557
O O9 0.000000 0.209986 0.000000
O O10 0.480098 0.087403 0.316956
O O11 0.750000 0.000000 0.299885
O O12 0.750000 0.500000 0.214908
O O13 0.543565 0.500000 0.311061
O O14 0.750000 0.792337 0.666673
O O15 0.039269 0.755156 0.628116
O O16 0.500000 0.272825 0.500000
O O17 0.250000 0.340432 0.563501
O O18 0.532932 0.410280 0.580624
O O19 0.250000 0.500000 0.352219
#
# Coordination Sequence:
#
# PCOD8213801 Si02
#       8
#     8   4   8   4   4   8   8   4
#     4  11  22  39  63  91 123 163 208 255 310 370
#     4  10  21  37  59  89 127 160 197 253 313 369
#     4  11  23  39  60  88 125 165 206 255 313 374
#     4  12  24  39  64  95 125 164 209 255 307 363
#     4  10  22  39  62  91 126 161 206 261 308 362
#     4  12  24  41  64  93 127 164 207 257 310 368
#     4  12  25  43  64  92 129 168 211 258 314 375
#     4  12  23  37  62  95 130 167 206 257 316 372
#
# _framework density 19.713115999999999
#
# number of rings (size 3 to 8) (size 9 to 14) (size 15 to 20)
#    0.000    0.667    3.333    6.000    0.000    1.333 
#    0.000    0.833    0.000    0.000    0.000    0.000 
#    0.000    0.000    0.000    0.000    0.000    0.000 
#
# Total GULP energy -595549.703587 kJ/mol
# GULP energy per Si atom -12407.285491 kJ/mol
# Density = 1.966825 g / cm^3
# Si number density = 19.713116 Si / 1000 Ang^3
#
#
#
# Elastic Constant Matrix: (Units=GPa)
#
#
# Indices 1 2 3 4 5 6 
#
# 1 72.5845 26.8814 8.4446 0.0000 0.0000 0.0000
# 2 26.8814 128.5747 39.3410 0.0000 0.0000 0.0000
# 3 8.4446 39.3410 110.2825 0.0000 0.0000 0.0000
# 4 0.0000 0.0000 0.000031746.7452 0.0000 0.0000
# 5 0.0000 0.0000 0.0000 0.0000 34.7007 0.0000
# 6 0.0000 0.0000 0.0000 0.0000 0.0000 23.4125
#
#
#
# Elastic Compliance Matrix: (Units=1/GPa)
#
#
# Indices 1 2 3 4 5 6 
#
# 1 0.014933 -0.003112 -0.000033 0.000000 0.000000 0.000000
# 2 -0.003112 0.009379 -0.003107 0.000000 0.000000 0.000000
# 3 -0.000033 -0.003107 0.010179 0.000000 0.000000 0.000000
# 4 0.000000 0.000000 0.000000 0.000031 0.000000 0.000000
# 5 0.000000 0.000000 0.000000 0.000000 0.028818 0.000000
# 6 0.000000 0.000000 0.000000 0.000000 0.000000 0.042712
#
#
# Mechanical properties :
#
#
# Convention : Reuss Voigt Hill
#
# Bulk Modulus (GPa) = 45.48444 51.19733 48.34088
# Shear Modulus (GPa) = 39.71820 6376.75666 3208.23743
#
# Velocity S-wave (km/s) = 4.49353 56.93682 40.38560
# Velocity P-wave (km/s) = 7.07430 65.94262 46.89603
#
# Compressibility (1/GPa) = 0.02198554
#
# Stress axis : x y z
#
# Youngs Moduli (GPa) = 66.96383 106.62088 98.24431
#
# Poissons Ratio (x) = 0.33180 0.00328
# Poissons Ratio (y) = 0.20839 0.30529
# Poissons Ratio (z) = 0.00223 0.33132
#
# Static dielectric constant tensor:
#      x y z
#    x 3.600610 0.000000 0.000000 
#    y 0.000000 3.857680 0.000000 
#    z 0.000000 0.000000 3.546030 
# 
# 
# High freq. dielectric constant tensor:
#      x y z
#    x 1.778310 0.000000 0.000000 
#    y 0.000000 1.774030 0.000000 
#    z 0.000000 0.000000 1.763540 
# 
# From -- ./inp_files/27706.got.cif
#   From: 2010.03.12/outbox.cif.g09.slc.cpg/sg51_14_cif.got.tgz:27706.got - 2010.04.16 13:43:02.
