data_PCOD8213699
_publ_section_title
;
Structure prediction by ZEFSAII (Michael W. Deem and Ramdas Pophale) SiO2 
 PCOD8213699
Probable space group: P M M A
;
_chemical_formula_sum "Si O2"
_cell_formula_units_Z 52
_cell_length_a 8.620864
_cell_length_b 22.738692
_cell_length_c 14.212002
_cell_angle_alpha 90.000000
_cell_angle_beta 90.000000
_cell_angle_gamma 90.000000
_cell_volume 2785.938550
_symmetry_space_group_name_H-M "P M M A"
_symmetry_group_IT_number 51
_symmetry_cell_setting 'orthorhombic'
loop_
_space_group_symop_operation_xyz
x,y,z
1/2-x,-y,z
1/2+x,-y,-z
-x,y,-z
-x,-y,-z
1/2+x,y,-z
1/2-x,y,z
x,-y,z
loop_
_atom_site_type_symbol
_atom_site_label
_atom_site_fract_x
_atom_site_fract_y
_atom_site_fract_z
Si Si1 0.569902 0.335577 0.725209
Si Si2 0.566762 0.846349 0.900960
Si Si3 0.432433 0.718645 0.902207
Si Si4 0.431716 0.777763 0.396621
Si Si5 0.070115 0.568518 0.599777
Si Si6 0.066760 0.113937 0.715477
Si Si7 0.566695 0.000000 0.396476
O O1 0.750000 0.337081 0.751416
O O2 0.472592 0.327113 0.820411
O O3 0.531880 0.284361 0.651258
O O4 0.518808 0.397376 0.681686
O O5 0.750000 0.845995 0.906161
O O6 0.509262 0.780919 0.877359
O O7 0.509818 0.889355 0.818566
O O8 0.500000 0.869212 0.000000
O O9 0.250000 0.727607 0.911693
O O10 0.500000 0.693824 0.000000
O O11 0.500000 0.775839 0.500000
O O12 0.250000 0.791787 0.399862
O O13 0.516492 0.827786 0.338178
O O14 0.250000 0.585663 0.600063
O O15 0.043110 0.500000 0.619098
O O16 0.000000 0.587443 0.500000
O O17 0.250000 0.113477 0.727629
O O18 0.006748 0.057544 0.658036
O O19 0.500000 0.000000 0.500000
O O20 0.750000 0.000000 0.403818
#
# Coordination Sequence:
#
# PCOD8213699 Si02
#       7
#     8   8   8   8   8   8   4
#     4  11  22  36  56  84 117 149 191 236 284 340
#     4  11  21  36  58  86 116 148 187 230 283 342
#     4  11  21  35  57  84 117 152 188 231 283 340
#     4  11  23  36  53  80 114 147 185 233 284 339
#     4  10  21  37  57  82 114 154 199 241 284 337
#     4  11  22  39  60  83 112 148 189 236 285 339
#     4  10  24  42  61  84 111 148 195 236 280 340
#
# _framework density 18.665164000000001
#
# number of rings (size 3 to 8) (size 9 to 14) (size 15 to 20)
#    0.000    1.231    1.538    6.462    0.000    6.462 
#    0.000    0.385    0.000    0.462    0.000    0.000 
#    0.000    0.000    0.000    0.000    0.000    0.000 
#
# Total GULP energy -645118.495374 kJ/mol
# GULP energy per Si atom -12406.124911 kJ/mol
# Density = 1.862268 g / cm^3
# Si number density = 18.665164 Si / 1000 Ang^3
#
#
#
# Elastic Constant Matrix: (Units=GPa)
#
#
# Indices 1 2 3 4 5 6 
#
# 1 119.1629 35.6256 54.4162 0.0000 0.0000 0.0000
# 2 35.6256 73.1825 50.6797 0.0000 0.0000 0.0000
# 3 54.4162 50.6797 157.5943 0.0000 0.0000 0.0000
# 4 0.0000 0.0000 0.0000 21.2297 0.0000 0.0000
# 5 0.0000 0.0000 0.0000 0.0000 38.6105 0.0000
# 6 0.0000 0.0000 0.0000 0.0000 0.0000 21.5807
#
#
#
# Elastic Compliance Matrix: (Units=1/GPa)
#
#
# Indices 1 2 3 4 5 6 
#
# 1 0.010571 -0.003368 -0.002567 0.000000 0.000000 0.000000
# 2 -0.003368 0.018653 -0.004835 0.000000 0.000000 0.000000
# 3 -0.002567 -0.004835 0.008787 0.000000 0.000000 0.000000
# 4 0.000000 0.000000 0.000000 0.047104 0.000000 0.000000
# 5 0.000000 0.000000 0.000000 0.000000 0.025900 0.000000
# 6 0.000000 0.000000 0.000000 0.000000 0.000000 0.046338
#
#
# Mechanical properties :
#
#
# Convention : Reuss Voigt Hill
#
# Bulk Modulus (GPa) = 60.71929 70.15365 65.43647
# Shear Modulus (GPa) = 27.11750 30.23207 28.67479
#
# Velocity S-wave (km/s) = 3.81575 4.02892 3.92378
# Velocity P-wave (km/s) = 7.21212 7.70129 7.46072
#
# Compressibility (1/GPa) = 0.01646923
#
# Stress axis : x y z
#
# Youngs Moduli (GPa) = 94.59748 53.61132 113.80840
#
# Poissons Ratio (x) = 0.18059 0.29213
# Poissons Ratio (y) = 0.31865 0.55030
# Poissons Ratio (z) = 0.24282 0.25923
#
# Static dielectric constant tensor:
#      x y z
#    x 3.560620 0.000000 0.000000 
#    y 0.000000 3.328120 0.000000 
#    z 0.000000 0.000000 3.820350 
# 
# 
# High freq. dielectric constant tensor:
#      x y z
#    x 1.743110 0.000000 0.000000 
#    y 0.000000 1.704070 0.000000 
#    z 0.000000 0.000000 1.738290 
# 
# From -- ./inp_files/21516.got.cif
#   From: 2010.03.12/outbox.cif.g09.slc.cpg/sg51_11_cif.got.tgz:21516.got - 2010.04.16 13:43:02.
