data_PCOD8213099
_publ_section_title
;
Structure prediction by ZEFSAII (Michael W. Deem and Ramdas Pophale) SiO2 
 PCOD8213099
Probable space group: P M M A
;
_chemical_formula_sum "Si O2"
_cell_formula_units_Z 40
_cell_length_a 9.757041
_cell_length_b 7.586762
_cell_length_c 28.896314
_cell_angle_alpha 90.000000
_cell_angle_beta 90.000000
_cell_angle_gamma 90.000000
_cell_volume 2139.030800
_symmetry_space_group_name_H-M "P M M A"
_symmetry_group_IT_number 51
_symmetry_cell_setting 'orthorhombic'
loop_
_space_group_symop_operation_xyz
x,y,z
1/2-x,-y,z
1/2+x,-y,-z
-x,y,-z
-x,-y,-z
1/2+x,y,-z
1/2-x,y,z
x,-y,z
loop_
_atom_site_type_symbol
_atom_site_label
_atom_site_fract_x
_atom_site_fract_y
_atom_site_fract_z
Si Si1 0.907668 0.201443 0.543278
Si Si2 0.907997 0.203361 0.222338
Si Si3 0.596758 0.792374 0.860562
Si Si4 0.598409 0.704556 0.961426
Si Si5 0.091209 0.500000 0.385010
Si Si6 0.591954 0.500000 0.294990
O O1 0.750000 0.229021 0.528552
O O2 0.946109 0.325393 0.586095
O O3 0.000000 0.257145 0.500000
O O4 0.936676 0.000000 0.558220
O O5 0.750000 0.224287 0.207788
O O6 0.942597 0.323508 0.266352
O O7 0.997479 0.277249 0.179680
O O8 0.942851 0.000000 0.234670
O O9 0.750000 0.713347 0.853585
O O10 0.536593 0.733389 0.910193
O O11 0.601670 0.000000 0.858381
O O12 0.750000 0.792458 0.964139
O O13 0.611289 0.500000 0.972488
O O14 0.500000 0.793596 0.000000
O O15 0.250000 0.500000 0.370661
O O16 0.001475 0.500000 0.339582
O O17 0.750000 0.500000 0.310376
#
# Coordination Sequence:
#
# PCOD8213099 Si02
#       6
#     8   8   8   8   4   4
#     4   9  18  33  53  78 108 141 177 215 254 297
#     4   9  19  36  54  73  99 128 162 207 254 300
#     4   9  18  32  50  72  95 121 157 200 244 292
#     4   9  18  31  45  65  94 125 155 190 234 286
#     4  10  21  35  51  76 108 139 173 214 257 300
#     4  10  22  37  53  76 102 133 172 210 254 304
#
# _framework density 18.700059
#
# number of rings (size 3 to 8) (size 9 to 14) (size 15 to 20)
#    0.000    2.800    0.000    0.300    1.400    3.600 
#    0.000    0.000    0.000    0.000    0.000    0.000 
#    0.000    0.000    0.000    0.000    0.000    0.000 
#
# Total GULP energy -495946.635651 kJ/mol
# GULP energy per Si atom -12398.665891 kJ/mol
# Density = 1.865750 g / cm^3
# Si number density = 18.700059 Si / 1000 Ang^3
#
#
#
# Elastic Constant Matrix: (Units=GPa)
#
#
# Indices 1 2 3 4 5 6 
#
# 1 96.1031 41.5765 101.6777 0.0000 0.0000 0.0000
# 2 41.5765 73.0674 60.7078 0.0000 0.0000 0.0000
# 3 101.6777 60.7078 177.3922 0.0000 0.0000 0.0000
# 4 0.0000 0.0000 0.0000 32.0216 0.0000 0.0000
# 5 0.0000 0.0000 0.0000 0.0000 41.8656 0.0000
# 6 0.0000 0.0000 0.0000 0.0000 0.0000 12.3846
#
#
#
# Elastic Compliance Matrix: (Units=1/GPa)
#
#
# Indices 1 2 3 4 5 6 
#
# 1 0.027068 -0.003510 -0.014314 0.000000 0.000000 0.000000
# 2 -0.003510 0.019579 -0.004689 0.000000 0.000000 0.000000
# 3 -0.014314 -0.004689 0.015446 0.000000 0.000000 0.000000
# 4 0.000000 0.000000 0.000000 0.031229 0.000000 0.000000
# 5 0.000000 0.000000 0.000000 0.000000 0.023886 0.000000
# 6 0.000000 0.000000 0.000000 0.000000 0.000000 0.080745
#
#
# Mechanical properties :
#
#
# Convention : Reuss Voigt Hill
#
# Bulk Modulus (GPa) = 58.58674 83.83186 71.20930
# Shear Modulus (GPa) = 20.10731 26.76107 23.43419
#
# Velocity S-wave (km/s) = 3.28266 3.78705 3.54384
# Velocity P-wave (km/s) = 6.76503 8.00309 7.40996
#
# Compressibility (1/GPa) = 0.01706871
#
# Stress axis : x y z
#
# Youngs Moduli (GPa) = 36.94440 51.07642 64.74131
#
# Poissons Ratio (x) = 0.17925 0.92668
# Poissons Ratio (y) = 0.12966 0.30355
# Poissons Ratio (z) = 0.52881 0.23948
#
# Static dielectric constant tensor:
#      x y z
#    x 3.878730 0.000000 0.000000 
#    y 0.000000 3.498260 0.000000 
#    z 0.000000 0.000000 3.301950 
# 
# 
# High freq. dielectric constant tensor:
#      x y z
#    x 1.722920 0.000000 0.000000 
#    y 0.000000 1.730940 0.000000 
#    z 0.000000 0.000000 1.714100 
# 
# From -- ./inp_files/36023.got.cif
#   From: 2010.03.12/outbox.cif.g09.slc.cpg/sg51_19_cif.got.tgz:36023.got - 2010.04.16 13:43:02.
