data_PCOD8213836
_publ_section_title
;
Structure prediction by ZEFSAII (Michael W. Deem and Ramdas Pophale) SiO2 
 PCOD8213836
Probable space group: P M M A
;
_chemical_formula_sum "Si O2"
_cell_formula_units_Z 52
_cell_length_a 8.914089
_cell_length_b 22.328294
_cell_length_c 15.395045
_cell_angle_alpha 90.000000
_cell_angle_beta 90.000000
_cell_angle_gamma 90.000000
_cell_volume 3064.174334
_symmetry_space_group_name_H-M "P M M A"
_symmetry_group_IT_number 51
_symmetry_cell_setting 'orthorhombic'
loop_
_space_group_symop_operation_xyz
x,y,z
1/2-x,-y,z
1/2+x,-y,-z
-x,y,-z
-x,-y,-z
1/2+x,y,-z
1/2-x,y,z
x,-y,z
loop_
_atom_site_type_symbol
_atom_site_label
_atom_site_fract_x
_atom_site_fract_y
_atom_site_fract_z
Si Si1 0.924091 0.500000 0.591348
Si Si2 0.428549 0.145404 0.736157
Si Si3 0.413685 0.718469 0.081620
Si Si4 0.582319 0.860078 0.915736
Si Si5 0.078025 0.070953 0.411637
Si Si6 0.429765 0.272237 0.270768
Si Si7 0.926689 0.370579 0.593617
O O1 0.750000 0.500000 0.572923
O O2 0.967729 0.436328 0.636162
O O3 0.000000 0.500000 0.500000
O O4 0.250000 0.148498 0.738088
O O5 0.487329 0.124666 0.830206
O O6 0.484113 0.096693 0.668001
O O7 0.494169 0.209359 0.706935
O O8 0.250000 0.689272 0.077780
O O9 0.405068 0.789437 0.071430
O O10 0.485950 0.704366 0.175973
O O11 0.500000 0.689598 0.000000
O O12 0.750000 0.887387 0.907255
O O13 0.500000 0.888316 0.000000
O O14 0.250000 0.093800 0.409625
O O15 0.000000 0.093473 0.500000
O O16 0.071029 0.000000 0.404532
O O17 0.250000 0.263479 0.269396
O O18 0.486534 0.320179 0.340995
O O19 0.750000 0.363742 0.581381
O O20 0.000000 0.360968 0.500000
#
# Coordination Sequence:
#
# PCOD8213836 Si02
#       7
#     4   8   8   8   8   8   8
#     4   8  14  26  44  64  83 110 150 190 227 270
#     4  11  21  32  49  73 100 129 159 193 235 282
#     4   8  14  24  39  58  82 113 147 183 222 263
#     4   9  16  28  46  69  97 127 159 193 231 278
#     4  10  21  38  58  76  94 120 157 199 239 281
#     4   9  18  31  44  63  94 126 153 187 233 280
#     4   9  17  29  45  64  89 119 151 188 229 275
#
# _framework density 16.970313000000001
#
# number of rings (size 3 to 8) (size 9 to 14) (size 15 to 20)
#    0.000    2.769    0.000    3.231    0.000    5.846 
#    0.000    1.538    0.000    0.462    0.000    0.538 
#    0.000    0.000    0.000    0.000    0.000    0.000 
#
# Total GULP energy -644350.794857 kJ/mol
# GULP energy per Si atom -12391.361440 kJ/mol
# Density = 1.693169 g / cm^3
# Si number density = 16.970313 Si / 1000 Ang^3
#
#
#
# Elastic Constant Matrix: (Units=GPa)
#
#
# Indices 1 2 3 4 5 6 
#
# 1 85.4829 23.8406 42.7787 0.0000 0.0000 0.0000
# 2 23.8406 33.5637 36.0729 0.0000 0.0000 0.0000
# 3 42.7787 36.0729 117.2650 0.0000 0.0000 0.0000
# 4 0.0000 0.0000 0.0000 1.4098 0.0000 0.0000
# 5 0.0000 0.0000 0.0000 0.0000 30.8276 0.0000
# 6 0.0000 0.0000 0.0000 0.0000 0.0000 15.0806
#
#
#
# Elastic Compliance Matrix: (Units=1/GPa)
#
#
# Indices 1 2 3 4 5 6 
#
# 1 0.015432 -0.007337 -0.003373 0.000000 0.000000 0.000000
# 2 -0.007337 0.047998 -0.012088 0.000000 0.000000 0.000000
# 3 -0.003373 -0.012088 0.013477 0.000000 0.000000 0.000000
# 4 0.000000 0.000000 0.000000 0.709323 0.000000 0.000000
# 5 0.000000 0.000000 0.000000 0.000000 0.032438 0.000000
# 6 0.000000 0.000000 0.000000 0.000000 0.000000 0.066310
#
#
# Mechanical properties :
#
#
# Convention : Reuss Voigt Hill
#
# Bulk Modulus (GPa) = 31.93808 49.07733 40.50771
# Shear Modulus (GPa) = 5.31343 18.37156 11.84249
#
# Velocity S-wave (km/s) = 1.77139 3.29381 2.64452
# Velocity P-wave (km/s) = 4.80048 6.59150 5.76596
#
# Compressibility (1/GPa) = 0.03131058
#
# Stress axis : x y z
#
# Youngs Moduli (GPa) = 64.79916 20.83438 74.20179
#
# Poissons Ratio (x) = 0.15286 0.25027
# Poissons Ratio (y) = 0.47541 0.89699
# Poissons Ratio (z) = 0.21856 0.25186
#
# Static dielectric constant tensor:
#      x y z
#    x 3.319580 0.000000 0.000000 
#    y 0.000000 3.124550 0.000000 
#    z 0.000000 0.000000 3.326450 
# 
# 
# High freq. dielectric constant tensor:
#      x y z
#    x 1.659940 0.000000 0.000000 
#    y 0.000000 1.615660 0.000000 
#    z 0.000000 0.000000 1.656040 
# 
# From -- ./inp_files/21583.got.cif
#   From: 2010.03.12/outbox.cif.g09.slc.cpg/sg51_11_cif.got.tgz:21583.got - 2010.04.16 13:43:02.
