data_PCOD8213014
_publ_section_title
;
Structure prediction by ZEFSAII (Michael W. Deem and Ramdas Pophale) SiO2 
 PCOD8213014
Probable space group: P M M A
;
_chemical_formula_sum "Si O2"
_cell_formula_units_Z 56
_cell_length_a 18.970513
_cell_length_b 9.314518
_cell_length_c 18.065475
_cell_angle_alpha 90.000000
_cell_angle_beta 90.000000
_cell_angle_gamma 90.000000
_cell_volume 3192.190837
_symmetry_space_group_name_H-M "P M M A"
_symmetry_group_IT_number 51
_symmetry_cell_setting 'orthorhombic'
loop_
_space_group_symop_operation_xyz
x,y,z
1/2-x,-y,z
1/2+x,-y,-z
-x,y,-z
-x,-y,-z
1/2+x,y,-z
1/2-x,y,z
x,-y,z
loop_
_atom_site_type_symbol
_atom_site_label
_atom_site_fract_x
_atom_site_fract_y
_atom_site_fract_z
Si Si1 0.069656 0.664310 0.361794
Si Si2 0.583183 0.661459 0.801166
Si Si3 0.581977 0.666609 0.206082
Si Si4 0.831714 0.832624 0.918753
Si Si5 0.168528 0.333495 0.936233
Si Si6 0.915741 0.159854 0.505974
Si Si7 0.574273 0.168535 0.345445
O O1 0.048810 0.500000 0.379260
O O2 0.111248 0.673138 0.283813
O O3 0.113394 0.729174 0.431734
O O4 0.001550 0.760571 0.351976
O O5 0.596846 0.500000 0.830778
O O6 0.500423 0.697464 0.806090
O O7 0.625330 0.775026 0.849169
O O8 0.595930 0.500000 0.222905
O O9 0.623543 0.718588 0.133768
O O10 0.612980 0.756539 0.275866
O O11 0.750000 0.798426 0.904698
O O12 0.846472 0.000000 0.927542
O O13 0.858140 0.755450 0.993187
O O14 0.250000 0.301846 0.918905
O O15 0.155087 0.500000 0.953486
O O16 0.884709 0.194723 0.423702
O O17 0.000000 0.170328 0.500000
O O18 0.892937 0.000000 0.530179
O O19 0.565497 0.000000 0.330116
#
# Coordination Sequence:
#
# PCOD8213014 Si02
#       7
#     8   8   8   8   8   8   8
#     4   9  16  25  39  61  88 118 152 188 225 265
#     4   9  18  31  46  67  95 123 150 185 230 273
#     4   9  18  31  47  70  96 120 152 191 226 266
#     4  10  21  35  50  69  91 116 151 191 226 268
#     4   9  18  34  54  71  90 120 153 185 226 272
#     4   8  14  23  35  55  85 120 154 185 220 265
#     4   9  16  25  38  59  89 123 154 184 224 269
#
# _framework density 17.542811
#
# number of rings (size 3 to 8) (size 9 to 14) (size 15 to 20)
#    0.000    3.000    0.000    3.000    0.000    8.000 
#    0.000    2.857    0.000    0.000    0.000    1.000 
#    0.000    3.429    0.000    0.000    0.000    0.000 
#
# Total GULP energy -693998.512175 kJ/mol
# GULP energy per Si atom -12392.830575 kJ/mol
# Density = 1.750288 g / cm^3
# Si number density = 17.542811 Si / 1000 Ang^3
#
#
#
# Elastic Constant Matrix: (Units=GPa)
#
#
# Indices 1 2 3 4 5 6 
#
# 1 26.0685 24.8811 38.5412 0.0000 0.0000 0.0000
# 2 24.8811 97.8092 83.4178 0.0000 0.0000 0.0000
# 3 38.5412 83.4178 163.4763 0.0000 0.0000 0.0000
# 4 0.0000 0.0000 0.0000 38.2324 0.0000 0.0000
# 5 0.0000 0.0000 0.0000 0.0000 -0.7346 0.0000
# 6 0.0000 0.0000 0.0000 0.0000 0.0000 15.6422
#
#
#
# Elastic Compliance Matrix: (Units=1/GPa)
#
#
# Indices 1 2 3 4 5 6 
#
# 1 0.060643 -0.005724 -0.011376 0.000000 0.000000 0.000000
# 2 -0.005724 0.018642 -0.008163 0.000000 0.000000 0.000000
# 3 -0.011376 -0.008163 0.012965 0.000000 0.000000 0.000000
# 4 0.000000 0.000000 0.000000 0.026156 0.000000 0.000000
# 5 0.000000 0.000000 0.000000 0.000000 -1.361257 0.000000
# 6 0.000000 0.000000 0.000000 0.000000 0.000000 0.063929
#
#
# Mechanical properties :
#
#
# Convention : Reuss Voigt Hill
#
# Bulk Modulus (GPa) = 23.96771 64.55936 44.26353
# Shear Modulus (GPa) = -4.48637 19.99559 7.75461
#
# Velocity S-wave (km/s) = -1.60092 3.37978 2.10475
# Velocity P-wave (km/s) = 3.20544 7.21883 5.58508
#
# Compressibility (1/GPa) = 0.04172280
#
# Stress axis : x y z
#
# Youngs Moduli (GPa) = 16.48986 53.64205 77.13327
#
# Poissons Ratio (x) = 0.30706 0.87749
# Poissons Ratio (y) = 0.09439 0.62964
# Poissons Ratio (z) = 0.18759 0.43788
#
# Static dielectric constant tensor:
#      x y z
#    x 2.734520 0.000000 0.000000 
#    y 0.000000 3.388460 0.000000 
#    z 0.000000 0.000000 4.008270 
# 
# 
# High freq. dielectric constant tensor:
#      x y z
#    x 1.609410 0.000000 0.000000 
#    y 0.000000 1.685180 0.000000 
#    z 0.000000 0.000000 1.700480 
# 
# From -- ./inp_files/30433.got.cif
#   From: 2010.03.12/outbox.cif.g09.slc.cpg/sg51_16_cif.got.tgz:30433.got - 2010.04.16 13:43:02.
