data_PCOD8213238
_publ_section_title
;
Structure prediction by ZEFSAII (Michael W. Deem and Ramdas Pophale) SiO2 
 PCOD8213238
Probable space group: P M M A
;
_chemical_formula_sum "Si O2"
_cell_formula_units_Z 56
_cell_length_a 8.875180
_cell_length_b 14.311475
_cell_length_c 23.380400
_cell_angle_alpha 90.000000
_cell_angle_beta 90.000000
_cell_angle_gamma 90.000000
_cell_volume 2969.706319
_symmetry_space_group_name_H-M "P M M A"
_symmetry_group_IT_number 51
_symmetry_cell_setting 'orthorhombic'
loop_
_space_group_symop_operation_xyz
x,y,z
1/2-x,-y,z
1/2+x,-y,-z
-x,y,-z
-x,-y,-z
1/2+x,y,-z
1/2-x,y,z
x,-y,z
loop_
_atom_site_type_symbol
_atom_site_label
_atom_site_fract_x
_atom_site_fract_y
_atom_site_fract_z
Si Si1 0.076876 0.892467 0.768618
Si Si2 0.576245 0.391975 0.165843
Si Si3 0.572753 0.893534 0.560638
Si Si4 0.927793 0.774102 0.340820
Si Si5 0.426102 0.107379 0.114643
Si Si6 0.427644 0.727360 0.942080
Si Si7 0.573117 0.607746 0.716072
O O1 0.250000 0.872680 0.784870
O O2 0.024621 0.833357 0.714474
O O3 0.976436 0.861128 0.822101
O O4 0.050015 0.000000 0.752687
O O5 0.750000 0.368660 0.179138
O O6 0.551847 0.500000 0.151561
O O7 0.517407 0.335848 0.110847
O O8 0.481780 0.360999 0.221066
O O9 0.500000 0.870462 0.500000
O O10 0.750000 0.878135 0.556181
O O11 0.504708 0.820676 0.604934
O O12 0.534026 0.000000 0.579194
O O13 0.750000 0.772178 0.350453
O O14 0.989891 0.669171 0.332191
O O15 0.250000 0.125077 0.107863
O O16 0.514423 0.167253 0.067572
O O17 0.470420 0.000000 0.104158
O O18 0.250000 0.726013 0.948796
O O19 0.500000 0.686758 0.000000
O O20 0.750000 0.624454 0.711824
O O21 0.529585 0.500000 0.704738
#
# Coordination Sequence:
#
# PCOD8213238 Si02
#       7
#     8   8   8   8   8   8   8
#     4   9  18  32  50  75 107 139 170 208 258 315
#     4   9  19  37  58  79 105 136 169 208 261 323
#     4  10  21  37  57  82 115 154 193 231 269 312
#     4  11  21  33  54  82 112 147 185 225 269 318
#     4  10  21  36  53  73  99 132 169 211 259 310
#     4  11  23  37  54  75  99 130 168 211 258 310
#     4  10  21  36  55  81 111 142 178 222 271 322
#
# _framework density 18.857082999999999
#
# number of rings (size 3 to 8) (size 9 to 14) (size 15 to 20)
#    0.000    2.000    0.000    3.429    0.000    9.429 
#    0.000    1.429    0.000    0.429    0.000    0.000 
#    0.000    0.000    0.000    0.000    0.000    0.000 
#
# Total GULP energy -694658.745009 kJ/mol
# GULP energy per Si atom -12404.620447 kJ/mol
# Density = 1.881416 g / cm^3
# Si number density = 18.857083 Si / 1000 Ang^3
#
#
#
# Elastic Constant Matrix: (Units=GPa)
#
#
# Indices 1 2 3 4 5 6 
#
# 1 78.6829 44.1953 51.3915 0.0000 0.0000 0.0000
# 2 44.1953 92.6730 68.8965 0.0000 0.0000 0.0000
# 3 51.3915 68.8965 109.6776 0.0000 0.0000 0.0000
# 4 0.0000 0.0000 0.0000 45.5611 0.0000 0.0000
# 5 0.0000 0.0000 0.0000 0.0000 36.5768 0.0000
# 6 0.0000 0.0000 0.0000 0.0000 0.0000 27.4261
#
#
#
# Elastic Compliance Matrix: (Units=1/GPa)
#
#
# Indices 1 2 3 4 5 6 
#
# 1 0.019331 -0.004662 -0.006129 0.000000 0.000000 0.000000
# 2 -0.004662 0.021370 -0.011239 0.000000 0.000000 0.000000
# 3 -0.006129 -0.011239 0.019050 0.000000 0.000000 0.000000
# 4 0.000000 0.000000 0.000000 0.021949 0.000000 0.000000
# 5 0.000000 0.000000 0.000000 0.000000 0.027340 0.000000
# 6 0.000000 0.000000 0.000000 0.000000 0.000000 0.036462
#
#
# Mechanical properties :
#
#
# Convention : Reuss Voigt Hill
#
# Bulk Modulus (GPa) = 63.73833 67.77779 65.75806
# Shear Modulus (GPa) = 25.66834 29.68280 27.67557
#
# Velocity S-wave (km/s) = 3.69345 3.97179 3.83515
# Velocity P-wave (km/s) = 7.21546 7.55343 7.38638
#
# Compressibility (1/GPa) = 0.01568915
#
# Stress axis : x y z
#
# Youngs Moduli (GPa) = 51.72939 46.79518 52.49365
#
# Poissons Ratio (x) = 0.21817 0.32176
# Poissons Ratio (y) = 0.24117 0.58999
# Poissons Ratio (z) = 0.31707 0.52595
#
# Static dielectric constant tensor:
#      x y z
#    x 3.442910 0.000000 0.000000 
#    y 0.000000 3.564790 0.000000 
#    z 0.000000 0.000000 2.682220 
# 
# 
# High freq. dielectric constant tensor:
#      x y z
#    x 1.738970 0.000000 0.000000 
#    y 0.000000 1.736020 0.000000 
#    z 0.000000 0.000000 1.719820 
# 
# From -- ./inp_files/31888.got.cif
#   From: 2010.03.12/outbox.cif.g09.slc.cpg/sg51_16_cif.got.tgz:31888.got - 2010.04.16 13:43:02.
