data_PCOD8213176
_publ_section_title
;
Structure prediction by ZEFSAII (Michael W. Deem and Ramdas Pophale) SiO2 
 PCOD8213176
Probable space group: P M M A
;
_chemical_formula_sum "Si O2"
_cell_formula_units_Z 64
_cell_length_a 14.661808
_cell_length_b 23.323675
_cell_length_c 9.196608
_cell_angle_alpha 90.000000
_cell_angle_beta 90.000000
_cell_angle_gamma 90.000000
_cell_volume 3144.938698
_symmetry_space_group_name_H-M "P M M A"
_symmetry_group_IT_number 51
_symmetry_cell_setting 'orthorhombic'
loop_
_space_group_symop_operation_xyz
x,y,z
1/2-x,-y,z
1/2+x,-y,-z
-x,y,-z
-x,-y,-z
1/2+x,y,-z
1/2-x,y,z
x,-y,z
loop_
_atom_site_type_symbol
_atom_site_label
_atom_site_fract_x
_atom_site_fract_y
_atom_site_fract_z
Si Si1 0.853410 0.869856 0.249534
Si Si2 0.017068 0.062750 0.329550
Si Si3 0.645453 0.843413 0.578864
Si Si4 0.351333 0.270173 0.271114
Si Si5 0.895307 0.233529 0.037251
Si Si6 0.646090 0.564214 0.865364
Si Si7 0.854887 0.357077 0.136612
Si Si8 0.018794 0.375435 0.331119
O O1 0.750000 0.894436 0.245882
O O2 0.927695 0.920650 0.232235
O O3 0.878329 0.845617 0.408804
O O4 0.861602 0.821480 0.126645
O O5 0.000000 0.057039 0.500000
O O6 0.093303 0.111986 0.315107
O O7 0.049795 0.000000 0.272419
O O8 0.750000 0.856663 0.610142
O O9 0.618092 0.778968 0.618247
O O10 0.250000 0.294591 0.309948
O O11 0.428553 0.318048 0.281934
O O12 0.341815 0.241187 0.112966
O O13 0.874215 0.289616 0.131581
O O14 0.000000 0.226325 0.000000
O O15 0.750000 0.573608 0.815764
O O16 0.631990 0.500000 0.927872
O O17 0.581738 0.572372 0.724841
O O18 0.619289 0.611488 0.985839
O O19 0.750000 0.369608 0.177996
O O20 0.919307 0.381825 0.260930
O O21 0.000000 0.379247 0.500000
#
# Coordination Sequence:
#
# PCOD8213176 Si02
#       8
#     8   8   8   8   8   8   8   8
#     4  10  21  35  55  85 117 153 196 251 309 363
#     4   9  18  33  55  82 115 155 198 246 295 361
#     4   9  20  36  55  83 119 157 198 247 302 364
#     4  11  22  38  58  83 120 159 199 248 310 374
#     4  12  21  36  59  84 118 154 198 257 310 366
#     4  10  22  45  73  95 123 165 212 262 311 366
#     4  11  23  41  62  91 124 164 214 257 304 367
#     4  12  26  39  60  94 131 168 205 258 314 376
#
# _framework density 20.350156999999999
#
# number of rings (size 3 to 8) (size 9 to 14) (size 15 to 20)
#    0.000    1.500    2.500    2.625    1.750    3.250 
#    0.000    2.500    0.000    4.875    0.000    3.500 
#    0.000    0.000    0.000    0.000    0.000    0.000 
#
# Total GULP energy -793337.813825 kJ/mol
# GULP energy per Si atom -12395.903341 kJ/mol
# Density = 2.030384 g / cm^3
# Si number density = 20.350157 Si / 1000 Ang^3
#
#
#
# Elastic Constant Matrix: (Units=GPa)
#
#
# Indices 1 2 3 4 5 6 
#
# 1 117.2965 36.2850 39.2471 0.0000 0.0000 0.0000
# 2 36.2850 82.0537 19.1721 0.0000 0.0000 0.0000
# 3 39.2471 19.1721 85.7802 0.0000 0.0000 0.0000
# 4 0.0000 0.0000 0.0000 9.3253 0.0000 0.0000
# 5 0.0000 0.0000 0.0000 0.0000 -0.8241 0.0000
# 6 0.0000 0.0000 0.0000 0.0000 0.0000 27.1740
#
#
#
# Elastic Compliance Matrix: (Units=1/GPa)
#
#
# Indices 1 2 3 4 5 6 
#
# 1 0.011160 -0.003948 -0.004224 0.000000 0.000000 0.000000
# 2 -0.003948 0.014255 -0.001380 0.000000 0.000000 0.000000
# 3 -0.004224 -0.001380 0.013898 0.000000 0.000000 0.000000
# 4 0.000000 0.000000 0.000000 0.107235 0.000000 0.000000
# 5 0.000000 0.000000 0.000000 0.000000 -1.213484 0.000000
# 6 0.000000 0.000000 0.000000 0.000000 0.000000 0.036800
#
#
# Mechanical properties :
#
#
# Convention : Reuss Voigt Hill
#
# Bulk Modulus (GPa) = 49.47827 52.72656 51.10242
# Shear Modulus (GPa) = -4.97862 19.83013 7.42576
#
# Velocity S-wave (km/s) = -1.56582 3.12500 1.91231
# Velocity P-wave (km/s) = 4.59317 6.24394 5.48105
#
# Compressibility (1/GPa) = 0.02021089
#
# Stress axis : x y z
#
# Youngs Moduli (GPa) = 89.60606 70.14866 71.95026
#
# Poissons Ratio (x) = 0.27696 0.30389
# Poissons Ratio (y) = 0.35378 0.09927
# Poissons Ratio (z) = 0.37846 0.09678
#
# Static dielectric constant tensor:
#      x y z
#    x 3.921380 0.000000 0.000000 
#    y 0.000000 3.861700 0.000000 
#    z 0.000000 0.000000 3.565090 
# 
# 
# High freq. dielectric constant tensor:
#      x y z
#    x 1.813270 0.000000 0.000000 
#    y 0.000000 1.785910 0.000000 
#    z 0.000000 0.000000 1.770260 
# 
# From -- ./inp_files/8743.got.cif
#   From: 2010.03.12/outbox.cif.g09.slc.cpg/sg51_5_cif.got.tgz:8743.got - 2010.04.16 13:43:02.
