data_PCOD8213651
_publ_section_title
;
Structure prediction by ZEFSAII (Michael W. Deem and Ramdas Pophale) SiO2 
 PCOD8213651
Probable space group: P M M A
;
_chemical_formula_sum "Si O2"
_cell_formula_units_Z 64
_cell_length_a 8.700931
_cell_length_b 23.378463
_cell_length_c 15.320595
_cell_angle_alpha 90.000000
_cell_angle_beta 90.000000
_cell_angle_gamma 90.000000
_cell_volume 3116.429539
_symmetry_space_group_name_H-M "P M M A"
_symmetry_group_IT_number 51
_symmetry_cell_setting 'orthorhombic'
loop_
_space_group_symop_operation_xyz
x,y,z
1/2-x,-y,z
1/2+x,-y,-z
-x,y,-z
-x,-y,-z
1/2+x,y,-z
1/2-x,y,z
x,-y,z
loop_
_atom_site_type_symbol
_atom_site_label
_atom_site_fract_x
_atom_site_fract_y
_atom_site_fract_z
Si Si1 0.074523 0.563781 0.906019
Si Si2 0.928576 0.202003 0.408133
Si Si3 0.928505 0.322612 0.332464
Si Si4 0.428722 0.230223 0.913448
Si Si5 0.070499 0.563134 0.405871
Si Si6 0.927154 0.330635 0.842317
Si Si7 0.431324 0.157322 0.231992
Si Si8 0.931212 0.064965 0.907919
O O1 0.250000 0.584385 0.911593
O O2 0.062948 0.500000 0.868218
O O3 0.977433 0.603147 0.840767
O O4 0.000000 0.567930 0.000000
O O5 0.750000 0.188109 0.410334
O O6 0.957756 0.270600 0.399972
O O7 0.000000 0.181645 0.500000
O O8 0.995938 0.163967 0.328231
O O9 0.750000 0.324456 0.304582
O O10 0.976461 0.385560 0.362777
O O11 0.035926 0.305275 0.252202
O O12 0.250000 0.216873 0.908290
O O13 0.469603 0.297781 0.914779
O O14 0.516057 0.209893 0.827224
O O15 0.500000 0.201070 0.000000
O O16 0.250000 0.580123 0.409369
O O17 0.050516 0.500000 0.360072
O O18 0.000000 0.556794 0.500000
O O19 0.750000 0.323057 0.866061
O O20 0.250000 0.157072 0.244122
O O21 0.487629 0.101323 0.176703
O O22 0.750000 0.070086 0.917115
O O23 0.985500 0.000000 0.891271
O O24 0.000000 0.087711 0.000000
#
# Coordination Sequence:
#
# PCOD8213651 Si02
#       8
#     8   8   8   8   8   8   8   8
#     4  10  21  38  58  78 103 138 183 234 289 352
#     4  11  24  41  63  89 121 160 205 260 314 373
#     4  11  23  39  59  83 112 147 189 242 302 366
#     4  12  24  39  58  84 120 159 200 245 298 358
#     4  10  21  37  57  81 108 140 181 233 294 363
#     4  12  24  38  57  80 110 145 186 238 293 355
#     4  11  22  38  62  92 126 165 209 256 305 358
#     4   9  19  36  60  94 135 177 217 256 301 355
#
# _framework density 20.536322999999999
#
# number of rings (size 3 to 8) (size 9 to 14) (size 15 to 20)
#    0.000    1.250    1.250    5.250    0.000    6.500 
#    0.000    0.000    0.000    0.375    0.000    0.000 
#    0.000    0.000    0.000    0.000    0.000    0.000 
#
# Total GULP energy -793262.117008 kJ/mol
# GULP energy per Si atom -12394.720578 kJ/mol
# Density = 2.048958 g / cm^3
# Si number density = 20.536323 Si / 1000 Ang^3
#
#
#
# Elastic Constant Matrix: (Units=GPa)
#
#
# Indices 1 2 3 4 5 6 
#
# 1 93.1537 36.8110 42.8092 0.0000 0.0000 0.0000
# 2 36.8110 97.9694 47.1154 0.0000 0.0000 0.0000
# 3 42.8092 47.1154 136.5090 0.0000 0.0000 0.0000
# 4 0.0000 0.0000 0.0000 31.6709 0.0000 0.0000
# 5 0.0000 0.0000 0.0000 0.0000 37.9313 0.0000
# 6 0.0000 0.0000 0.0000 0.0000 0.0000 27.5249
#
#
#
# Elastic Compliance Matrix: (Units=1/GPa)
#
#
# Indices 1 2 3 4 5 6 
#
# 1 0.013553 -0.003655 -0.002989 0.000000 0.000000 0.000000
# 2 -0.003655 0.013224 -0.003418 0.000000 0.000000 0.000000
# 3 -0.002989 -0.003418 0.009443 0.000000 0.000000 0.000000
# 4 0.000000 0.000000 0.000000 0.031575 0.000000 0.000000
# 5 0.000000 0.000000 0.000000 0.000000 0.026363 0.000000
# 6 0.000000 0.000000 0.000000 0.000000 0.000000 0.036331
#
#
# Mechanical properties :
#
#
# Convention : Reuss Voigt Hill
#
# Bulk Modulus (GPa) = 62.12674 64.56704 63.34689
# Shear Modulus (GPa) = 32.05591 32.81852 32.43722
#
# Velocity S-wave (km/s) = 3.95516 4.00193 3.97861
# Velocity P-wave (km/s) = 7.15370 7.27066 7.21242
#
# Compressibility (1/GPa) = 0.01609613
#
# Stress axis : x y z
#
# Youngs Moduli (GPa) = 73.78601 75.61751 105.90411
#
# Poissons Ratio (x) = 0.27638 0.31651
# Poissons Ratio (y) = 0.26969 0.36199
# Poissons Ratio (z) = 0.22052 0.25847
#
# Static dielectric constant tensor:
#      x y z
#    x 3.706510 0.000000 0.000000 
#    y 0.000000 3.994040 0.000000 
#    z 0.000000 0.000000 3.644160 
# 
# 
# High freq. dielectric constant tensor:
#      x y z
#    x 1.811140 0.000000 0.000000 
#    y 0.000000 1.797020 0.000000 
#    z 0.000000 0.000000 1.794580 
# 
# From -- ./inp_files/22400.got.cif
#   From: 2010.03.12/outbox.cif.g09.slc.cpg/sg51_12_cif.got.tgz:22400.got - 2010.04.16 13:43:02.
