data_PCOD8213207
_publ_section_title
;
Structure prediction by ZEFSAII (Michael W. Deem and Ramdas Pophale) SiO2 
 PCOD8213207
Probable space group: P M M A
;
_chemical_formula_sum "Si O2"
_cell_formula_units_Z 40
_cell_length_a 8.797158
_cell_length_b 14.085323
_cell_length_c 15.915571
_cell_angle_alpha 90.000000
_cell_angle_beta 90.000000
_cell_angle_gamma 90.000000
_cell_volume 1972.111325
_symmetry_space_group_name_H-M "P M M A"
_symmetry_group_IT_number 51
_symmetry_cell_setting 'orthorhombic'
loop_
_space_group_symop_operation_xyz
x,y,z
1/2-x,-y,z
1/2+x,-y,-z
-x,y,-z
-x,-y,-z
1/2+x,y,-z
1/2-x,y,z
x,-y,z
loop_
_atom_site_type_symbol
_atom_site_label
_atom_site_fract_x
_atom_site_fract_y
_atom_site_fract_z
Si Si1 0.927251 0.605505 0.751373
Si Si2 0.429227 0.109574 0.089850
Si Si3 0.416478 0.607556 0.923136
Si Si4 0.419115 0.111685 0.581455
Si Si5 0.571057 0.203884 0.252992
O O1 0.750000 0.624132 0.735502
O O2 0.973340 0.500000 0.716802
O O3 0.962702 0.611474 0.849372
O O4 0.027812 0.690319 0.713172
O O5 0.250000 0.124802 0.084996
O O6 0.494162 0.176332 0.164326
O O7 0.470821 0.000000 0.110461
O O8 0.500000 0.138837 0.000000
O O9 0.250000 0.654208 0.901228
O O10 0.383582 0.500000 0.949865
O O11 0.500000 0.661906 0.000000
O O12 0.500000 0.157488 0.500000
O O13 0.250000 0.153596 0.580457
O O14 0.493081 0.138024 0.671436
O O15 0.421110 0.000000 0.572515
O O16 0.750000 0.192705 0.240954
#
# Coordination Sequence:
#
# PCOD8213207 Si02
#       5
#     8   8   8   8   8
#     4  10  21  36  52  72 101 138 182 231 279 327
#     4  10  21  37  57  82 114 152 192 233 277 329
#     4   9  16  27  44  65  90 123 166 217 271 322
#     4   9  19  36  59  88 119 147 175 214 268 328
#     4  11  22  36  57  84 114 148 187 231 278 332
#
# _framework density 20.282831000000002
#
# number of rings (size 3 to 8) (size 9 to 14) (size 15 to 20)
#    0.000    2.200    0.000    3.000    0.000    8.000 
#    0.000    6.000    0.000    0.600    0.000    0.000 
#    0.000    0.000    0.000    0.000    0.000    0.000 
#
# Total GULP energy -495556.181166 kJ/mol
# GULP energy per Si atom -12388.904529 kJ/mol
# Density = 2.023667 g / cm^3
# Si number density = 20.282831 Si / 1000 Ang^3
#
#
#
# Elastic Constant Matrix: (Units=GPa)
#
#
# Indices 1 2 3 4 5 6 
#
# 1 77.3130 30.7511 37.3666 0.0000 0.0000 0.0000
# 2 30.7511 64.2240 22.6535 0.0000 0.0000 0.0000
# 3 37.3666 22.6535 117.0307 0.0000 0.0000 0.0000
# 4 0.0000 0.0000 0.0000 10.8358 0.0000 0.0000
# 5 0.0000 0.0000 0.0000 0.0000 26.7795 0.0000
# 6 0.0000 0.0000 0.0000 0.0000 0.0000 26.9911
#
#
#
# Elastic Compliance Matrix: (Units=1/GPa)
#
#
# Indices 1 2 3 4 5 6 
#
# 1 0.017813 -0.007001 -0.004332 0.000000 0.000000 0.000000
# 2 -0.007001 0.019463 -0.001532 0.000000 0.000000 0.000000
# 3 -0.004332 -0.001532 0.010225 0.000000 0.000000 0.000000
# 4 0.000000 0.000000 0.000000 0.092287 0.000000 0.000000
# 5 0.000000 0.000000 0.000000 0.000000 0.037342 0.000000
# 6 0.000000 0.000000 0.000000 0.000000 0.000000 0.037049
#
#
# Mechanical properties :
#
#
# Convention : Reuss Voigt Hill
#
# Bulk Modulus (GPa) = 45.93504 48.90113 47.41808
# Shear Modulus (GPa) = 20.22934 24.10772 22.16853
#
# Velocity S-wave (km/s) = 3.16153 3.45132 3.30960
# Velocity P-wave (km/s) = 6.00195 6.32804 6.16715
#
# Compressibility (1/GPa) = 0.02176988
#
# Stress axis : x y z
#
# Youngs Moduli (GPa) = 56.13917 51.37953 97.80331
#
# Poissons Ratio (x) = 0.35970 0.42371
# Poissons Ratio (y) = 0.39302 0.14985
# Poissons Ratio (z) = 0.24321 0.07872
#
# Static dielectric constant tensor:
#      x y z
#    x 3.996000 0.000000 0.000000 
#    y 0.000000 3.963850 0.000000 
#    z 0.000000 0.000000 3.594970 
# 
# 
# High freq. dielectric constant tensor:
#      x y z
#    x 1.798300 0.000000 0.000000 
#    y 0.000000 1.788860 0.000000 
#    z 0.000000 0.000000 1.764130 
# 
# From -- ./inp_files/27227.got.cif
#   From: 2010.03.12/outbox.cif.g09.slc.cpg/sg51_14_cif.got.tgz:27227.got - 2010.04.16 13:43:02.
