data_PCOD8213068
_publ_section_title
;
Structure prediction by ZEFSAII (Michael W. Deem and Ramdas Pophale) SiO2 
 PCOD8213068
Probable space group: P M M A
;
_chemical_formula_sum "Si O2"
_cell_formula_units_Z 64
_cell_length_a 14.187290
_cell_length_b 9.206248
_cell_length_c 24.073839
_cell_angle_alpha 90.000000
_cell_angle_beta 90.000000
_cell_angle_gamma 90.000000
_cell_volume 3144.325283
_symmetry_space_group_name_H-M "P M M A"
_symmetry_group_IT_number 51
_symmetry_cell_setting 'orthorhombic'
loop_
_space_group_symop_operation_xyz
x,y,z
1/2-x,-y,z
1/2+x,-y,-z
-x,y,-z
-x,-y,-z
1/2+x,y,-z
1/2-x,y,z
x,-y,z
loop_
_atom_site_type_symbol
_atom_site_label
_atom_site_fract_x
_atom_site_fract_y
_atom_site_fract_z
Si Si1 0.355411 0.666640 0.236747
Si Si2 0.362347 0.834817 0.915867
Si Si3 0.637803 0.836345 0.870537
Si Si4 0.533483 0.666904 0.302044
Si Si5 0.468243 0.828343 0.586570
Si Si6 0.145303 0.827539 0.480328
Si Si7 0.860906 0.332611 0.192163
Si Si8 0.637446 0.335097 0.976739
O O1 0.250000 0.715529 0.253920
O O2 0.356738 0.500000 0.216833
O O3 0.396206 0.760012 0.185877
O O4 0.422367 0.689696 0.289733
O O5 0.250000 0.829331 0.916481
O O6 0.400514 0.762679 0.859035
O O7 0.398841 0.000000 0.919528
O O8 0.401784 0.744009 0.968196
O O9 0.750000 0.834422 0.872741
O O10 0.596498 0.749930 0.923300
O O11 0.598544 0.000000 0.872132
O O12 0.557669 0.500000 0.314197
O O13 0.561940 0.757803 0.355673
O O14 0.592301 0.723121 0.249098
O O15 0.572662 0.774868 0.567380
O O16 0.392634 0.777537 0.540525
O O17 0.466927 0.000000 0.594037
O O18 0.250000 0.761991 0.469998
O O19 0.148820 0.000000 0.479497
O O20 0.750000 0.312321 0.198524
O O21 0.888057 0.500000 0.180833
O O22 0.750000 0.332057 0.975915
O O23 0.600155 0.500000 0.976026
#
# Coordination Sequence:
#
# PCOD8213068 Si02
#       8
#     8   8   8   8   8   8   8   8
#     4   9  18  33  50  67  92 129 168 202 243 299
#     4   9  16  26  42  66  94 122 158 207 256 299
#     4   9  16  26  42  66  94 122 158 207 256 299
#     4  10  21  35  51  73 103 136 167 204 248 290
#     4   9  18  32  52  78 103 131 171 208 239 285
#     4   8  15  31  54  78 106 138 168 202 244 286
#     4   9  18  33  50  67  92 129 168 202 243 299
#     4   9  15  23  39  64  93 126 162 199 247 310
#
# _framework density 20.354126999999998
#
# number of rings (size 3 to 8) (size 9 to 14) (size 15 to 20)
#    0.000    3.000    0.000    1.875    0.000    6.500 
#    0.000    1.250    0.000    1.500    0.000    5.250 
#    0.000    0.000    0.000    0.000    0.000    0.000 
#
# Total GULP energy -793518.650772 kJ/mol
# GULP energy per Si atom -12398.728918 kJ/mol
# Density = 2.030780 g / cm^3
# Si number density = 20.354127 Si / 1000 Ang^3
#
#
#
# Elastic Constant Matrix: (Units=GPa)
#
#
# Indices 1 2 3 4 5 6 
#
# 1 22.8700 -4.9675 -10.7930 0.0000 0.0000 0.0000
# 2 -4.9675 92.6530 44.4509 0.0000 0.0000 0.0000
# 3 -10.7930 44.4509 101.3535 0.0000 0.0000 0.0000
# 4 0.0000 0.0000 0.0000 39.3571 0.0000 0.0000
# 5 0.0000 0.0000 0.0000 0.0000 73.6737 0.0000
# 6 0.0000 0.0000 0.0000 0.0000 0.0000 9.0084
#
#
#
# Elastic Compliance Matrix: (Units=1/GPa)
#
#
# Indices 1 2 3 4 5 6 
#
# 1 0.046041 0.000147 0.004838 0.000000 0.000000 0.000000
# 2 0.000147 0.013670 -0.005979 0.000000 0.000000 0.000000
# 3 0.004838 -0.005979 0.013004 0.000000 0.000000 0.000000
# 4 0.000000 0.000000 0.000000 0.025408 0.000000 0.000000
# 5 0.000000 0.000000 0.000000 0.000000 0.013573 0.000000
# 6 0.000000 0.000000 0.000000 0.000000 0.000000 0.111007
#
#
# Mechanical properties :
#
#
# Convention : Reuss Voigt Hill
#
# Bulk Modulus (GPa) = 14.13900 30.47304 22.30602
# Shear Modulus (GPa) = 20.13965 36.95358 28.54661
#
# Velocity S-wave (km/s) = 3.14898 4.26553 3.74906
# Velocity P-wave (km/s) = 4.49256 6.26607 5.45191
#
# Compressibility (1/GPa) = 0.07072635
#
# Stress axis : x y z
#
# Youngs Moduli (GPa) = 21.71996 73.15556 76.89902
#
# Poissons Ratio (x) = -0.01077 -0.37205
# Poissons Ratio (y) = -0.00320 0.45981
# Poissons Ratio (z) = -0.10509 0.43743
#
# Static dielectric constant tensor:
#      x y z
#    x 3.705090 0.000000 0.000000 
#    y 0.000000 3.552850 0.000000 
#    z 0.000000 0.000000 3.603670 
# 
# 
# High freq. dielectric constant tensor:
#      x y z
#    x 1.792420 0.000000 0.000000 
#    y 0.000000 1.775430 0.000000 
#    z 0.000000 0.000000 1.787990 
# 
# From -- ./inp_files/35780.got.cif
#   From: 2010.03.12/outbox.cif.g09.slc.cpg/sg51_18_cif.got.tgz:35780.got - 2010.04.16 13:43:02.
