data_PCOD8213248
_publ_section_title
;
Structure prediction by ZEFSAII (Michael W. Deem and Ramdas Pophale) SiO2 
 PCOD8213248
Probable space group: P M M A
;
_chemical_formula_sum "Si O2"
_cell_formula_units_Z 40
_cell_length_a 9.092591
_cell_length_b 9.360277
_cell_length_c 25.723747
_cell_angle_alpha 90.000000
_cell_angle_beta 90.000000
_cell_angle_gamma 90.000000
_cell_volume 2189.326767
_symmetry_space_group_name_H-M "P M M A"
_symmetry_group_IT_number 51
_symmetry_cell_setting 'orthorhombic'
loop_
_space_group_symop_operation_xyz
x,y,z
1/2-x,-y,z
1/2+x,-y,-z
-x,y,-z
-x,-y,-z
1/2+x,y,-z
1/2-x,y,z
x,-y,z
loop_
_atom_site_type_symbol
_atom_site_label
_atom_site_fract_x
_atom_site_fract_y
_atom_site_fract_z
Si Si1 0.579026 0.166567 0.052770
Si Si2 0.581820 0.169485 0.663535
Si Si3 0.080224 0.332195 0.143665
Si Si4 0.420438 0.665174 0.751515
Si Si5 0.579741 0.163423 0.548648
O O1 0.750000 0.204985 0.047956
O O2 0.509061 0.252692 0.099524
O O3 0.553566 0.000000 0.063503
O O4 0.500000 0.215052 0.000000
O O5 0.750000 0.210009 0.677533
O O6 0.469837 0.243232 0.702466
O O7 0.543141 0.228248 0.605526
O O8 0.561304 0.000000 0.666316
O O9 0.250000 0.285685 0.141849
O O10 0.060569 0.500000 0.134810
O O11 0.013854 0.285048 0.198816
O O12 0.250000 0.694719 0.763260
O O13 0.450121 0.500000 0.738883
O O14 0.500000 0.242568 0.500000
O O15 0.750000 0.175910 0.537160
O O16 0.527048 0.000000 0.550400
#
# Coordination Sequence:
#
# PCOD8213248 Si02
#       5
#     8   8   8   8   8
#     4  10  21  37  57  81 109 140 172 207 250 298
#     4   9  18  32  50  74 102 131 166 207 250 300
#     4  10  21  37  57  79 102 133 173 212 252 300
#     4  10  21  36  53  74 101 133 169 210 255 301
#     4   8  14  25  42  66  96 127 159 198 245 295
#
# _framework density 18.270457
#
# number of rings (size 3 to 8) (size 9 to 14) (size 15 to 20)
#    0.000    2.600    0.000    3.000    0.000    6.000 
#    0.000    2.000    0.000    0.600    0.000    0.000 
#    0.000    0.000    0.000    0.000    0.000    0.000 
#
# Total GULP energy -495929.948585 kJ/mol
# GULP energy per Si atom -12398.248715 kJ/mol
# Density = 1.822887 g / cm^3
# Si number density = 18.270457 Si / 1000 Ang^3
#
#
#
# Elastic Constant Matrix: (Units=GPa)
#
#
# Indices 1 2 3 4 5 6 
#
# 1 99.7667 29.9581 67.0329 0.0000 0.0000 0.0000
# 2 29.9581 30.5365 40.6594 0.0000 0.0000 0.0000
# 3 67.0329 40.6594 145.1141 0.0000 0.0000 0.0000
# 4 0.0000 0.0000 0.0000 59.2714 0.0000 0.0000
# 5 0.0000 0.0000 0.0000 0.0000 43.9149 0.0000
# 6 0.0000 0.0000 0.0000 0.0000 0.0000 26.2046
#
#
#
# Elastic Compliance Matrix: (Units=1/GPa)
#
#
# Indices 1 2 3 4 5 6 
#
# 1 0.016057 -0.009374 -0.004791 0.000000 0.000000 0.000000
# 2 -0.009374 0.057708 -0.011839 0.000000 0.000000 0.000000
# 3 -0.004791 -0.011839 0.012421 0.000000 0.000000 0.000000
# 4 0.000000 0.000000 0.000000 0.016872 0.000000 0.000000
# 5 0.000000 0.000000 0.000000 0.000000 0.022771 0.000000
# 6 0.000000 0.000000 0.000000 0.000000 0.000000 0.038161
#
#
# Mechanical properties :
#
#
# Convention : Reuss Voigt Hill
#
# Bulk Modulus (GPa) = 29.25799 61.19091 45.22445
# Shear Modulus (GPa) = 21.98857 35.06264 28.52560
#
# Velocity S-wave (km/s) = 3.47292 4.38549 3.95561
# Velocity P-wave (km/s) = 5.66835 7.69466 6.75788
#
# Compressibility (1/GPa) = 0.03417869
#
# Stress axis : x y z
#
# Youngs Moduli (GPa) = 62.27748 17.32868 80.50687
#
# Poissons Ratio (x) = 0.16244 0.38569
# Poissons Ratio (y) = 0.58379 0.95311
# Poissons Ratio (z) = 0.29836 0.20515
#
# Static dielectric constant tensor:
#      x y z
#    x 3.779580 0.000000 0.000000 
#    y 0.000000 3.061540 0.000000 
#    z 0.000000 0.000000 3.724470 
# 
# 
# High freq. dielectric constant tensor:
#      x y z
#    x 1.717110 0.000000 0.000000 
#    y 0.000000 1.673330 0.000000 
#    z 0.000000 0.000000 1.726250 
# 
# From -- ./inp_files/34318.got.cif
#   From: 2010.03.12/outbox.cif.g09.slc.cpg/sg51_18_cif.got.tgz:34318.got - 2010.04.16 13:43:02.
