data_PCOD8213593
_publ_section_title
;
Structure prediction by ZEFSAII (Michael W. Deem and Ramdas Pophale) SiO2 
 PCOD8213593
Probable space group: P M M A
;
_chemical_formula_sum "Si O2"
_cell_formula_units_Z 56
_cell_length_a 8.980614
_cell_length_b 19.160767
_cell_length_c 16.030759
_cell_angle_alpha 90.000000
_cell_angle_beta 90.000000
_cell_angle_gamma 90.000000
_cell_volume 2758.500107
_symmetry_space_group_name_H-M "P M M A"
_symmetry_group_IT_number 51
_symmetry_cell_setting 'orthorhombic'
loop_
_space_group_symop_operation_xyz
x,y,z
1/2-x,-y,z
1/2+x,-y,-z
-x,y,-z
-x,-y,-z
1/2+x,y,-z
1/2-x,y,z
x,-y,z
loop_
_atom_site_type_symbol
_atom_site_label
_atom_site_fract_x
_atom_site_fract_y
_atom_site_fract_z
Si Si1 0.076998 0.576633 0.586009
Si Si2 0.073188 0.920760 0.248918
Si Si3 0.578303 0.296253 0.829899
Si Si4 0.421903 0.421142 0.912115
Si Si5 0.574441 0.281172 0.335633
Si Si6 0.427793 0.842383 0.415868
Si Si7 0.579035 0.843025 0.915218
O O1 0.250000 0.576785 0.566586
O O2 0.026935 0.500000 0.620212
O O3 0.037398 0.636841 0.651756
O O4 0.000000 0.595024 0.500000
O O5 0.250000 0.916002 0.247828
O O6 0.017068 0.886299 0.335324
O O7 0.010460 0.881873 0.166179
O O8 0.015643 0.000000 0.246908
O O9 0.750000 0.311002 0.809200
O O10 0.497753 0.369087 0.847780
O O11 0.499630 0.259783 0.751519
O O12 0.561908 0.240788 0.904979
O O13 0.250000 0.400882 0.922672
O O14 0.439795 0.500000 0.878013
O O15 0.500000 0.412544 0.000000
O O16 0.750000 0.266099 0.335243
O O17 0.494790 0.235540 0.406897
O O18 0.500000 0.875173 0.500000
O O19 0.250000 0.840545 0.424111
O O20 0.750000 0.864481 0.924634
O O21 0.500000 0.867345 0.000000
#
# Coordination Sequence:
#
# PCOD8213593 Si02
#       7
#     8   8   8   8   8   8   8
#     4   9  19  35  53  75 105 142 186 235 287 344
#     4   9  19  39  64  88 121 162 198 238 296 361
#     4  11  22  37  57  83 116 154 199 250 303 360
#     4  10  21  37  56  80 112 152 199 251 305 363
#     4  11  22  36  57  84 115 154 197 247 302 356
#     4  11  22  39  62  90 122 159 202 248 299 359
#     4  10  21  38  60  89 120 157 199 243 294 354
#
# _framework density 20.300888
#
# number of rings (size 3 to 8) (size 9 to 14) (size 15 to 20)
#    0.000    1.857    1.429    2.571    0.000    6.571 
#    0.000    1.429    0.000    3.000    0.000    0.000 
#    0.000    0.000    0.000    0.000    0.000    0.000 
#
# Total GULP energy -694352.729438 kJ/mol
# GULP energy per Si atom -12399.155883 kJ/mol
# Density = 2.025468 g / cm^3
# Si number density = 20.300888 Si / 1000 Ang^3
#
#
#
# Elastic Constant Matrix: (Units=GPa)
#
#
# Indices 1 2 3 4 5 6 
#
# 1 87.7313 42.1114 48.9976 0.0000 0.0000 0.0000
# 2 42.1114 104.3934 51.2195 0.0000 0.0000 0.0000
# 3 48.9976 51.2195 142.4145 0.0000 0.0000 0.0000
# 4 0.0000 0.0000 0.0000 24.8545 0.0000 0.0000
# 5 0.0000 0.0000 0.0000 0.0000 37.9160 0.0000
# 6 0.0000 0.0000 0.0000 0.0000 0.0000 18.4445
#
#
#
# Elastic Compliance Matrix: (Units=1/GPa)
#
#
# Indices 1 2 3 4 5 6 
#
# 1 0.015650 -0.004458 -0.003781 0.000000 0.000000 0.000000
# 2 -0.004458 0.012902 -0.003106 0.000000 0.000000 0.000000
# 3 -0.003781 -0.003106 0.009440 0.000000 0.000000 0.000000
# 4 0.000000 0.000000 0.000000 0.040234 0.000000 0.000000
# 5 0.000000 0.000000 0.000000 0.000000 0.026374 0.000000
# 6 0.000000 0.000000 0.000000 0.000000 0.000000 0.054217
#
#
# Mechanical properties :
#
#
# Convention : Reuss Voigt Hill
#
# Bulk Modulus (GPa) = 65.35636 68.79956 67.07796
# Shear Modulus (GPa) = 26.79426 29.05704 27.92565
#
# Velocity S-wave (km/s) = 3.63692 3.78738 3.71292
# Velocity P-wave (km/s) = 7.06400 7.28623 7.17597
#
# Compressibility (1/GPa) = 0.01530073
#
# Stress axis : x y z
#
# Youngs Moduli (GPa) = 63.89792 77.51031 105.93431
#
# Poissons Ratio (x) = 0.34553 0.40054
# Poissons Ratio (y) = 0.28485 0.32906
# Poissons Ratio (z) = 0.24160 0.24077
#
# Static dielectric constant tensor:
#      x y z
#    x 3.557640 0.000000 0.000000 
#    y 0.000000 3.814900 0.000000 
#    z 0.000000 0.000000 3.566700 
# 
# 
# High freq. dielectric constant tensor:
#      x y z
#    x 1.780660 0.000000 0.000000 
#    y 0.000000 1.795040 0.000000 
#    z 0.000000 0.000000 1.792890 
# 
# From -- ./inp_files/21720.got.cif
#   From: 2010.03.12/outbox.cif.g09.slc.cpg/sg51_11_cif.got.tgz:21720.got - 2010.04.16 13:43:02.
