data_PCOD8213055
_publ_section_title
;
Structure prediction by ZEFSAII (Michael W. Deem and Ramdas Pophale) SiO2 
 PCOD8213055
Probable space group: P M M A
;
_chemical_formula_sum "Si O2"
_cell_formula_units_Z 48
_cell_length_a 8.761232
_cell_length_b 31.556760
_cell_length_c 9.148889
_cell_angle_alpha 90.000000
_cell_angle_beta 90.000000
_cell_angle_gamma 90.000000
_cell_volume 2529.449109
_symmetry_space_group_name_H-M "P M M A"
_symmetry_group_IT_number 51
_symmetry_cell_setting 'orthorhombic'
loop_
_space_group_symop_operation_xyz
x,y,z
1/2-x,-y,z
1/2+x,-y,-z
-x,y,-z
-x,-y,-z
1/2+x,y,-z
1/2-x,y,z
x,-y,z
loop_
_atom_site_type_symbol
_atom_site_label
_atom_site_fract_x
_atom_site_fract_y
_atom_site_fract_z
Si Si1 0.931899 0.423155 0.840037
Si Si2 0.067563 0.500000 0.660682
Si Si3 0.930351 0.159934 0.659815
Si Si4 0.570446 0.342696 0.659088
Si Si5 0.069229 0.080699 0.158408
Si Si6 0.071583 0.748739 0.343432
Si Si7 0.430252 0.000000 0.341033
O O1 0.750000 0.428872 0.844296
O O2 0.983824 0.378132 0.772927
O O3 0.007034 0.458811 0.741699
O O4 0.000000 0.426871 0.000000
O O5 0.250000 0.500000 0.656060
O O6 0.000000 0.500000 0.500000
O O7 0.750000 0.155425 0.642069
O O8 0.993389 0.123873 0.767757
O O9 0.975334 0.206288 0.731538
O O10 0.000000 0.153689 0.500000
O O11 0.500000 0.350665 0.500000
O O12 0.750000 0.345580 0.636585
O O13 0.521862 0.296387 0.728740
O O14 0.250000 0.081131 0.144473
O O15 0.011963 0.041412 0.255345
O O16 0.000000 0.075901 0.000000
O O17 0.250000 0.748307 0.364991
O O18 0.000000 0.749535 0.500000
O O19 0.500000 0.000000 0.500000
O O20 0.250000 0.000000 0.356105
#
# Coordination Sequence:
#
# PCOD8213055 Si02
#       7
#     8   4   8   8   8   8   4
#     4  11  23  39  57  80 110 144 178 215 261 311
#     4  12  25  42  63  86 110 138 174 216 259 308
#     4   9  17  30  50  74 100 130 169 212 255 302
#     4   9  18  32  53  78 104 135 173 214 258 305
#     4  10  21  35  50  72 101 134 168 206 251 303
#     4   8  14  27  47  72 100 130 165 210 256 299
#     4  10  21  36  54  76 100 126 165 210 254 302
#
# _framework density 18.976464
#
# number of rings (size 3 to 8) (size 9 to 14) (size 15 to 20)
#    0.000    2.333    0.000    2.750    0.000    4.000 
#    0.000    0.833    0.000    0.000    0.000    0.000 
#    0.000    0.000    0.000    0.000    0.000    0.000 
#
# Total GULP energy -594734.392628 kJ/mol
# GULP energy per Si atom -12390.299846 kJ/mol
# Density = 1.893327 g / cm^3
# Si number density = 18.976464 Si / 1000 Ang^3
#
#
#
# Elastic Constant Matrix: (Units=GPa)
#
#
# Indices 1 2 3 4 5 6 
#
# 1 42.8229 46.9593 36.3159 0.0000 0.0000 0.0000
# 2 46.9593 216.3804 95.7906 0.0000 0.0000 0.0000
# 3 36.3159 95.7906 139.3291 0.0000 0.0000 0.0000
# 4 0.0000 0.0000 0.0000 -14.5781 0.0000 0.0000
# 5 0.0000 0.0000 0.0000 0.0000 30.9919 0.0000
# 6 0.0000 0.0000 0.0000 0.0000 0.0000 12.6313
#
#
#
# Elastic Compliance Matrix: (Units=1/GPa)
#
#
# Indices 1 2 3 4 5 6 
#
# 1 0.033174 -0.004847 -0.005314 0.000000 0.000000 0.000000
# 2 -0.004847 0.007352 -0.003791 0.000000 0.000000 0.000000
# 3 -0.005314 -0.003791 0.011169 0.000000 0.000000 0.000000
# 4 0.000000 0.000000 0.000000 -0.068596 0.000000 0.000000
# 5 0.000000 0.000000 0.000000 0.000000 0.032267 0.000000
# 6 0.000000 0.000000 0.000000 0.000000 0.000000 0.079168
#
#
# Mechanical properties :
#
#
# Convention : Reuss Voigt Hill
#
# Bulk Modulus (GPa) = 42.03495 84.07378 63.05437
# Shear Modulus (GPa) = 38.35316 20.44013 29.39664
#
# Velocity S-wave (km/s) = 4.50053 3.28553 3.94014
# Velocity P-wave (km/s) = 7.01467 7.66768 7.34843
#
# Compressibility (1/GPa) = 0.02378973
#
# Stress axis : x y z
#
# Youngs Moduli (GPa) = 30.14425 136.02450 89.53468
#
# Poissons Ratio (x) = 0.65928 0.47583
# Poissons Ratio (y) = 0.14610 0.33943
# Poissons Ratio (z) = 0.16020 0.51567
#
# Static dielectric constant tensor:
#      x y z
#    x 3.441350 0.000000 0.000000 
#    y 0.000000 4.546830 0.000000 
#    z 0.000000 0.000000 3.245690 
# 
# 
# High freq. dielectric constant tensor:
#      x y z
#    x 1.731660 0.000000 0.000000 
#    y 0.000000 1.772930 0.000000 
#    z 0.000000 0.000000 1.711970 
# 
# From -- ./inp_files/6153.got.cif
#   From: 2010.03.12/outbox.cif.g09.slc.cpg/sg51_4_cif.got.tgz:6153.got - 2010.04.16 13:43:02.
