data_PCOD8213610
_publ_section_title
;
Structure prediction by ZEFSAII (Michael W. Deem and Ramdas Pophale) SiO2 
 PCOD8213610
Probable space group: P M M A
;
_chemical_formula_sum "Si O2"
_cell_formula_units_Z 64
_cell_length_a 14.958985
_cell_length_b 8.730565
_cell_length_c 23.818274
_cell_angle_alpha 90.000000
_cell_angle_beta 90.000000
_cell_angle_gamma 90.000000
_cell_volume 3110.675894
_symmetry_space_group_name_H-M "P M M A"
_symmetry_group_IT_number 51
_symmetry_cell_setting 'orthorhombic'
loop_
_space_group_symop_operation_xyz
x,y,z
1/2-x,-y,z
1/2+x,-y,-z
-x,y,-z
-x,-y,-z
1/2+x,y,-z
1/2-x,y,z
x,-y,z
loop_
_atom_site_type_symbol
_atom_site_label
_atom_site_fract_x
_atom_site_fract_y
_atom_site_fract_z
Si Si1 0.850059 0.817730 0.896665
Si Si2 0.104900 0.675856 0.503312
Si Si3 0.355785 0.169390 0.980703
Si Si4 0.005742 0.320413 0.313988
Si Si5 0.648976 0.174961 0.380546
Si Si6 0.646549 0.322181 0.132188
Si Si7 0.989605 0.180953 0.804583
Si Si8 0.649760 0.825389 0.608731
O O1 0.750000 0.751986 0.885272
O O2 0.917874 0.755566 0.849700
O O3 0.846265 0.000000 0.895514
O O4 0.887355 0.767116 0.958343
O O5 0.131473 0.500000 0.493297
O O6 0.139594 0.725544 0.563709
O O7 0.151660 0.779387 0.456469
O O8 0.000000 0.701340 0.500000
O O9 0.250000 0.156178 0.984060
O O10 0.385690 0.282042 0.930955
O O11 0.396308 0.000000 0.968465
O O12 0.988465 0.500000 0.312326
O O13 0.035828 0.259733 0.253668
O O14 0.084266 0.286241 0.357919
O O15 0.914223 0.238596 0.331743
O O16 0.750000 0.187495 0.357968
O O17 0.622863 0.000000 0.394054
O O18 0.750000 0.276402 0.140774
O O19 0.630447 0.500000 0.142994
O O20 0.589367 0.226687 0.176840
O O21 0.983429 0.000000 0.797291
O O22 0.750000 0.808929 0.632902
O O23 0.616137 0.000000 0.614747
#
# Coordination Sequence:
#
# PCOD8213610 Si02
#       8
#     8   8   8   8   8   8   8   8
#     4   8  16  33  58  87 116 147 187 235 287 345
#     4  11  22  37  62  97 132 165 195 237 298 355
#     4   8  14  29  55  84 113 146 186 233 285 345
#     4  12  26  44  63  86 119 158 200 249 304 356
#     4  11  24  42  66  94 122 157 201 247 296 353
#     4  10  21  37  56  81 116 155 193 238 293 350
#     4  11  23  39  61  86 113 151 198 246 293 347
#     4  11  24  42  66  94 123 160 204 248 294 347
#
# _framework density 20.574306
#
# number of rings (size 3 to 8) (size 9 to 14) (size 15 to 20)
#    0.000    1.750    1.250    4.125    0.000    6.250 
#    0.000    5.000    0.000    2.625    0.000    0.000 
#    0.000    0.000    0.000    0.000    0.000    0.000 
#
# Total GULP energy -793759.686229 kJ/mol
# GULP energy per Si atom -12402.495097 kJ/mol
# Density = 2.052748 g / cm^3
# Si number density = 20.574306 Si / 1000 Ang^3
#
#
#
# Elastic Constant Matrix: (Units=GPa)
#
#
# Indices 1 2 3 4 5 6 
#
# 1 73.6372 31.0306 14.0760 0.0000 0.0000 0.0000
# 2 31.0306 73.9150 11.0216 0.0000 0.0000 0.0000
# 3 14.0760 11.0216 81.3070 0.0000 0.0000 0.0000
# 4 0.0000 0.0000 0.0000 17.8839 0.0000 0.0000
# 5 0.0000 0.0000 0.0000 0.0000 18.4878 0.0000
# 6 0.0000 0.0000 0.0000 0.0000 0.0000 2.2983
#
#
#
# Elastic Compliance Matrix: (Units=1/GPa)
#
#
# Indices 1 2 3 4 5 6 
#
# 1 0.016810 -0.006760 -0.001994 0.000000 0.000000 0.000000
# 2 -0.006760 0.016526 -0.001070 0.000000 0.000000 0.000000
# 3 -0.001994 -0.001070 0.012789 0.000000 0.000000 0.000000
# 4 0.000000 0.000000 0.000000 0.055916 0.000000 0.000000
# 5 0.000000 0.000000 0.000000 0.000000 0.054090 0.000000
# 6 0.000000 0.000000 0.000000 0.000000 0.000000 0.435099
#
#
# Mechanical properties :
#
#
# Convention : Reuss Voigt Hill
#
# Bulk Modulus (GPa) = 37.76655 37.90172 37.83414
# Shear Modulus (GPa) = 8.06837 19.24940 13.65889
#
# Velocity S-wave (km/s) = 1.98245 3.06208 2.57938
# Velocity P-wave (km/s) = 4.86170 5.56450 5.22493
#
# Compressibility (1/GPa) = 0.02647846
#
# Stress axis : x y z
#
# Youngs Moduli (GPa) = 59.48931 60.50917 78.19051
#
# Poissons Ratio (x) = 0.40902 0.15590
# Poissons Ratio (y) = 0.40213 0.08366
# Poissons Ratio (z) = 0.11861 0.06474
#
# Static dielectric constant tensor:
#      x y z
#    x 3.912970 0.000000 0.000000 
#    y 0.000000 3.605260 0.000000 
#    z 0.000000 0.000000 3.807420 
# 
# 
# High freq. dielectric constant tensor:
#      x y z
#    x 1.808060 0.000000 0.000000 
#    y 0.000000 1.794630 0.000000 
#    z 0.000000 0.000000 1.803250 
# 
# From -- ./inp_files/35862.got.cif
#   From: 2010.03.12/outbox.cif.g09.slc.cpg/sg51_18_cif.got.tgz:35862.got - 2010.04.16 13:43:02.
