data_PCOD8213662
_publ_section_title
;
Structure prediction by ZEFSAII (Michael W. Deem and Ramdas Pophale) SiO2 
 PCOD8213662
Probable space group: P M M A
;
_chemical_formula_sum "Si O2"
_cell_formula_units_Z 48
_cell_length_a 8.894746
_cell_length_b 30.458065
_cell_length_c 9.639016
_cell_angle_alpha 90.000000
_cell_angle_beta 90.000000
_cell_angle_gamma 90.000000
_cell_volume 2611.370906
_symmetry_space_group_name_H-M "P M M A"
_symmetry_group_IT_number 51
_symmetry_cell_setting 'orthorhombic'
loop_
_space_group_symop_operation_xyz
x,y,z
1/2-x,-y,z
1/2+x,-y,-z
-x,y,-z
-x,-y,-z
1/2+x,y,-z
1/2-x,y,z
x,-y,z
loop_
_atom_site_type_symbol
_atom_site_label
_atom_site_fract_x
_atom_site_fract_y
_atom_site_fract_z
Si Si1 0.070955 0.780744 0.348900
Si Si2 0.426054 0.953713 0.148019
Si Si3 0.072991 0.858562 0.149871
Si Si4 0.576356 0.387616 0.141186
Si Si5 0.576910 0.451102 0.647165
Si Si6 0.074591 0.714825 0.855444
O O1 0.250000 0.777383 0.361250
O O2 0.017272 0.822945 0.260566
O O3 0.000000 0.784593 0.500000
O O4 0.007154 0.737915 0.272855
O O5 0.250000 0.952942 0.124397
O O6 0.473136 0.906761 0.214981
O O7 0.470178 0.000000 0.228361
O O8 0.500000 0.955561 0.000000
O O9 0.250000 0.854643 0.127526
O O10 0.000000 0.849989 0.000000
O O11 0.750000 0.399260 0.130628
O O12 0.503594 0.414833 0.262779
O O13 0.548652 0.336491 0.169644
O O14 0.500000 0.402873 0.000000
O O15 0.500000 0.450029 0.500000
O O16 0.750000 0.438049 0.630858
O O17 0.559833 0.500000 0.712311
O O18 0.250000 0.727254 0.859953
O O19 0.000000 0.730192 0.000000
#
# Coordination Sequence:
#
# PCOD8213662 Si02
#       6
#     8   8   8   8   8   8
#     4  11  23  37  53  74 102 136 174 216 261 309
#     4   8  13  23  41  66  95 124 156 198 246 295
#     4   9  18  31  49  74 100 129 166 206 252 305
#     4  10  21  37  58  83 110 140 174 215 261 309
#     4  10  21  37  57  81 110 145 183 221 261 307
#     4  10  21  38  59  82 107 136 172 213 259 311
#
# _framework density 18.381150999999999
#
# number of rings (size 3 to 8) (size 9 to 14) (size 15 to 20)
#    0.000    2.333    0.000    2.500    0.000    6.667 
#    0.000    0.000    0.000    0.500    0.000    0.000 
#    0.000    0.000    0.000    0.000    0.000    0.167 
#
# Total GULP energy -594831.028344 kJ/mol
# GULP energy per Si atom -12392.313090 kJ/mol
# Density = 1.833931 g / cm^3
# Si number density = 18.381151 Si / 1000 Ang^3
#
#
#
# Elastic Constant Matrix: (Units=GPa)
#
#
# Indices 1 2 3 4 5 6 
#
# 1 92.1367 55.3175 48.8956 0.0000 0.0000 0.0000
# 2 55.3175 95.6258 60.5828 0.0000 0.0000 0.0000
# 3 48.8956 60.5828 104.8949 0.0000 0.0000 0.0000
# 4 0.0000 0.0000 0.0000 -47.3945 0.0000 0.0000
# 5 0.0000 0.0000 0.0000 0.0000 33.2943 0.0000
# 6 0.0000 0.0000 0.0000 0.0000 0.0000 26.6262
#
#
#
# Elastic Compliance Matrix: (Units=1/GPa)
#
#
# Indices 1 2 3 4 5 6 
#
# 1 0.017466 -0.007800 -0.003637 0.000000 0.000000 0.000000
# 2 -0.007800 0.019975 -0.007901 0.000000 0.000000 0.000000
# 3 -0.003637 -0.007901 0.015792 0.000000 0.000000 0.000000
# 4 0.000000 0.000000 0.000000 -0.021100 0.000000 0.000000
# 5 0.000000 0.000000 0.000000 0.000000 0.030035 0.000000
# 6 0.000000 0.000000 0.000000 0.000000 0.000000 0.037557
#
#
# Mechanical properties :
#
#
# Convention : Reuss Voigt Hill
#
# Bulk Modulus (GPa) = 68.69077 69.13879 68.91478
# Shear Modulus (GPa) = 34.90304 11.02929 22.96617
#
# Velocity S-wave (km/s) = 4.36231 2.45221 3.53858
# Velocity P-wave (km/s) = 7.92618 6.76117 7.36674
#
# Compressibility (1/GPa) = 0.01455800
#
# Stress axis : x y z
#
# Youngs Moduli (GPa) = 57.25275 50.06259 63.32363
#
# Poissons Ratio (x) = 0.39048 0.23030
# Poissons Ratio (y) = 0.44656 0.50031
# Poissons Ratio (z) = 0.20822 0.39554
#
# Static dielectric constant tensor:
#      x y z
#    x 3.460010 0.000000 0.000000 
#    y 0.000000 3.997810 0.000000 
#    z 0.000000 0.000000 3.126210 
# 
# 
# High freq. dielectric constant tensor:
#      x y z
#    x 1.724400 0.000000 0.000000 
#    y 0.000000 1.736240 0.000000 
#    z 0.000000 0.000000 1.681510 
# 
# From -- ./inp_files/5993.got.cif
#   From: 2010.03.12/outbox.cif.g09.slc.cpg/sg51_3_cif.got.tgz:5993.got - 2010.04.16 13:43:02.
