data_PCOD8213967
_publ_section_title
;
Structure prediction by ZEFSAII (Michael W. Deem and Ramdas Pophale) SiO2 
 PCOD8213967
Probable space group: P M M A
;
_chemical_formula_sum "Si O2"
_cell_formula_units_Z 38
_cell_length_a 19.388297
_cell_length_b 7.501507
_cell_length_c 12.863890
_cell_angle_alpha 90.000000
_cell_angle_beta 90.000000
_cell_angle_gamma 90.000000
_cell_volume 1870.942758
_symmetry_space_group_name_H-M "P M M A"
_symmetry_group_IT_number 51
_symmetry_cell_setting 'orthorhombic'
loop_
_space_group_symop_operation_xyz
x,y,z
1/2-x,-y,z
1/2+x,-y,-z
-x,y,-z
-x,-y,-z
1/2+x,y,-z
1/2-x,y,z
x,-y,z
loop_
_atom_site_type_symbol
_atom_site_label
_atom_site_fract_x
_atom_site_fract_y
_atom_site_fract_z
Si Si1 0.170548 0.703149 0.363266
Si Si2 0.427942 0.711341 0.542516
Si Si3 0.983516 0.000000 0.120227
Si Si4 0.250000 0.802930 0.832303
Si Si5 0.750000 0.000000 0.967806
Si Si6 0.398764 0.702096 0.772780
Si Si7 0.635315 0.000000 0.797367
O O1 0.250000 0.715850 0.392719
O O2 0.148614 0.500000 0.336739
O O3 0.130615 0.778306 0.463528
O O4 0.154088 0.821208 0.263678
O O5 0.500000 0.788406 0.500000
O O6 0.428818 0.500000 0.546476
O O7 0.412794 0.783067 0.658017
O O8 0.938888 0.824606 0.145316
O O9 0.054251 0.000000 0.183336
O O10 0.000000 0.000000 0.000000
O O11 0.317321 0.697811 0.795203
O O12 0.250000 0.000000 0.780719
O O13 0.250000 0.823856 0.958459
O O14 0.679948 0.000000 0.901948
O O15 0.426782 0.500000 0.782602
#
# Coordination Sequence:
#
# PCOD8213967 Si02
#       7
#     8   8   4   4   2   8   4
#     4  10  21  38  60  93 129 163 206 256 309 372
#     4   9  19  36  59  90 131 167 201 252 307 371
#     4  12  26  44  65  91 127 166 206 276 328 363
#     4  10  21  43  67  88 125 168 206 268 321 354
#     4  10  22  44  64  86 124 162 210 270 318 360
#     4  11  23  42  68  96 126 169 215 254 314 384
#     4  12  22  41  67  85 121 168 211 252 321 383
#
# _framework density 20.310617000000001
#
# number of rings (size 3 to 8) (size 9 to 14) (size 15 to 20)
#    0.316    1.263    2.105    2.842    1.474    3.789 
#    0.000    6.316    0.000    0.000    0.000    0.000 
#    0.000    0.000    0.000    0.000    0.000    0.000 
#
# Total GULP energy -471255.494411 kJ/mol
# GULP energy per Si atom -12401.460379 kJ/mol
# Density = 2.026439 g / cm^3
# Si number density = 20.310617 Si / 1000 Ang^3
#
#
#
# Elastic Constant Matrix: (Units=GPa)
#
#
# Indices 1 2 3 4 5 6 
#
# 1 149.3050 30.6583 62.2574 0.0000 0.0000 0.0000
# 2 30.6583 88.8884 40.7251 0.0000 0.0000 0.0000
# 3 62.2574 40.7251 153.3939 0.0000 0.0000 0.0000
# 4 0.0000 0.0000 0.0000 27.9036 0.0000 0.0000
# 5 0.0000 0.0000 0.0000 0.0000 47.3223 0.0000
# 6 0.0000 0.0000 0.0000 0.0000 0.0000 19.3775
#
#
#
# Elastic Compliance Matrix: (Units=1/GPa)
#
#
# Indices 1 2 3 4 5 6 
#
# 1 0.008232 -0.001490 -0.002946 0.000000 0.000000 0.000000
# 2 -0.001490 0.013078 -0.002867 0.000000 0.000000 0.000000
# 3 -0.002946 -0.002867 0.008476 0.000000 0.000000 0.000000
# 4 0.000000 0.000000 0.000000 0.035838 0.000000 0.000000
# 5 0.000000 0.000000 0.000000 0.000000 0.021132 0.000000
# 6 0.000000 0.000000 0.000000 0.000000 0.000000 0.051606
#
#
# Mechanical properties :
#
#
# Convention : Reuss Voigt Hill
#
# Bulk Modulus (GPa) = 65.87566 73.20766 69.54166
# Shear Modulus (GPa) = 31.64031 36.11711 33.87871
#
# Velocity S-wave (km/s) = 3.95121 4.22149 4.08858
# Velocity P-wave (km/s) = 7.30209 7.73845 7.52343
#
# Compressibility (1/GPa) = 0.01518011
#
# Stress axis : x y z
#
# Youngs Moduli (GPa) = 121.47985 76.46667 117.98124
#
# Poissons Ratio (x) = 0.11391 0.34752
# Poissons Ratio (y) = 0.18097 0.33830
# Poissons Ratio (z) = 0.35782 0.21926
#
# Static dielectric constant tensor:
#      x y z
#    x 3.900320 0.000000 0.000000 
#    y 0.000000 3.545530 0.000000 
#    z 0.000000 0.000000 3.714050 
# 
# 
# High freq. dielectric constant tensor:
#      x y z
#    x 1.808450 0.000000 0.000000 
#    y 0.000000 1.787100 0.000000 
#    z 0.000000 0.000000 1.792270 
# 
# From -- ./inp_files/17126.got.cif
#   From: 2010.03.12/outbox.cif.g09.slc.cpg/sg51_9_cif.got.tgz:17126.got - 2010.04.16 13:43:02.
