data_PCOD8213871
_publ_section_title
;
Structure prediction by ZEFSAII (Michael W. Deem and Ramdas Pophale) SiO2 
 PCOD8213871
Probable space group: P M M A
;
_chemical_formula_sum "Si O2"
_cell_formula_units_Z 48
_cell_length_a 15.204102
_cell_length_b 8.519416
_cell_length_c 18.659138
_cell_angle_alpha 90.000000
_cell_angle_beta 90.000000
_cell_angle_gamma 90.000000
_cell_volume 2416.919448
_symmetry_space_group_name_H-M "P M M A"
_symmetry_group_IT_number 51
_symmetry_cell_setting 'orthorhombic'
loop_
_space_group_symop_operation_xyz
x,y,z
1/2-x,-y,z
1/2+x,-y,-z
-x,y,-z
-x,-y,-z
1/2+x,y,-z
1/2-x,y,z
x,-y,z
loop_
_atom_site_type_symbol
_atom_site_label
_atom_site_fract_x
_atom_site_fract_y
_atom_site_fract_z
Si Si1 0.250000 0.183677 0.577529
Si Si2 0.250000 0.678512 0.422746
Si Si3 0.089145 0.816218 0.164703
Si Si4 0.250000 0.181194 0.925361
Si Si5 0.401694 0.682072 0.832286
Si Si6 0.750000 0.316903 0.921096
Si Si7 0.602968 0.820131 0.671626
Si Si8 0.096619 0.816514 0.677889
O O1 0.250000 0.221674 0.494541
O O2 0.337573 0.247811 0.616859
O O3 0.250000 0.000000 0.586043
O O4 0.250000 0.500000 0.446677
O O5 0.336684 0.711345 0.376798
O O6 0.164094 0.764659 0.110673
O O7 0.119194 0.776647 0.245493
O O8 0.000977 0.722907 0.144995
O O9 0.069099 0.000000 0.157379
O O10 0.163330 0.214940 0.879679
O O11 0.250000 0.000000 0.949109
O O12 0.250000 0.292419 0.994322
O O13 0.383067 0.500000 0.846498
O O14 0.384350 0.719734 0.749375
O O15 0.750000 0.500000 0.902131
O O16 0.502161 0.787399 0.650032
O O17 0.629220 0.000000 0.657160
O O18 0.110032 0.000000 0.695880
#
# Coordination Sequence:
#
# PCOD8213871 Si02
#       8
#     4   4   8   4   8   4   8   8
#     4  10  21  38  59  81 111 149 189 230 279 342
#     4  12  25  36  51  79 115 151 189 234 291 342
#     4  10  21  40  64  89 116 154 198 237 283 348
#     4  12  25  42  61  83 117 161 201 236 281 348
#     4  11  22  38  62  92 121 150 188 242 296 340
#     4  12  25  40  59  89 123 153 191 244 299 344
#     4   9  19  37  60  83 110 145 190 234 274 331
#     4   9  19  37  62  88 111 146 191 233 280 343
#
# _framework density 19.859991999999998
#
# number of rings (size 3 to 8) (size 9 to 14) (size 15 to 20)
#    0.000    1.667    0.000    6.250    0.000    8.000 
#    0.000    6.667    0.000    0.000    0.000    0.000 
#    0.000    0.000    0.000    0.000    0.000    0.000 
#
# Total GULP energy -595426.343122 kJ/mol
# GULP energy per Si atom -12404.715482 kJ/mol
# Density = 1.981479 g / cm^3
# Si number density = 19.859992 Si / 1000 Ang^3
#
#
#
# Elastic Constant Matrix: (Units=GPa)
#
#
# Indices 1 2 3 4 5 6 
#
# 1 122.7992 16.0452 62.6013 0.0000 0.0000 0.0000
# 2 16.0452 56.3327 7.7899 0.0000 0.0000 0.0000
# 3 62.6013 7.7899 89.0041 0.0000 0.0000 0.0000
# 4 0.0000 0.0000 0.0000 27.2351 0.0000 0.0000
# 5 0.0000 0.0000 0.0000 0.0000 -16.8984 0.0000
# 6 0.0000 0.0000 0.0000 0.0000 0.0000 23.4571
#
#
#
# Elastic Compliance Matrix: (Units=1/GPa)
#
#
# Indices 1 2 3 4 5 6 
#
# 1 0.013027 -0.002473 -0.008946 0.000000 0.000000 0.000000
# 2 -0.002473 0.018439 0.000126 0.000000 0.000000 0.000000
# 3 -0.008946 0.000126 0.017517 0.000000 0.000000 0.000000
# 4 0.000000 0.000000 0.000000 0.036717 0.000000 0.000000
# 5 0.000000 0.000000 0.000000 0.000000 -0.059177 0.000000
# 6 0.000000 0.000000 0.000000 0.000000 0.000000 0.042631
#
#
# Mechanical properties :
#
#
# Convention : Reuss Voigt Hill
#
# Bulk Modulus (GPa) = 37.88568 49.00098 43.44333
# Shear Modulus (GPa) = 49.73152 18.87208 34.30180
#
# Velocity S-wave (km/s) = 5.00953 3.08597 4.16045
# Velocity P-wave (km/s) = 7.25109 6.11755 6.70831
#
# Compressibility (1/GPa) = 0.02639520
#
# Stress axis : x y z
#
# Youngs Moduli (GPa) = 76.76215 54.23353 57.08799
#
# Poissons Ratio (x) = 0.13414 0.51073
# Poissons Ratio (y) = 0.18987 -0.00719
# Poissons Ratio (z) = 0.68674 -0.00683
#
# Static dielectric constant tensor:
#      x y z
#    x 3.816350 0.000000 0.000000 
#    y 0.000000 3.504470 0.000000 
#    z 0.000000 0.000000 3.500960 
# 
# 
# High freq. dielectric constant tensor:
#      x y z
#    x 1.790630 0.000000 0.000000 
#    y 0.000000 1.771990 0.000000 
#    z 0.000000 0.000000 1.768290 
# 
# From -- ./inp_files/29673.got.cif
#   From: 2010.03.12/outbox.cif.g09.slc.cpg/sg51_15_cif.got.tgz:29673.got - 2010.04.16 13:43:02.
