data_PCOD8213879
_publ_section_title
;
Structure prediction by ZEFSAII (Michael W. Deem and Ramdas Pophale) SiO2 
 PCOD8213879
Probable space group: P M M A
;
_chemical_formula_sum "Si O2"
_cell_formula_units_Z 64
_cell_length_a 18.336777
_cell_length_b 28.126721
_cell_length_c 6.785606
_cell_angle_alpha 90.000000
_cell_angle_beta 90.000000
_cell_angle_gamma 90.000000
_cell_volume 3499.699438
_symmetry_space_group_name_H-M "P M M A"
_symmetry_group_IT_number 51
_symmetry_cell_setting 'orthorhombic'
loop_
_space_group_symop_operation_xyz
x,y,z
1/2-x,-y,z
1/2+x,-y,-z
-x,y,-z
-x,-y,-z
1/2+x,y,-z
1/2-x,y,z
x,-y,z
loop_
_atom_site_type_symbol
_atom_site_label
_atom_site_fract_x
_atom_site_fract_y
_atom_site_fract_z
Si Si1 0.914360 0.377680 0.464864
Si Si2 0.833241 0.370197 0.065849
Si Si3 0.334172 0.697668 0.280871
Si Si4 0.926137 0.944358 0.616857
Si Si5 0.334035 0.446056 0.266940
Si Si6 0.834392 0.193972 0.679727
Si Si7 0.420407 0.873695 0.041125
Si Si8 0.834400 0.120213 0.356964
O O1 0.893262 0.372973 0.236122
O O2 0.883039 0.331642 0.570571
O O3 0.880440 0.426089 0.550893
O O4 0.000000 0.379299 0.500000
O O5 0.750000 0.371606 0.148037
O O6 0.845353 0.321438 0.942138
O O7 0.848403 0.415469 0.927873
O O8 0.250000 0.691190 0.342797
O O9 0.359898 0.751686 0.308382
O O10 0.928850 0.922253 0.834893
O O11 0.857552 0.922226 0.502347
O O12 0.000000 0.931896 0.500000
O O13 0.913736 0.000000 0.639376
O O14 0.250000 0.442720 0.330281
O O15 0.357990 0.500000 0.223598
O O16 0.750000 0.189247 0.734480
O O17 0.877692 0.166753 0.846040
O O18 0.849751 0.171034 0.464402
O O19 0.500000 0.852638 0.000000
O O20 0.379876 0.885130 0.839976
O O21 0.750000 0.114194 0.305447
#
# Coordination Sequence:
#
# PCOD8213879 Si02
#       8
#     8   8   8   8   8   8   8   8
#     4  11  22  35  51  81 117 149 177 222 281 339
#     4   9  18  35  59  79 103 142 188 232 271 319
#     4   9  19  38  58  79 106 144 191 231 270 325
#     4  10  21  38  59  82 113 151 191 231 278 336
#     4   9  19  36  57  80 105 139 188 237 274 323
#     4   9  20  38  58  81 112 147 188 236 284 336
#     4  11  21  36  57  87 113 149 188 233 283 344
#     4  10  21  38  59  84 116 149 185 235 288 335
#
# _framework density 18.287284
#
# number of rings (size 3 to 8) (size 9 to 14) (size 15 to 20)
#    0.000    2.250    1.250    2.250    0.000    5.250 
#    4.500    5.625    0.000    0.000    0.000    0.000 
#    0.000    0.000    0.000    0.000    0.000    0.000 
#
# Total GULP energy -793658.958501 kJ/mol
# GULP energy per Si atom -12400.921227 kJ/mol
# Density = 1.824566 g / cm^3
# Si number density = 18.287284 Si / 1000 Ang^3
#
#
#
# Elastic Constant Matrix: (Units=GPa)
#
#
# Indices 1 2 3 4 5 6 
#
# 1 83.9506 51.6928 53.3851 0.0000 0.0000 0.0000
# 2 51.6928 143.9351 55.8979 0.0000 0.0000 0.0000
# 3 53.3851 55.8979 115.2536 0.0000 0.0000 0.0000
# 4 0.0000 0.0000 0.0000 15.4284 0.0000 0.0000
# 5 0.0000 0.0000 0.0000 0.0000 31.5400 0.0000
# 6 0.0000 0.0000 0.0000 0.0000 0.0000 23.7814
#
#
#
# Elastic Compliance Matrix: (Units=1/GPa)
#
#
# Indices 1 2 3 4 5 6 
#
# 1 0.018683 -0.004126 -0.006653 0.000000 0.000000 0.000000
# 2 -0.004126 0.009471 -0.002682 0.000000 0.000000 0.000000
# 3 -0.006653 -0.002682 0.013059 0.000000 0.000000 0.000000
# 4 0.000000 0.000000 0.000000 0.064815 0.000000 0.000000
# 5 0.000000 0.000000 0.000000 0.000000 0.031706 0.000000
# 6 0.000000 0.000000 0.000000 0.000000 0.000000 0.042050
#
#
# Mechanical properties :
#
#
# Convention : Reuss Voigt Hill
#
# Bulk Modulus (GPa) = 69.97534 73.89899 71.93717
# Shear Modulus (GPa) = 23.64403 26.29420 24.96912
#
# Velocity S-wave (km/s) = 3.59962 3.79600 3.69912
# Velocity P-wave (km/s) = 7.45815 7.72726 7.59390
#
# Compressibility (1/GPa) = 0.01429075
#
# Stress axis : x y z
#
# Youngs Moduli (GPa) = 53.52449 105.58411 76.57600
#
# Poissons Ratio (x) = 0.43566 0.50944
# Poissons Ratio (y) = 0.22085 0.20540
# Poissons Ratio (z) = 0.35608 0.28320
#
# Static dielectric constant tensor:
#      x y z
#    x 3.564970 0.000000 0.000000 
#    y 0.000000 3.462800 0.000000 
#    z 0.000000 0.000000 3.417840 
# 
# 
# High freq. dielectric constant tensor:
#      x y z
#    x 1.708300 0.000000 0.000000 
#    y 0.000000 1.709290 0.000000 
#    z 0.000000 0.000000 1.710510 
# 
# From -- ./inp_files/2104.got.cif
#   From: 2010.03.12/outbox.cif.g09.slc.cpg/sg51_2_cif.got.tgz:2104.got - 2010.04.16 13:43:02.
