data_PCOD8213141
_publ_section_title
;
Structure prediction by ZEFSAII (Michael W. Deem and Ramdas Pophale) SiO2 
 PCOD8213141
Probable space group: P M M A
;
_chemical_formula_sum "Si O2"
_cell_formula_units_Z 64
_cell_length_a 14.489040
_cell_length_b 9.175112
_cell_length_c 26.165180
_cell_angle_alpha 90.000000
_cell_angle_beta 90.000000
_cell_angle_gamma 90.000000
_cell_volume 3478.361476
_symmetry_space_group_name_H-M "P M M A"
_symmetry_group_IT_number 51
_symmetry_cell_setting 'orthorhombic'
loop_
_space_group_symop_operation_xyz
x,y,z
1/2-x,-y,z
1/2+x,-y,-z
-x,y,-z
-x,-y,-z
1/2+x,y,-z
1/2-x,y,z
x,-y,z
loop_
_atom_site_type_symbol
_atom_site_label
_atom_site_fract_x
_atom_site_fract_y
_atom_site_fract_z
Si Si1 0.645023 0.331935 0.769672
Si Si2 0.491815 0.671017 0.688761
Si Si3 0.855288 0.332057 0.137284
Si Si4 0.489590 0.330158 0.057974
Si Si5 0.358605 0.832324 0.761453
Si Si6 0.997156 0.827550 0.582181
Si Si7 0.352925 0.172175 0.501827
Si Si8 0.358219 0.167470 0.129985
O O1 0.750000 0.289059 0.755980
O O2 0.636605 0.500000 0.785465
O O3 0.583950 0.294613 0.720678
O O4 0.607238 0.240502 0.817529
O O5 0.471960 0.500000 0.684758
O O6 0.404618 0.747544 0.714756
O O7 0.507826 0.736800 0.633462
O O8 0.750000 0.294458 0.122818
O O9 0.866209 0.500000 0.153637
O O10 0.890443 0.236282 0.184758
O O11 0.915974 0.294350 0.087877
O O12 0.465032 0.500000 0.060541
O O13 0.405202 0.242387 0.081726
O O14 0.500000 0.276811 0.000000
O O15 0.250000 0.814255 0.754209
O O16 0.389460 0.000000 0.760518
O O17 0.090183 0.780747 0.552134
O O18 0.908139 0.780156 0.548893
O O19 0.996766 0.000000 0.593592
O O20 0.250000 0.242484 0.502461
O O21 0.345172 0.000000 0.501732
O O22 0.250000 0.190594 0.123204
O O23 0.386919 0.000000 0.131965
#
# Coordination Sequence:
#
# PCOD8213141 Si02
#       8
#     8   8   8   8   8   8   8   8
#     4   9  19  36  55  74 100 138 178 210 249 306
#     4  11  22  34  51  77 110 141 168 208 258 304
#     4   9  18  34  54  75 102 134 168 210 258 305
#     4  10  21  35  53  78 104 134 173 211 252 306
#     4  10  21  36  54  76 101 133 173 211 251 305
#     4   9  18  32  51  76 102 131 171 212 251 299
#     4   8  15  31  54  75  97 130 172 215 255 296
#     4  10  21  36  54  77 104 134 170 214 262 307
#
# _framework density 18.399467999999999
#
# number of rings (size 3 to 8) (size 9 to 14) (size 15 to 20)
#    0.000    2.500    0.000    2.625    0.000    7.750 
#    0.000    3.750    0.000    2.250    0.000    0.000 
#    0.000    0.000    0.000    0.000    0.000    0.000 
#
# Total GULP energy -793731.066889 kJ/mol
# GULP energy per Si atom -12402.047920 kJ/mol
# Density = 1.835759 g / cm^3
# Si number density = 18.399468 Si / 1000 Ang^3
#
#
#
# Elastic Constant Matrix: (Units=GPa)
#
#
# Indices 1 2 3 4 5 6 
#
# 1 96.7794 46.2375 67.0676 0.0000 0.0000 0.0000
# 2 46.2375 86.4877 73.2906 0.0000 0.0000 0.0000
# 3 67.0676 73.2906 167.2920 0.0000 0.0000 0.0000
# 4 0.0000 0.0000 0.0000 184.4678 0.0000 0.0000
# 5 0.0000 0.0000 0.0000 0.0000 21.3882 0.0000
# 6 0.0000 0.0000 0.0000 0.0000 0.0000 22.5228
#
#
#
# Elastic Compliance Matrix: (Units=1/GPa)
#
#
# Indices 1 2 3 4 5 6 
#
# 1 0.015464 -0.004793 -0.004100 0.000000 0.000000 0.000000
# 2 -0.004793 0.019875 -0.006786 0.000000 0.000000 0.000000
# 3 -0.004100 -0.006786 0.010594 0.000000 0.000000 0.000000
# 4 0.000000 0.000000 0.000000 0.005421 0.000000 0.000000
# 5 0.000000 0.000000 0.000000 0.000000 0.046755 0.000000
# 6 0.000000 0.000000 0.000000 0.000000 0.000000 0.044399
#
#
# Mechanical properties :
#
#
# Convention : Reuss Voigt Hill
#
# Bulk Modulus (GPa) = 68.60616 80.41673 74.51145
# Shear Modulus (GPa) = 27.97622 56.60665 42.29143
#
# Velocity S-wave (km/s) = 3.90358 5.55267 4.79948
# Velocity P-wave (km/s) = 7.59508 9.21469 8.44380
#
# Compressibility (1/GPa) = 0.01457595
#
# Stress axis : x y z
#
# Youngs Moduli (GPa) = 64.66754 50.31427 94.39377
#
# Poissons Ratio (x) = 0.24116 0.38697
# Poissons Ratio (y) = 0.30996 0.64053
# Poissons Ratio (z) = 0.26511 0.34142
#
# Static dielectric constant tensor:
#      x y z
#    x 3.717230 0.000000 0.000000 
#    y 0.000000 3.303420 0.000000 
#    z 0.000000 0.000000 3.337210 
# 
# 
# High freq. dielectric constant tensor:
#      x y z
#    x 1.723330 0.000000 0.000000 
#    y 0.000000 1.701050 0.000000 
#    z 0.000000 0.000000 1.710910 
# 
# From -- ./inp_files/35622.got.cif
#   From: 2010.03.12/outbox.cif.g09.slc.cpg/sg51_18_cif.got.tgz:35622.got - 2010.04.16 13:43:02.
