data_PCOD8213604
_publ_section_title
;
Structure prediction by ZEFSAII (Michael W. Deem and Ramdas Pophale) SiO2 
 PCOD8213604
Probable space group: P M M A
;
_chemical_formula_sum "Si O2"
_cell_formula_units_Z 56
_cell_length_a 9.016363
_cell_length_b 21.126993
_cell_length_c 14.847897
_cell_angle_alpha 90.000000
_cell_angle_beta 90.000000
_cell_angle_gamma 90.000000
_cell_volume 2828.355676
_symmetry_space_group_name_H-M "P M M A"
_symmetry_group_IT_number 51
_symmetry_cell_setting 'orthorhombic'
loop_
_space_group_symop_operation_xyz
x,y,z
1/2-x,-y,z
1/2+x,-y,-z
-x,y,-z
-x,-y,-z
1/2+x,y,-z
1/2-x,y,z
x,-y,z
loop_
_atom_site_type_symbol
_atom_site_label
_atom_site_fract_x
_atom_site_fract_y
_atom_site_fract_z
Si Si1 0.583029 0.159977 0.230559
Si Si2 0.083179 0.259946 0.920774
Si Si3 0.074423 0.624797 0.151413
Si Si4 0.579139 0.925992 0.907723
Si Si5 0.916015 0.500000 0.146396
Si Si6 0.074873 0.228395 0.590813
Si Si7 0.412271 0.500000 0.638811
Si Si8 0.072733 0.364832 0.658256
O O1 0.750000 0.132824 0.239900
O O2 0.584473 0.223001 0.171963
O O3 0.483372 0.107297 0.182164
O O4 0.519705 0.182808 0.327559
O O5 0.250000 0.278502 0.948127
O O6 0.977581 0.320786 0.915432
O O7 0.000000 0.219464 0.000000
O O8 0.250000 0.619425 0.157559
O O9 0.006303 0.560422 0.112133
O O10 0.008451 0.642516 0.247877
O O11 0.750000 0.907567 0.918642
O O12 0.555175 0.000000 0.891811
O O13 0.500000 0.904177 0.000000
O O14 0.750000 0.500000 0.105685
O O15 0.907508 0.500000 0.253805
O O16 0.250000 0.222511 0.582912
O O17 0.029820 0.302435 0.601871
O O18 0.000000 0.202635 0.500000
O O19 0.250000 0.500000 0.595199
O O20 0.484905 0.568418 0.610701
O O21 0.250000 0.369106 0.675250
#
# Coordination Sequence:
#
# PCOD8213604 Si02
#       8
#     8   8   8   8   4   8   4   8
#     4  10  21  38  60  84 116 155 195 237 283 336
#     4  11  22  37  54  78 111 145 184 228 279 337
#     4  11  20  31  50  77 104 135 180 231 281 338
#     4  10  21  37  60  93 130 163 195 231 275 331
#     4   9  17  31  50  69  96 138 179 223 283 341
#     4  10  21  37  56  81 113 150 195 246 295 346
#     4   7  12  23  48  73  91 128 176 221 279 345
#     4   9  16  32  52  73 103 141 185 233 291 354
#
# _framework density 19.799489999999999
#
# number of rings (size 3 to 8) (size 9 to 14) (size 15 to 20)
#    0.000    2.143    1.429    3.643    0.000    4.286 
#    0.000    0.714    0.000    0.429    0.000    0.000 
#    0.000    0.000    0.000    0.000    0.000    0.000 
#
# Total GULP energy -693915.658034 kJ/mol
# GULP energy per Si atom -12391.351036 kJ/mol
# Density = 1.975443 g / cm^3
# Si number density = 19.799490 Si / 1000 Ang^3
#
#
#
# Elastic Constant Matrix: (Units=GPa)
#
#
# Indices 1 2 3 4 5 6 
#
# 1 104.1629 44.4721 42.7415 0.0000 0.0000 0.0000
# 2 44.4721 87.1626 41.4099 0.0000 0.0000 0.0000
# 3 42.7415 41.4099 113.4183 0.0000 0.0000 0.0000
# 4 0.0000 0.0000 0.0000 -0.4903 0.0000 0.0000
# 5 0.0000 0.0000 0.0000 0.0000 29.6025 0.0000
# 6 0.0000 0.0000 0.0000 0.0000 0.0000 26.5348
#
#
#
# Elastic Compliance Matrix: (Units=1/GPa)
#
#
# Indices 1 2 3 4 5 6 
#
# 1 0.013074 -0.005238 -0.003014 0.000000 0.000000 0.000000
# 2 -0.005238 0.015979 -0.003860 0.000000 0.000000 0.000000
# 3 -0.003014 -0.003860 0.011362 0.000000 0.000000 0.000000
# 4 0.000000 0.000000 0.000000 -2.039417 0.000000 0.000000
# 5 0.000000 0.000000 0.000000 0.000000 0.033781 0.000000
# 6 0.000000 0.000000 0.000000 0.000000 0.000000 0.037686
#
#
# Mechanical properties :
#
#
# Convention : Reuss Voigt Hill
#
# Bulk Modulus (GPa) = 61.76731 62.44341 62.10536
# Shear Modulus (GPa) = -2.63447 22.87075 10.11814
#
# Velocity S-wave (km/s) = -1.15476 3.40239 2.26305
# Velocity P-wave (km/s) = 5.43012 6.85867 6.18577
#
# Compressibility (1/GPa) = 0.01618979
#
# Stress axis : x y z
#
# Youngs Moduli (GPa) = 76.48932 62.58032 88.01126
#
# Poissons Ratio (x) = 0.32782 0.26528
# Poissons Ratio (y) = 0.40069 0.33973
# Poissons Ratio (z) = 0.23055 0.24157
#
# Static dielectric constant tensor:
#      x y z
#    x 3.530850 0.000000 0.000000 
#    y 0.000000 3.654930 0.000000 
#    z 0.000000 0.000000 3.444090 
# 
# 
# High freq. dielectric constant tensor:
#      x y z
#    x 1.763950 0.000000 0.000000 
#    y 0.000000 1.766090 0.000000 
#    z 0.000000 0.000000 1.755460 
# 
# From -- ./inp_files/21868.got.cif
#   From: 2010.03.12/outbox.cif.g09.slc.cpg/sg51_11_cif.got.tgz:21868.got - 2010.04.16 13:43:02.
