data_PCOD8213579
_publ_section_title
;
Structure prediction by ZEFSAII (Michael W. Deem and Ramdas Pophale) SiO2 
 PCOD8213579
Probable space group: P M M A
;
_chemical_formula_sum "Si O2"
_cell_formula_units_Z 64
_cell_length_a 8.824872
_cell_length_b 14.252375
_cell_length_c 25.734225
_cell_angle_alpha 90.000000
_cell_angle_beta 90.000000
_cell_angle_gamma 90.000000
_cell_volume 3236.732059
_symmetry_space_group_name_H-M "P M M A"
_symmetry_group_IT_number 51
_symmetry_cell_setting 'orthorhombic'
loop_
_space_group_symop_operation_xyz
x,y,z
1/2-x,-y,z
1/2+x,-y,-z
-x,y,-z
-x,-y,-z
1/2+x,y,-z
1/2-x,y,z
x,-y,z
loop_
_atom_site_type_symbol
_atom_site_label
_atom_site_fract_x
_atom_site_fract_y
_atom_site_fract_z
Si Si1 0.429075 0.106870 0.687551
Si Si2 0.074306 0.609222 0.740089
Si Si3 0.572022 0.723606 0.948008
Si Si4 0.919946 0.888897 0.793830
Si Si5 0.574740 0.389879 0.446442
Si Si6 0.071719 0.718591 0.352023
Si Si7 0.071091 0.107436 0.899191
Si Si8 0.577281 0.389751 0.141733
O O1 0.250000 0.115708 0.686675
O O2 0.488054 0.142942 0.743288
O O3 0.502328 0.176214 0.645224
O O4 0.480595 0.000000 0.675806
O O5 0.250000 0.630472 0.728072
O O6 0.040057 0.500000 0.730951
O O7 0.033587 0.637816 0.799219
O O8 0.970671 0.669052 0.701931
O O9 0.750000 0.729366 0.954651
O O10 0.504362 0.828650 0.943201
O O11 0.533068 0.661602 0.898009
O O12 0.500000 0.678081 0.000000
O O13 0.750000 0.846408 0.792835
O O14 0.009697 0.853218 0.844242
O O15 0.912258 0.000000 0.795474
O O16 0.500000 0.355951 0.500000
O O17 0.750000 0.361837 0.447097
O O18 0.551364 0.500000 0.438354
O O19 0.492565 0.339368 0.399605
O O20 0.250000 0.725711 0.357196
O O21 0.250000 0.118971 0.899805
O O22 0.022188 0.000000 0.909033
O O23 0.750000 0.359396 0.130142
O O24 0.557850 0.500000 0.134012
#
# Coordination Sequence:
#
# PCOD8213579 Si02
#       8
#     8   8   8   8   8   8   8   8
#     4  10  21  37  56  79 112 157 205 250 296 346
#     4   9  19  37  60  86 118 155 192 233 286 349
#     4  12  26  42  61  84 112 145 187 238 289 346
#     4   9  17  31  52  79 110 143 183 231 282 338
#     4  10  21  39  63  90 123 162 205 252 300 351
#     4  12  24  35  55  88 125 163 202 246 296 350
#     4  10  21  38  60  84 112 148 187 229 282 344
#     4   9  20  41  66  88 113 147 187 234 290 349
#
# _framework density 19.773029999999999
#
# number of rings (size 3 to 8) (size 9 to 14) (size 15 to 20)
#    0.000    1.875    0.000    4.875    1.750    6.750 
#    0.000    1.250    0.000    0.375    0.000    0.000 
#    0.000    0.000    0.000    0.000    0.000    0.000 
#
# Total GULP energy -793776.054281 kJ/mol
# GULP energy per Si atom -12402.750848 kJ/mol
# Density = 1.972803 g / cm^3
# Si number density = 19.773030 Si / 1000 Ang^3
#
#
#
# Elastic Constant Matrix: (Units=GPa)
#
#
# Indices 1 2 3 4 5 6 
#
# 1 138.2194 39.3579 56.0849 0.0000 0.0000 0.0000
# 2 39.3579 59.0782 41.3246 0.0000 0.0000 0.0000
# 3 56.0849 41.3246 99.1371 0.0000 0.0000 0.0000
# 4 0.0000 0.0000 0.0000 27.7322 0.0000 0.0000
# 5 0.0000 0.0000 0.0000 0.0000 37.5259 0.0000
# 6 0.0000 0.0000 0.0000 0.0000 0.0000 29.5538
#
#
#
# Elastic Compliance Matrix: (Units=1/GPa)
#
#
# Indices 1 2 3 4 5 6 
#
# 1 0.009961 -0.003803 -0.004050 0.000000 0.000000 0.000000
# 2 -0.003803 0.025346 -0.008414 0.000000 0.000000 0.000000
# 3 -0.004050 -0.008414 0.015885 0.000000 0.000000 0.000000
# 4 0.000000 0.000000 0.000000 0.036059 0.000000 0.000000
# 5 0.000000 0.000000 0.000000 0.000000 0.026648 0.000000
# 6 0.000000 0.000000 0.000000 0.000000 0.000000 0.033837
#
#
# Mechanical properties :
#
#
# Convention : Reuss Voigt Hill
#
# Bulk Modulus (GPa) = 53.59443 63.32993 58.46218
# Shear Modulus (GPa) = 26.81120 29.60688 28.20904
#
# Velocity S-wave (km/s) = 3.68631 3.87374 3.78119
# Velocity P-wave (km/s) = 6.72921 7.21843 6.97811
#
# Compressibility (1/GPa) = 0.01865866
#
# Stress axis : x y z
#
# Youngs Moduli (GPa) = 100.38956 39.45461 62.95098
#
# Poissons Ratio (x) = 0.15005 0.25495
# Poissons Ratio (y) = 0.38180 0.52964
# Poissons Ratio (z) = 0.40658 0.33195
#
# Static dielectric constant tensor:
#      x y z
#    x 3.700220 0.000000 0.000000 
#    y 0.000000 3.643140 0.000000 
#    z 0.000000 0.000000 3.573110 
# 
# 
# High freq. dielectric constant tensor:
#      x y z
#    x 1.777810 0.000000 0.000000 
#    y 0.000000 1.771390 0.000000 
#    z 0.000000 0.000000 1.759320 
# 
# From -- ./inp_files/34832.got.cif
#   From: 2010.03.12/outbox.cif.g09.slc.cpg/sg51_18_cif.got.tgz:34832.got - 2010.04.16 13:43:02.
