data_PCOD8213031
_publ_section_title
;
Structure prediction by ZEFSAII (Michael W. Deem and Ramdas Pophale) SiO2 
 PCOD8213031
Probable space group: P M M A
;
_chemical_formula_sum "Si O2"
_cell_formula_units_Z 56
_cell_length_a 14.387104
_cell_length_b 8.865288
_cell_length_c 22.993113
_cell_angle_alpha 90.000000
_cell_angle_beta 90.000000
_cell_angle_gamma 90.000000
_cell_volume 2932.675462
_symmetry_space_group_name_H-M "P M M A"
_symmetry_group_IT_number 51
_symmetry_cell_setting 'orthorhombic'
loop_
_space_group_symop_operation_xyz
x,y,z
1/2-x,-y,z
1/2+x,-y,-z
-x,y,-z
-x,-y,-z
1/2+x,y,-z
1/2-x,y,z
x,-y,z
loop_
_atom_site_type_symbol
_atom_site_label
_atom_site_fract_x
_atom_site_fract_y
_atom_site_fract_z
Si Si1 0.148492 0.179333 0.904257
Si Si2 0.355701 0.176824 0.595701
Si Si3 0.357017 0.828218 0.032420
Si Si4 0.040450 0.179368 0.143064
Si Si5 0.968171 0.323073 0.638519
Si Si6 0.855696 0.327826 0.524765
Si Si7 0.356848 0.179147 0.257046
O O1 0.250000 0.239572 0.883335
O O2 0.068898 0.226340 0.858196
O O3 0.153598 0.000000 0.910407
O O4 0.124988 0.245614 0.968822
O O5 0.250000 0.224362 0.611798
O O6 0.426294 0.260982 0.639307
O O7 0.378042 0.221641 0.529496
O O8 0.370184 0.000000 0.602935
O O9 0.250000 0.816621 0.049771
O O10 0.413978 0.749335 0.084683
O O11 0.390870 0.000000 0.029218
O O12 0.090104 0.244784 0.200286
O O13 0.053095 0.000000 0.143309
O O14 0.968660 0.500000 0.650009
O O15 0.922973 0.280477 0.576797
O O16 0.906870 0.245047 0.687149
O O17 0.750000 0.306991 0.546349
O O18 0.874207 0.500000 0.505162
O O19 0.250000 0.233308 0.255185
O O20 0.363037 0.000000 0.259753
#
# Coordination Sequence:
#
# PCOD8213031 Si02
#       7
#     8   8   8   8   8   8   8
#     4   8  13  20  32  54  84 117 153 194 242 299
#     4  10  21  36  55  81 110 136 164 203 252 303
#     4   8  12  18  31  53  81 114 152 193 241 300
#     4   9  15  24  38  56  84 123 161 197 245 304
#     4  11  22  36  55  76 101 137 177 213 250 295
#     4   9  18  33  53  78 107 137 169 206 251 302
#     4  10  21  35  50  70  97 129 167 212 259 306
#
# _framework density 19.095192000000001
#
# number of rings (size 3 to 8) (size 9 to 14) (size 15 to 20)
#    0.000    2.714    0.000    3.429    0.000    8.000 
#    0.000    2.143    0.000    2.571    0.000    0.000 
#    0.000    2.286    0.000    3.429    0.000    2.857 
#
# Total GULP energy -694095.498547 kJ/mol
# GULP energy per Si atom -12394.562474 kJ/mol
# Density = 1.905173 g / cm^3
# Si number density = 19.095192 Si / 1000 Ang^3
#
#
#
# Elastic Constant Matrix: (Units=GPa)
#
#
# Indices 1 2 3 4 5 6 
#
# 1 153.1177 27.6327 73.7402 0.0000 0.0000 0.0000
# 2 27.6327 14.6087 17.6431 0.0000 0.0000 0.0000
# 3 73.7402 17.6431 72.4191 0.0000 0.0000 0.0000
# 4 0.0000 0.0000 0.0000 -4.8733 0.0000 0.0000
# 5 0.0000 0.0000 0.0000 0.0000 37.1826 0.0000
# 6 0.0000 0.0000 0.0000 0.0000 0.0000 15.2501
#
#
#
# Elastic Compliance Matrix: (Units=1/GPa)
#
#
# Indices 1 2 3 4 5 6 
#
# 1 0.014500 -0.013596 -0.011452 0.000000 0.000000 0.000000
# 2 -0.013596 0.109738 -0.012891 0.000000 0.000000 0.000000
# 3 -0.011452 -0.012891 0.028610 0.000000 0.000000 0.000000
# 4 0.000000 0.000000 0.000000 -0.205198 0.000000 0.000000
# 5 0.000000 0.000000 0.000000 0.000000 0.026894 0.000000
# 6 0.000000 0.000000 0.000000 0.000000 0.000000 0.065573
#
#
# Mechanical properties :
#
#
# Convention : Reuss Voigt Hill
#
# Bulk Modulus (GPa) = 12.99210 53.13085 33.06148
# Shear Modulus (GPa) = 35.29794 17.58717 26.44256
#
# Velocity S-wave (km/s) = 4.30411 3.03813 3.72529
# Velocity P-wave (km/s) = 5.61419 6.33969 5.98794
#
# Compressibility (1/GPa) = 0.07696983
#
# Stress axis : x y z
#
# Youngs Moduli (GPa) = 68.96724 9.11262 34.95300
#
# Poissons Ratio (x) = 0.12389 0.40028
# Poissons Ratio (y) = 0.93767 0.45058
# Poissons Ratio (z) = 0.78980 0.11747
#
# Static dielectric constant tensor:
#      x y z
#    x 3.850470 0.000000 0.000000 
#    y 0.000000 2.966770 0.000000 
#    z 0.000000 0.000000 3.438520 
# 
# 
# High freq. dielectric constant tensor:
#      x y z
#    x 1.764930 0.000000 0.000000 
#    y 0.000000 1.683390 0.000000 
#    z 0.000000 0.000000 1.726640 
# 
# From -- ./inp_files/33323.got.cif
#   From: 2010.03.12/outbox.cif.g09.slc.cpg/sg51_17_cif.got.tgz:33323.got - 2010.04.16 13:43:02.
