data_PCOD8213204
_publ_section_title
;
Structure prediction by ZEFSAII (Michael W. Deem and Ramdas Pophale) SiO2 
 PCOD8213204
Probable space group: P M M A
;
_chemical_formula_sum "Si O2"
_cell_formula_units_Z 48
_cell_length_a 9.108843
_cell_length_b 9.275824
_cell_length_c 31.415134
_cell_angle_alpha 90.000000
_cell_angle_beta 90.000000
_cell_angle_gamma 90.000000
_cell_volume 2654.328272
_symmetry_space_group_name_H-M "P M M A"
_symmetry_group_IT_number 51
_symmetry_cell_setting 'orthorhombic'
loop_
_space_group_symop_operation_xyz
x,y,z
1/2-x,-y,z
1/2+x,-y,-z
-x,y,-z
-x,-y,-z
1/2+x,y,-z
1/2-x,y,z
x,-y,z
loop_
_atom_site_type_symbol
_atom_site_label
_atom_site_fract_x
_atom_site_fract_y
_atom_site_fract_z
Si Si1 0.920301 0.666773 0.796105
Si Si2 0.414615 0.827234 0.540303
Si Si3 0.075828 0.158111 0.630898
Si Si4 0.080801 0.330530 0.881822
Si Si5 0.920240 0.831367 0.956992
Si Si6 0.582708 0.172130 0.276837
O O1 0.750000 0.696711 0.805411
O O2 0.950007 0.500000 0.785830
O O3 0.012727 0.717153 0.836909
O O4 0.970646 0.759854 0.756168
O O5 0.500000 0.761986 0.500000
O O6 0.250000 0.773629 0.533879
O O7 0.476932 0.767252 0.586287
O O8 0.424545 0.000000 0.541297
O O9 0.250000 0.141717 0.627639
O O10 0.038051 0.234817 0.676011
O O11 0.003588 0.000000 0.632822
O O12 0.250000 0.282066 0.882980
O O13 0.063231 0.500000 0.888870
O O14 0.991835 0.251953 0.918300
O O15 0.750000 0.789742 0.960671
O O16 0.942828 0.000000 0.948969
O O17 0.000000 0.781447 0.000000
O O18 0.750000 0.217412 0.265735
O O19 0.568519 0.000000 0.276165
#
# Coordination Sequence:
#
# PCOD8213204 Si02
#       6
#     8   8   8   8   8   8
#     4  10  21  36  52  71  98 130 161 197 243 291
#     4   8  12  18  29  46  71 105 142 177 215 263
#     4   7  11  21  36  54  79 111 145 182 225 272
#     4  10  21  37  57  79 101 129 167 207 245 286
#     4  10  21  37  57  81 109 140 171 203 241 284
#     4   9  17  30  49  71  93 121 159 199 238 283
#
# _framework density 18.083670999999999
#
# number of rings (size 3 to 8) (size 9 to 14) (size 15 to 20)
#    0.000    3.000    0.000    3.500    0.000    4.333 
#    0.000    0.833    0.000    3.000    0.000    0.000 
#    0.000    0.667    0.000    1.500    0.000    4.333 
#
# Total GULP energy -594723.836241 kJ/mol
# GULP energy per Si atom -12390.079922 kJ/mol
# Density = 1.804251 g / cm^3
# Si number density = 18.083671 Si / 1000 Ang^3
#
#
#
# Elastic Constant Matrix: (Units=GPa)
#
#
# Indices 1 2 3 4 5 6 
#
# 1 96.8142 25.8164 71.6541 0.0000 0.0000 0.0000
# 2 25.8164 23.2266 39.6186 0.0000 0.0000 0.0000
# 3 71.6541 39.6186 181.3857 0.0000 0.0000 0.0000
# 4 0.0000 0.0000 0.0000 -52.7744 0.0000 0.0000
# 5 0.0000 0.0000 0.0000 0.0000 35.6928 0.0000
# 6 0.0000 0.0000 0.0000 0.0000 0.0000 21.0945
#
#
#
# Elastic Compliance Matrix: (Units=1/GPa)
#
#
# Indices 1 2 3 4 5 6 
#
# 1 0.016282 -0.011358 -0.003951 0.000000 0.000000 0.000000
# 2 -0.011358 0.076542 -0.012232 0.000000 0.000000 0.000000
# 3 -0.003951 -0.012232 0.009746 0.000000 0.000000 0.000000
# 4 0.000000 0.000000 0.000000 -0.018949 0.000000 0.000000
# 5 0.000000 0.000000 0.000000 0.000000 0.028017 0.000000
# 6 0.000000 0.000000 0.000000 0.000000 0.000000 0.047406
#
#
# Mechanical properties :
#
#
# Convention : Reuss Voigt Hill
#
# Bulk Modulus (GPa) = 21.05770 63.95610 42.50690
# Shear Modulus (GPa) = 21.74335 11.75841 16.75088
#
# Velocity S-wave (km/s) = 3.47129 2.55271 3.04682
# Velocity P-wave (km/s) = 5.26653 6.64319 5.99451
#
# Compressibility (1/GPa) = 0.04748857
#
# Stress axis : x y z
#
# Youngs Moduli (GPa) = 61.41698 13.06465 102.60943
#
# Poissons Ratio (x) = 0.14839 0.40544
# Poissons Ratio (y) = 0.69756 1.25509
# Poissons Ratio (z) = 0.24267 0.15980
#
# Static dielectric constant tensor:
#      x y z
#    x 4.337970 0.000000 0.000000 
#    y 0.000000 2.872130 0.000000 
#    z 0.000000 0.000000 3.826180 
# 
# 
# High freq. dielectric constant tensor:
#      x y z
#    x 1.688120 0.000000 0.000000 
#    y 0.000000 1.647280 0.000000 
#    z 0.000000 0.000000 1.728220 
# 
# From -- ./inp_files/37013.got.cif
#   From: 2010.03.12/outbox.cif.g09.slc.cpg/sg51_19_cif.got.tgz:37013.got - 2010.04.16 13:43:02.
