data_PCOD8213762
_publ_section_title
;
Structure prediction by ZEFSAII (Michael W. Deem and Ramdas Pophale) SiO2 
 PCOD8213762
Probable space group: P M M A
;
_chemical_formula_sum "Si O2"
_cell_formula_units_Z 48
_cell_length_a 15.511650
_cell_length_b 8.351335
_cell_length_c 17.543964
_cell_angle_alpha 90.000000
_cell_angle_beta 90.000000
_cell_angle_gamma 90.000000
_cell_volume 2272.697475
_symmetry_space_group_name_H-M "P M M A"
_symmetry_group_IT_number 51
_symmetry_cell_setting 'orthorhombic'
loop_
_space_group_symop_operation_xyz
x,y,z
1/2-x,-y,z
1/2+x,-y,-z
-x,y,-z
-x,-y,-z
1/2+x,y,-z
1/2-x,y,z
x,-y,z
loop_
_atom_site_type_symbol
_atom_site_label
_atom_site_fract_x
_atom_site_fract_y
_atom_site_fract_z
Si Si1 0.750000 0.685539 0.214200
Si Si2 0.912876 0.684959 0.460000
Si Si3 0.250000 0.314501 0.292804
Si Si4 0.916400 0.184338 0.295397
Si Si5 0.250000 0.182316 0.457842
Si Si6 0.250000 0.184939 0.949563
Si Si7 0.083330 0.185944 0.048057
Si Si8 0.579200 0.313737 0.786810
O O1 0.750000 0.500000 0.237413
O O2 0.666893 0.771923 0.247232
O O3 0.750000 0.701787 0.123497
O O4 0.895927 0.500000 0.479259
O O5 0.922010 0.706498 0.369991
O O6 0.833501 0.786631 0.491093
O O7 0.000000 0.746206 0.500000
O O8 0.250000 0.500000 0.273156
O O9 0.250000 0.291247 0.383191
O O10 0.335926 0.241218 0.254662
O O11 0.998737 0.213017 0.242774
O O12 0.912280 0.000000 0.320244
O O13 0.250000 0.000000 0.430527
O O14 0.250000 0.000000 0.923363
O O15 0.166572 0.226570 0.998600
O O16 0.087888 0.293119 0.123096
O O17 0.079822 0.000000 0.071472
O O18 0.000000 0.236182 0.000000
O O19 0.565395 0.500000 0.766932
#
# Coordination Sequence:
#
# PCOD8213762 Si02
#       8
#     4   8   4   8   4   4   8   8
#     4  12  25  42  65  92 123 160 205 252 303 366
#     4  11  24  43  66  91 123 162 203 250 304 361
#     4  10  23  42  62  88 125 164 202 250 305 358
#     4  12  25  42  64  91 125 161 202 253 306 362
#     4  12  25  40  63  94 125 160 203 250 301 360
#     4  10  21  38  60  88 123 160 200 248 305 364
#     4  10  21  37  58  85 119 159 200 246 302 361
#     4  11  23  40  63  91 123 162 208 254 303 360
#
# _framework density 21.120277000000002
#
# number of rings (size 3 to 8) (size 9 to 14) (size 15 to 20)
#    0.000    1.000    0.000    7.000    0.000    9.000 
#    0.000    0.000    0.000    0.000    0.000    0.000 
#    0.000    0.000    0.000    0.000    0.000    0.000 
#
# Total GULP energy -595624.402742 kJ/mol
# GULP energy per Si atom -12408.841724 kJ/mol
# Density = 2.107221 g / cm^3
# Si number density = 21.120277 Si / 1000 Ang^3
#
#
#
# Elastic Constant Matrix: (Units=GPa)
#
#
# Indices 1 2 3 4 5 6 
#
# 1 186.9423 28.8381 57.6695 0.0000 0.0000 0.0000
# 2 28.8381 60.3376 6.2452 0.0000 0.0000 0.0000
# 3 57.6695 6.2452 125.3471 0.0000 0.0000 0.0000
# 4 0.0000 0.0000 0.0000 32.5905 0.0000 0.0000
# 5 0.0000 0.0000 0.0000 0.0000 30.5236 0.0000
# 6 0.0000 0.0000 0.0000 0.0000 0.0000-1235.4078
#
#
#
# Elastic Compliance Matrix: (Units=1/GPa)
#
#
# Indices 1 2 3 4 5 6 
#
# 1 0.006703 -0.002900 -0.002940 0.000000 0.000000 0.000000
# 2 -0.002900 0.017914 0.000442 0.000000 0.000000 0.000000
# 3 -0.002940 0.000442 0.009308 0.000000 0.000000 0.000000
# 4 0.000000 0.000000 0.000000 0.030684 0.000000 0.000000
# 5 0.000000 0.000000 0.000000 0.000000 0.032762 0.000000
# 6 0.000000 0.000000 0.000000 0.000000 0.000000 -0.000809
#
#
# Mechanical properties :
#
#
# Convention : Reuss Voigt Hill
#
# Bulk Modulus (GPa) = 43.23409 62.01472 52.62440
# Shear Modulus (GPa) = 43.45317 -215.80045 -86.17364
#
# Velocity S-wave (km/s) = 4.54079 -10.11923 -6.39453
# Velocity P-wave (km/s) = 6.92868 10.34917 5.43593
#
# Compressibility (1/GPa) = 0.02312990
#
# Stress axis : x y z
#
# Youngs Moduli (GPa) = 149.17861 55.82363 107.43100
#
# Poissons Ratio (x) = 0.16187 0.31581
# Poissons Ratio (y) = 0.43256 -0.04743
# Poissons Ratio (z) = 0.43853 -0.02465
#
# Static dielectric constant tensor:
#      x y z
#    x 4.081870 0.000000 0.000000 
#    y 0.000000 3.671480 0.000000 
#    z 0.000000 0.000000 3.725200 
# 
# 
# High freq. dielectric constant tensor:
#      x y z
#    x 1.849970 0.000000 0.000000 
#    y 0.000000 1.823040 0.000000 
#    z 0.000000 0.000000 1.838670 
# 
# From -- ./inp_files/29686.got.cif
#   From: 2010.03.12/outbox.cif.g09.slc.cpg/sg51_15_cif.got.tgz:29686.got - 2010.04.16 13:43:02.
