data_PCOD8213384
_publ_section_title
;
Structure prediction by ZEFSAII (Michael W. Deem and Ramdas Pophale) SiO2 
 PCOD8213384
Probable space group: P M M A
;
_chemical_formula_sum "Si O2"
_cell_formula_units_Z 64
_cell_length_a 9.140827
_cell_length_b 23.105535
_cell_length_c 15.076595
_cell_angle_alpha 90.000000
_cell_angle_beta 90.000000
_cell_angle_gamma 90.000000
_cell_volume 3184.232620
_symmetry_space_group_name_H-M "P M M A"
_symmetry_group_IT_number 51
_symmetry_cell_setting 'orthorhombic'
loop_
_space_group_symop_operation_xyz
x,y,z
1/2-x,-y,z
1/2+x,-y,-z
-x,y,-z
-x,-y,-z
1/2+x,y,-z
1/2-x,y,z
x,-y,z
loop_
_atom_site_type_symbol
_atom_site_label
_atom_site_fract_x
_atom_site_fract_y
_atom_site_fract_z
Si Si1 0.921192 0.062622 0.407586
Si Si2 0.915457 0.356397 0.771905
Si Si3 0.085332 0.833708 0.846680
Si Si4 0.575873 0.701929 0.589371
Si Si5 0.918420 0.065303 0.907728
Si Si6 0.081779 0.432007 0.909784
Si Si7 0.414607 0.187103 0.650842
Si Si8 0.085512 0.265938 0.077918
O O1 0.750000 0.066525 0.424456
O O2 0.971855 0.120606 0.356413
O O3 0.000000 0.063822 0.500000
O O4 0.958034 0.000000 0.360093
O O5 0.750000 0.380953 0.767901
O O6 0.969627 0.339437 0.672539
O O7 0.919877 0.298269 0.829104
O O8 0.016654 0.403572 0.820297
O O9 0.250000 0.845529 0.879529
O O10 0.086144 0.799176 0.754586
O O11 0.999443 0.894359 0.836237
O O12 0.999139 0.794714 0.916642
O O13 0.500000 0.676808 0.500000
O O14 0.750000 0.702807 0.578504
O O15 0.521346 0.767870 0.602438
O O16 0.750000 0.083299 0.918512
O O17 0.933646 0.000000 0.873257
O O18 0.000000 0.074392 0.000000
O O19 0.250000 0.413027 0.920066
O O20 0.065303 0.500000 0.895629
O O21 0.000000 0.412546 0.000000
O O22 0.250000 0.194584 0.611791
O O23 0.250000 0.254653 0.046866
O O24 0.000000 0.301488 0.000000
#
# Coordination Sequence:
#
# PCOD8213384 Si02
#       8
#     8   8   8   8   8   8   8   8
#     4   9  18  33  51  72  98 128 167 218 277 344
#     4  10  22  39  60  88 121 160 204 250 296 343
#     4  11  22  35  53  77 105 138 179 229 286 345
#     4  11  23  40  61  87 118 155 199 250 305 359
#     4  10  21  37  55  73  96 131 177 228 283 344
#     4  10  21  37  61  95 134 174 211 248 292 344
#     4  10  21  36  55  79 106 142 186 234 292 353
#     4  11  22  37  55  80 114 151 190 233 286 344
#
# _framework density 20.099034
#
# number of rings (size 3 to 8) (size 9 to 14) (size 15 to 20)
#    0.000    1.750    1.250    3.000    0.000    7.000 
#    0.000    1.250    0.000    1.875    0.000    0.000 
#    0.000    0.000    0.000    0.000    0.000    0.000 
#
# Total GULP energy -793248.918961 kJ/mol
# GULP energy per Si atom -12394.514359 kJ/mol
# Density = 2.005329 g / cm^3
# Si number density = 20.099034 Si / 1000 Ang^3
#
#
#
# Elastic Constant Matrix: (Units=GPa)
#
#
# Indices 1 2 3 4 5 6 
#
# 1 136.2029 52.2954 54.5497 0.0000 0.0000 0.0000
# 2 52.2954 75.8644 35.7132 0.0000 0.0000 0.0000
# 3 54.5497 35.7132 115.5931 0.0000 0.0000 0.0000
# 4 0.0000 0.0000 0.0000 31.8365 0.0000 0.0000
# 5 0.0000 0.0000 0.0000 0.0000 32.2171 0.0000
# 6 0.0000 0.0000 0.0000 0.0000 0.0000 30.9590
#
#
#
# Elastic Compliance Matrix: (Units=1/GPa)
#
#
# Indices 1 2 3 4 5 6 
#
# 1 0.010979 -0.006002 -0.003327 0.000000 0.000000 0.000000
# 2 -0.006002 0.018706 -0.002947 0.000000 0.000000 0.000000
# 3 -0.003327 -0.002947 0.011131 0.000000 0.000000 0.000000
# 4 0.000000 0.000000 0.000000 0.031411 0.000000 0.000000
# 5 0.000000 0.000000 0.000000 0.000000 0.031039 0.000000
# 6 0.000000 0.000000 0.000000 0.000000 0.000000 0.032301
#
#
# Mechanical properties :
#
#
# Convention : Reuss Voigt Hill
#
# Bulk Modulus (GPa) = 61.48152 68.08634 64.78393
# Shear Modulus (GPa) = 30.20423 31.34265 30.77344
#
# Velocity S-wave (km/s) = 3.88076 3.95322 3.91716
# Velocity P-wave (km/s) = 7.12293 7.40177 7.26369
#
# Compressibility (1/GPa) = 0.01626505
#
# Stress axis : x y z
#
# Youngs Moduli (GPa) = 91.08471 53.45884 89.83585
#
# Poissons Ratio (x) = 0.32086 0.29886
# Poissons Ratio (y) = 0.54668 0.26474
# Poissons Ratio (z) = 0.30301 0.15754
#
# Static dielectric constant tensor:
#      x y z
#    x 3.736800 0.000000 0.000000 
#    y 0.000000 3.579010 0.000000 
#    z 0.000000 0.000000 3.559520 
# 
# 
# High freq. dielectric constant tensor:
#      x y z
#    x 1.792070 0.000000 0.000000 
#    y 0.000000 1.771050 0.000000 
#    z 0.000000 0.000000 1.775400 
# 
# From -- ./inp_files/22226.got.cif
#   From: 2010.03.12/outbox.cif.g09.slc.cpg/sg51_12_cif.got.tgz:22226.got - 2010.04.16 13:43:02.
