data_PCOD8213631
_publ_section_title
;
Structure prediction by ZEFSAII (Michael W. Deem and Ramdas Pophale) SiO2 
 PCOD8213631
Probable space group: P M M A
;
_chemical_formula_sum "Si O2"
_cell_formula_units_Z 56
_cell_length_a 8.988651
_cell_length_b 14.383375
_cell_length_c 23.563393
_cell_angle_alpha 90.000000
_cell_angle_beta 90.000000
_cell_angle_gamma 90.000000
_cell_volume 3046.443644
_symmetry_space_group_name_H-M "P M M A"
_symmetry_group_IT_number 51
_symmetry_cell_setting 'orthorhombic'
loop_
_space_group_symop_operation_xyz
x,y,z
1/2-x,-y,z
1/2+x,-y,-z
-x,y,-z
-x,-y,-z
1/2+x,y,-z
1/2-x,y,z
x,-y,z
loop_
_atom_site_type_symbol
_atom_site_label
_atom_site_fract_x
_atom_site_fract_y
_atom_site_fract_z
Si Si1 0.077618 0.108461 0.942115
Si Si2 0.074730 0.393594 0.653705
Si Si3 0.925270 0.893594 0.346295
Si Si4 0.077619 0.391539 0.942115
Si Si5 0.576053 0.250000 0.864115
Si Si6 0.422672 0.250000 0.559916
Si Si7 0.423223 0.750000 0.268567
O O1 0.250000 0.136382 0.945285
O O2 0.999332 0.158377 0.889670
O O3 0.054709 0.000000 0.932069
O O4 0.000000 0.141663 0.000000
O O5 0.250000 0.386115 0.664472
O O6 0.020915 0.500000 0.649762
O O7 0.030917 0.341774 0.595278
O O8 0.994442 0.343527 0.705996
O O9 0.750000 0.886115 0.335528
O O10 0.969083 0.841774 0.404722
O O11 0.005558 0.843527 0.294004
O O12 0.979085 0.000000 0.350238
O O13 0.250000 0.363616 0.945285
O O14 0.054711 0.500000 0.932069
O O15 0.999332 0.341623 0.889670
O O16 0.000000 0.358337 0.000000
O O17 0.750000 0.250000 0.878149
O O18 0.544262 0.250000 0.797733
O O19 0.500000 0.250000 0.500000
O O20 0.250000 0.250000 0.547298
O O21 0.250000 0.750000 0.282903
#
# Coordination Sequence:
#
# PCOD8213631 Si02
#       7
#     8   8   8   8   8   8   8
#     4  10  21  37  57  80 106 137 174 216 262 314
#     4   9  19  37  58  77 103 142 181 217 261 311
#     4   9  19  37  58  77 103 142 181 217 261 311
#     4  10  21  37  57  80 106 137 174 216 262 314
#     4  11  23  37  54  77 108 142 173 213 265 317
#     4   9  18  32  51  79 112 141 173 214 258 308
#     4  10  22  37  53  78 108 137 174 221 268 311
#
# _framework density 18.382089000000001
#
# number of rings (size 3 to 8) (size 9 to 14) (size 15 to 20)
#    0.000    2.286    0.000    3.000    0.000    8.571 
#    0.000    5.714    0.000    0.000    0.000    0.000 
#    0.000    0.000    0.000    0.000    0.000    0.000 
#
# Total GULP energy -694542.651096 kJ/mol
# GULP energy per Si atom -12402.547341 kJ/mol
# Density = 1.834025 g / cm^3
# Si number density = 18.382089 Si / 1000 Ang^3
#
#
#
# Elastic Constant Matrix: (Units=GPa)
#
#
# Indices 1 2 3 4 5 6 
#
# 1 101.6209 58.8536 80.0196 0.0000 0.0000 0.0000
# 2 58.8536 155.2132 78.4788 0.0000 0.0000 0.0000
# 3 80.0196 78.4788 144.0055 0.0000 0.0000 0.0000
# 4 0.0000 0.0000 0.0000 16.1246 0.0000 0.0000
# 5 0.0000 0.0000 0.0000 0.0000 37.2982 0.0000
# 6 0.0000 0.0000 0.0000 0.0000 0.0000 22.3292
#
#
#
# Elastic Compliance Matrix: (Units=1/GPa)
#
#
# Indices 1 2 3 4 5 6 
#
# 1 0.018152 -0.002461 -0.008745 0.000000 0.000000 0.000000
# 2 -0.002461 0.009227 -0.003661 0.000000 0.000000 0.000000
# 3 -0.008745 -0.003661 0.013799 0.000000 0.000000 0.000000
# 4 0.000000 0.000000 0.000000 0.062017 0.000000 0.000000
# 5 0.000000 0.000000 0.000000 0.000000 0.026811 0.000000
# 6 0.000000 0.000000 0.000000 0.000000 0.000000 0.044784
#
#
# Mechanical properties :
#
#
# Convention : Reuss Voigt Hill
#
# Bulk Modulus (GPa) = 87.38787 92.83819 90.11303
# Shear Modulus (GPa) = 23.99925 27.38290 25.69108
#
# Velocity S-wave (km/s) = 3.61720 3.86379 3.74252
# Velocity P-wave (km/s) = 8.06774 8.39759 8.23431
#
# Compressibility (1/GPa) = 0.01144324
#
# Stress axis : x y z
#
# Youngs Moduli (GPa) = 55.08943 108.37818 72.46984
#
# Poissons Ratio (x) = 0.26673 0.63378
# Poissons Ratio (y) = 0.13558 0.26530
# Poissons Ratio (z) = 0.48178 0.39676
#
# Static dielectric constant tensor:
#      x y z
#    x 3.118760 0.000000 0.000000 
#    y 0.000000 3.690970 0.000000 
#    z 0.000000 0.000000 3.309090 
# 
# 
# High freq. dielectric constant tensor:
#      x y z
#    x 1.719540 0.000000 0.000000 
#    y 0.000000 1.723130 0.000000 
#    z 0.000000 0.000000 1.710220 
# 
# From -- ./inp_files/31948.got.cif
#   From: 2010.03.12/outbox.cif.g09.slc.cpg/sg51_16_cif.got.tgz:31948.got - 2010.04.16 13:43:02.
