data_PCOD8213728
_publ_section_title
;
Structure prediction by ZEFSAII (Michael W. Deem and Ramdas Pophale) SiO2 
 PCOD8213728
Probable space group: P M M A
;
_chemical_formula_sum "Si O2"
_cell_formula_units_Z 48
_cell_length_a 8.904402
_cell_length_b 14.848668
_cell_length_c 19.077217
_cell_angle_alpha 90.000000
_cell_angle_beta 90.000000
_cell_angle_gamma 90.000000
_cell_volume 2522.361188
_symmetry_space_group_name_H-M "P M M A"
_symmetry_group_IT_number 51
_symmetry_cell_setting 'orthorhombic'
loop_
_space_group_symop_operation_xyz
x,y,z
1/2-x,-y,z
1/2+x,-y,-z
-x,y,-z
-x,-y,-z
1/2+x,y,-z
1/2-x,y,z
x,-y,z
loop_
_atom_site_type_symbol
_atom_site_label
_atom_site_fract_x
_atom_site_fract_y
_atom_site_fract_z
Si Si1 0.926328 0.101023 0.071500
Si Si2 0.574938 0.604476 0.572968
Si Si3 0.425450 0.740812 0.828864
Si Si4 0.425710 0.603802 0.071564
Si Si5 0.427161 0.250247 0.666903
Si Si6 0.925606 0.104279 0.573001
O O1 0.750000 0.102735 0.060039
O O2 0.975699 0.166246 0.134348
O O3 0.982378 0.000000 0.089782
O O4 0.000000 0.136342 0.000000
O O5 0.500000 0.632880 0.500000
O O6 0.750000 0.628344 0.568895
O O7 0.547243 0.500000 0.589495
O O8 0.496886 0.659841 0.634348
O O9 0.250000 0.722406 0.839119
O O10 0.513810 0.657507 0.861796
O O11 0.469647 0.749121 0.748186
O O12 0.250000 0.618767 0.064419
O O13 0.468473 0.500000 0.083886
O O14 0.500000 0.640186 0.000000
O O15 0.250000 0.248715 0.654030
O O16 0.499666 0.160868 0.634715
O O17 0.750000 0.125833 0.568435
O O18 0.000000 0.133627 0.500000
O O19 0.957252 0.000000 0.589308
#
# Coordination Sequence:
#
# PCOD8213728 Si02
#       6
#     8   8   8   8   8   8
#     4   9  18  34  55  78 104 135 174 218 262 310
#     4  10  21  38  60  83 108 141 182 227 273 324
#     4  10  22  37  54  79 110 146 183 220 267 320
#     4  10  21  37  58  82 108 141 181 226 274 323
#     4  11  23  37  55  81 114 149 183 224 275 329
#     4  10  21  38  60  84 110 143 185 231 276 325
#
# _framework density 19.029788
#
# number of rings (size 3 to 8) (size 9 to 14) (size 15 to 20)
#    0.000    2.000    0.000    3.000    0.000    7.667 
#    0.000    5.000    0.000    2.000    0.000    0.000 
#    0.000    0.000    0.000    0.000    0.000    0.000 
#
# Total GULP energy -595442.889456 kJ/mol
# GULP energy per Si atom -12405.060197 kJ/mol
# Density = 1.898648 g / cm^3
# Si number density = 19.029788 Si / 1000 Ang^3
#
#
#
# Elastic Constant Matrix: (Units=GPa)
#
#
# Indices 1 2 3 4 5 6 
#
# 1 96.7049 57.5093 75.2520 0.0000 0.0000 0.0000
# 2 57.5093 110.5878 87.1011 0.0000 0.0000 0.0000
# 3 75.2520 87.1011 167.4576 0.0000 0.0000 0.0000
# 4 0.0000 0.0000 0.0000 17.1389 0.0000 0.0000
# 5 0.0000 0.0000 0.0000 0.0000 34.3319 0.0000
# 6 0.0000 0.0000 0.0000 0.0000 0.0000 31.3535
#
#
#
# Elastic Compliance Matrix: (Units=1/GPa)
#
#
# Indices 1 2 3 4 5 6 
#
# 1 0.017325 -0.004874 -0.005250 0.000000 0.000000 0.000000
# 2 -0.004874 0.016689 -0.006490 0.000000 0.000000 0.000000
# 3 -0.005250 -0.006490 0.011707 0.000000 0.000000 0.000000
# 4 0.000000 0.000000 0.000000 0.058347 0.000000 0.000000
# 5 0.000000 0.000000 0.000000 0.000000 0.029127 0.000000
# 6 0.000000 0.000000 0.000000 0.000000 0.000000 0.031894
#
#
# Mechanical properties :
#
#
# Convention : Reuss Voigt Hill
#
# Bulk Modulus (GPa) = 80.05502 90.49725 85.27613
# Shear Modulus (GPa) = 24.69343 26.89073 25.79208
#
# Velocity S-wave (km/s) = 3.60616 3.76318 3.68551
# Velocity P-wave (km/s) = 7.71354 8.15726 7.93850
#
# Compressibility (1/GPa) = 0.01249141
#
# Stress axis : x y z
#
# Youngs Moduli (GPa) = 57.72031 59.91847 85.42063
#
# Poissons Ratio (x) = 0.29207 0.44846
# Poissons Ratio (y) = 0.28136 0.55440
# Poissons Ratio (z) = 0.30304 0.38889
#
# Static dielectric constant tensor:
#      x y z
#    x 3.516840 0.000000 0.000000 
#    y 0.000000 3.628700 0.000000 
#    z 0.000000 0.000000 3.481850 
# 
# 
# High freq. dielectric constant tensor:
#      x y z
#    x 1.747790 0.000000 0.000000 
#    y 0.000000 1.752720 0.000000 
#    z 0.000000 0.000000 1.735860 
# 
# From -- ./inp_files/27568.got.cif
#   From: 2010.03.12/outbox.cif.g09.slc.cpg/sg51_14_cif.got.tgz:27568.got - 2010.04.16 13:43:02.
