data_PCOD8213652
_publ_section_title
;
Structure prediction by ZEFSAII (Michael W. Deem and Ramdas Pophale) SiO2 
 PCOD8213652
Probable space group: P M M A
;
_chemical_formula_sum "Si O2"
_cell_formula_units_Z 64
_cell_length_a 16.353148
_cell_length_b 9.136131
_cell_length_c 22.048673
_cell_angle_alpha 90.000000
_cell_angle_beta 90.000000
_cell_angle_gamma 90.000000
_cell_volume 3294.171018
_symmetry_space_group_name_H-M "P M M A"
_symmetry_group_IT_number 51
_symmetry_cell_setting 'orthorhombic'
loop_
_space_group_symop_operation_xyz
x,y,z
1/2-x,-y,z
1/2+x,-y,-z
-x,y,-z
-x,-y,-z
1/2+x,y,-z
1/2-x,y,z
x,-y,z
loop_
_atom_site_type_symbol
_atom_site_label
_atom_site_fract_x
_atom_site_fract_y
_atom_site_fract_z
Si Si1 0.842614 0.329638 0.641551
Si Si2 0.656158 0.326511 0.352062
Si Si3 0.155325 0.166278 0.770892
Si Si4 0.095664 0.672219 0.119876
Si Si5 0.343875 0.164801 0.233970
Si Si6 0.067637 0.172992 0.893501
Si Si7 0.341424 0.840758 0.013046
Si Si8 0.997323 0.673348 0.432153
O O1 0.750000 0.300819 0.614998
O O2 0.851712 0.500000 0.658030
O O3 0.856297 0.235383 0.700991
O O4 0.915593 0.279151 0.597001
O O5 0.750000 0.276783 0.370349
O O6 0.653300 0.500000 0.348379
O O7 0.631319 0.265302 0.286405
O O8 0.585455 0.268456 0.398368
O O9 0.250000 0.179816 0.786049
O O10 0.109557 0.222261 0.830774
O O11 0.131119 0.000000 0.754876
O O12 0.102849 0.500000 0.125980
O O13 0.107705 0.740526 0.185817
O O14 0.158487 0.729266 0.069383
O O15 0.009757 0.726448 0.095849
O O16 0.250000 0.163820 0.214366
O O17 0.379181 0.000000 0.235261
O O18 0.048752 0.000000 0.892330
O O19 0.118153 0.220151 0.952235
O O20 0.250000 0.865448 0.992874
O O21 0.379448 0.000000 0.032140
O O22 0.991688 0.500000 0.433906
O O23 0.000000 0.738681 0.500000
#
# Coordination Sequence:
#
# PCOD8213652 Si02
#       8
#     8   8   8   8   8   8   8   8
#     4   9  18  33  54  81 112 145 184 233 283 329
#     4   9  18  32  51  77 110 145 182 226 275 326
#     4   9  18  34  56  81 107 137 177 224 273 324
#     4  12  25  37  53  80 113 145 179 224 276 329
#     4  10  21  38  59  81 106 140 183 229 279 334
#     4  10  21  37  57  81 108 141 181 224 271 327
#     4  10  21  39  61  80 103 140 185 230 274 325
#     4   9  18  32  52  80 112 146 186 228 271 327
#
# _framework density 19.428256999999999
#
# number of rings (size 3 to 8) (size 9 to 14) (size 15 to 20)
#    0.000    2.250    0.000    2.625    1.750    7.000 
#    0.000    2.500    0.000    3.750    0.000    3.500 
#    0.000    0.000    0.000    0.000    0.000    0.000 
#
# Total GULP energy -793215.896746 kJ/mol
# GULP energy per Si atom -12393.998387 kJ/mol
# Density = 1.938404 g / cm^3
# Si number density = 19.428257 Si / 1000 Ang^3
#
#
#
# Elastic Constant Matrix: (Units=GPa)
#
#
# Indices 1 2 3 4 5 6 
#
# 1 106.6700 28.5853 56.2404 0.0000 0.0000 0.0000
# 2 28.5853 71.9264 40.4710 0.0000 0.0000 0.0000
# 3 56.2404 40.4710 113.8953 0.0000 0.0000 0.0000
# 4 0.0000 0.0000 0.0000 19.5282 0.0000 0.0000
# 5 0.0000 0.0000 0.0000 0.0000 38.2441 0.0000
# 6 0.0000 0.0000 0.0000 0.0000 0.0000 17.9933
#
#
#
# Elastic Compliance Matrix: (Units=1/GPa)
#
#
# Indices 1 2 3 4 5 6 
#
# 1 0.012884 -0.001926 -0.005678 0.000000 0.000000 0.000000
# 2 -0.001926 0.017665 -0.005326 0.000000 0.000000 0.000000
# 3 -0.005678 -0.005326 0.013476 0.000000 0.000000 0.000000
# 4 0.000000 0.000000 0.000000 0.051208 0.000000 0.000000
# 5 0.000000 0.000000 0.000000 0.000000 0.026148 0.000000
# 6 0.000000 0.000000 0.000000 0.000000 0.000000 0.055576
#
#
# Mechanical properties :
#
#
# Convention : Reuss Voigt Hill
#
# Bulk Modulus (GPa) = 55.04703 60.34279 57.69491
# Shear Modulus (GPa) = 23.93796 26.29945 25.11870
#
# Velocity S-wave (km/s) = 3.51397 3.68322 3.59959
# Velocity P-wave (km/s) = 6.69768 7.01533 6.85834
#
# Compressibility (1/GPa) = 0.01816628
#
# Stress axis : x y z
#
# Youngs Moduli (GPa) = 77.61343 56.60798 74.20461
#
# Poissons Ratio (x) = 0.10901 0.42132
# Poissons Ratio (y) = 0.14947 0.39523
# Poissons Ratio (z) = 0.44068 0.30150
#
# Static dielectric constant tensor:
#      x y z
#    x 3.817920 0.000000 0.000000 
#    y 0.000000 3.376520 0.000000 
#    z 0.000000 0.000000 3.588580 
# 
# 
# High freq. dielectric constant tensor:
#      x y z
#    x 1.768670 0.000000 0.000000 
#    y 0.000000 1.731260 0.000000 
#    z 0.000000 0.000000 1.756640 
# 
# From -- ./inp_files/35753.got.cif
#   From: 2010.03.12/outbox.cif.g09.slc.cpg/sg51_18_cif.got.tgz:35753.got - 2010.04.16 13:43:02.
