data_PCOD8213414
_publ_section_title
;
Structure prediction by ZEFSAII (Michael W. Deem and Ramdas Pophale) SiO2 
 PCOD8213414
Probable space group: P M M A
;
_chemical_formula_sum "Si O2"
_cell_formula_units_Z 48
_cell_length_a 9.685017
_cell_length_b 9.269957
_cell_length_c 28.614118
_cell_angle_alpha 90.000000
_cell_angle_beta 90.000000
_cell_angle_gamma 90.000000
_cell_volume 2568.966676
_symmetry_space_group_name_H-M "P M M A"
_symmetry_group_IT_number 51
_symmetry_cell_setting 'orthorhombic'
loop_
_space_group_symop_operation_xyz
x,y,z
1/2-x,-y,z
1/2+x,-y,-z
-x,y,-z
-x,-y,-z
1/2+x,y,-z
1/2-x,y,z
x,-y,z
loop_
_atom_site_type_symbol
_atom_site_label
_atom_site_fract_x
_atom_site_fract_y
_atom_site_fract_z
Si Si1 0.092812 0.834101 0.775370
Si Si2 0.462157 0.334014 0.400021
Si Si3 0.589659 0.669801 0.955385
Si Si4 0.906464 0.830281 0.117642
Si Si5 0.250000 0.828220 0.461655
Si Si6 0.250000 0.338720 0.555427
Si Si7 0.091642 0.335369 0.296307
O O1 0.250000 0.806409 0.760304
O O2 0.070434 0.785417 0.828721
O O3 0.995509 0.746060 0.741875
O O4 0.053165 0.000000 0.769944
O O5 0.410780 0.500000 0.404510
O O6 0.385103 0.234735 0.437204
O O7 0.622480 0.318359 0.410174
O O8 0.432583 0.273042 0.348288
O O9 0.750000 0.717009 0.961573
O O10 0.578935 0.500000 0.947337
O O11 0.522786 0.746987 0.911032
O O12 0.500000 0.718361 0.000000
O O13 0.750000 0.787028 0.102273
O O14 0.927261 0.000000 0.110561
O O15 0.250000 0.780498 0.515381
O O16 0.250000 0.000000 0.458990
O O17 0.250000 0.500000 0.532881
O O18 0.250000 0.317870 0.282075
O O19 0.042809 0.500000 0.295870
#
# Coordination Sequence:
#
# PCOD8213414 Si02
#       7
#     8   8   8   8   4   4   8
#     4   9  20  38  58  82 113 148 184 225 276 333
#     4  10  21  40  61  82 110 145 185 227 272 327
#     4  10  21  36  55  81 113 149 189 235 285 335
#     4   9  19  37  58  80 110 148 189 230 274 330
#     4  12  24  38  58  84 116 148 180 222 275 330
#     4  10  22  38  62  86 106 144 188 226 273 328
#     4  10  21  37  58  83 111 142 182 231 274 321
#
# _framework density 18.684555
#
# number of rings (size 3 to 8) (size 9 to 14) (size 15 to 20)
#    0.000    2.167    0.833    2.750    1.167    7.000 
#    0.000    5.000    0.000    0.000    0.000    0.000 
#    0.000    0.000    0.000    0.000    0.000    0.000 
#
# Total GULP energy -595266.979423 kJ/mol
# GULP energy per Si atom -12401.395405 kJ/mol
# Density = 1.864203 g / cm^3
# Si number density = 18.684555 Si / 1000 Ang^3
#
#
#
# Elastic Constant Matrix: (Units=GPa)
#
#
# Indices 1 2 3 4 5 6 
#
# 1 97.1232 34.9382 34.7775 0.0000 0.0000 0.0000
# 2 34.9382 60.5968 34.8841 0.0000 0.0000 0.0000
# 3 34.7775 34.8841 83.2641 0.0000 0.0000 0.0000
# 4 0.0000 0.0000 0.0000 135.2923 0.0000 0.0000
# 5 0.0000 0.0000 0.0000 0.0000 39.7170 0.0000
# 6 0.0000 0.0000 0.0000 0.0000 0.0000 28.9961
#
#
#
# Elastic Compliance Matrix: (Units=1/GPa)
#
#
# Indices 1 2 3 4 5 6 
#
# 1 0.013592 -0.006020 -0.003155 0.000000 0.000000 0.000000
# 2 -0.006020 0.024415 -0.007714 0.000000 0.000000 0.000000
# 3 -0.003155 -0.007714 0.016559 0.000000 0.000000 0.000000
# 4 0.000000 0.000000 0.000000 0.007391 0.000000 0.000000
# 5 0.000000 0.000000 0.000000 0.000000 0.025178 0.000000
# 6 0.000000 0.000000 0.000000 0.000000 0.000000 0.034487
#
#
# Mechanical properties :
#
#
# Convention : Reuss Voigt Hill
#
# Bulk Modulus (GPa) = 48.10614 50.02041 49.06327
# Shear Modulus (GPa) = 30.80154 49.89337 40.34746
#
# Velocity S-wave (km/s) = 4.06458 5.17310 4.65198
# Velocity P-wave (km/s) = 6.91593 7.90635 7.42767
#
# Compressibility (1/GPa) = 0.02078737
#
# Stress axis : x y z
#
# Youngs Moduli (GPa) = 73.57534 40.95926 60.38858
#
# Poissons Ratio (x) = 0.24659 0.19050
# Poissons Ratio (y) = 0.44296 0.46584
# Poissons Ratio (z) = 0.23210 0.31596
#
# Static dielectric constant tensor:
#      x y z
#    x 3.521780 0.000000 0.000000 
#    y 0.000000 3.298370 0.000000 
#    z 0.000000 0.000000 3.692420 
# 
# 
# High freq. dielectric constant tensor:
#      x y z
#    x 1.737790 0.000000 0.000000 
#    y 0.000000 1.712080 0.000000 
#    z 0.000000 0.000000 1.730510 
# 
# From -- ./inp_files/37233.got.cif
#   From: 2010.03.12/outbox.cif.g09.slc.cpg/sg51_19_cif.got.tgz:37233.got - 2010.04.16 13:43:02.
