data_PCOD8213086
_publ_section_title
;
Structure prediction by ZEFSAII (Michael W. Deem and Ramdas Pophale) SiO2 
 PCOD8213086
Probable space group: P M M A
;
_chemical_formula_sum "Si O2"
_cell_formula_units_Z 48
_cell_length_a 8.901101
_cell_length_b 30.599691
_cell_length_c 9.146267
_cell_angle_alpha 90.000000
_cell_angle_beta 90.000000
_cell_angle_gamma 90.000000
_cell_volume 2491.177342
_symmetry_space_group_name_H-M "P M M A"
_symmetry_group_IT_number 51
_symmetry_cell_setting 'orthorhombic'
loop_
_space_group_symop_operation_xyz
x,y,z
1/2-x,-y,z
1/2+x,-y,-z
-x,y,-z
-x,-y,-z
1/2+x,y,-z
1/2-x,y,z
x,-y,z
loop_
_atom_site_type_symbol
_atom_site_label
_atom_site_fract_x
_atom_site_fract_y
_atom_site_fract_z
Si Si1 0.076185 0.338069 0.652752
Si Si2 0.426479 0.161617 0.848285
Si Si3 0.927232 0.000000 0.156788
Si Si4 0.572835 0.917777 0.344475
Si Si5 0.569867 0.500000 0.660044
Si Si6 0.927179 0.259956 0.152800
Si Si7 0.573031 0.577386 0.158677
O O1 0.250000 0.333849 0.617847
O O2 0.014302 0.292697 0.721328
O O3 0.043669 0.375810 0.769246
O O4 0.000000 0.349010 0.500000
O O5 0.250000 0.158173 0.871550
O O6 0.481657 0.128243 0.723956
O O7 0.474648 0.210713 0.802406
O O8 0.500000 0.147565 0.000000
O O9 0.982862 0.957126 0.242246
O O10 0.750000 0.000000 0.137733
O O11 0.000000 0.000000 0.000000
O O12 0.500000 0.924020 0.500000
O O13 0.750000 0.918905 0.364019
O O14 0.750000 0.500000 0.650858
O O15 0.500000 0.500000 0.500000
O O16 0.512419 0.542381 0.743668
O O17 0.750000 0.264578 0.132714
O O18 0.000000 0.273632 0.000000
O O19 0.750000 0.566261 0.148643
O O20 0.500000 0.577323 0.000000
#
# Coordination Sequence:
#
# PCOD8213086 Si02
#       7
#     8   8   4   8   4   8   8
#     4  10  22  37  55  80 111 144 180 222 270 320
#     4   9  18  33  53  76 104 136 175 218 262 313
#     4  10  21  36  54  76 102 132 173 218 262 312
#     4  10  21  35  51  75 105 137 172 215 262 313
#     4  12  25  42  63  88 118 150 184 226 273 322
#     4   9  18  34  54  78 106 138 176 220 265 314
#     4  11  23  40  61  86 114 147 186 227 271 322
#
# _framework density 19.267999
#
# number of rings (size 3 to 8) (size 9 to 14) (size 15 to 20)
#    0.000    2.000    0.000    3.250    0.000    5.333 
#    0.000    0.000    0.000    0.000    0.000    0.000 
#    0.000    0.000    0.000    0.000    0.000    0.000 
#
# Total GULP energy -595296.517624 kJ/mol
# GULP energy per Si atom -12402.010784 kJ/mol
# Density = 1.922414 g / cm^3
# Si number density = 19.267999 Si / 1000 Ang^3
#
#
#
# Elastic Constant Matrix: (Units=GPa)
#
#
# Indices 1 2 3 4 5 6 
#
# 1 63.5322 49.9919 59.6402 0.0000 0.0000 0.0000
# 2 49.9919 129.9736 80.8134 0.0000 0.0000 0.0000
# 3 59.6402 80.8134 170.4002 0.0000 0.0000 0.0000
# 4 0.0000 0.0000 0.0000 182.1468 0.0000 0.0000
# 5 0.0000 0.0000 0.0000 0.0000 39.4119 0.0000
# 6 0.0000 0.0000 0.0000 0.0000 0.0000 9.9346
#
#
#
# Elastic Compliance Matrix: (Units=1/GPa)
#
#
# Indices 1 2 3 4 5 6 
#
# 1 0.026655 -0.006313 -0.006335 0.000000 0.000000 0.000000
# 2 -0.006313 0.012407 -0.003674 0.000000 0.000000 0.000000
# 3 -0.006335 -0.003674 0.009828 0.000000 0.000000 0.000000
# 4 0.000000 0.000000 0.000000 0.005490 0.000000 0.000000
# 5 0.000000 0.000000 0.000000 0.000000 0.025373 0.000000
# 6 0.000000 0.000000 0.000000 0.000000 0.000000 0.100658
#
#
# Mechanical properties :
#
#
# Convention : Reuss Voigt Hill
#
# Bulk Modulus (GPa) = 61.55920 82.75522 72.15721
# Shear Modulus (GPa) = 22.88628 57.86268 40.37448
#
# Velocity S-wave (km/s) = 3.45017 5.48595 4.58254
# Velocity P-wave (km/s) = 6.92025 9.11978 8.09507
#
# Compressibility (1/GPa) = 0.01624453
#
# Stress axis : x y z
#
# Youngs Moduli (GPa) = 37.51670 80.60135 101.74611
#
# Poissons Ratio (x) = 0.50886 0.64457
# Poissons Ratio (y) = 0.23685 0.37385
# Poissons Ratio (z) = 0.23767 0.29615
#
# Static dielectric constant tensor:
#      x y z
#    x 3.477750 0.000000 0.000000 
#    y 0.000000 3.962360 0.000000 
#    z 0.000000 0.000000 3.383870 
# 
# 
# High freq. dielectric constant tensor:
#      x y z
#    x 1.743490 0.000000 0.000000 
#    y 0.000000 1.769530 0.000000 
#    z 0.000000 0.000000 1.754590 
# 
# From -- ./inp_files/6185.got.cif
#   From: 2010.03.12/outbox.cif.g09.slc.cpg/sg51_4_cif.got.tgz:6185.got - 2010.04.16 13:43:02.
