data_PCOD8213816
_publ_section_title
;
Structure prediction by ZEFSAII (Michael W. Deem and Ramdas Pophale) SiO2 
 PCOD8213816
Probable space group: P M M A
;
_chemical_formula_sum "Si O2"
_cell_formula_units_Z 56
_cell_length_a 8.832667
_cell_length_b 20.742775
_cell_length_c 15.199178
_cell_angle_alpha 90.000000
_cell_angle_beta 90.000000
_cell_angle_gamma 90.000000
_cell_volume 2784.702566
_symmetry_space_group_name_H-M "P M M A"
_symmetry_group_IT_number 51
_symmetry_cell_setting 'orthorhombic'
loop_
_space_group_symop_operation_xyz
x,y,z
1/2-x,-y,z
1/2+x,-y,-z
-x,y,-z
-x,-y,-z
1/2+x,y,-z
1/2-x,y,z
x,-y,z
loop_
_atom_site_type_symbol
_atom_site_label
_atom_site_fract_x
_atom_site_fract_y
_atom_site_fract_z
Si Si1 0.928058 0.625756 0.660828
Si Si2 0.074605 0.075006 0.408349
Si Si3 0.080087 0.262744 0.579297
Si Si4 0.071565 0.500000 0.595071
Si Si5 0.578737 0.836279 0.268658
Si Si6 0.068569 0.500000 0.095105
Si Si7 0.927662 0.769699 0.090794
Si Si8 0.071043 0.632670 0.837612
O O1 0.750000 0.613728 0.664295
O O2 0.974063 0.673852 0.583154
O O3 0.016063 0.559616 0.651005
O O4 0.994659 0.657523 0.748612
O O5 0.250000 0.090731 0.417825
O O6 0.000000 0.099119 0.500000
O O7 0.015669 0.108806 0.318949
O O8 0.040471 0.000000 0.394789
O O9 0.250000 0.282031 0.553964
O O10 0.076577 0.226078 0.670404
O O11 0.000000 0.222012 0.500000
O O12 0.250000 0.500000 0.585009
O O13 0.000000 0.500000 0.500000
O O14 0.750000 0.861876 0.257112
O O15 0.511278 0.812969 0.173776
O O16 0.250000 0.500000 0.094674
O O17 0.010477 0.565809 0.138488
O O18 0.000000 0.500000 0.000000
O O19 0.750000 0.780664 0.086638
O O20 0.962416 0.692841 0.097577
O O21 0.000000 0.795415 0.000000
O O22 0.250000 0.620467 0.827850
#
# Coordination Sequence:
#
# PCOD8213816 Si02
#       8
#     8   8   8   4   8   4   8   8
#     4  12  24  39  58  82 109 144 191 239 292 359
#     4  10  21  37  60  94 133 171 209 248 294 350
#     4  11  22  38  57  83 118 154 194 241 293 351
#     4  12  25  42  59  76 104 144 190 241 298 357
#     4  10  21  39  61  88 123 161 204 249 296 352
#     4  12  25  40  57  84 112 144 190 243 306 377
#     4  10  22  40  62  89 120 156 201 253 308 367
#     4  11  22  41  62  83 113 150 192 248 310 368
#
# _framework density 20.109867999999999
#
# number of rings (size 3 to 8) (size 9 to 14) (size 15 to 20)
#    0.000    1.143    1.429    5.571    0.000    6.000 
#    0.000    0.000    0.000    0.429    0.000    0.000 
#    0.000    0.000    0.000    0.000    0.000    0.000 
#
# Total GULP energy -694087.877047 kJ/mol
# GULP energy per Si atom -12394.426376 kJ/mol
# Density = 2.006410 g / cm^3
# Si number density = 20.109868 Si / 1000 Ang^3
#
#
#
# Elastic Constant Matrix: (Units=GPa)
#
#
# Indices 1 2 3 4 5 6 
#
# 1 138.5454 49.8925 56.7137 0.0000 0.0000 0.0000
# 2 49.8925 85.5208 39.5258 0.0000 0.0000 0.0000
# 3 56.7137 39.5258 144.4772 0.0000 0.0000 0.0000
# 4 0.0000 0.0000 0.0000 -27.2854 0.0000 0.0000
# 5 0.0000 0.0000 0.0000 0.0000 39.4335 0.0000
# 6 0.0000 0.0000 0.0000 0.0000 0.0000 28.3376
#
#
#
# Elastic Compliance Matrix: (Units=1/GPa)
#
#
# Indices 1 2 3 4 5 6 
#
# 1 0.009954 -0.004580 -0.002654 0.000000 0.000000 0.000000
# 2 -0.004580 0.015493 -0.002441 0.000000 0.000000 0.000000
# 3 -0.002654 -0.002441 0.008631 0.000000 0.000000 0.000000
# 4 0.000000 0.000000 0.000000 -0.036650 0.000000 0.000000
# 5 0.000000 0.000000 0.000000 0.000000 0.025359 0.000000
# 6 0.000000 0.000000 0.000000 0.000000 0.000000 0.035289
#
#
# Mechanical properties :
#
#
# Convention : Reuss Voigt Hill
#
# Bulk Modulus (GPa) = 67.89880 73.42302 70.66091
# Shear Modulus (GPa) = 60.72684 22.92458 41.82571
#
# Velocity S-wave (km/s) = 5.50119 3.38000 4.56550
# Velocity P-wave (km/s) = 8.61325 7.19880 7.93759
#
# Compressibility (1/GPa) = 0.01472780
#
# Stress axis : x y z
#
# Youngs Moduli (GPa) = 100.46419 64.54452 115.85984
#
# Poissons Ratio (x) = 0.29563 0.30752
# Poissons Ratio (y) = 0.46015 0.28277
# Poissons Ratio (z) = 0.26666 0.15753
#
# Static dielectric constant tensor:
#      x y z
#    x 3.682530 0.000000 0.000000 
#    y 0.000000 2.640490 0.000000 
#    z 0.000000 0.000000 3.950800 
# 
# 
# High freq. dielectric constant tensor:
#      x y z
#    x 1.790880 0.000000 0.000000 
#    y 0.000000 1.771660 0.000000 
#    z 0.000000 0.000000 1.793640 
# 
# From -- ./inp_files/21910.got.cif
#   From: 2010.03.12/outbox.cif.g09.slc.cpg/sg51_11_cif.got.tgz:21910.got - 2010.04.16 13:43:02.
