data_PCOD8213578
_publ_section_title
;
Structure prediction by ZEFSAII (Michael W. Deem and Ramdas Pophale) SiO2 
 PCOD8213578
Probable space group: P M M A
;
_chemical_formula_sum "Si O2"
_cell_formula_units_Z 56
_cell_length_a 8.629255
_cell_length_b 13.755105
_cell_length_c 22.376953
_cell_angle_alpha 90.000000
_cell_angle_beta 90.000000
_cell_angle_gamma 90.000000
_cell_volume 2656.061719
_symmetry_space_group_name_H-M "P M M A"
_symmetry_group_IT_number 51
_symmetry_cell_setting 'orthorhombic'
loop_
_space_group_symop_operation_xyz
x,y,z
1/2-x,-y,z
1/2+x,-y,-z
-x,y,-z
-x,-y,-z
1/2+x,y,-z
1/2-x,y,z
x,-y,z
loop_
_atom_site_type_symbol
_atom_site_label
_atom_site_fract_x
_atom_site_fract_y
_atom_site_fract_z
Si Si1 0.929998 0.842949 0.772989
Si Si2 0.569562 0.109221 0.351056
Si Si3 0.929181 0.700634 0.060098
Si Si4 0.934004 0.711266 0.435881
Si Si5 0.928025 0.103311 0.112758
Si Si6 0.573449 0.649355 0.189781
Si Si7 0.923586 0.500000 0.730590
Si Si8 0.070568 0.500000 0.606847
O O1 0.750000 0.811711 0.772791
O O2 0.971022 0.889577 0.709503
O O3 0.966856 0.914063 0.828003
O O4 0.050556 0.757229 0.787160
O O5 0.750000 0.124132 0.336518
O O6 0.512054 0.199775 0.392587
O O7 0.543622 0.000000 0.379585
O O8 0.750000 0.705047 0.047661
O O9 0.994704 0.810029 0.071380
O O10 0.965675 0.637035 0.119206
O O11 0.000000 0.654458 0.000000
O O12 0.750000 0.707322 0.437462
O O13 0.000188 0.602758 0.418155
O O14 0.000000 0.739038 0.500000
O O15 0.750000 0.128995 0.130703
O O16 0.935124 0.000000 0.077976
O O17 0.750000 0.615532 0.202147
O O18 0.449238 0.591283 0.227519
O O19 0.750000 0.500000 0.704522
O O20 0.045551 0.500000 0.677273
O O21 0.250000 0.500000 0.591593
#
# Coordination Sequence:
#
# PCOD8213578 Si02
#       8
#     8   8   8   8   8   8   4   4
#     4  11  21  33  53  83 113 141 183 240 291 331
#     4  10  21  37  56  79 112 157 201 236 283 355
#     4   9  19  34  53  75 101 139 185 229 274 328
#     4  10  22  39  60  85 113 150 195 239 285 337
#     4   9  18  33  51  72 103 145 186 223 275 345
#     4  10  21  39  59  79 110 152 187 219 276 350
#     4  12  24  37  60  95 121 138 174 232 285 324
#     4  10  21  39  63  89 119 156 191 226 282 356
#
# _framework density 21.083846999999999
#
# number of rings (size 3 to 8) (size 9 to 14) (size 15 to 20)
#    0.000    2.000    0.000    4.714    0.000    8.000 
#    0.000    0.357    0.000    0.000    0.000    0.000 
#    0.000    0.000    0.000    0.000    0.000    0.000 
#
# Total GULP energy -693769.402968 kJ/mol
# GULP energy per Si atom -12388.739339 kJ/mol
# Density = 2.103586 g / cm^3
# Si number density = 21.083847 Si / 1000 Ang^3
#
#
#
# Elastic Constant Matrix: (Units=GPa)
#
#
# Indices 1 2 3 4 5 6 
#
# 1 39.7563 8.2162 18.6721 0.0000 0.0000 0.0000
# 2 8.2162 88.4834 25.7268 0.0000 0.0000 0.0000
# 3 18.6721 25.7268 103.4916 0.0000 0.0000 0.0000
# 4 0.0000 0.0000 0.0000 10.4725 0.0000 0.0000
# 5 0.0000 0.0000 0.0000 0.0000 33.4258 0.0000
# 6 0.0000 0.0000 0.0000 0.0000 0.0000 17.3145
#
#
#
# Elastic Compliance Matrix: (Units=1/GPa)
#
#
# Indices 1 2 3 4 5 6 
#
# 1 0.027600 -0.001202 -0.004681 0.000000 0.000000 0.000000
# 2 -0.001202 0.012234 -0.002824 0.000000 0.000000 0.000000
# 3 -0.004681 -0.002824 0.011209 0.000000 0.000000 0.000000
# 4 0.000000 0.000000 0.000000 0.095488 0.000000 0.000000
# 5 0.000000 0.000000 0.000000 0.000000 0.029917 0.000000
# 6 0.000000 0.000000 0.000000 0.000000 0.000000 0.057755
#
#
# Mechanical properties :
#
#
# Convention : Reuss Voigt Hill
#
# Bulk Modulus (GPa) = 29.73597 37.44017 33.58807
# Shear Modulus (GPa) = 19.02384 24.18365 21.60374
#
# Velocity S-wave (km/s) = 3.00708 3.39045 3.20450
# Velocity P-wave (km/s) = 5.11771 5.75527 5.44583
#
# Compressibility (1/GPa) = 0.03362931
#
# Stress axis : x y z
#
# Youngs Moduli (GPa) = 36.23180 81.73692 89.21176
#
# Poissons Ratio (x) = 0.09824 0.41759
# Poissons Ratio (y) = 0.04355 0.25198
# Poissons Ratio (z) = 0.16960 0.23086
#
# Static dielectric constant tensor:
#      x y z
#    x 3.526500 0.000000 0.000000 
#    y 0.000000 3.497190 0.000000 
#    z 0.000000 0.000000 3.796350 
# 
# 
# High freq. dielectric constant tensor:
#      x y z
#    x 1.806700 0.000000 0.000000 
#    y 0.000000 1.834150 0.000000 
#    z 0.000000 0.000000 1.814850 
# 
# From -- ./inp_files/32058.got.cif
#   From: 2010.03.12/outbox.cif.g09.slc.cpg/sg51_17_cif.got.tgz:32058.got - 2010.04.16 13:43:02.
