data_PCOD8213984
_publ_section_title
;
Structure prediction by ZEFSAII (Michael W. Deem and Ramdas Pophale) SiO2 
 PCOD8213984
Probable space group: P M M A
;
_chemical_formula_sum "Si O2"
_cell_formula_units_Z 40
_cell_length_a 16.561990
_cell_length_b 14.786141
_cell_length_c 7.723563
_cell_angle_alpha 90.000000
_cell_angle_beta 90.000000
_cell_angle_gamma 90.000000
_cell_volume 1891.407273
_symmetry_space_group_name_H-M "P M M A"
_symmetry_group_IT_number 51
_symmetry_cell_setting 'orthorhombic'
loop_
_space_group_symop_operation_xyz
x,y,z
1/2-x,-y,z
1/2+x,-y,-z
-x,y,-z
-x,-y,-z
1/2+x,y,-z
1/2-x,y,z
x,-y,z
loop_
_atom_site_type_symbol
_atom_site_label
_atom_site_fract_x
_atom_site_fract_y
_atom_site_fract_z
Si Si1 0.155254 0.100541 0.767872
Si Si2 0.655210 0.216689 0.910186
Si Si3 0.157469 0.400250 0.924345
Si Si4 0.406377 0.212269 0.454233
Si Si5 0.407819 0.402608 0.554401
O O1 0.250000 0.093992 0.789428
O O2 0.137031 0.143837 0.582662
O O3 0.116833 0.000000 0.776442
O O4 0.121040 0.161417 0.924891
O O5 0.750000 0.200456 0.882589
O O6 0.635187 0.323098 0.937104
O O7 0.608162 0.179897 0.741956
O O8 0.250000 0.386585 0.860634
O O9 0.146244 0.500000 0.009852
O O10 0.098616 0.390347 0.760968
O O11 0.500000 0.214453 0.500000
O O12 0.367417 0.313634 0.469294
O O13 0.500000 0.406272 0.500000
O O14 0.366877 0.500000 0.502084
#
# Coordination Sequence:
#
# PCOD8213984 Si02
#       5
#     8   8   8   8   8
#     4  10  22  42  65  87 114 150 195 247 301 355
#     4  10  21  38  61  86 115 151 194 240 293 352
#     4   9  17  32  57  86 116 153 199 250 295 338
#     4  11  23  38  59  89 123 157 196 240 291 352
#     4   9  18  34  54  82 121 161 197 232 281 346
#
# _framework density 21.148275000000002
#
# number of rings (size 3 to 8) (size 9 to 14) (size 15 to 20)
#    0.000    2.200    2.000    0.600    0.000    3.600 
#    0.000    3.000    0.000    6.000    0.000    0.000 
#    0.000    0.000    0.000    0.000    0.000    0.000 
#
# Total GULP energy -495762.440365 kJ/mol
# GULP energy per Si atom -12394.061009 kJ/mol
# Density = 2.110014 g / cm^3
# Si number density = 21.148275 Si / 1000 Ang^3
#
#
#
# Elastic Constant Matrix: (Units=GPa)
#
#
# Indices 1 2 3 4 5 6 
#
# 1 37.4397 17.6524 34.1286 0.0000 0.0000 0.0000
# 2 17.6524 162.4631 66.7211 0.0000 0.0000 0.0000
# 3 34.1286 66.7211 160.2023 0.0000 0.0000 0.0000
# 4 0.0000 0.0000 0.0000 -59.1391 0.0000 0.0000
# 5 0.0000 0.0000 0.0000 0.0000 34.6773 0.0000
# 6 0.0000 0.0000 0.0000 0.0000 0.0000 17.6965
#
#
#
# Elastic Compliance Matrix: (Units=1/GPa)
#
#
# Indices 1 2 3 4 5 6 
#
# 1 0.033243 -0.000849 -0.006728 0.000000 0.000000 0.000000
# 2 -0.000849 0.007447 -0.002921 0.000000 0.000000 0.000000
# 3 -0.006728 -0.002921 0.008892 0.000000 0.000000 0.000000
# 4 0.000000 0.000000 0.000000 -0.016909 0.000000 0.000000
# 5 0.000000 0.000000 0.000000 0.000000 0.028837 0.000000
# 6 0.000000 0.000000 0.000000 0.000000 0.000000 0.056508
#
#
# Mechanical properties :
#
#
# Convention : Reuss Voigt Hill
#
# Bulk Modulus (GPa) = 34.98183 66.34544 50.66364
# Shear Modulus (GPa) = 33.66030 14.75381 24.20706
#
# Velocity S-wave (km/s) = 3.99386 2.64415 3.38692
# Velocity P-wave (km/s) = 6.15183 6.38449 6.26924
#
# Compressibility (1/GPa) = 0.02858627
#
# Stress axis : x y z
#
# Youngs Moduli (GPa) = 30.08133 134.28320 112.46182
#
# Poissons Ratio (x) = 0.11397 0.75669
# Poissons Ratio (y) = 0.02553 0.32847
# Poissons Ratio (z) = 0.20240 0.39220
#
# Static dielectric constant tensor:
#      x y z
#    x 3.473170 0.000000 0.000000 
#    y 0.000000 4.564490 0.000000 
#    z 0.000000 0.000000 3.685930 
# 
# 
# High freq. dielectric constant tensor:
#      x y z
#    x 1.796340 0.000000 0.000000 
#    y 0.000000 1.843060 0.000000 
#    z 0.000000 0.000000 1.820390 
# 
# From -- ./inp_files/1943.got.cif
#   From: 2010.03.12/outbox.cif.g09.slc.cpg/sg51_1_cif.got.tgz:1943.got - 2010.04.16 13:43:02.
