data_PCOD8213126
_publ_section_title
;
Structure prediction by ZEFSAII (Michael W. Deem and Ramdas Pophale) SiO2 
 PCOD8213126
Probable space group: P M M A
;
_chemical_formula_sum "Si O2"
_cell_formula_units_Z 64
_cell_length_a 18.176366
_cell_length_b 8.982004
_cell_length_c 20.308270
_cell_angle_alpha 90.000000
_cell_angle_beta 90.000000
_cell_angle_gamma 90.000000
_cell_volume 3315.532062
_symmetry_space_group_name_H-M "P M M A"
_symmetry_group_IT_number 51
_symmetry_cell_setting 'orthorhombic'
loop_
_space_group_symop_operation_xyz
x,y,z
1/2-x,-y,z
1/2+x,-y,-z
-x,y,-z
-x,-y,-z
1/2+x,y,-z
1/2-x,y,z
x,-y,z
loop_
_atom_site_type_symbol
_atom_site_label
_atom_site_fract_x
_atom_site_fract_y
_atom_site_fract_z
Si Si1 0.835137 0.673958 0.003797
Si Si2 0.664757 0.671751 0.774428
Si Si3 0.578955 0.825987 0.886602
Si Si4 0.664704 0.674392 0.247213
Si Si5 0.332843 0.326830 0.376542
Si Si6 0.408192 0.174714 0.874045
Si Si7 0.417288 0.175671 0.491030
Si Si8 0.163981 0.169309 0.619755
O O1 0.750000 0.706357 0.988343
O O2 0.850443 0.500000 0.011825
O O3 0.856752 0.752884 0.071207
O O4 0.883401 0.735460 0.944632
O O5 0.750000 0.708855 0.788352
O O6 0.649180 0.500000 0.792551
O O7 0.613352 0.778073 0.817247
O O8 0.644603 0.703764 0.698794
O O9 0.492932 0.787572 0.888025
O O10 0.592826 0.000000 0.897943
O O11 0.750000 0.714151 0.234042
O O12 0.650269 0.500000 0.241177
O O13 0.613669 0.759528 0.196107
O O14 0.640154 0.728300 0.319328
O O15 0.250000 0.269497 0.388913
O O16 0.337985 0.500000 0.392652
O O17 0.387899 0.239956 0.423043
O O18 0.393724 0.000000 0.873592
O O19 0.500000 0.230560 0.500000
O O20 0.372680 0.235432 0.554033
O O21 0.410533 0.000000 0.486153
O O22 0.250000 0.176583 0.607587
O O23 0.138026 0.000000 0.633673
#
# Coordination Sequence:
#
# PCOD8213126 Si02
#       8
#     8   8   8   8   8   8   8   8
#     4  11  24  41  62  87 113 144 185 230 273 321
#     4   9  19  37  59  83 112 146 184 226 274 327
#     4  11  24  39  57  85 117 148 185 226 269 322
#     4  10  21  37  58  84 110 139 182 231 275 325
#     4   9  19  36  57  80 107 141 183 230 276 324
#     4  11  24  40  58  83 116 150 183 223 272 325
#     4  10  21  35  52  78 112 146 181 225 276 330
#     4   9  18  34  55  77 105 144 185 224 271 326
#
# _framework density 19.303084999999999
#
# number of rings (size 3 to 8) (size 9 to 14) (size 15 to 20)
#    0.000    2.000    0.000    3.750    0.000   11.500 
#    0.000    6.250    0.000    0.000    0.000    0.000 
#    0.000    0.000    0.000    0.000    0.000    0.000 
#
# Total GULP energy -793871.370625 kJ/mol
# GULP energy per Si atom -12404.240166 kJ/mol
# Density = 1.925915 g / cm^3
# Si number density = 19.303085 Si / 1000 Ang^3
#
#
#
# Elastic Constant Matrix: (Units=GPa)
#
#
# Indices 1 2 3 4 5 6 
#
# 1 58.3737 44.6603 36.9111 0.0000 0.0000 0.0000
# 2 44.6603 74.9451 41.3505 0.0000 0.0000 0.0000
# 3 36.9111 41.3505 104.5781 0.0000 0.0000 0.0000
# 4 0.0000 0.0000 0.0000 38.6160 0.0000 0.0000
# 5 0.0000 0.0000 0.0000 0.0000 14.7648 0.0000
# 6 0.0000 0.0000 0.0000 0.0000 0.0000 27.6481
#
#
#
# Elastic Compliance Matrix: (Units=1/GPa)
#
#
# Indices 1 2 3 4 5 6 
#
# 1 0.033424 -0.017150 -0.005016 0.000000 0.000000 0.000000
# 2 -0.017150 0.025866 -0.004174 0.000000 0.000000 0.000000
# 3 -0.005016 -0.004174 0.012983 0.000000 0.000000 0.000000
# 4 0.000000 0.000000 0.000000 0.025896 0.000000 0.000000
# 5 0.000000 0.000000 0.000000 0.000000 0.067729 0.000000
# 6 0.000000 0.000000 0.000000 0.000000 0.000000 0.036169
#
#
# Mechanical properties :
#
#
# Convention : Reuss Voigt Hill
#
# Bulk Modulus (GPa) = 51.03987 53.74898 52.39443
# Shear Modulus (GPa) = 19.13677 23.87079 21.50378
#
# Velocity S-wave (km/s) = 3.15204 3.52039 3.34130
# Velocity P-wave (km/s) = 6.30443 6.66554 6.48750
#
# Compressibility (1/GPa) = 0.01959253
#
# Stress axis : x y z
#
# Youngs Moduli (GPa) = 29.91901 38.66076 77.02291
#
# Poissons Ratio (x) = 0.66303 0.38633
# Poissons Ratio (y) = 0.51311 0.32153
# Poissons Ratio (z) = 0.15007 0.16139
#
# Static dielectric constant tensor:
#      x y z
#    x 3.606840 0.000000 0.000000 
#    y 0.000000 3.509500 0.000000 
#    z 0.000000 0.000000 3.660380 
# 
# 
# High freq. dielectric constant tensor:
#      x y z
#    x 1.751940 0.000000 0.000000 
#    y 0.000000 1.751300 0.000000 
#    z 0.000000 0.000000 1.765860 
# 
# From -- ./inp_files/33804.got.cif
#   From: 2010.03.12/outbox.cif.g09.slc.cpg/sg51_17_cif.got.tgz:33804.got - 2010.04.16 13:43:02.
