data_PCOD8213596
_publ_section_title
;
Structure prediction by ZEFSAII (Michael W. Deem and Ramdas Pophale) SiO2 
 PCOD8213596
Probable space group: P M M A
;
_chemical_formula_sum "Si O2"
_cell_formula_units_Z 56
_cell_length_a 9.053386
_cell_length_b 18.809118
_cell_length_c 15.956071
_cell_angle_alpha 90.000000
_cell_angle_beta 90.000000
_cell_angle_gamma 90.000000
_cell_volume 2717.098786
_symmetry_space_group_name_H-M "P M M A"
_symmetry_group_IT_number 51
_symmetry_cell_setting 'orthorhombic'
loop_
_space_group_symop_operation_xyz
x,y,z
1/2-x,-y,z
1/2+x,-y,-z
-x,y,-z
-x,-y,-z
1/2+x,y,-z
1/2-x,y,z
x,-y,z
loop_
_atom_site_type_symbol
_atom_site_label
_atom_site_fract_x
_atom_site_fract_y
_atom_site_fract_z
Si Si1 0.920011 0.580294 0.587513
Si Si2 0.919154 0.915971 0.243959
Si Si3 0.580039 0.292881 0.829971
Si Si4 0.420528 0.419702 0.912127
Si Si5 0.580277 0.294057 0.330863
Si Si6 0.581047 0.848099 0.415685
Si Si7 0.579995 0.849988 0.914595
O O1 0.750000 0.601616 0.575295
O O2 0.936185 0.500000 0.621627
O O3 0.000000 0.589317 0.500000
O O4 0.996451 0.632481 0.652637
O O5 0.750000 0.889632 0.233142
O O6 0.983450 0.886018 0.332230
O O7 0.012307 0.889469 0.165091
O O8 0.929730 0.000000 0.247340
O O9 0.750000 0.308676 0.808516
O O10 0.499865 0.366955 0.848677
O O11 0.496873 0.258985 0.750142
O O12 0.565488 0.235428 0.904303
O O13 0.250000 0.398082 0.923282
O O14 0.435796 0.500000 0.877382
O O15 0.500000 0.412063 0.000000
O O16 0.750000 0.311418 0.311506
O O17 0.564852 0.237373 0.406022
O O18 0.500000 0.873312 0.500000
O O19 0.750000 0.870892 0.426599
O O20 0.750000 0.872939 0.921598
O O21 0.500000 0.873494 0.000000
#
# Coordination Sequence:
#
# PCOD8213596 Si02
#       7
#     8   8   8   8   8   8   8
#     4  10  21  37  56  80 113 153 200 254 308 367
#     4  10  22  43  68  94 128 166 205 252 305 364
#     4  11  23  38  59  87 118 157 203 255 310 365
#     4  10  21  37  57  82 114 154 200 251 306 365
#     4  11  22  37  59  85 117 158 202 255 310 363
#     4  10  22  39  62  93 126 164 206 251 304 362
#     4  11  24  41  65  95 127 165 208 255 308 368
#
# _framework density 20.610219000000001
#
# number of rings (size 3 to 8) (size 9 to 14) (size 15 to 20)
#    0.000    1.571    1.429    3.000    0.000    8.857 
#    0.000    0.000    0.000    0.000    0.000    0.000 
#    0.000    0.000    0.000    0.000    0.000    0.000 
#
# Total GULP energy -694515.836679 kJ/mol
# GULP energy per Si atom -12402.068512 kJ/mol
# Density = 2.056331 g / cm^3
# Si number density = 20.610219 Si / 1000 Ang^3
#
#
#
# Elastic Constant Matrix: (Units=GPa)
#
#
# Indices 1 2 3 4 5 6 
#
# 1 151.7887 46.9852 71.1981 0.0000 0.0000 0.0000
# 2 46.9852 74.2027 37.4834 0.0000 0.0000 0.0000
# 3 71.1981 37.4834 142.8359 0.0000 0.0000 0.0000
# 4 0.0000 0.0000 0.0000 26.4411 0.0000 0.0000
# 5 0.0000 0.0000 0.0000 0.0000 42.2413 0.0000
# 6 0.0000 0.0000 0.0000 0.0000 0.0000 25.6646
#
#
#
# Elastic Compliance Matrix: (Units=1/GPa)
#
#
# Indices 1 2 3 4 5 6 
#
# 1 0.009629 -0.004234 -0.003689 0.000000 0.000000 0.000000
# 2 -0.004234 0.017398 -0.002455 0.000000 0.000000 0.000000
# 3 -0.003689 -0.002455 0.009484 0.000000 0.000000 0.000000
# 4 0.000000 0.000000 0.000000 0.037820 0.000000 0.000000
# 5 0.000000 0.000000 0.000000 0.000000 0.023674 0.000000
# 6 0.000000 0.000000 0.000000 0.000000 0.000000 0.038964
#
#
# Mechanical properties :
#
#
# Convention : Reuss Voigt Hill
#
# Bulk Modulus (GPa) = 63.47011 75.57341 69.52176
# Shear Modulus (GPa) = 30.67963 33.08011 31.87987
#
# Velocity S-wave (km/s) = 3.86238 4.01063 3.93720
# Velocity P-wave (km/s) = 7.12411 7.62853 7.38063
#
# Compressibility (1/GPa) = 0.01575545
#
# Stress axis : x y z
#
# Youngs Moduli (GPa) = 103.85553 57.47920 105.44136
#
# Poissons Ratio (x) = 0.24335 0.38893
# Poissons Ratio (y) = 0.43969 0.25888
# Poissons Ratio (z) = 0.38308 0.14112
#
# Static dielectric constant tensor:
#      x y z
#    x 3.804660 0.000000 0.000000 
#    y 0.000000 3.710010 0.000000 
#    z 0.000000 0.000000 3.569990 
# 
# 
# High freq. dielectric constant tensor:
#      x y z
#    x 1.813240 0.000000 0.000000 
#    y 0.000000 1.806770 0.000000 
#    z 0.000000 0.000000 1.803960 
# 
# From -- ./inp_files/21718.got.cif
#   From: 2010.03.12/outbox.cif.g09.slc.cpg/sg51_11_cif.got.tgz:21718.got - 2010.04.16 13:43:02.
