data_PCOD8213320
_publ_section_title
;
Structure prediction by ZEFSAII (Michael W. Deem and Ramdas Pophale) SiO2 
 PCOD8213320
Probable space group: P M M A
;
_chemical_formula_sum "Si O2"
_cell_formula_units_Z 48
_cell_length_a 29.675863
_cell_length_b 9.170341
_cell_length_c 9.924727
_cell_angle_alpha 90.000000
_cell_angle_beta 90.000000
_cell_angle_gamma 90.000000
_cell_volume 2700.893204
_symmetry_space_group_name_H-M "P M M A"
_symmetry_group_IT_number 51
_symmetry_cell_setting 'orthorhombic'
loop_
_space_group_symop_operation_xyz
x,y,z
1/2-x,-y,z
1/2+x,-y,-z
-x,y,-z
-x,-y,-z
1/2+x,y,-z
1/2-x,y,z
x,-y,z
loop_
_atom_site_type_symbol
_atom_site_label
_atom_site_fract_x
_atom_site_fract_y
_atom_site_fract_z
Si Si1 0.629999 0.670857 0.411254
Si Si2 0.200091 0.828261 0.093883
Si Si3 0.364802 0.334649 0.896811
Si Si4 0.532214 0.330993 0.119622
Si Si5 0.302610 0.167510 0.399004
Si Si6 0.538554 0.169830 0.391653
O O1 0.621817 0.500000 0.433901
O O2 0.644822 0.703520 0.258442
O O3 0.669672 0.726167 0.505801
O O4 0.583611 0.752570 0.445283
O O5 0.250000 0.765644 0.061968
O O6 0.186209 0.786602 0.245879
O O7 0.201078 0.000000 0.078939
O O8 0.164460 0.768062 0.989636
O O9 0.351250 0.500000 0.928896
O O10 0.416945 0.306128 0.930130
O O11 0.524035 0.500000 0.156570
O O12 0.521484 0.236457 0.251058
O O13 0.500000 0.277649 0.000000
O O14 0.250000 0.189435 0.429546
O O15 0.316527 0.000000 0.425481
O O16 0.500000 0.197525 0.500000
O O17 0.548824 0.000000 0.371043
#
# Coordination Sequence:
#
# PCOD8213320 Si02
#       6
#     8   8   8   8   8   8
#     4  10  21  36  54  77 105 137 174 214 257 308
#     4   9  19  35  53  74 101 134 171 209 252 303
#     4   9  19  34  51  75 104 133 168 209 251 297
#     4   9  19  36  55  76 105 138 171 209 255 308
#     4   9  19  36  55  76 105 138 172 213 258 304
#     4  10  21  36  54  78 106 135 172 216 259 307
#
# _framework density 17.771898
#
# number of rings (size 3 to 8) (size 9 to 14) (size 15 to 20)
#    0.000    2.667    0.000    3.000    0.000    8.333 
#    0.000    8.333    0.000    0.000    0.000    0.000 
#    0.000    0.000    0.000    0.000    0.000    0.000 
#
# Total GULP energy -595258.454988 kJ/mol
# GULP energy per Si atom -12401.217812 kJ/mol
# Density = 1.773145 g / cm^3
# Si number density = 17.771898 Si / 1000 Ang^3
#
#
#
# Elastic Constant Matrix: (Units=GPa)
#
#
# Indices 1 2 3 4 5 6 
#
# 1 95.1472 54.2002 79.4313 0.0000 0.0000 0.0000
# 2 54.2002 78.3467 60.9157 0.0000 0.0000 0.0000
# 3 79.4313 60.9157 110.9584 0.0000 0.0000 0.0000
# 4 0.0000 0.0000 0.0000 30.5982 0.0000 0.0000
# 5 0.0000 0.0000 0.0000 0.0000 28.3267 0.0000
# 6 0.0000 0.0000 0.0000 0.0000 0.0000 30.9600
#
#
#
# Elastic Compliance Matrix: (Units=1/GPa)
#
#
# Indices 1 2 3 4 5 6 
#
# 1 0.027944 -0.006592 -0.016385 0.000000 0.000000 0.000000
# 2 -0.006592 0.023825 -0.008361 0.000000 0.000000 0.000000
# 3 -0.016385 -0.008361 0.025332 0.000000 0.000000 0.000000
# 4 0.000000 0.000000 0.000000 0.032682 0.000000 0.000000
# 5 0.000000 0.000000 0.000000 0.000000 0.035302 0.000000
# 6 0.000000 0.000000 0.000000 0.000000 0.000000 0.032300
#
#
# Mechanical properties :
#
#
# Convention : Reuss Voigt Hill
#
# Bulk Modulus (GPa) = 69.32433 74.83853 72.08143
# Shear Modulus (GPa) = 20.41920 23.97064 22.19492
#
# Velocity S-wave (km/s) = 3.39331 3.67658 3.53778
# Velocity P-wave (km/s) = 7.37870 7.76048 7.57200
#
# Compressibility (1/GPa) = 0.01442495
#
# Stress axis : x y z
#
# Youngs Moduli (GPa) = 35.78628 41.97341 39.47594
#
# Poissons Ratio (x) = 0.27668 0.64681
# Poissons Ratio (y) = 0.23590 0.33005
# Poissons Ratio (z) = 0.58636 0.35093
#
# Static dielectric constant tensor:
#      x y z
#    x 3.388970 0.000000 0.000000 
#    y 0.000000 3.265160 0.000000 
#    z 0.000000 0.000000 3.339660 
# 
# 
# High freq. dielectric constant tensor:
#      x y z
#    x 1.690250 0.000000 0.000000 
#    y 0.000000 1.689370 0.000000 
#    z 0.000000 0.000000 1.689160 
# 
# From -- ./inp_files/12753.got.cif
#   From: 2010.03.12/outbox.cif.g09.slc.cpg/sg51_7_cif.got.tgz:12753.got - 2010.04.16 13:43:02.
