data_PCOD8213395
_publ_section_title
;
Structure prediction by ZEFSAII (Michael W. Deem and Ramdas Pophale) SiO2 
 PCOD8213395
Probable space group: P M M A
;
_chemical_formula_sum "Si O2"
_cell_formula_units_Z 64
_cell_length_a 16.150008
_cell_length_b 8.956920
_cell_length_c 22.345642
_cell_angle_alpha 90.000000
_cell_angle_beta 90.000000
_cell_angle_gamma 90.000000
_cell_volume 3232.393864
_symmetry_space_group_name_H-M "P M M A"
_symmetry_group_IT_number 51
_symmetry_cell_setting 'orthorhombic'
loop_
_space_group_symop_operation_xyz
x,y,z
1/2-x,-y,z
1/2+x,-y,-z
-x,y,-z
-x,-y,-z
1/2+x,y,-z
1/2-x,y,z
x,-y,z
loop_
_atom_site_type_symbol
_atom_site_label
_atom_site_fract_x
_atom_site_fract_y
_atom_site_fract_z
Si Si1 0.845750 0.176738 0.640375
Si Si2 0.655774 0.324198 0.359722
Si Si3 0.154452 0.161886 0.756682
Si Si4 0.074333 0.676202 0.115594
Si Si5 0.346529 0.330684 0.236472
Si Si6 0.098054 0.175601 0.885199
Si Si7 0.343227 0.665176 0.997093
Si Si8 0.005054 0.675162 0.430553
O O1 0.750000 0.225895 0.625025
O O2 0.870472 0.230966 0.706623
O O3 0.912661 0.245394 0.594885
O O4 0.853161 0.000000 0.637756
O O5 0.750000 0.263310 0.375228
O O6 0.660095 0.500000 0.361561
O O7 0.623587 0.276034 0.293884
O O8 0.583253 0.266082 0.404008
O O9 0.250000 0.138641 0.746395
O O10 0.141072 0.223372 0.823293
O O11 0.110068 0.000000 0.748620
O O12 0.087249 0.500000 0.116692
O O13 0.111679 0.741357 0.177387
O O14 0.981011 0.722618 0.110794
O O15 0.114618 0.740946 0.055033
O O16 0.250000 0.328543 0.224132
O O17 0.377604 0.500000 0.248458
O O18 0.153961 0.222768 0.941077
O O19 0.079040 0.000000 0.887994
O O20 0.250000 0.642831 0.016295
O O21 0.381514 0.500000 0.982105
O O22 0.015553 0.500000 0.418012
O O23 0.000000 0.713204 0.500000
#
# Coordination Sequence:
#
# PCOD8213395 Si02
#       8
#     8   8   8   8   8   8   8   8
#     4  10  22  39  59  86 122 160 199 244 291 343
#     4   9  19  36  58  85 116 148 188 239 289 339
#     4   9  19  36  55  76 105 143 184 225 274 331
#     4  10  21  36  55  80 109 141 181 230 281 336
#     4   9  18  35  59  84 110 144 187 234 285 338
#     4  11  23  36  52  78 111 144 180 225 278 336
#     4  10  21  38  58  77 101 138 184 232 281 333
#     4  10  22  39  61  90 121 155 196 240 289 346
#
# _framework density 19.799568000000001
#
# number of rings (size 3 to 8) (size 9 to 14) (size 15 to 20)
#    0.000    2.250    0.000    1.875    1.750    7.750 
#    0.000    2.500    0.000    3.750    0.000    0.000 
#    0.000    0.000    0.000    0.000    0.000    0.000 
#
# Total GULP energy -793146.044346 kJ/mol
# GULP energy per Si atom -12392.906943 kJ/mol
# Density = 1.975450 g / cm^3
# Si number density = 19.799568 Si / 1000 Ang^3
#
#
#
# Elastic Constant Matrix: (Units=GPa)
#
#
# Indices 1 2 3 4 5 6 
#
# 1 87.0347 31.3039 60.1826 0.0000 0.0000 0.0000
# 2 31.3039 28.3782 37.2183 0.0000 0.0000 0.0000
# 3 60.1826 37.2183 150.7511 0.0000 0.0000 0.0000
# 4 0.0000 0.0000 0.0000 -37.7641 0.0000 0.0000
# 5 0.0000 0.0000 0.0000 0.0000 39.8415 0.0000
# 6 0.0000 0.0000 0.0000 0.0000 0.0000 21.8362
#
#
#
# Elastic Compliance Matrix: (Units=1/GPa)
#
#
# Indices 1 2 3 4 5 6 
#
# 1 0.020444 -0.017521 -0.003836 0.000000 0.000000 0.000000
# 2 -0.017521 0.067127 -0.009578 0.000000 0.000000 0.000000
# 3 -0.003836 -0.009578 0.010530 0.000000 0.000000 0.000000
# 4 0.000000 0.000000 0.000000 -0.026480 0.000000 0.000000
# 5 0.000000 0.000000 0.000000 0.000000 0.025099 0.000000
# 6 0.000000 0.000000 0.000000 0.000000 0.000000 0.045795
#
#
# Mechanical properties :
#
#
# Convention : Reuss Voigt Hill
#
# Bulk Modulus (GPa) = 27.60063 58.17483 42.88773
# Shear Modulus (GPa) = 23.09875 13.94666 18.52271
#
# Velocity S-wave (km/s) = 3.41930 2.65692 3.06193
# Velocity P-wave (km/s) = 5.43683 6.23361 5.84881
#
# Compressibility (1/GPa) = 0.03623106
#
# Stress axis : x y z
#
# Youngs Moduli (GPa) = 48.91457 14.89708 94.97077
#
# Poissons Ratio (x) = 0.26101 0.36430
# Poissons Ratio (y) = 0.85701 0.90965
# Poissons Ratio (z) = 0.18763 0.14269
#
# Static dielectric constant tensor:
#      x y z
#    x 3.701000 0.000000 0.000000 
#    y 0.000000 3.577860 0.000000 
#    z 0.000000 0.000000 4.017080 
# 
# 
# High freq. dielectric constant tensor:
#      x y z
#    x 1.775800 0.000000 0.000000 
#    y 0.000000 1.754350 0.000000 
#    z 0.000000 0.000000 1.778330 
# 
# From -- ./inp_files/35752.got.cif
#   From: 2010.03.12/outbox.cif.g09.slc.cpg/sg51_18_cif.got.tgz:35752.got - 2010.04.16 13:43:02.
