data_PCOD8213882
_publ_section_title
;
Structure prediction by ZEFSAII (Michael W. Deem and Ramdas Pophale) SiO2 
 PCOD8213882
Probable space group: P M M A
;
_chemical_formula_sum "Si O2"
_cell_formula_units_Z 40
_cell_length_a 8.691257
_cell_length_b 24.848026
_cell_length_c 9.641677
_cell_angle_alpha 90.000000
_cell_angle_beta 90.000000
_cell_angle_gamma 90.000000
_cell_volume 2082.222156
_symmetry_space_group_name_H-M "P M M A"
_symmetry_group_IT_number 51
_symmetry_cell_setting 'orthorhombic'
loop_
_space_group_symop_operation_xyz
x,y,z
1/2-x,-y,z
1/2+x,-y,-z
-x,y,-z
-x,-y,-z
1/2+x,y,-z
1/2-x,y,z
x,-y,z
loop_
_atom_site_type_symbol
_atom_site_label
_atom_site_fract_x
_atom_site_fract_y
_atom_site_fract_z
Si Si1 0.568611 0.354267 0.351390
Si Si2 0.927066 0.438187 0.851209
Si Si3 0.068666 0.145302 0.151846
Si Si4 0.429385 0.062679 0.644540
Si Si5 0.931831 0.757961 0.649533
O O1 0.500000 0.368239 0.500000
O O2 0.750000 0.348173 0.362887
O O3 0.525794 0.403031 0.252868
O O4 0.498886 0.298385 0.294776
O O5 0.750000 0.419458 0.852835
O O6 0.941304 0.500000 0.804342
O O7 0.000000 0.429131 0.000000
O O8 0.250000 0.140331 0.139965
O O9 0.017978 0.196968 0.240925
O O10 0.005334 0.092019 0.225299
O O11 0.000000 0.151157 0.000000
O O12 0.500000 0.083964 0.500000
O O13 0.250000 0.075317 0.641362
O O14 0.465507 0.000000 0.664008
O O15 0.750000 0.753156 0.635075
O O16 0.000000 0.773225 0.500000
#
# Coordination Sequence:
#
# PCOD8213882 Si02
#       5
#     8   8   8   8   8
#     4  11  22  37  59  85 114 148 187 233 282 331
#     4  10  21  38  59  83 113 149 188 230 278 334
#     4  11  24  39  58  84 115 151 189 233 282 333
#     4  10  21  38  61  87 115 149 189 232 278 332
#     4  10  21  38  59  83 111 145 187 232 281 336
#
# _framework density 19.210246000000001
#
# number of rings (size 3 to 8) (size 9 to 14) (size 15 to 20)
#    0.000    1.600    0.000    6.000    0.000    8.800 
#    0.000    2.000    0.000    0.000    0.000    0.000 
#    0.000    0.000    0.000    0.000    0.000    0.000 
#
# Total GULP energy -496204.194115 kJ/mol
# GULP energy per Si atom -12405.104853 kJ/mol
# Density = 1.916652 g / cm^3
# Si number density = 19.210246 Si / 1000 Ang^3
#
#
#
# Elastic Constant Matrix: (Units=GPa)
#
#
# Indices 1 2 3 4 5 6 
#
# 1 103.7640 52.1008 53.7883 0.0000 0.0000 0.0000
# 2 52.1008 100.8465 76.2838 0.0000 0.0000 0.0000
# 3 53.7883 76.2838 126.0564 0.0000 0.0000 0.0000
# 4 0.0000 0.0000 0.0000 19.2723 0.0000 0.0000
# 5 0.0000 0.0000 0.0000 0.0000 37.2146 0.0000
# 6 0.0000 0.0000 0.0000 0.0000 0.0000 45.4537
#
#
#
# Elastic Compliance Matrix: (Units=1/GPa)
#
#
# Indices 1 2 3 4 5 6 
#
# 1 0.013546 -0.004843 -0.002849 0.000000 0.000000 0.000000
# 2 -0.004843 0.020019 -0.010048 0.000000 0.000000 0.000000
# 3 -0.002849 -0.010048 0.015229 0.000000 0.000000 0.000000
# 4 0.000000 0.000000 0.000000 0.051888 0.000000 0.000000
# 5 0.000000 0.000000 0.000000 0.000000 0.026871 0.000000
# 6 0.000000 0.000000 0.000000 0.000000 0.000000 0.022000
#
#
# Mechanical properties :
#
#
# Convention : Reuss Voigt Hill
#
# Bulk Modulus (GPa) = 75.11156 77.22366 76.16761
# Shear Modulus (GPa) = 26.38913 30.28772 28.33842
#
# Velocity S-wave (km/s) = 3.71037 3.97501 3.84496
# Velocity P-wave (km/s) = 7.58554 7.83288 7.71020
#
# Compressibility (1/GPa) = 0.01331353
#
# Stress axis : x y z
#
# Youngs Moduli (GPa) = 73.82279 49.95312 65.66272
#
# Poissons Ratio (x) = 0.24192 0.18709
# Poissons Ratio (y) = 0.35752 0.65978
# Poissons Ratio (z) = 0.21034 0.50193
#
# Static dielectric constant tensor:
#      x y z
#    x 3.680640 0.000000 0.000000 
#    y 0.000000 3.634240 0.000000 
#    z 0.000000 0.000000 3.457520 
# 
# 
# High freq. dielectric constant tensor:
#      x y z
#    x 1.768250 0.000000 0.000000 
#    y 0.000000 1.756520 0.000000 
#    z 0.000000 0.000000 1.746400 
# 
# From -- ./inp_files/5271.got.cif
#   From: 2010.03.12/outbox.cif.g09.slc.cpg/sg51_3_cif.got.tgz:5271.got - 2010.04.16 13:43:02.
