data_PCOD8213482
_publ_section_title
;
Structure prediction by ZEFSAII (Michael W. Deem and Ramdas Pophale) SiO2 
 PCOD8213482
Probable space group: P M M A
;
_chemical_formula_sum "Si O2"
_cell_formula_units_Z 48
_cell_length_a 14.433229
_cell_length_b 8.837147
_cell_length_c 19.580443
_cell_angle_alpha 90.000000
_cell_angle_beta 90.000000
_cell_angle_gamma 90.000000
_cell_volume 2497.457433
_symmetry_space_group_name_H-M "P M M A"
_symmetry_group_IT_number 51
_symmetry_cell_setting 'orthorhombic'
loop_
_space_group_symop_operation_xyz
x,y,z
1/2-x,-y,z
1/2+x,-y,-z
-x,y,-z
-x,-y,-z
1/2+x,y,-z
1/2-x,y,z
x,-y,z
loop_
_atom_site_type_symbol
_atom_site_label
_atom_site_fract_x
_atom_site_fract_y
_atom_site_fract_z
Si Si1 0.065755 0.676856 0.187288
Si Si2 0.140734 0.672368 0.437233
Si Si3 0.644960 0.174117 0.424477
Si Si4 0.936703 0.677164 0.062401
Si Si5 0.750000 0.820951 0.866621
Si Si6 0.750000 0.178816 0.021897
Si Si7 0.018364 0.824636 0.326878
O O1 0.088067 0.500000 0.185584
O O2 0.160334 0.763980 0.173066
O O3 0.025719 0.723040 0.260077
O O4 0.988518 0.720495 0.131890
O O5 0.250000 0.690114 0.429808
O O6 0.108420 0.500000 0.426317
O O7 0.109240 0.725361 0.512410
O O8 0.096877 0.779478 0.380535
O O9 0.750000 0.215796 0.404195
O O10 0.582332 0.208668 0.358847
O O11 0.636117 0.000000 0.447220
O O12 0.916550 0.500000 0.055873
O O13 0.839681 0.763352 0.061927
O O14 0.000000 0.734309 0.000000
O O15 0.750000 0.000000 0.866008
O O16 0.750000 0.758155 0.944219
O O17 0.750000 0.000000 0.022371
O O18 0.030904 0.000000 0.307695
#
# Coordination Sequence:
#
# PCOD8213482 Si02
#       7
#     8   8   8   8   4   4   8
#     4  11  24  41  62  87 119 158 198 242 291 349
#     4  10  21  36  57  86 117 150 192 241 290 344
#     4   9  19  38  61  83 111 150 194 239 292 351
#     4  10  21  40  64  88 118 158 201 243 292 352
#     4  11  23  39  61  91 123 154 189 236 297 355
#     4  11  23  37  63  95 121 152 193 248 299 347
#     4  11  23  38  58  84 118 156 193 238 295 353
#
# _framework density 19.219546999999999
#
# number of rings (size 3 to 8) (size 9 to 14) (size 15 to 20)
#    0.000    1.667    1.667    2.500    1.167    6.667 
#    1.500    0.000    0.000    0.000    0.000    0.000 
#    0.000    0.000    0.000    0.000    0.000    0.000 
#
# Total GULP energy -595491.444167 kJ/mol
# GULP energy per Si atom -12406.071753 kJ/mol
# Density = 1.917580 g / cm^3
# Si number density = 19.219547 Si / 1000 Ang^3
#
#
#
# Elastic Constant Matrix: (Units=GPa)
#
#
# Indices 1 2 3 4 5 6 
#
# 1 114.4789 44.4126 62.2150 0.0000 0.0000 0.0000
# 2 44.4126 55.8125 31.9433 0.0000 0.0000 0.0000
# 3 62.2150 31.9433 118.7686 0.0000 0.0000 0.0000
# 4 0.0000 0.0000 0.0000 34.3875 0.0000 0.0000
# 5 0.0000 0.0000 0.0000 0.0000 21.7643 0.0000
# 6 0.0000 0.0000 0.0000 0.0000 0.0000 23.4629
#
#
#
# Elastic Compliance Matrix: (Units=1/GPa)
#
#
# Indices 1 2 3 4 5 6 
#
# 1 0.015229 -0.008927 -0.005577 0.000000 0.000000 0.000000
# 2 -0.008927 0.026410 -0.002427 0.000000 0.000000 0.000000
# 3 -0.005577 -0.002427 0.011994 0.000000 0.000000 0.000000
# 4 0.000000 0.000000 0.000000 0.029080 0.000000 0.000000
# 5 0.000000 0.000000 0.000000 0.000000 0.045947 0.000000
# 6 0.000000 0.000000 0.000000 0.000000 0.000000 0.042621
#
#
# Mechanical properties :
#
#
# Convention : Reuss Voigt Hill
#
# Bulk Modulus (GPa) = 50.57694 62.91131 56.74413
# Shear Modulus (GPa) = 23.61485 25.95553 24.78519
#
# Velocity S-wave (km/s) = 3.50907 3.67887 3.59497
# Velocity P-wave (km/s) = 6.54145 7.13088 6.84252
#
# Compressibility (1/GPa) = 0.01977186
#
# Stress axis : x y z
#
# Youngs Moduli (GPa) = 65.66365 37.86506 83.37737
#
# Poissons Ratio (x) = 0.33801 0.46496
# Poissons Ratio (y) = 0.58617 0.20234
# Poissons Ratio (z) = 0.36618 0.09189
#
# Static dielectric constant tensor:
#      x y z
#    x 3.635070 0.000000 0.000000 
#    y 0.000000 3.550670 0.000000 
#    z 0.000000 0.000000 3.504070 
# 
# 
# High freq. dielectric constant tensor:
#      x y z
#    x 1.757650 0.000000 0.000000 
#    y 0.000000 1.753420 0.000000 
#    z 0.000000 0.000000 1.744000 
# 
# From -- ./inp_files/29541.got.cif
#   From: 2010.03.12/outbox.cif.g09.slc.cpg/sg51_15_cif.got.tgz:29541.got - 2010.04.16 13:43:02.
