data_PCOD8213531
_publ_section_title
;
Structure prediction by ZEFSAII (Michael W. Deem and Ramdas Pophale) SiO2 
 PCOD8213531
Probable space group: P M M A
;
_chemical_formula_sum "Si O2"
_cell_formula_units_Z 56
_cell_length_a 8.914050
_cell_length_b 23.802694
_cell_length_c 14.523234
_cell_angle_alpha 90.000000
_cell_angle_beta 90.000000
_cell_angle_gamma 90.000000
_cell_volume 3081.516618
_symmetry_space_group_name_H-M "P M M A"
_symmetry_group_IT_number 51
_symmetry_cell_setting 'orthorhombic'
loop_
_space_group_symop_operation_xyz
x,y,z
1/2-x,-y,z
1/2+x,-y,-z
-x,y,-z
-x,-y,-z
1/2+x,y,-z
1/2-x,y,z
x,-y,z
loop_
_atom_site_type_symbol
_atom_site_label
_atom_site_fract_x
_atom_site_fract_y
_atom_site_fract_z
Si Si1 0.927815 0.263665 0.750000
Si Si2 0.423096 0.063277 0.597585
Si Si3 0.927494 0.350216 0.599771
Si Si4 0.071695 0.136713 0.250000
Si Si5 0.927494 0.649784 0.900229
Si Si6 0.576904 0.936723 0.097585
Si Si7 0.428102 0.562581 0.250000
O O1 0.750000 0.264265 0.750000
O O2 0.982502 0.295610 0.657505
O O3 0.989678 0.200405 0.750000
O O4 0.982502 0.295610 0.842495
O O5 0.500000 0.067143 0.500000
O O6 0.250000 0.081039 0.590180
O O7 0.509680 0.106512 0.660676
O O8 0.437396 0.000000 0.637239
O O9 0.750000 0.349763 0.587262
O O10 0.980442 0.404942 0.657658
O O11 0.000000 0.350438 0.500000
O O12 0.250000 0.133992 0.250000
O O13 0.009680 0.106512 0.160675
O O14 0.750000 0.650237 0.912738
O O15 0.980442 0.595058 0.842342
O O16 0.000000 0.649563 0.000000
O O17 0.750000 0.918961 0.090179
O O18 0.562606 0.000000 0.137240
O O19 0.500000 0.932858 0.000000
O O20 0.250000 0.560135 0.250000
O O21 0.498216 0.500000 0.250000
#
# Coordination Sequence:
#
# PCOD8213531 Si02
#       7
#     8   8   8   8   8   8   8
#     4   8  18  35  50  68  97 133 167 199 240 295
#     4  10  21  37  55  76 103 133 166 205 251 304
#     4   9  17  32  52  71  96 130 166 202 242 288
#     4  11  21  34  54  77 102 132 168 209 254 302
#     4   9  17  32  52  71  96 130 166 202 242 288
#     4  10  21  37  55  76 103 133 166 205 251 304
#     4   8  15  29  49  72  99 132 165 195 236 295
#
# _framework density 18.172871000000001
#
# number of rings (size 3 to 8) (size 9 to 14) (size 15 to 20)
#    0.000    2.714    0.000    3.429    0.000    5.143 
#    0.000    8.571    0.000    0.857    0.000    0.000 
#    0.000    0.000    0.000    0.000    0.000    0.000 
#
# Total GULP energy -694188.215807 kJ/mol
# GULP energy per Si atom -12396.218139 kJ/mol
# Density = 1.813151 g / cm^3
# Si number density = 18.172871 Si / 1000 Ang^3
#
#
#
# Elastic Constant Matrix: (Units=GPa)
#
#
# Indices 1 2 3 4 5 6 
#
# 1 66.6991 47.8294 42.2862 0.0000 0.0000 0.0000
# 2 47.8294 169.8193 86.4656 0.0000 0.0000 0.0000
# 3 42.2862 86.4656 154.5697 0.0000 0.0000 0.0000
# 4 0.0000 0.0000 0.0000 26.5027 0.0000 0.0000
# 5 0.0000 0.0000 0.0000 0.0000 38.5469 0.0000
# 6 0.0000 0.0000 0.0000 0.0000 0.0000 17.3524
#
#
#
# Elastic Compliance Matrix: (Units=1/GPa)
#
#
# Indices 1 2 3 4 5 6 
#
# 1 0.019873 -0.003956 -0.003224 0.000000 0.000000 0.000000
# 2 -0.003956 0.009021 -0.003964 0.000000 0.000000 0.000000
# 3 -0.003224 -0.003964 0.009569 0.000000 0.000000 0.000000
# 4 0.000000 0.000000 0.000000 0.037732 0.000000 0.000000
# 5 0.000000 0.000000 0.000000 0.000000 0.025942 0.000000
# 6 0.000000 0.000000 0.000000 0.000000 0.000000 0.057629
#
#
# Mechanical properties :
#
#
# Convention : Reuss Voigt Hill
#
# Bulk Modulus (GPa) = 61.82111 82.69452 72.25781
# Shear Modulus (GPa) = 26.67425 30.78086 28.72755
#
# Velocity S-wave (km/s) = 3.83535 4.12002 3.98023
# Velocity P-wave (km/s) = 7.32840 8.26050 7.80837
#
# Compressibility (1/GPa) = 0.01617571
#
# Stress axis : x y z
#
# Youngs Moduli (GPa) = 50.31873 110.85020 104.50272
#
# Poissons Ratio (x) = 0.43850 0.33691
# Poissons Ratio (y) = 0.19905 0.41427
# Poissons Ratio (z) = 0.16223 0.43943
#
# Static dielectric constant tensor:
#      x y z
#    x 3.108900 0.000000 0.000000 
#    y 0.000000 3.850430 0.000000 
#    z 0.000000 0.000000 3.392640 
# 
# 
# High freq. dielectric constant tensor:
#      x y z
#    x 1.681520 0.000000 0.000000 
#    y 0.000000 1.709420 0.000000 
#    z 0.000000 0.000000 1.712260 
# 
# From -- ./inp_files/21849.got.cif
#   From: 2010.03.12/outbox.cif.g09.slc.cpg/sg51_11_cif.got.tgz:21849.got - 2010.04.16 13:43:02.
