data_PCOD8213915
_publ_section_title
;
Structure prediction by ZEFSAII (Michael W. Deem and Ramdas Pophale) SiO2 
 PCOD8213915
Probable space group: P M M A
;
_chemical_formula_sum "Si O2"
_cell_formula_units_Z 48
_cell_length_a 8.974344
_cell_length_b 30.512449
_cell_length_c 9.687266
_cell_angle_alpha 90.000000
_cell_angle_beta 90.000000
_cell_angle_gamma 90.000000
_cell_volume 2652.656431
_symmetry_space_group_name_H-M "P M M A"
_symmetry_group_IT_number 51
_symmetry_cell_setting 'orthorhombic'
loop_
_space_group_symop_operation_xyz
x,y,z
1/2-x,-y,z
1/2+x,-y,-z
-x,y,-z
-x,-y,-z
1/2+x,y,-z
1/2-x,y,z
x,-y,z
loop_
_atom_site_type_symbol
_atom_site_label
_atom_site_fract_x
_atom_site_fract_y
_atom_site_fract_z
Si Si1 0.425634 0.859151 0.647390
Si Si2 0.074223 0.787572 0.858736
Si Si3 0.076183 0.688616 0.859142
Si Si4 0.423910 0.953731 0.646377
Si Si5 0.921877 0.448288 0.858956
Si Si6 0.426747 0.613827 0.649051
O O1 0.500000 0.853690 0.500000
O O2 0.250000 0.854073 0.627889
O O3 0.488382 0.820555 0.743407
O O4 0.466656 0.907017 0.717090
O O5 0.250000 0.791815 0.875213
O O6 0.026323 0.737982 0.820031
O O7 0.000000 0.802479 0.000000
O O8 0.250000 0.686121 0.887718
O O9 0.029451 0.657580 0.732984
O O10 0.000000 0.672369 0.000000
O O11 0.500000 0.954630 0.500000
O O12 0.250000 0.953383 0.618176
O O13 0.466915 0.000000 0.726013
O O14 0.750000 0.433281 0.862700
O O15 0.936474 0.500000 0.841720
O O16 0.005830 0.427714 0.728520
O O17 0.000000 0.432314 0.000000
O O18 0.500000 0.617564 0.500000
O O19 0.250000 0.607905 0.634362
#
# Coordination Sequence:
#
# PCOD8213915 Si02
#       6
#     8   8   8   8   8   8
#     4   9  17  28  44  67  93 120 152 193 238 284
#     4   9  18  33  50  69  94 124 160 198 238 287
#     4   9  19  35  54  74  96 126 164 204 243 288
#     4   8  13  22  37  58  84 114 148 186 229 276
#     4  10  21  38  60  84 109 139 175 212 249 292
#     4  11  23  37  54  78 108 139 170 207 253 300
#
# _framework density 18.09507
#
# number of rings (size 3 to 8) (size 9 to 14) (size 15 to 20)
#    0.000    2.667    0.000    1.500    0.000    5.333 
#    0.000    0.000    0.000    0.500    0.000    0.000 
#    0.000    0.000    0.000    0.000    0.000    0.000 
#
# Total GULP energy -594788.953334 kJ/mol
# GULP energy per Si atom -12391.436528 kJ/mol
# Density = 1.805388 g / cm^3
# Si number density = 18.095070 Si / 1000 Ang^3
#
#
#
# Elastic Constant Matrix: (Units=GPa)
#
#
# Indices 1 2 3 4 5 6 
#
# 1 56.4506 43.4813 47.4926 0.0000 0.0000 0.0000
# 2 43.4813 107.8846 71.7003 0.0000 0.0000 0.0000
# 3 47.4926 71.7003 125.8536 0.0000 0.0000 0.0000
# 4 0.0000 0.0000 0.0000 24.7131 0.0000 0.0000
# 5 0.0000 0.0000 0.0000 0.0000 30.6604 0.0000
# 6 0.0000 0.0000 0.0000 0.0000 0.0000 35.7421
#
#
#
# Elastic Compliance Matrix: (Units=1/GPa)
#
#
# Indices 1 2 3 4 5 6 
#
# 1 0.028982 -0.007101 -0.006891 0.000000 0.000000 0.000000
# 2 -0.007101 0.016657 -0.006810 0.000000 0.000000 0.000000
# 3 -0.006891 -0.006810 0.014426 0.000000 0.000000 0.000000
# 4 0.000000 0.000000 0.000000 0.040464 0.000000 0.000000
# 5 0.000000 0.000000 0.000000 0.000000 0.032615 0.000000
# 6 0.000000 0.000000 0.000000 0.000000 0.000000 0.027978
#
#
# Mechanical properties :
#
#
# Convention : Reuss Voigt Hill
#
# Bulk Modulus (GPa) = 54.16966 68.39301 61.28133
# Shear Modulus (GPa) = 23.93713 26.72410 25.33062
#
# Velocity S-wave (km/s) = 3.64105 3.84718 3.74553
# Velocity P-wave (km/s) = 6.90489 7.59032 7.25570
#
# Compressibility (1/GPa) = 0.01846052
#
# Stress axis : x y z
#
# Youngs Moduli (GPa) = 34.50458 60.03462 69.31877
#
# Poissons Ratio (x) = 0.42629 0.47770
# Poissons Ratio (y) = 0.24501 0.47207
# Poissons Ratio (z) = 0.23778 0.40885
#
# Static dielectric constant tensor:
#      x y z
#    x 3.335970 0.000000 0.000000 
#    y 0.000000 4.015420 0.000000 
#    z 0.000000 0.000000 3.144130 
# 
# 
# High freq. dielectric constant tensor:
#      x y z
#    x 1.701610 0.000000 0.000000 
#    y 0.000000 1.725310 0.000000 
#    z 0.000000 0.000000 1.668730 
# 
# From -- ./inp_files/5982.got.cif
#   From: 2010.03.12/outbox.cif.g09.slc.cpg/sg51_3_cif.got.tgz:5982.got - 2010.04.16 13:43:02.
