data_PCOD8213771
_publ_section_title
;
Structure prediction by ZEFSAII (Michael W. Deem and Ramdas Pophale) SiO2 
 PCOD8213771
Probable space group: P M M A
;
_chemical_formula_sum "Si O2"
_cell_formula_units_Z 64
_cell_length_a 13.833158
_cell_length_b 10.452912
_cell_length_c 20.601584
_cell_angle_alpha 90.000000
_cell_angle_beta 90.000000
_cell_angle_gamma 90.000000
_cell_volume 2978.922776
_symmetry_space_group_name_H-M "P M M A"
_symmetry_group_IT_number 51
_symmetry_cell_setting 'orthorhombic'
loop_
_space_group_symop_operation_xyz
x,y,z
1/2-x,-y,z
1/2+x,-y,-z
-x,y,-z
-x,-y,-z
1/2+x,y,-z
1/2-x,y,z
x,-y,z
loop_
_atom_site_type_symbol
_atom_site_label
_atom_site_fract_x
_atom_site_fract_y
_atom_site_fract_z
Si Si1 0.860813 0.143857 0.559192
Si Si2 0.356544 0.358514 0.248495
Si Si3 0.142737 0.849984 0.764588
Si Si4 0.856608 0.217031 0.882712
Si Si5 0.004906 0.255089 0.655907
Si Si6 0.059024 0.141627 0.900423
Si Si7 0.639303 0.355426 0.452897
Si Si8 0.858848 0.642632 0.010342
O O1 0.750000 0.165823 0.582367
O O2 0.935278 0.155185 0.618737
O O3 0.890124 0.250586 0.506450
O O4 0.871517 0.000000 0.529902
O O5 0.250000 0.332352 0.278520
O O6 0.362203 0.500000 0.219183
O O7 0.376264 0.263017 0.190008
O O8 0.435539 0.348757 0.304642
O O9 0.250000 0.789913 0.754707
O O10 0.099043 0.800797 0.832771
O O11 0.075329 0.818961 0.704085
O O12 0.151060 0.000000 0.769480
O O13 0.750000 0.151221 0.887769
O O14 0.943218 0.119480 0.897542
O O15 0.861392 0.335222 0.933021
O O16 0.070044 0.339754 0.608408
O O17 0.080316 0.246052 0.955284
O O18 0.102938 0.000000 0.916630
O O19 0.750000 0.332927 0.431042
O O20 0.626044 0.500000 0.480746
O O21 0.750000 0.651611 0.036983
O O22 0.900777 0.500000 0.024580
#
# Coordination Sequence:
#
# PCOD8213771 Si02
#       8
#     8   8   8   8   8   8   8   8
#     4  10  23  42  64  92 125 161 203 251 303 362
#     4  10  21  37  58  87 124 165 205 250 310 374
#     4  10  22  40  60  85 121 163 204 250 307 370
#     4  10  21  39  61  89 124 162 207 261 314 373
#     4  12  21  37  63  92 121 159 206 254 303 359
#     4  11  23  41  63  91 125 165 211 260 316 377
#     4  10  23  42  63  91 128 164 201 250 306 361
#     4  10  22  40  64  93 124 163 212 265 319 374
#
# _framework density 21.484273999999999
#
# number of rings (size 3 to 8) (size 9 to 14) (size 15 to 20)
#    0.000    1.625    1.250    3.000    0.000    8.000 
#    0.000    3.750    0.000    2.250    0.000    0.000 
#    0.000    0.000    0.000    0.000    0.000    0.000 
#
# Total GULP energy -793271.562842 kJ/mol
# GULP energy per Si atom -12394.868169 kJ/mol
# Density = 2.143538 g / cm^3
# Si number density = 21.484274 Si / 1000 Ang^3
#
#
#
# Elastic Constant Matrix: (Units=GPa)
#
#
# Indices 1 2 3 4 5 6 
#
# 1 138.0072 28.3772 55.0416 0.0000 0.0000 0.0000
# 2 28.3772 104.6277 41.9920 0.0000 0.0000 0.0000
# 3 55.0416 41.9920 110.7667 0.0000 0.0000 0.0000
# 4 0.0000 0.0000 0.0000 24.0323 0.0000 0.0000
# 5 0.0000 0.0000 0.0000 0.0000 42.6596 0.0000
# 6 0.0000 0.0000 0.0000 0.0000 0.0000 10.2847
#
#
#
# Elastic Compliance Matrix: (Units=1/GPa)
#
#
# Indices 1 2 3 4 5 6 
#
# 1 0.009089 -0.000770 -0.004225 0.000000 0.000000 0.000000
# 2 -0.000770 0.011338 -0.003916 0.000000 0.000000 0.000000
# 3 -0.004225 -0.003916 0.012612 0.000000 0.000000 0.000000
# 4 0.000000 0.000000 0.000000 0.041611 0.000000 0.000000
# 5 0.000000 0.000000 0.000000 0.000000 0.023441 0.000000
# 6 0.000000 0.000000 0.000000 0.000000 0.000000 0.097231
#
#
# Mechanical properties :
#
#
# Convention : Reuss Voigt Hill
#
# Bulk Modulus (GPa) = 65.70899 67.13591 66.42245
# Shear Modulus (GPa) = 22.91307 30.59471 26.75389
#
# Velocity S-wave (km/s) = 3.26928 3.77775 3.53268
# Velocity P-wave (km/s) = 6.70090 7.09544 6.90099
#
# Compressibility (1/GPa) = 0.01521862
#
# Stress axis : x y z
#
# Youngs Moduli (GPa) = 110.02028 88.19861 79.29022
#
# Poissons Ratio (x) = 0.06787 0.33499
# Poissons Ratio (y) = 0.08467 0.31049
# Poissons Ratio (z) = 0.46482 0.34538
#
# Static dielectric constant tensor:
#      x y z
#    x 4.297210 0.000000 0.000000 
#    y 0.000000 3.592190 0.000000 
#    z 0.000000 0.000000 3.770210 
# 
# 
# High freq. dielectric constant tensor:
#      x y z
#    x 1.869300 0.000000 0.000000 
#    y 0.000000 1.826190 0.000000 
#    z 0.000000 0.000000 1.833570 
# 
# From -- ./inp_files/29840.got.cif
#   From: 2010.03.12/outbox.cif.g09.slc.cpg/sg51_15_cif.got.tgz:29840.got - 2010.04.16 13:43:02.
