data_PCOD8213950
_publ_section_title
;
Structure prediction by ZEFSAII (Michael W. Deem and Ramdas Pophale) SiO2 
 PCOD8213950
Probable space group: P M M A
;
_chemical_formula_sum "Si O2"
_cell_formula_units_Z 48
_cell_length_a 17.555298
_cell_length_b 8.910295
_cell_length_c 15.107453
_cell_angle_alpha 90.000000
_cell_angle_beta 90.000000
_cell_angle_gamma 90.000000
_cell_volume 2363.151368
_symmetry_space_group_name_H-M "P M M A"
_symmetry_group_IT_number 51
_symmetry_cell_setting 'orthorhombic'
loop_
_space_group_symop_operation_xyz
x,y,z
1/2-x,-y,z
1/2+x,-y,-z
-x,y,-z
-x,-y,-z
1/2+x,y,-z
1/2-x,y,z
x,-y,z
loop_
_atom_site_type_symbol
_atom_site_label
_atom_site_fract_x
_atom_site_fract_y
_atom_site_fract_z
Si Si1 0.162297 0.827345 0.973704
Si Si2 0.418315 0.176765 0.153928
Si Si3 0.337881 0.173392 0.659067
Si Si4 0.580546 0.323660 0.183054
Si Si5 0.585733 0.826788 0.524137
Si Si6 0.337358 0.325602 0.313593
O O1 0.250000 0.800792 0.998117
O O2 0.141132 0.725080 0.890653
O O3 0.146912 0.000000 0.947921
O O4 0.112025 0.778795 0.057296
O O5 0.500575 0.246861 0.165247
O O6 0.359272 0.237553 0.225470
O O7 0.424596 0.000000 0.165440
O O8 0.250000 0.214532 0.673480
O O9 0.389142 0.276622 0.721081
O O10 0.359386 0.207461 0.558077
O O11 0.354097 0.000000 0.682354
O O12 0.569080 0.500000 0.180771
O O13 0.500000 0.782782 0.500000
O O14 0.610411 0.724852 0.605449
O O15 0.591159 0.000000 0.553307
O O16 0.250000 0.289641 0.336619
O O17 0.351403 0.500000 0.296157
#
# Coordination Sequence:
#
# PCOD8213950 Si02
#       6
#     8   8   8   8   8   8
#     4  10  22  41  64  89 117 153 199 246 290 344
#     4  11  23  41  65  89 116 156 204 248 291 345
#     4  10  21  38  60  86 118 158 204 250 292 343
#     4  12  25  39  59  89 123 157 194 242 302 360
#     4  10  21  38  62  90 118 154 201 247 291 345
#     4  11  24  40  60  90 126 159 192 239 300 360
#
# _framework density 20.311858999999998
#
# number of rings (size 3 to 8) (size 9 to 14) (size 15 to 20)
#    0.000    1.333    0.000    5.500    0.000   11.000 
#    0.000    0.000    0.000    0.000    0.000    0.000 
#    0.000    0.000    0.000    0.000    0.000    0.000 
#
# Total GULP energy -595570.411633 kJ/mol
# GULP energy per Si atom -12407.716909 kJ/mol
# Density = 2.026563 g / cm^3
# Si number density = 20.311859 Si / 1000 Ang^3
#
#
#
# Elastic Constant Matrix: (Units=GPa)
#
#
# Indices 1 2 3 4 5 6 
#
# 1 79.8645 29.9262 12.6629 0.0000 0.0000 0.0000
# 2 29.9262 85.8269 35.4702 0.0000 0.0000 0.0000
# 3 12.6629 35.4702 73.5028 0.0000 0.0000 0.0000
# 4 0.0000 0.0000 0.0000 -2.3917 0.0000 0.0000
# 5 0.0000 0.0000 0.0000 0.0000 41.4977 0.0000
# 6 0.0000 0.0000 0.0000 0.0000 0.0000 27.0364
#
#
#
# Elastic Compliance Matrix: (Units=1/GPa)
#
#
# Indices 1 2 3 4 5 6 
#
# 1 0.014403 -0.004992 -0.000072 0.000000 0.000000 0.000000
# 2 -0.004992 0.016284 -0.006998 0.000000 0.000000 0.000000
# 3 -0.000072 -0.006998 0.016995 0.000000 0.000000 0.000000
# 4 0.000000 0.000000 0.000000 -0.418113 0.000000 0.000000
# 5 0.000000 0.000000 0.000000 0.000000 0.024098 0.000000
# 6 0.000000 0.000000 0.000000 0.000000 0.000000 0.036987
#
#
# Mechanical properties :
#
#
# Convention : Reuss Voigt Hill
#
# Bulk Modulus (GPa) = 42.45104 43.92366 43.18735
# Shear Modulus (GPa) = -18.02660 23.97080 2.97210
#
# Velocity S-wave (km/s) = -2.98231 3.43904 1.21095
# Velocity P-wave (km/s) = 3.01431 6.11890 4.82323
#
# Compressibility (1/GPa) = 0.02355655
#
# Stress axis : x y z
#
# Youngs Moduli (GPa) = 69.42828 61.40889 58.84251
#
# Poissons Ratio (x) = 0.30657 0.00425
# Poissons Ratio (y) = 0.34661 0.41179
# Poissons Ratio (z) = 0.00502 0.42975
#
# Static dielectric constant tensor:
#      x y z
#    x 3.891040 0.000000 0.000000 
#    y 0.000000 3.705090 0.000000 
#    z 0.000000 0.000000 3.822140 
# 
# 
# High freq. dielectric constant tensor:
#      x y z
#    x 1.811920 0.000000 0.000000 
#    y 0.000000 1.788710 0.000000 
#    z 0.000000 0.000000 1.806190 
# 
# From -- ./inp_files/24774.got.cif
#   From: 2010.03.12/outbox.cif.g09.slc.cpg/sg51_13_cif.got.tgz:24774.got - 2010.04.16 13:43:02.
