data_PCOD8213897
_publ_section_title
;
Structure prediction by ZEFSAII (Michael W. Deem and Ramdas Pophale) SiO2 
 PCOD8213897
Probable space group: P M M A
;
_chemical_formula_sum "Si O2"
_cell_formula_units_Z 48
_cell_length_a 8.477440
_cell_length_b 30.178373
_cell_length_c 9.472443
_cell_angle_alpha 90.000000
_cell_angle_beta 90.000000
_cell_angle_gamma 90.000000
_cell_volume 2423.385736
_symmetry_space_group_name_H-M "P M M A"
_symmetry_group_IT_number 51
_symmetry_cell_setting 'orthorhombic'
loop_
_space_group_symop_operation_xyz
x,y,z
1/2-x,-y,z
1/2+x,-y,-z
-x,y,-z
-x,-y,-z
1/2+x,y,-z
1/2-x,y,z
x,-y,z
loop_
_atom_site_type_symbol
_atom_site_label
_atom_site_fract_x
_atom_site_fract_y
_atom_site_fract_z
Si Si1 0.064417 0.716592 0.845065
Si Si2 0.436693 0.950396 0.650351
Si Si3 0.931429 0.450204 0.345178
Si Si4 0.436179 0.128125 0.843309
Si Si5 0.935613 0.792438 0.657500
Si Si6 0.066225 0.621837 0.147923
O O1 0.250000 0.725216 0.841887
O O2 0.981240 0.745685 0.725825
O O3 0.026590 0.665910 0.806012
O O4 0.000000 0.729039 0.000000
O O5 0.500000 0.933576 0.500000
O O6 0.250000 0.949861 0.643139
O O7 0.498802 0.917298 0.771483
O O8 0.499880 0.000000 0.683814
O O9 0.750000 0.434463 0.343770
O O10 0.945994 0.500000 0.283563
O O11 0.000000 0.448967 0.500000
O O12 0.039369 0.417322 0.256932
O O13 0.250000 0.128630 0.849497
O O14 0.491805 0.169215 0.752027
O O15 0.500000 0.131740 0.000000
O O16 0.750000 0.797955 0.653351
O O17 0.000000 0.795432 0.500000
O O18 0.250000 0.633474 0.135291
O O19 0.000000 0.604391 0.000000
#
# Coordination Sequence:
#
# PCOD8213897 Si02
#       6
#     8   8   8   8   8   8
#     4  11  22  40  63  88 118 152 190 233 285 341
#     4   9  19  36  58  84 115 151 192 238 288 342
#     4  10  21  38  59  84 115 152 194 240 290 343
#     4  11  23  39  59  85 117 154 195 239 289 342
#     4  12  25  42  62  87 117 150 191 237 287 341
#     4  11  22  38  60  87 118 153 193 237 287 341
#
# _framework density 19.806998
#
# number of rings (size 3 to 8) (size 9 to 14) (size 15 to 20)
#    0.000    1.333    0.000    7.500    0.000    5.000 
#    0.000    3.333    0.000    0.000    0.000    0.000 
#    0.000    0.000    0.000    0.000    0.000    0.000 
#
# Total GULP energy -595378.304634 kJ/mol
# GULP energy per Si atom -12403.714680 kJ/mol
# Density = 1.976192 g / cm^3
# Si number density = 19.806998 Si / 1000 Ang^3
#
#
#
# Elastic Constant Matrix: (Units=GPa)
#
#
# Indices 1 2 3 4 5 6 
#
# 1 33.1355 5.6351 12.8178 0.0000 0.0000 0.0000
# 2 5.6351 100.8657 72.1063 0.0000 0.0000 0.0000
# 3 12.8178 72.1063 137.4504 0.0000 0.0000 0.0000
# 4 0.0000 0.0000 0.0000 -0.5617 0.0000 0.0000
# 5 0.0000 0.0000 0.0000 0.0000 37.0388 0.0000
# 6 0.0000 0.0000 0.0000 0.0000 0.0000 -322.0655
#
#
#
# Elastic Compliance Matrix: (Units=1/GPa)
#
#
# Indices 1 2 3 4 5 6 
#
# 1 0.031327 0.000541 -0.003205 0.000000 0.000000 0.000000
# 2 0.000541 0.015873 -0.008377 0.000000 0.000000 0.000000
# 3 -0.003205 -0.008377 0.011969 0.000000 0.000000 0.000000
# 4 0.000000 0.000000 0.000000 -1.780312 0.000000 0.000000
# 5 0.000000 0.000000 0.000000 0.000000 0.026999 0.000000
# 6 0.000000 0.000000 0.000000 0.000000 0.000000 -0.003105
#
#
# Mechanical properties :
#
#
# Convention : Reuss Voigt Hill
#
# Bulk Modulus (GPa) = 26.96442 50.28556 38.62499
# Shear Modulus (GPa) = -3.00697 -45.05820 -24.03258
#
# Velocity S-wave (km/s) = -1.23346 -4.77473 -3.48708
# Velocity P-wave (km/s) = 3.40801 2.22586 1.82484
#
# Compressibility (1/GPa) = 0.03708591
#
# Stress axis : x y z
#
# Youngs Moduli (GPa) = 31.92142 63.00168 83.54964
#
# Poissons Ratio (x) = -0.03410 0.26780
# Poissons Ratio (y) = -0.01728 0.69991
# Poissons Ratio (z) = 0.10232 0.52778
#
# Static dielectric constant tensor:
#      x y z
#    x 3.743130 0.000000 0.000000 
#    y 0.000000 3.877460 0.000000 
#    z 0.000000 0.000000 3.606160 
# 
# 
# High freq. dielectric constant tensor:
#      x y z
#    x 1.787110 0.000000 0.000000 
#    y 0.000000 1.784820 0.000000 
#    z 0.000000 0.000000 1.773740 
# 
# From -- ./inp_files/6033.got.cif
#   From: 2010.03.12/outbox.cif.g09.slc.cpg/sg51_4_cif.got.tgz:6033.got - 2010.04.16 13:43:02.
