data_PCOD8213583
_publ_section_title
;
Structure prediction by ZEFSAII (Michael W. Deem and Ramdas Pophale) SiO2 
 PCOD8213583
Probable space group: P M M A
;
_chemical_formula_sum "Si O2"
_cell_formula_units_Z 64
_cell_length_a 8.726749
_cell_length_b 19.600104
_cell_length_c 20.269591
_cell_angle_alpha 90.000000
_cell_angle_beta 90.000000
_cell_angle_gamma 90.000000
_cell_volume 3467.016003
_symmetry_space_group_name_H-M "P M M A"
_symmetry_group_IT_number 51
_symmetry_cell_setting 'orthorhombic'
loop_
_space_group_symop_operation_xyz
x,y,z
1/2-x,-y,z
1/2+x,-y,-z
-x,y,-z
-x,-y,-z
1/2+x,y,-z
1/2-x,y,z
x,-y,z
loop_
_atom_site_type_symbol
_atom_site_label
_atom_site_fract_x
_atom_site_fract_y
_atom_site_fract_z
Si Si1 0.568463 0.824424 0.431537
Si Si2 0.930555 0.677744 0.070093
Si Si3 0.069977 0.178853 0.069867
Si Si4 0.567906 0.924418 0.319662
Si Si5 0.572128 0.421297 0.311177
Si Si6 0.426933 0.420440 0.173881
Si Si7 0.426055 0.920142 0.828474
Si Si8 0.930708 0.330577 0.431820
O O1 0.500000 0.852057 0.500000
O O2 0.750000 0.829878 0.435228
O O3 0.501362 0.870573 0.372273
O O4 0.514792 0.746909 0.418701
O O5 0.750000 0.684957 0.062835
O O6 0.998828 0.749753 0.094125
O O7 0.969643 0.619941 0.122549
O O8 0.000000 0.655910 0.000000
O O9 0.250000 0.187994 0.061629
O O10 0.035048 0.120729 0.122706
O O11 0.000000 0.156414 0.000000
O O12 0.750000 0.926218 0.322650
O O13 0.518984 0.902856 0.245869
O O14 0.503798 0.000000 0.336352
O O15 0.750000 0.405921 0.296797
O O16 0.545541 0.500000 0.329305
O O17 0.475705 0.399447 0.247455
O O18 0.508909 0.376967 0.372044
O O19 0.250000 0.401658 0.163377
O O20 0.458801 0.500000 0.162111
O O21 0.250000 0.897858 0.839195
O O22 0.445438 0.000000 0.842843
O O23 0.750000 0.335644 0.437622
O O24 0.000000 0.358540 0.500000
#
# Coordination Sequence:
#
# PCOD8213583 Si02
#       8
#     8   8   8   8   8   8   8   8
#     4   9  17  30  47  68  95 126 162 202 247 298
#     4  11  22  38  59  81 108 140 176 217 260 307
#     4  11  22  37  56  79 108 139 174 215 261 312
#     4   8  15  29  49  71  96 128 165 204 247 299
#     4   9  18  33  51  72  99 131 169 212 257 306
#     4  10  21  37  56  80 110 141 174 213 259 312
#     4   9  18  34  55  78 104 136 176 219 263 313
#     4   9  18  31  47  69  97 130 167 209 256 307
#
# _framework density 18.459679000000001
#
# number of rings (size 3 to 8) (size 9 to 14) (size 15 to 20)
#    0.000    2.500    0.000    4.125    0.000    3.500 
#    0.000    3.125    0.000    0.750    0.000    0.000 
#    0.000    0.000    0.000    0.000    0.000    0.000 
#
# Total GULP energy -793693.289059 kJ/mol
# GULP energy per Si atom -12401.457642 kJ/mol
# Density = 1.841766 g / cm^3
# Si number density = 18.459679 Si / 1000 Ang^3
#
#
#
# Elastic Constant Matrix: (Units=GPa)
#
#
# Indices 1 2 3 4 5 6 
#
# 1 82.1604 36.2931 45.4704 0.0000 0.0000 0.0000
# 2 36.2931 85.1409 81.3422 0.0000 0.0000 0.0000
# 3 45.4704 81.3422 139.0502 0.0000 0.0000 0.0000
# 4 0.0000 0.0000 0.0000 41.8409 0.0000 0.0000
# 5 0.0000 0.0000 0.0000 0.0000 32.2304 0.0000
# 6 0.0000 0.0000 0.0000 0.0000 0.0000 22.4727
#
#
#
# Elastic Compliance Matrix: (Units=1/GPa)
#
#
# Indices 1 2 3 4 5 6 
#
# 1 0.015435 -0.003984 -0.002717 0.000000 0.000000 0.000000
# 2 -0.003984 0.027654 -0.014875 0.000000 0.000000 0.000000
# 3 -0.002717 -0.014875 0.016782 0.000000 0.000000 0.000000
# 4 0.000000 0.000000 0.000000 0.023900 0.000000 0.000000
# 5 0.000000 0.000000 0.000000 0.000000 0.031027 0.000000
# 6 0.000000 0.000000 0.000000 0.000000 0.000000 0.044498
#
#
# Mechanical properties :
#
#
# Convention : Reuss Voigt Hill
#
# Bulk Modulus (GPa) = 59.80828 70.28476 65.04652
# Shear Modulus (GPa) = 24.03621 28.85852 26.44737
#
# Velocity S-wave (km/s) = 3.61237 3.95818 3.78922
# Velocity P-wave (km/s) = 7.06178 7.68421 7.37956
#
# Compressibility (1/GPa) = 0.01672009
#
# Stress axis : x y z
#
# Youngs Moduli (GPa) = 64.78924 36.16060 59.58943
#
# Poissons Ratio (x) = 0.14406 0.16189
# Poissons Ratio (y) = 0.25811 0.88637
# Poissons Ratio (z) = 0.17602 0.53788
#
# Static dielectric constant tensor:
#      x y z
#    x 3.227500 0.000000 0.000000 
#    y 0.000000 3.480680 0.000000 
#    z 0.000000 0.000000 3.510350 
# 
# 
# High freq. dielectric constant tensor:
#      x y z
#    x 1.703320 0.000000 0.000000 
#    y 0.000000 1.714440 0.000000 
#    z 0.000000 0.000000 1.722730 
# 
# From -- ./inp_files/32622.got.cif
#   From: 2010.03.12/outbox.cif.g09.slc.cpg/sg51_17_cif.got.tgz:32622.got - 2010.04.16 13:43:02.
