data_PCOD8213658
_publ_section_title
;
Structure prediction by ZEFSAII (Michael W. Deem and Ramdas Pophale) SiO2 
 PCOD8213658
Probable space group: P M M A
;
_chemical_formula_sum "Si O2"
_cell_formula_units_Z 40
_cell_length_a 8.748656
_cell_length_b 24.787118
_cell_length_c 10.086979
_cell_angle_alpha 90.000000
_cell_angle_beta 90.000000
_cell_angle_gamma 90.000000
_cell_volume 2187.401427
_symmetry_space_group_name_H-M "P M M A"
_symmetry_group_IT_number 51
_symmetry_cell_setting 'orthorhombic'
loop_
_space_group_symop_operation_xyz
x,y,z
1/2-x,-y,z
1/2+x,-y,-z
-x,y,-z
-x,-y,-z
1/2+x,y,-z
1/2-x,y,z
x,-y,z
loop_
_atom_site_type_symbol
_atom_site_label
_atom_site_fract_x
_atom_site_fract_y
_atom_site_fract_z
Si Si1 0.928864 0.058429 0.144115
Si Si2 0.069055 0.834405 0.146741
Si Si3 0.427171 0.758890 0.638756
Si Si4 0.570205 0.438867 0.861758
Si Si5 0.073624 0.367587 0.637007
O O1 0.750000 0.071374 0.133116
O O2 0.012580 0.108974 0.214380
O O3 0.955329 0.000000 0.216435
O O4 0.000000 0.054041 0.000000
O O5 0.250000 0.833523 0.136719
O O6 0.013153 0.786313 0.239304
O O7 0.000000 0.827177 0.000000
O O8 0.500000 0.778009 0.500000
O O9 0.250000 0.775266 0.638772
O O10 0.451061 0.695602 0.659536
O O11 0.750000 0.434059 0.872534
O O12 0.518949 0.500000 0.828150
O O13 0.511144 0.398802 0.751657
O O14 0.500000 0.419725 0.000000
O O15 0.250000 0.383678 0.635964
O O16 0.000000 0.386619 0.500000
#
# Coordination Sequence:
#
# PCOD8213658 Si02
#       5
#     8   8   8   8   8
#     4   9  16  27  45  70 101 135 170 212 261 310
#     4  11  21  33  52  78 107 139 176 219 263 309
#     4  10  21  38  57  78 105 138 176 216 263 316
#     4  10  21  37  57  81 110 143 177 215 261 312
#     4  10  21  37  58  81 106 138 176 219 262 309
#
# _framework density 18.286538
#
# number of rings (size 3 to 8) (size 9 to 14) (size 15 to 20)
#    0.000    2.000    0.000    5.400    0.000    6.000 
#    0.000    0.000    0.000    0.600    0.000    0.000 
#    0.000    0.000    0.000    0.000    0.000    0.000 
#
# Total GULP energy -495920.793597 kJ/mol
# GULP energy per Si atom -12398.019840 kJ/mol
# Density = 1.824492 g / cm^3
# Si number density = 18.286538 Si / 1000 Ang^3
#
#
#
# Elastic Constant Matrix: (Units=GPa)
#
#
# Indices 1 2 3 4 5 6 
#
# 1 133.3982 45.1801 56.2138 0.0000 0.0000 0.0000
# 2 45.1801 60.9941 53.8885 0.0000 0.0000 0.0000
# 3 56.2138 53.8885 106.7393 0.0000 0.0000 0.0000
# 4 0.0000 0.0000 0.0000 60.0316 0.0000 0.0000
# 5 0.0000 0.0000 0.0000 0.0000 34.0205 0.0000
# 6 0.0000 0.0000 0.0000 0.0000 0.0000 33.8573
#
#
#
# Elastic Compliance Matrix: (Units=1/GPa)
#
#
# Indices 1 2 3 4 5 6 
#
# 1 0.010478 -0.005210 -0.002888 0.000000 0.000000 0.000000
# 2 -0.005210 0.032187 -0.013506 0.000000 0.000000 0.000000
# 3 -0.002888 -0.013506 0.017708 0.000000 0.000000 0.000000
# 4 0.000000 0.000000 0.000000 0.016658 0.000000 0.000000
# 5 0.000000 0.000000 0.000000 0.000000 0.029394 0.000000
# 6 0.000000 0.000000 0.000000 0.000000 0.000000 0.029536
#
#
# Mechanical properties :
#
#
# Convention : Reuss Voigt Hill
#
# Bulk Modulus (GPa) = 58.25728 67.96625 63.11176
# Shear Modulus (GPa) = 27.04313 35.30516 31.17414
#
# Velocity S-wave (km/s) = 3.84976 4.39870 4.13335
# Velocity P-wave (km/s) = 7.18944 7.94016 7.57411
#
# Compressibility (1/GPa) = 0.01716524
#
# Stress axis : x y z
#
# Youngs Moduli (GPa) = 95.44021 31.06862 56.47080
#
# Poissons Ratio (x) = 0.16186 0.16308
# Poissons Ratio (y) = 0.49722 0.76271
# Poissons Ratio (z) = 0.27562 0.41962
#
# Static dielectric constant tensor:
#      x y z
#    x 3.518690 0.000000 0.000000 
#    y 0.000000 3.814870 0.000000 
#    z 0.000000 0.000000 3.174370 
# 
# 
# High freq. dielectric constant tensor:
#      x y z
#    x 1.731560 0.000000 0.000000 
#    y 0.000000 1.719050 0.000000 
#    z 0.000000 0.000000 1.682750 
# 
# From -- ./inp_files/5234.got.cif
#   From: 2010.03.12/outbox.cif.g09.slc.cpg/sg51_3_cif.got.tgz:5234.got - 2010.04.16 13:43:02.
