data_PCOD8213834
_publ_section_title
;
Structure prediction by ZEFSAII (Michael W. Deem and Ramdas Pophale) SiO2 
 PCOD8213834
Probable space group: P M M A
;
_chemical_formula_sum "Si O2"
_cell_formula_units_Z 32
_cell_length_a 15.193252
_cell_length_b 12.240866
_cell_length_c 8.629664
_cell_angle_alpha 90.000000
_cell_angle_beta 90.000000
_cell_angle_gamma 90.000000
_cell_volume 1604.932500
_symmetry_space_group_name_H-M "P M M A"
_symmetry_group_IT_number 51
_symmetry_cell_setting 'orthorhombic'
loop_
_space_group_symop_operation_xyz
x,y,z
1/2-x,-y,z
1/2+x,-y,-z
-x,y,-z
-x,-y,-z
1/2+x,y,-z
1/2-x,y,z
x,-y,z
loop_
_atom_site_type_symbol
_atom_site_label
_atom_site_fract_x
_atom_site_fract_y
_atom_site_fract_z
Si Si1 0.906360 0.776705 0.565603
Si Si2 0.403377 0.223056 0.067126
Si Si3 0.147238 0.000000 0.591335
Si Si4 0.597799 0.000000 0.062092
Si Si5 0.750000 0.622845 0.564291
Si Si6 0.250000 0.621432 0.067617
O O1 0.909784 0.782868 0.749434
O O2 0.836268 0.687290 0.506025
O O3 0.000000 0.739188 0.500000
O O4 0.880063 0.895329 0.505960
O O5 0.338318 0.318409 0.009708
O O6 0.500000 0.246024 0.000000
O O7 0.358836 0.110886 0.003243
O O8 0.095470 0.000000 0.752675
O O9 0.250000 0.000000 0.627836
O O10 0.500000 0.000000 0.000000
O O11 0.750000 0.500000 0.494865
O O12 0.750000 0.618196 0.748265
O O13 0.250000 0.500000 0.996624
#
# Coordination Sequence:
#
# PCOD8213834 Si02
#       6
#     8   8   4   4   4   4
#     4  11  21  39  63  87 121 158 196 243 297 355
#     4  10  21  38  60  88 117 153 196 238 292 353
#     4  12  24  38  61  92 123 157 196 246 296 353
#     4  10  21  38  57  87 120 150 188 234 289 348
#     4   9  20  39  59  86 118 155 202 243 290 355
#     4   9  20  37  59  82 114 157 196 239 290 345
#
# _framework density 19.938534000000001
#
# number of rings (size 3 to 8) (size 9 to 14) (size 15 to 20)
#    0.000    1.750    1.250    4.125    1.750    1.000 
#    0.000    0.000    0.000   10.500    0.000    0.000 
#    0.000    0.000    0.000    0.000    0.000    0.000 
#
# Total GULP energy -396798.843822 kJ/mol
# GULP energy per Si atom -12399.963869 kJ/mol
# Density = 1.989315 g / cm^3
# Si number density = 19.938534 Si / 1000 Ang^3
#
#
#
# Elastic Constant Matrix: (Units=GPa)
#
#
# Indices 1 2 3 4 5 6 
#
# 1 157.8736 93.9402 40.5463 0.0000 0.0000 0.0000
# 2 93.9402 204.0319 44.7015 0.0000 0.0000 0.0000
# 3 40.5463 44.7015 92.4737 0.0000 0.0000 0.0000
# 4 0.0000 0.0000 0.0000 45.7045 0.0000 0.0000
# 5 0.0000 0.0000 0.0000 0.0000 24.9229 0.0000
# 6 0.0000 0.0000 0.0000 0.0000 0.0000 29.5261
#
#
#
# Elastic Compliance Matrix: (Units=1/GPa)
#
#
# Indices 1 2 3 4 5 6 
#
# 1 0.009107 -0.003711 -0.002199 0.000000 0.000000 0.000000
# 2 -0.003711 0.006994 -0.001754 0.000000 0.000000 0.000000
# 3 -0.002199 -0.001754 0.012626 0.000000 0.000000 0.000000
# 4 0.000000 0.000000 0.000000 0.021880 0.000000 0.000000
# 5 0.000000 0.000000 0.000000 0.000000 0.040124 0.000000
# 6 0.000000 0.000000 0.000000 0.000000 0.000000 0.033868
#
#
# Mechanical properties :
#
#
# Convention : Reuss Voigt Hill
#
# Bulk Modulus (GPa) = 74.63258 90.30614 82.46936
# Shear Modulus (GPa) = 34.62746 38.37678 36.50212
#
# Velocity S-wave (km/s) = 4.17191 4.39196 4.28335
# Velocity P-wave (km/s) = 7.79224 8.43266 8.11877
#
# Compressibility (1/GPa) = 0.01339897
#
# Stress axis : x y z
#
# Youngs Moduli (GPa) = 109.80083 142.97552 79.20257
#
# Poissons Ratio (x) = 0.53064 0.17418
# Poissons Ratio (y) = 0.40751 0.13889
# Poissons Ratio (z) = 0.24147 0.25073
#
# Static dielectric constant tensor:
#      x y z
#    x 3.852890 0.000000 0.000000 
#    y 0.000000 4.275690 0.000000 
#    z 0.000000 0.000000 3.459570 
# 
# 
# High freq. dielectric constant tensor:
#      x y z
#    x 1.787960 0.000000 0.000000 
#    y 0.000000 1.783900 0.000000 
#    z 0.000000 0.000000 1.766080 
# 
# From -- ./inp_files/7635.got.cif
#   From: 2010.03.12/outbox.cif.g09.slc.cpg/sg51_4_cif.got.tgz:7635.got - 2010.04.16 13:43:02.
