data_PCOD8213645
_publ_section_title
;
Structure prediction by ZEFSAII (Michael W. Deem and Ramdas Pophale) SiO2 
 PCOD8213645
Probable space group: P M M A
;
_chemical_formula_sum "Si O2"
_cell_formula_units_Z 48
_cell_length_a 9.131911
_cell_length_b 9.132236
_cell_length_c 30.820951
_cell_angle_alpha 90.000000
_cell_angle_beta 90.000000
_cell_angle_gamma 90.000000
_cell_volume 2570.306008
_symmetry_space_group_name_H-M "P M M A"
_symmetry_group_IT_number 51
_symmetry_cell_setting 'orthorhombic'
loop_
_space_group_symop_operation_xyz
x,y,z
1/2-x,-y,z
1/2+x,-y,-z
-x,y,-z
-x,-y,-z
1/2+x,y,-z
1/2-x,y,z
x,-y,z
loop_
_atom_site_type_symbol
_atom_site_label
_atom_site_fract_x
_atom_site_fract_y
_atom_site_fract_z
Si Si1 0.921968 0.330233 0.285063
Si Si2 0.419837 0.328039 0.870299
Si Si3 0.920911 0.832834 0.042969
Si Si4 0.920363 0.830117 0.542470
Si Si5 0.582660 0.670962 0.627963
Si Si6 0.421088 0.171214 0.207390
O O1 0.750000 0.301393 0.284256
O O2 0.958875 0.500000 0.275584
O O3 0.983982 0.281192 0.331540
O O4 0.997394 0.230677 0.249404
O O5 0.250000 0.290510 0.861078
O O6 0.448298 0.500000 0.869075
O O7 0.469546 0.267269 0.916894
O O8 0.519213 0.251985 0.834718
O O9 0.750000 0.819884 0.034280
O O10 0.967516 0.000000 0.052963
O O11 0.000000 0.773326 0.000000
O O12 0.750000 0.798647 0.536425
O O13 0.980118 0.750563 0.585398
O O14 0.000000 0.765869 0.500000
O O15 0.956759 0.000000 0.548049
O O16 0.750000 0.718511 0.637457
O O17 0.570880 0.500000 0.619131
O O18 0.250000 0.204591 0.212179
O O19 0.453526 0.000000 0.202684
#
# Coordination Sequence:
#
# PCOD8213645 Si02
#       6
#     8   8   8   8   8   8
#     4  10  21  37  57  81 108 138 173 214 262 316
#     4  10  21  37  57  81 109 142 180 221 266 316
#     4   9  18  33  53  77 107 143 180 219 263 310
#     4   9  18  32  49  70  98 132 169 210 256 305
#     4   9  18  33  52  74 102 136 171 209 256 308
#     4  11  24  39  56  80 108 139 177 219 263 314
#
# _framework density 18.674821000000001
#
# number of rings (size 3 to 8) (size 9 to 14) (size 15 to 20)
#    0.000    2.333    0.000    2.000    0.000    8.000 
#    0.000    3.333    0.000    0.000    0.000    0.000 
#    0.000    0.000    0.000    0.000    0.000    0.000 
#
# Total GULP energy -595366.000684 kJ/mol
# GULP energy per Si atom -12403.458348 kJ/mol
# Density = 1.863232 g / cm^3
# Si number density = 18.674821 Si / 1000 Ang^3
#
#
#
# Elastic Constant Matrix: (Units=GPa)
#
#
# Indices 1 2 3 4 5 6 
#
# 1 75.6395 48.9006 72.9877 0.0000 0.0000 0.0000
# 2 48.9006 75.1856 72.8003 0.0000 0.0000 0.0000
# 3 72.9877 72.8003 174.9284 0.0000 0.0000 0.0000
# 4 0.0000 0.0000 0.0000 41.8958 0.0000 0.0000
# 5 0.0000 0.0000 0.0000 0.0000 42.0256 0.0000
# 6 0.0000 0.0000 0.0000 0.0000 0.0000 25.4131
#
#
#
# Elastic Compliance Matrix: (Units=1/GPa)
#
#
# Indices 1 2 3 4 5 6 
#
# 1 0.026638 -0.010993 -0.006539 0.000000 0.000000 0.000000
# 2 -0.010993 0.026814 -0.006573 0.000000 0.000000 0.000000
# 3 -0.006539 -0.006573 0.011180 0.000000 0.000000 0.000000
# 4 0.000000 0.000000 0.000000 0.023869 0.000000 0.000000
# 5 0.000000 0.000000 0.000000 0.000000 0.023795 0.000000
# 6 0.000000 0.000000 0.000000 0.000000 0.000000 0.039350
#
#
# Mechanical properties :
#
#
# Convention : Reuss Voigt Hill
#
# Bulk Modulus (GPa) = 60.89271 79.45898 70.17585
# Shear Modulus (GPa) = 24.35093 30.60456 27.47775
#
# Velocity S-wave (km/s) = 3.61493 4.05262 3.84002
# Velocity P-wave (km/s) = 7.07823 8.03364 7.57102
#
# Compressibility (1/GPa) = 0.01642233
#
# Stress axis : x y z
#
# Youngs Moduli (GPa) = 37.54055 37.29326 89.44184
#
# Poissons Ratio (x) = 0.40998 0.58489
# Poissons Ratio (y) = 0.41270 0.58786
# Poissons Ratio (z) = 0.24549 0.24511
#
# Static dielectric constant tensor:
#      x y z
#    x 3.409260 0.000000 0.000000 
#    y 0.000000 3.429040 0.000000 
#    z 0.000000 0.000000 3.666100 
# 
# 
# High freq. dielectric constant tensor:
#      x y z
#    x 1.721880 0.000000 0.000000 
#    y 0.000000 1.721670 0.000000 
#    z 0.000000 0.000000 1.739630 
# 
# From -- ./inp_files/36973.got.cif
#   From: 2010.03.12/outbox.cif.g09.slc.cpg/sg51_19_cif.got.tgz:36973.got - 2010.04.16 13:43:02.
