data_PCOD8213427
_publ_section_title
;
Structure prediction by ZEFSAII (Michael W. Deem and Ramdas Pophale) SiO2 
 PCOD8213427
Probable space group: P M M A
;
_chemical_formula_sum "Si O2"
_cell_formula_units_Z 64
_cell_length_a 19.772654
_cell_length_b 9.094944
_cell_length_c 18.541584
_cell_angle_alpha 90.000000
_cell_angle_beta 90.000000
_cell_angle_gamma 90.000000
_cell_volume 3334.354946
_symmetry_space_group_name_H-M "P M M A"
_symmetry_group_IT_number 51
_symmetry_cell_setting 'orthorhombic'
loop_
_space_group_symop_operation_xyz
x,y,z
1/2-x,-y,z
1/2+x,-y,-z
-x,y,-z
-x,-y,-z
1/2+x,y,-z
1/2-x,y,z
x,-y,z
loop_
_atom_site_type_symbol
_atom_site_label
_atom_site_fract_x
_atom_site_fract_y
_atom_site_fract_z
Si Si1 0.828738 0.171532 0.048297
Si Si2 0.429760 0.831153 0.708580
Si Si3 0.066061 0.828445 0.542378
Si Si4 0.328220 0.671597 0.448892
Si Si5 0.171590 0.670557 0.805435
Si Si6 0.827286 0.169786 0.695510
Si Si7 0.434790 0.327741 0.046805
Si Si8 0.441101 0.169467 0.194736
O O1 0.750000 0.201630 0.033536
O O2 0.852296 0.244100 0.123129
O O3 0.845355 0.000000 0.052830
O O4 0.869542 0.242822 0.982863
O O5 0.443910 0.790964 0.626004
O O6 0.369476 0.729457 0.737235
O O7 0.497946 0.797840 0.751322
O O8 0.407254 0.000000 0.717174
O O9 0.131286 0.742372 0.514529
O O10 0.000000 0.772797 0.500000
O O11 0.078142 0.000000 0.528720
O O12 0.250000 0.709208 0.462127
O O13 0.342434 0.500000 0.447025
O O14 0.352591 0.737593 0.372792
O O15 0.250000 0.699592 0.789213
O O16 0.156016 0.500000 0.817985
O O17 0.750000 0.206866 0.715539
O O18 0.871574 0.210386 0.764986
O O19 0.837256 0.000000 0.674513
O O20 0.419390 0.500000 0.045547
O O21 0.449399 0.276127 0.127443
O O22 0.500000 0.286771 0.000000
O O23 0.440828 0.000000 0.169105
#
# Coordination Sequence:
#
# PCOD8213427 Si02
#       8
#     8   8   8   8   8   8   8   8
#     4  10  21  38  61  86 111 143 185 230 274 323
#     4  10  21  36  56  81 109 143 183 229 276 324
#     4  10  21  38  59  82 109 143 186 233 278 326
#     4  10  21  36  55  82 115 148 183 224 272 328
#     4  10  21  37  57  81 111 145 179 221 274 329
#     4   9  18  35  59  83 109 144 184 225 270 322
#     4  11  24  39  56  82 115 149 185 225 272 328
#     4  10  21  37  57  82 111 143 183 230 276 322
#
# _framework density 19.194116999999999
#
# number of rings (size 3 to 8) (size 9 to 14) (size 15 to 20)
#    0.000    2.000    0.000    3.000    0.000   10.000 
#    0.000    5.000    0.000    0.000    0.000    0.000 
#    0.000    0.000    0.000    0.000    0.000    0.000 
#
# Total GULP energy -794015.336096 kJ/mol
# GULP energy per Si atom -12406.489627 kJ/mol
# Density = 1.915043 g / cm^3
# Si number density = 19.194117 Si / 1000 Ang^3
#
#
#
# Elastic Constant Matrix: (Units=GPa)
#
#
# Indices 1 2 3 4 5 6 
#
# 1 89.7431 55.3136 65.1409 0.0000 0.0000 0.0000
# 2 55.3136 90.3130 63.3866 0.0000 0.0000 0.0000
# 3 65.1409 63.3866 139.7819 0.0000 0.0000 0.0000
# 4 0.0000 0.0000 0.0000 17.2880 0.0000 0.0000
# 5 0.0000 0.0000 0.0000 0.0000 39.4493 0.0000
# 6 0.0000 0.0000 0.0000 0.0000 0.0000 27.9602
#
#
#
# Elastic Compliance Matrix: (Units=1/GPa)
#
#
# Indices 1 2 3 4 5 6 
#
# 1 0.020578 -0.008614 -0.005683 0.000000 0.000000 0.000000
# 2 -0.008614 0.019848 -0.004986 0.000000 0.000000 0.000000
# 3 -0.005683 -0.004986 0.012064 0.000000 0.000000 0.000000
# 4 0.000000 0.000000 0.000000 0.057843 0.000000 0.000000
# 5 0.000000 0.000000 0.000000 0.000000 0.025349 0.000000
# 6 0.000000 0.000000 0.000000 0.000000 0.000000 0.035765
#
#
# Mechanical properties :
#
#
# Convention : Reuss Voigt Hill
#
# Bulk Modulus (GPa) = 71.82858 76.39115 74.10987
# Shear Modulus (GPa) = 23.29325 26.00596 24.64960
#
# Velocity S-wave (km/s) = 3.48740 3.68488 3.58750
# Velocity P-wave (km/s) = 7.32935 7.61512 7.47360
#
# Compressibility (1/GPa) = 0.01392204
#
# Stress axis : x y z
#
# Youngs Moduli (GPa) = 48.59652 50.38292 82.89466
#
# Poissons Ratio (x) = 0.43401 0.47111
# Poissons Ratio (y) = 0.41862 0.41332
# Poissons Ratio (z) = 0.27619 0.25121
#
# Static dielectric constant tensor:
#      x y z
#    x 3.601260 0.000000 0.000000 
#    y 0.000000 3.505740 0.000000 
#    z 0.000000 0.000000 3.458170 
# 
# 
# High freq. dielectric constant tensor:
#      x y z
#    x 1.754820 0.000000 0.000000 
#    y 0.000000 1.747020 0.000000 
#    z 0.000000 0.000000 1.748130 
# 
# From -- ./inp_files/30570.got.cif
#   From: 2010.03.12/outbox.cif.g09.slc.cpg/sg51_16_cif.got.tgz:30570.got - 2010.04.16 13:43:02.
