data_PCOD8213329
_publ_section_title
;
Structure prediction by ZEFSAII (Michael W. Deem and Ramdas Pophale) SiO2 
 PCOD8213329
Probable space group: P M M A
;
_chemical_formula_sum "Si O2"
_cell_formula_units_Z 48
_cell_length_a 9.215985
_cell_length_b 9.256231
_cell_length_c 30.825135
_cell_angle_alpha 90.000000
_cell_angle_beta 90.000000
_cell_angle_gamma 90.000000
_cell_volume 2629.546959
_symmetry_space_group_name_H-M "P M M A"
_symmetry_group_IT_number 51
_symmetry_cell_setting 'orthorhombic'
loop_
_space_group_symop_operation_xyz
x,y,z
1/2-x,-y,z
1/2+x,-y,-z
-x,y,-z
-x,-y,-z
1/2+x,y,-z
1/2-x,y,z
x,-y,z
loop_
_atom_site_type_symbol
_atom_site_label
_atom_site_fract_x
_atom_site_fract_y
_atom_site_fract_z
Si Si1 0.422760 0.163185 0.873530
Si Si2 0.080307 0.333366 0.544032
Si Si3 0.580131 0.333271 0.209798
Si Si4 0.917299 0.170053 0.618627
Si Si5 0.081255 0.665808 0.295389
Si Si6 0.419434 0.667174 0.957057
O O1 0.250000 0.169266 0.873415
O O2 0.482103 0.242912 0.830695
O O3 0.481351 0.243531 0.916326
O O4 0.481277 0.000000 0.873660
O O5 0.250000 0.302875 0.538008
O O6 0.049650 0.500000 0.555854
O O7 0.000000 0.289445 0.500000
O O8 0.018897 0.233423 0.581640
O O9 0.750000 0.308211 0.215873
O O10 0.542893 0.500000 0.200906
O O11 0.503587 0.277250 0.253346
O O12 0.750000 0.210574 0.608814
O O13 0.967802 0.238024 0.664054
O O14 0.940531 0.000000 0.621136
O O15 0.250000 0.684314 0.285552
O O16 0.040824 0.500000 0.305745
O O17 0.250000 0.694807 0.963939
O O18 0.453366 0.500000 0.947943
O O19 0.500000 0.722616 0.000000
#
# Coordination Sequence:
#
# PCOD8213329 Si02
#       6
#     8   8   8   8   8   8
#     4   9  17  29  46  68  93 122 155 191 234 284
#     4  10  21  37  58  82 106 135 173 215 257 301
#     4   9  17  30  49  71  93 120 158 201 240 282
#     4  10  21  36  54  77 106 140 174 208 251 303
#     4   9  18  33  52  73  99 132 167 204 248 295
#     4   9  17  30  48  68  90 118 153 192 233 278
#
# _framework density 18.254093999999998
#
# number of rings (size 3 to 8) (size 9 to 14) (size 15 to 20)
#    0.000    2.667    0.000    1.500    0.000    6.000 
#    0.000    2.500    0.000    5.000    0.000    0.000 
#    0.000    0.000    0.000    0.000    0.000    0.000 
#
# Total GULP energy -595317.346470 kJ/mol
# GULP energy per Si atom -12402.444718 kJ/mol
# Density = 1.821255 g / cm^3
# Si number density = 18.254094 Si / 1000 Ang^3
#
#
#
# Elastic Constant Matrix: (Units=GPa)
#
#
# Indices 1 2 3 4 5 6 
#
# 1 51.8429 39.7390 62.6383 0.0000 0.0000 0.0000
# 2 39.7390 96.9363 89.9553 0.0000 0.0000 0.0000
# 3 62.6383 89.9553 188.3336 0.0000 0.0000 0.0000
# 4 0.0000 0.0000 0.0000 7.9492 0.0000 0.0000
# 5 0.0000 0.0000 0.0000 0.0000 35.1878 0.0000
# 6 0.0000 0.0000 0.0000 0.0000 0.0000 19.8679
#
#
#
# Elastic Compliance Matrix: (Units=1/GPa)
#
#
# Indices 1 2 3 4 5 6 
#
# 1 0.034220 -0.006227 -0.008407 0.000000 0.000000 0.000000
# 2 -0.006227 0.019662 -0.007320 0.000000 0.000000 0.000000
# 3 -0.008407 -0.007320 0.011602 0.000000 0.000000 0.000000
# 4 0.000000 0.000000 0.000000 0.125799 0.000000 0.000000
# 5 0.000000 0.000000 0.000000 0.000000 0.028419 0.000000
# 6 0.000000 0.000000 0.000000 0.000000 0.000000 0.050332
#
#
# Mechanical properties :
#
#
# Convention : Reuss Voigt Hill
#
# Bulk Modulus (GPa) = 46.34852 80.19756 63.27304
# Shear Modulus (GPa) = 15.56983 22.25300 18.91141
#
# Velocity S-wave (km/s) = 2.92370 3.49530 3.22220
# Velocity P-wave (km/s) = 6.06986 7.76653 6.97001
#
# Compressibility (1/GPa) = 0.02157566
#
# Stress axis : x y z
#
# Youngs Moduli (GPa) = 29.22290 50.86019 86.18988
#
# Poissons Ratio (x) = 0.31669 0.72461
# Poissons Ratio (y) = 0.18196 0.63093
# Poissons Ratio (z) = 0.24568 0.37231
#
# Static dielectric constant tensor:
#      x y z
#    x 3.075830 0.000000 0.000000 
#    y 0.000000 3.364980 0.000000 
#    z 0.000000 0.000000 3.557450 
# 
# 
# High freq. dielectric constant tensor:
#      x y z
#    x 1.684030 0.000000 0.000000 
#    y 0.000000 1.704030 0.000000 
#    z 0.000000 0.000000 1.720700 
# 
# From -- ./inp_files/36911.got.cif
#   From: 2010.03.12/outbox.cif.g09.slc.cpg/sg51_19_cif.got.tgz:36911.got - 2010.04.16 13:43:02.
