data_PCOD8213938
_publ_section_title
;
Structure prediction by ZEFSAII (Michael W. Deem and Ramdas Pophale) SiO2 
 PCOD8213938
Probable space group: P M M A
;
_chemical_formula_sum "Si O2"
_cell_formula_units_Z 64
_cell_length_a 9.221110
_cell_length_b 14.065812
_cell_length_c 25.645993
_cell_angle_alpha 90.000000
_cell_angle_beta 90.000000
_cell_angle_gamma 90.000000
_cell_volume 3326.346835
_symmetry_space_group_name_H-M "P M M A"
_symmetry_group_IT_number 51
_symmetry_cell_setting 'orthorhombic'
loop_
_space_group_symop_operation_xyz
x,y,z
1/2-x,-y,z
1/2+x,-y,-z
-x,y,-z
-x,-y,-z
1/2+x,y,-z
1/2-x,y,z
x,-y,z
loop_
_atom_site_type_symbol
_atom_site_label
_atom_site_fract_x
_atom_site_fract_y
_atom_site_fract_z
Si Si1 0.914115 0.612162 0.856817
Si Si2 0.084939 0.106409 0.697189
Si Si3 0.411611 0.112978 0.203333
Si Si4 0.917074 0.704837 0.353696
Si Si5 0.915452 0.106335 0.104056
Si Si6 0.584737 0.612195 0.739023
Si Si7 0.081244 0.610293 0.447294
Si Si8 0.083688 0.706661 0.948962
O O1 0.750000 0.638871 0.873002
O O2 0.935952 0.500000 0.857936
O O3 0.945366 0.649678 0.797948
O O4 0.025160 0.657805 0.897029
O O5 0.250000 0.103368 0.717014
O O6 0.068119 0.180215 0.649499
O O7 0.989910 0.148053 0.744489
O O8 0.035385 0.000000 0.679621
O O9 0.250000 0.155155 0.203285
O O10 0.490876 0.149054 0.151476
O O11 0.413219 0.000000 0.202842
O O12 0.750000 0.674653 0.362826
O O13 0.971001 0.659814 0.299794
O O14 0.015602 0.671682 0.401043
O O15 0.750000 0.103506 0.123348
O O16 0.934219 0.178807 0.055988
O O17 0.966169 0.000000 0.087094
O O18 0.750000 0.636966 0.722486
O O19 0.561225 0.500000 0.736590
O O20 0.250000 0.634406 0.453797
O O21 0.056682 0.500000 0.433867
O O22 0.000000 0.639083 0.500000
O O23 0.250000 0.676985 0.955662
O O24 0.000000 0.670705 0.000000
#
# Coordination Sequence:
#
# PCOD8213938 Si02
#       8
#     8   8   8   8   8   8   8   8
#     4   9  20  40  62  81 105 139 176 218 272 329
#     4   9  19  35  51  71 108 154 192 227 270 320
#     4   9  17  29  48  75 102 132 175 222 265 313
#     4  11  22  33  53  85 116 150 192 233 274 321
#     4   9  19  36  55  75 104 140 173 210 262 324
#     4   9  19  36  56  80 112 147 178 214 270 333
#     4  10  21  38  60  85 116 153 190 231 280 331
#     4  11  24  39  57  80 104 134 176 222 270 324
#
# _framework density 19.240326
#
# number of rings (size 3 to 8) (size 9 to 14) (size 15 to 20)
#    0.000    2.375    0.000    2.625    1.750    7.250 
#    0.000    1.250    0.000    0.375    0.000    0.000 
#    0.000    0.000    0.000    0.000    0.000    0.000 
#
# Total GULP energy -793572.120221 kJ/mol
# GULP energy per Si atom -12399.564378 kJ/mol
# Density = 1.919653 g / cm^3
# Si number density = 19.240326 Si / 1000 Ang^3
#
#
#
# Elastic Constant Matrix: (Units=GPa)
#
#
# Indices 1 2 3 4 5 6 
#
# 1 121.5617 35.4888 64.8731 0.0000 0.0000 0.0000
# 2 35.4888 43.7925 40.2495 0.0000 0.0000 0.0000
# 3 64.8731 40.2495 110.4357 0.0000 0.0000 0.0000
# 4 0.0000 0.0000 0.0000 25.1612 0.0000 0.0000
# 5 0.0000 0.0000 0.0000 0.0000 37.1566 0.0000
# 6 0.0000 0.0000 0.0000 0.0000 0.0000 23.4347
#
#
#
# Elastic Compliance Matrix: (Units=1/GPa)
#
#
# Indices 1 2 3 4 5 6 
#
# 1 0.012717 -0.005172 -0.005585 0.000000 0.000000 0.000000
# 2 -0.005172 0.036441 -0.010243 0.000000 0.000000 0.000000
# 3 -0.005585 -0.010243 0.016069 0.000000 0.000000 0.000000
# 4 0.000000 0.000000 0.000000 0.039744 0.000000 0.000000
# 5 0.000000 0.000000 0.000000 0.000000 0.026913 0.000000
# 6 0.000000 0.000000 0.000000 0.000000 0.000000 0.042672
#
#
# Mechanical properties :
#
#
# Convention : Reuss Voigt Hill
#
# Bulk Modulus (GPa) = 43.05517 61.89029 52.47273
# Shear Modulus (GPa) = 22.29178 26.16238 24.22708
#
# Velocity S-wave (km/s) = 3.40751 3.69150 3.55235
# Velocity P-wave (km/s) = 6.15692 7.09975 6.64507
#
# Compressibility (1/GPa) = 0.02322601
#
# Stress axis : x y z
#
# Youngs Moduli (GPa) = 78.63567 27.44184 62.23141
#
# Poissons Ratio (x) = 0.14194 0.34757
# Poissons Ratio (y) = 0.40673 0.63743
# Poissons Ratio (z) = 0.43919 0.28108
#
# Static dielectric constant tensor:
#      x y z
#    x 3.620460 0.000000 0.000000 
#    y 0.000000 3.568280 0.000000 
#    z 0.000000 0.000000 3.310020 
# 
# 
# High freq. dielectric constant tensor:
#      x y z
#    x 1.754470 0.000000 0.000000 
#    y 0.000000 1.751880 0.000000 
#    z 0.000000 0.000000 1.727110 
# 
# From -- ./inp_files/34835.got.cif
#   From: 2010.03.12/outbox.cif.g09.slc.cpg/sg51_18_cif.got.tgz:34835.got - 2010.04.16 13:43:02.
