data_PCOD8213819
_publ_section_title
;
Structure prediction by ZEFSAII (Michael W. Deem and Ramdas Pophale) SiO2 
 PCOD8213819
Probable space group: P M M A
;
_chemical_formula_sum "Si O2"
_cell_formula_units_Z 48
_cell_length_a 8.505674
_cell_length_b 9.568329
_cell_length_c 29.320596
_cell_angle_alpha 90.000000
_cell_angle_beta 90.000000
_cell_angle_gamma 90.000000
_cell_volume 2386.259262
_symmetry_space_group_name_H-M "P M M A"
_symmetry_group_IT_number 51
_symmetry_cell_setting 'orthorhombic'
loop_
_space_group_symop_operation_xyz
x,y,z
1/2-x,-y,z
1/2+x,-y,-z
-x,y,-z
-x,-y,-z
1/2+x,y,-z
1/2-x,y,z
x,-y,z
loop_
_atom_site_type_symbol
_atom_site_label
_atom_site_fract_x
_atom_site_fract_y
_atom_site_fract_z
Si Si1 0.434435 0.661790 0.870312
Si Si2 0.934432 0.247843 0.605814
Si Si3 0.064141 0.158620 0.211672
Si Si4 0.062854 0.341732 0.295354
Si Si5 0.561116 0.500000 0.449448
Si Si6 0.934293 0.159308 0.949805
Si Si7 0.429806 0.000000 0.550373
O O1 0.250000 0.670467 0.861741
O O2 0.491455 0.500000 0.868541
O O3 0.521676 0.754074 0.832829
O O4 0.476108 0.728977 0.918780
O O5 0.750000 0.216095 0.605318
O O6 0.994792 0.275021 0.657195
O O7 0.978018 0.374527 0.574768
O O8 0.027294 0.125775 0.582555
O O9 0.250000 0.148970 0.215146
O O10 0.996163 0.242556 0.255279
O O11 0.994614 0.000000 0.210046
O O12 0.250000 0.348026 0.294246
O O13 0.996281 0.500000 0.289768
O O14 0.750000 0.500000 0.445982
O O15 0.500000 0.500000 0.500000
O O16 0.750000 0.191509 0.948824
O O17 0.967325 0.000000 0.933230
O O18 0.000000 0.181426 0.000000
O O19 0.500000 0.000000 0.500000
O O20 0.250000 0.000000 0.539096
#
# Coordination Sequence:
#
# PCOD8213819 Si02
#       7
#     8   8   8   8   4   8   4
#     4  11  24  40  58  84 121 164 208 253 304 358
#     4  11  22  40  65  92 121 158 202 249 301 361
#     4  10  21  37  62  93 121 153 199 249 298 357
#     4   9  18  35  61  91 120 153 195 241 291 353
#     4  12  24  40  62  90 124 160 200 248 299 358
#     4  10  21  38  62  91 122 159 204 252 305 363
#     4  12  26  44  62  88 122 160 202 248 305 362
#
# _framework density 20.115165999999999
#
# number of rings (size 3 to 8) (size 9 to 14) (size 15 to 20)
#    0.000    1.500    0.833    4.500    1.167    5.667 
#    0.000    1.667    0.000    0.000    0.000    0.000 
#    0.000    0.000    0.000    0.000    0.000    0.000 
#
# Total GULP energy -595080.681588 kJ/mol
# GULP energy per Si atom -12397.514200 kJ/mol
# Density = 2.006938 g / cm^3
# Si number density = 20.115166 Si / 1000 Ang^3
#
#
#
# Elastic Constant Matrix: (Units=GPa)
#
#
# Indices 1 2 3 4 5 6 
#
# 1 43.9735 16.5806 11.3575 0.0000 0.0000 0.0000
# 2 16.5806 170.2847 73.4423 0.0000 0.0000 0.0000
# 3 11.3575 73.4423 131.3973 0.0000 0.0000 0.0000
# 4 0.0000 0.0000 0.0000 32.1746 0.0000 0.0000
# 5 0.0000 0.0000 0.0000 0.0000 28.5889 0.0000
# 6 0.0000 0.0000 0.0000 0.0000 0.0000 30.2633
#
#
#
# Elastic Compliance Matrix: (Units=1/GPa)
#
#
# Indices 1 2 3 4 5 6 
#
# 1 0.023707 -0.001877 -0.001000 0.000000 0.000000 0.000000
# 2 -0.001877 0.007886 -0.004246 0.000000 0.000000 0.000000
# 3 -0.001000 -0.004246 0.010070 0.000000 0.000000 0.000000
# 4 0.000000 0.000000 0.000000 0.031080 0.000000 0.000000
# 5 0.000000 0.000000 0.000000 0.000000 0.034979 0.000000
# 6 0.000000 0.000000 0.000000 0.000000 0.000000 0.033043
#
#
# Mechanical properties :
#
#
# Convention : Reuss Voigt Hill
#
# Bulk Modulus (GPa) = 36.47256 60.93514 48.70385
# Shear Modulus (GPa) = 30.45979 34.49035 32.47507
#
# Velocity S-wave (km/s) = 3.89558 4.14532 4.02239
# Velocity P-wave (km/s) = 6.19720 7.29866 6.77037
#
# Compressibility (1/GPa) = 0.02741787
#
# Stress axis : x y z
#
# Youngs Moduli (GPa) = 42.18165 126.79995 99.30455
#
# Poissons Ratio (x) = 0.23801 0.09930
# Poissons Ratio (y) = 0.07918 0.42162
# Poissons Ratio (z) = 0.04218 0.53836
#
# Static dielectric constant tensor:
#      x y z
#    x 3.599050 0.000000 0.000000 
#    y 0.000000 3.957190 0.000000 
#    z 0.000000 0.000000 3.911870 
# 
# 
# High freq. dielectric constant tensor:
#      x y z
#    x 1.770020 0.000000 0.000000 
#    y 0.000000 1.802840 0.000000 
#    z 0.000000 0.000000 1.802700 
# 
# From -- ./inp_files/37180.got.cif
#   From: 2010.03.12/outbox.cif.g09.slc.cpg/sg51_19_cif.got.tgz:37180.got - 2010.04.16 13:43:02.
