data_PCOD8213356
_publ_section_title
;
Structure prediction by ZEFSAII (Michael W. Deem and Ramdas Pophale) SiO2 
 PCOD8213356
Probable space group: P M M A
;
_chemical_formula_sum "Si O2"
_cell_formula_units_Z 40
_cell_length_a 25.051454
_cell_length_b 9.349017
_cell_length_c 9.125852
_cell_angle_alpha 90.000000
_cell_angle_beta 90.000000
_cell_angle_gamma 90.000000
_cell_volume 2137.333576
_symmetry_space_group_name_H-M "P M M A"
_symmetry_group_IT_number 51
_symmetry_cell_setting 'orthorhombic'
loop_
_space_group_symop_operation_xyz
x,y,z
1/2-x,-y,z
1/2+x,-y,-z
-x,y,-z
-x,-y,-z
1/2+x,y,-z
1/2-x,y,z
x,-y,z
loop_
_atom_site_type_symbol
_atom_site_label
_atom_site_fract_x
_atom_site_fract_y
_atom_site_fract_z
Si Si1 0.406706 0.332196 0.344460
Si Si2 0.810824 0.166300 0.143342
Si Si3 0.902236 0.835765 0.358769
Si Si4 0.689693 0.665489 0.856715
Si Si5 0.993838 0.163801 0.831327
O O1 0.416984 0.500000 0.359074
O O2 0.411949 0.263471 0.502996
O O3 0.348156 0.297825 0.279958
O O4 0.450628 0.268155 0.237311
O O5 0.750000 0.205418 0.184482
O O6 0.847369 0.211285 0.280171
O O7 0.818145 0.000000 0.108061
O O8 0.829777 0.248439 0.998630
O O9 0.949654 0.811736 0.245124
O O10 0.899646 0.000000 0.411602
O O11 0.750000 0.709240 0.812210
O O12 0.685963 0.500000 0.899142
O O13 0.974624 0.000000 0.813055
O O14 0.000000 0.205635 0.000000
#
# Coordination Sequence:
#
# PCOD8213356 Si02
#       5
#     8   8   8   8   8
#     4  11  23  36  53  79 109 140 176 218 260 306
#     4   9  18  34  57  83 107 134 175 223 263 304
#     4  10  21  36  54  78 109 141 172 211 262 317
#     4   9  19  36  55  76 105 140 176 214 259 311
#     4  10  21  38  59  79 102 137 177 215 262 319
#
# _framework density 18.714908000000001
#
# number of rings (size 3 to 8) (size 9 to 14) (size 15 to 20)
#    0.000    2.200    0.000    2.400    0.000    8.400 
#    0.000    0.000    0.000    0.000    0.000    0.000 
#    0.000    0.000    0.000    0.000    0.000    0.000 
#
# Total GULP energy -496155.483173 kJ/mol
# GULP energy per Si atom -12403.887079 kJ/mol
# Density = 1.867231 g / cm^3
# Si number density = 18.714908 Si / 1000 Ang^3
#
#
#
# Elastic Constant Matrix: (Units=GPa)
#
#
# Indices 1 2 3 4 5 6 
#
# 1 98.1281 53.1467 65.8694 0.0000 0.0000 0.0000
# 2 53.1467 81.2098 71.8764 0.0000 0.0000 0.0000
# 3 65.8694 71.8764 151.8141 0.0000 0.0000 0.0000
# 4 0.0000 0.0000 0.0000 15.6413 0.0000 0.0000
# 5 0.0000 0.0000 0.0000 0.0000 22.3906 0.0000
# 6 0.0000 0.0000 0.0000 0.0000 0.0000 28.6800
#
#
#
# Elastic Compliance Matrix: (Units=1/GPa)
#
#
# Indices 1 2 3 4 5 6 
#
# 1 0.016856 -0.007846 -0.003599 0.000000 0.000000 0.000000
# 2 -0.007846 0.024847 -0.008360 0.000000 0.000000 0.000000
# 3 -0.003599 -0.008360 0.012106 0.000000 0.000000 0.000000
# 4 0.000000 0.000000 0.000000 0.063933 0.000000 0.000000
# 5 0.000000 0.000000 0.000000 0.000000 0.044662 0.000000
# 6 0.000000 0.000000 0.000000 0.000000 0.000000 0.034868
#
#
# Mechanical properties :
#
#
# Convention : Reuss Voigt Hill
#
# Bulk Modulus (GPa) = 70.41924 79.21520 74.81722
# Shear Modulus (GPa) = 20.69409 22.69301 21.69355
#
# Velocity S-wave (km/s) = 3.32890 3.48597 3.40834
# Velocity P-wave (km/s) = 7.24461 7.65649 7.45340
#
# Compressibility (1/GPa) = 0.01420066
#
# Stress axis : x y z
#
# Youngs Moduli (GPa) = 59.32643 40.24554 82.60071
#
# Poissons Ratio (x) = 0.31576 0.29727
# Poissons Ratio (y) = 0.46547 0.69053
# Poissons Ratio (z) = 0.21351 0.33645
#
# Static dielectric constant tensor:
#      x y z
#    x 3.695330 0.000000 0.000000 
#    y 0.000000 3.435760 0.000000 
#    z 0.000000 0.000000 3.377150 
# 
# 
# High freq. dielectric constant tensor:
#      x y z
#    x 1.740300 0.000000 0.000000 
#    y 0.000000 1.724260 0.000000 
#    z 0.000000 0.000000 1.726160 
# 
# From -- ./inp_files/11417.got.cif
#   From: 2010.03.12/outbox.cif.g09.slc.cpg/sg51_6_cif.got.tgz:11417.got - 2010.04.16 13:43:02.
