data_PCOD8213569
_publ_section_title
;
Structure prediction by ZEFSAII (Michael W. Deem and Ramdas Pophale) SiO2 
 PCOD8213569
Probable space group: P M M A
;
_chemical_formula_sum "Si O2"
_cell_formula_units_Z 64
_cell_length_a 8.683944
_cell_length_b 30.739824
_cell_length_c 14.372445
_cell_angle_alpha 90.000000
_cell_angle_beta 90.000000
_cell_angle_gamma 90.000000
_cell_volume 3836.622295
_symmetry_space_group_name_H-M "P M M A"
_symmetry_group_IT_number 51
_symmetry_cell_setting 'orthorhombic'
loop_
_space_group_symop_operation_xyz
x,y,z
1/2-x,-y,z
1/2+x,-y,-z
-x,y,-z
-x,-y,-z
1/2+x,y,-z
1/2-x,y,z
x,-y,z
loop_
_atom_site_type_symbol
_atom_site_label
_atom_site_fract_x
_atom_site_fract_y
_atom_site_fract_z
Si Si1 0.569742 0.952922 0.898203
Si Si2 0.931212 0.866465 0.102562
Si Si3 0.568067 0.625049 0.791755
Si Si4 0.431300 0.341321 0.405614
Si Si5 0.929737 0.449572 0.098853
Si Si6 0.067247 0.704973 0.898012
Si Si7 0.931177 0.786120 0.791888
Si Si8 0.929608 0.243352 0.592861
O O1 0.750000 0.943507 0.905126
O O2 0.489261 0.911594 0.848607
O O3 0.539010 0.000000 0.848163
O O4 0.500000 0.955594 0.000000
O O5 0.750000 0.867018 0.094107
O O6 0.982457 0.827097 0.166477
O O7 0.000000 0.860582 0.000000
O O8 0.750000 0.632255 0.804206
O O9 0.516873 0.631333 0.684604
O O10 0.517732 0.576732 0.820758
O O11 0.478385 0.658268 0.858029
O O12 0.500000 0.362386 0.500000
O O13 0.250000 0.341644 0.414753
O O14 0.495877 0.292195 0.393284
O O15 0.750000 0.438124 0.098539
O O16 0.960049 0.500000 0.119825
O O17 0.000000 0.435918 0.000000
O O18 0.250000 0.710249 0.900622
O O19 0.993021 0.741709 0.834215
O O20 0.000000 0.710699 0.000000
O O21 0.750000 0.789595 0.811415
O O22 0.969853 0.785876 0.682112
O O23 0.750000 0.246524 0.578344
O O24 0.000000 0.221574 0.500000
#
# Coordination Sequence:
#
# PCOD8213569 Si02
#       8
#     8   8   8   8   8   8   8   8
#     4   9  16  27  44  65  89 121 162 207 252 294
#     4  11  21  32  46  67  95 132 172 207 248 296
#     4  11  21  36  55  77 104 131 165 203 244 291
#     4   9  18  33  52  76 101 128 160 200 246 290
#     4  10  21  37  56  79 105 133 166 203 245 291
#     4  12  24  36  50  70  98 133 169 204 242 285
#     4  11  21  36  51  68  98 132 166 204 245 291
#     4   9  18  33  52  72  96 125 160 202 247 289
#
# _framework density 16.681339000000001
#
# number of rings (size 3 to 8) (size 9 to 14) (size 15 to 20)
#    0.000    1.750    1.250    5.250    0.000    3.500 
#    0.000    0.000    0.000    0.375    0.000    0.000 
#    0.000    0.500    0.000    1.625    0.000    2.250 
#
# Total GULP energy -793501.294366 kJ/mol
# GULP energy per Si atom -12398.457724 kJ/mol
# Density = 1.664337 g / cm^3
# Si number density = 16.681339 Si / 1000 Ang^3
#
#
#
# Elastic Constant Matrix: (Units=GPa)
#
#
# Indices 1 2 3 4 5 6 
#
# 1 73.8904 26.5713 38.7901 0.0000 0.0000 0.0000
# 2 26.5713 83.9123 34.0269 0.0000 0.0000 0.0000
# 3 38.7901 34.0269 87.0919 0.0000 0.0000 0.0000
# 4 0.0000 0.0000 0.0000 -1.2638 0.0000 0.0000
# 5 0.0000 0.0000 0.0000 0.0000 26.7463 0.0000
# 6 0.0000 0.0000 0.0000 0.0000 0.0000 28.8594
#
#
#
# Elastic Compliance Matrix: (Units=1/GPa)
#
#
# Indices 1 2 3 4 5 6 
#
# 1 0.018259 -0.002952 -0.006979 0.000000 0.000000 0.000000
# 2 -0.002952 0.014638 -0.004404 0.000000 0.000000 0.000000
# 3 -0.006979 -0.004404 0.016311 0.000000 0.000000 0.000000
# 4 0.000000 0.000000 0.000000 -0.791264 0.000000 0.000000
# 5 0.000000 0.000000 0.000000 0.000000 0.037388 0.000000
# 6 0.000000 0.000000 0.000000 0.000000 0.000000 0.034651
#
#
# Mechanical properties :
#
#
# Convention : Reuss Voigt Hill
#
# Bulk Modulus (GPa) = 48.69097 49.29682 48.99389
# Shear Modulus (GPa) = -7.88021 20.56879 6.34429
#
# Velocity S-wave (km/s) = -2.17583 3.51528 1.95230
# Velocity P-wave (km/s) = 4.78957 6.78914 5.87505
#
# Compressibility (1/GPa) = 0.02053769
#
# Stress axis : x y z
#
# Youngs Moduli (GPa) = 54.76810 68.31589 61.30687
#
# Poissons Ratio (x) = 0.20165 0.42787
# Poissons Ratio (y) = 0.16166 0.27002
# Poissons Ratio (z) = 0.38223 0.30089
#
# Static dielectric constant tensor:
#      x y z
#    x 3.217920 0.000000 0.000000 
#    y 0.000000 3.424520 0.000000 
#    z 0.000000 0.000000 3.102300 
# 
# 
# High freq. dielectric constant tensor:
#      x y z
#    x 1.658510 0.000000 0.000000 
#    y 0.000000 1.633770 0.000000 
#    z 0.000000 0.000000 1.621160 
# 
# From -- ./inp_files/22615.got.cif
#   From: 2010.03.12/outbox.cif.g09.slc.cpg/sg51_12_cif.got.tgz:22615.got - 2010.04.16 13:43:02.
