data_PCOD8213416
_publ_section_title
;
Structure prediction by ZEFSAII (Michael W. Deem and Ramdas Pophale) SiO2 
 PCOD8213416
Probable space group: P M M A
;
_chemical_formula_sum "Si O2"
_cell_formula_units_Z 48
_cell_length_a 9.773094
_cell_length_b 9.038348
_cell_length_c 28.543679
_cell_angle_alpha 90.000000
_cell_angle_beta 90.000000
_cell_angle_gamma 90.000000
_cell_volume 2521.338082
_symmetry_space_group_name_H-M "P M M A"
_symmetry_group_IT_number 51
_symmetry_cell_setting 'orthorhombic'
loop_
_space_group_symop_operation_xyz
x,y,z
1/2-x,-y,z
1/2+x,-y,-z
-x,y,-z
-x,-y,-z
1/2+x,y,-z
1/2-x,y,z
x,-y,z
loop_
_atom_site_type_symbol
_atom_site_label
_atom_site_fract_x
_atom_site_fract_y
_atom_site_fract_z
Si Si1 0.092551 0.832573 0.274842
Si Si2 0.521756 0.323549 0.099440
Si Si3 0.250000 0.171628 0.069640
Si Si4 0.401064 0.325961 0.796937
Si Si5 0.095403 0.825393 0.381732
Si Si6 0.250000 0.828658 0.958836
Si Si7 0.908401 0.324897 0.456243
O O1 0.250000 0.819275 0.260421
O O2 0.071649 0.778481 0.328046
O O3 0.008496 0.732813 0.239930
O O4 0.040990 0.000000 0.269892
O O5 0.522591 0.500000 0.093852
O O6 0.374334 0.256765 0.092514
O O7 0.570947 0.271059 0.150504
O O8 0.616958 0.252772 0.060122
O O9 0.250000 0.000000 0.084622
O O10 0.250000 0.187631 0.014223
O O11 0.250000 0.272048 0.782164
O O12 0.412634 0.500000 0.795931
O O13 0.250000 0.777988 0.397231
O O14 0.977670 0.743885 0.410541
O O15 0.079128 0.000000 0.388191
O O16 0.250000 0.000000 0.943572
O O17 0.750000 0.271281 0.461452
O O18 0.913230 0.500000 0.451425
O O19 0.000000 0.270646 0.500000
#
# Coordination Sequence:
#
# PCOD8213416 Si02
#       7
#     8   8   4   8   8   4   8
#     4   9  20  38  59  85 114 146 187 233 280 336
#     4  11  23  41  62  86 117 154 194 236 286 347
#     4  11  25  41  59  89 121 149 189 241 290 341
#     4  10  22  40  58  81 114 148 185 232 281 333
#     4   9  19  37  58  81 113 149 187 233 283 337
#     4  11  23  41  63  87 119 153 189 237 290 343
#     4  10  21  36  55  81 113 150 193 239 285 337
#
# _framework density 19.037509
#
# number of rings (size 3 to 8) (size 9 to 14) (size 15 to 20)
#    0.000    2.000    0.833    3.000    1.167    8.333 
#    0.000    5.000    0.000    0.000    0.000    0.000 
#    0.000    0.000    0.000    0.000    0.000    0.000 
#
# Total GULP energy -595224.606382 kJ/mol
# GULP energy per Si atom -12400.512633 kJ/mol
# Density = 1.899418 g / cm^3
# Si number density = 19.037509 Si / 1000 Ang^3
#
#
#
# Elastic Constant Matrix: (Units=GPa)
#
#
# Indices 1 2 3 4 5 6 
#
# 1 115.8168 45.6674 46.6094 0.0000 0.0000 0.0000
# 2 45.6674 51.0246 38.3727 0.0000 0.0000 0.0000
# 3 46.6094 38.3727 87.5233 0.0000 0.0000 0.0000
# 4 0.0000 0.0000 0.0000 38.4364 0.0000 0.0000
# 5 0.0000 0.0000 0.0000 0.0000 33.7392 0.0000
# 6 0.0000 0.0000 0.0000 0.0000 0.0000**********
#
#
#
# Elastic Compliance Matrix: (Units=1/GPa)
#
#
# Indices 1 2 3 4 5 6 
#
# 1 0.013816 -0.010193 -0.002889 0.000000 0.000000 0.000000
# 2 -0.010193 0.036759 -0.010688 0.000000 0.000000 0.000000
# 3 -0.002889 -0.010688 0.017650 0.000000 0.000000 0.000000
# 4 0.000000 0.000000 0.000000 0.026017 0.000000 0.000000
# 5 0.000000 0.000000 0.000000 0.000000 0.029639 0.000000
# 6 0.000000 0.000000 0.000000 0.000000 0.000000 -0.000095
#
#
# Mechanical properties :
#
#
# Convention : Reuss Voigt Hill
#
# Bulk Modulus (GPa) = 48.34322 57.29598 52.81960
# Shear Modulus (GPa) = 28.05509 -2082.12818 -1027.03654
#
# Velocity S-wave (km/s) = 3.84301 -33.10698 -23.25192
# Velocity P-wave (km/s) = 6.71866 37.83210 26.32610
#
# Compressibility (1/GPa) = 0.02068543
#
# Stress axis : x y z
#
# Youngs Moduli (GPa) = 72.37962 27.20409 56.65797
#
# Poissons Ratio (x) = 0.27729 0.16366
# Poissons Ratio (y) = 0.73777 0.60556
# Poissons Ratio (z) = 0.20908 0.29076
#
# Static dielectric constant tensor:
#      x y z
#    x 3.593100 0.000000 0.000000 
#    y 0.000000 3.421070 0.000000 
#    z 0.000000 0.000000 3.530440 
# 
# 
# High freq. dielectric constant tensor:
#      x y z
#    x 1.754290 0.000000 0.000000 
#    y 0.000000 1.736550 0.000000 
#    z 0.000000 0.000000 1.746650 
# 
# From -- ./inp_files/37148.got.cif
#   From: 2010.03.12/outbox.cif.g09.slc.cpg/sg51_19_cif.got.tgz:37148.got - 2010.04.16 13:43:02.
