data_PCOD8213527
_publ_section_title
;
Structure prediction by ZEFSAII (Michael W. Deem and Ramdas Pophale) SiO2 
 PCOD8213527
Probable space group: P M M A
;
_chemical_formula_sum "Si O2"
_cell_formula_units_Z 56
_cell_length_a 8.895882
_cell_length_b 14.582789
_cell_length_c 23.360975
_cell_angle_alpha 90.000000
_cell_angle_beta 90.000000
_cell_angle_gamma 90.000000
_cell_volume 3030.543835
_symmetry_space_group_name_H-M "P M M A"
_symmetry_group_IT_number 51
_symmetry_cell_setting 'orthorhombic'
loop_
_space_group_symop_operation_xyz
x,y,z
1/2-x,-y,z
1/2+x,-y,-z
-x,y,-z
-x,-y,-z
1/2+x,y,-z
1/2-x,y,z
x,-y,z
loop_
_atom_site_type_symbol
_atom_site_label
_atom_site_fract_x
_atom_site_fract_y
_atom_site_fract_z
Si Si1 0.073021 0.282302 0.558579
Si Si2 0.571748 0.399135 0.783984
Si Si3 0.920752 0.893448 0.257245
Si Si4 0.926911 0.104354 0.059910
Si Si5 0.071511 0.900178 0.613977
Si Si6 0.419464 0.607258 0.343742
Si Si7 0.926300 0.215266 0.839886
O O1 0.250000 0.285369 0.551194
O O2 0.014280 0.178681 0.571270
O O3 0.000000 0.317793 0.500000
O O4 0.029054 0.346426 0.610964
O O5 0.750000 0.404501 0.779801
O O6 0.509257 0.500000 0.802719
O O7 0.515146 0.373326 0.720007
O O8 0.523145 0.321287 0.829477
O O9 0.750000 0.856783 0.248879
O O10 0.980561 0.877009 0.321536
O O11 0.035708 0.840994 0.216786
O O12 0.925101 0.000000 0.241201
O O13 0.750000 0.114077 0.053930
O O14 0.983552 0.175726 0.106751
O O15 0.971950 0.000000 0.076968
O O16 0.000000 0.132085 0.000000
O O17 0.250000 0.904650 0.615033
O O18 0.007210 0.000000 0.594729
O O19 0.250000 0.646210 0.350636
O O20 0.419693 0.500000 0.356167
O O21 0.750000 0.207624 0.852484
#
# Coordination Sequence:
#
# PCOD8213527 Si02
#       7
#     8   8   8   8   8   8   8
#     4  11  22  34  50  71  95 124 160 204 249 296
#     4   8  16  32  53  77 104 133 164 200 247 299
#     4   9  17  30  48  70  98 131 163 197 243 298
#     4  10  21  37  55  75 104 142 179 213 248 287
#     4   8  16  32  51  69  92 125 163 201 244 294
#     4   9  18  35  57  76  97 127 161 200 248 299
#     4  11  20  29  49  79 107 135 167 205 246 291
#
# _framework density 18.478532999999999
#
# number of rings (size 3 to 8) (size 9 to 14) (size 15 to 20)
#    0.000    2.571    0.000    4.286    0.000    3.714 
#    0.000    1.429    0.000    6.857    0.000    0.000 
#    0.000    0.000    0.000    0.000    0.000    0.000 
#
# Total GULP energy -694226.124977 kJ/mol
# GULP energy per Si atom -12396.895089 kJ/mol
# Density = 1.843647 g / cm^3
# Si number density = 18.478533 Si / 1000 Ang^3
#
#
#
# Elastic Constant Matrix: (Units=GPa)
#
#
# Indices 1 2 3 4 5 6 
#
# 1 51.4276 31.1185 30.5165 0.0000 0.0000 0.0000
# 2 31.1185 94.1468 64.4990 0.0000 0.0000 0.0000
# 3 30.5165 64.4990 95.9918 0.0000 0.0000 0.0000
# 4 0.0000 0.0000 0.0000 22.7262 0.0000 0.0000
# 5 0.0000 0.0000 0.0000 0.0000 26.0201 0.0000
# 6 0.0000 0.0000 0.0000 0.0000 0.0000 21.4614
#
#
#
# Elastic Compliance Matrix: (Units=1/GPa)
#
#
# Indices 1 2 3 4 5 6 
#
# 1 0.025311 -0.005287 -0.004494 0.000000 0.000000 0.000000
# 2 -0.005287 0.020786 -0.012286 0.000000 0.000000 0.000000
# 3 -0.004494 -0.012286 0.020101 0.000000 0.000000 0.000000
# 4 0.000000 0.000000 0.000000 0.044002 0.000000 0.000000
# 5 0.000000 0.000000 0.000000 0.000000 0.038432 0.000000
# 6 0.000000 0.000000 0.000000 0.000000 0.000000 0.046595
#
#
# Mechanical properties :
#
#
# Convention : Reuss Voigt Hill
#
# Bulk Modulus (GPa) = 45.32209 54.87046 50.09627
# Shear Modulus (GPa) = 20.26622 21.73703 21.00162
#
# Velocity S-wave (km/s) = 3.31531 3.43350 3.37492
# Velocity P-wave (km/s) = 6.26380 6.74368 6.50816
#
# Compressibility (1/GPa) = 0.02206430
#
# Stress axis : x y z
#
# Youngs Moduli (GPa) = 39.50904 48.10879 49.74813
#
# Poissons Ratio (x) = 0.25437 0.22356
# Poissons Ratio (y) = 0.20890 0.61120
# Poissons Ratio (z) = 0.17754 0.59106
#
# Static dielectric constant tensor:
#      x y z
#    x 3.162010 0.000000 0.000000 
#    y 0.000000 3.732990 0.000000 
#    z 0.000000 0.000000 3.370590 
# 
# 
# High freq. dielectric constant tensor:
#      x y z
#    x 1.694900 0.000000 0.000000 
#    y 0.000000 1.719430 0.000000 
#    z 0.000000 0.000000 1.705420 
# 
# From -- ./inp_files/31917.got.cif
#   From: 2010.03.12/outbox.cif.g09.slc.cpg/sg51_16_cif.got.tgz:31917.got - 2010.04.16 13:43:02.
