data_PCOD8213909
_publ_section_title
;
Structure prediction by ZEFSAII (Michael W. Deem and Ramdas Pophale) SiO2 
 PCOD8213909
Probable space group: P M M A
;
_chemical_formula_sum "Si O2"
_cell_formula_units_Z 48
_cell_length_a 30.686557
_cell_length_b 7.623117
_cell_length_c 10.008755
_cell_angle_alpha 90.000000
_cell_angle_beta 90.000000
_cell_angle_gamma 90.000000
_cell_volume 2341.320176
_symmetry_space_group_name_H-M "P M M A"
_symmetry_group_IT_number 51
_symmetry_cell_setting 'orthorhombic'
loop_
_space_group_symop_operation_xyz
x,y,z
1/2-x,-y,z
1/2+x,-y,-z
-x,y,-z
-x,-y,-z
1/2+x,y,-z
1/2-x,y,z
x,-y,z
loop_
_atom_site_type_symbol
_atom_site_label
_atom_site_fract_x
_atom_site_fract_y
_atom_site_fract_z
Si Si1 0.299425 0.702348 0.970471
Si Si2 0.371070 0.802015 0.165708
Si Si3 0.798946 0.791910 0.324279
Si Si4 0.132526 0.793773 0.464741
Si Si5 0.566061 0.500000 0.917030
Si Si6 0.041681 0.796651 0.590966
Si Si7 0.475359 0.500000 0.794834
O O1 0.250000 0.772371 0.980581
O O2 0.302904 0.500000 0.009531
O O3 0.316653 0.730550 0.819870
O O4 0.327867 0.810104 0.075753
O O5 0.359442 0.729046 0.313442
O O6 0.406247 0.676254 0.099033
O O7 0.390288 0.000000 0.175530
O O8 0.750000 0.718796 0.348827
O O9 0.831008 0.710787 0.436859
O O10 0.798956 0.000000 0.328943
O O11 0.084240 0.737407 0.509027
O O12 0.137700 0.000000 0.472438
O O13 0.527451 0.500000 0.809638
O O14 0.548291 0.500000 0.065166
O O15 0.038886 0.677310 0.721206
O O16 0.000000 0.760163 0.500000
O O17 0.044178 0.000000 0.635643
#
# Coordination Sequence:
#
# PCOD8213909 Si02
#       7
#     8   8   8   8   4   8   4
#     4  10  21  38  59  88 126 164 206 252 300 365
#     4  11  23  41  64  88 124 167 202 252 311 363
#     4   9  18  35  59  87 118 154 201 252 300 363
#     4   9  20  36  58  89 119 154 203 255 307 364
#     4  11  26  44  59  92 125 156 209 258 300 372
#     4  10  21  39  64  93 123 157 206 259 310 373
#     4  11  25  42  64  88 122 165 205 249 317 372
#
# _framework density 20.501253999999999
#
# number of rings (size 3 to 8) (size 9 to 14) (size 15 to 20)
#    0.000    2.000    0.833    1.750    2.333    5.000 
#    1.500    3.333    0.000    0.000    0.000    0.000 
#    0.000    0.000    0.000    0.000    0.000    0.000 
#
# Total GULP energy -595282.991580 kJ/mol
# GULP energy per Si atom -12401.728991 kJ/mol
# Density = 2.045459 g / cm^3
# Si number density = 20.501254 Si / 1000 Ang^3
#
#
#
# Elastic Constant Matrix: (Units=GPa)
#
#
# Indices 1 2 3 4 5 6 
#
# 1 132.8002 25.7195 77.9109 0.0000 0.0000 0.0000
# 2 25.7195 77.4503 34.0133 0.0000 0.0000 0.0000
# 3 77.9109 34.0133 132.8254 0.0000 0.0000 0.0000
# 4 0.0000 0.0000 0.0000 28.3715 0.0000 0.0000
# 5 0.0000 0.0000 0.0000 0.0000 38.0187 0.0000
# 6 0.0000 0.0000 0.0000 0.0000 0.0000 -0.4685
#
#
#
# Elastic Compliance Matrix: (Units=1/GPa)
#
#
# Indices 1 2 3 4 5 6 
#
# 1 0.011545 -0.000969 -0.006524 0.000000 0.000000 0.000000
# 2 -0.000969 0.014629 -0.003178 0.000000 0.000000 0.000000
# 3 -0.006524 -0.003178 0.012169 0.000000 0.000000 0.000000
# 4 0.000000 0.000000 0.000000 0.035247 0.000000 0.000000
# 5 0.000000 0.000000 0.000000 0.000000 0.026303 0.000000
# 6 0.000000 0.000000 0.000000 0.000000 0.000000 -2.134580
#
#
# Mechanical properties :
#
#
# Convention : Reuss Voigt Hill
#
# Bulk Modulus (GPa) = 58.81646 68.70704 63.76175
# Shear Modulus (GPa) = -2.49044 26.87983 12.19469
#
# Velocity S-wave (km/s) = -1.10336 3.62488 2.44155
# Velocity P-wave (km/s) = 5.20848 7.14885 6.25437
#
# Compressibility (1/GPa) = 0.01700204
#
# Stress axis : x y z
#
# Youngs Moduli (GPa) = 86.61623 68.35828 82.17509
#
# Poissons Ratio (x) = 0.06623 0.53610
# Poissons Ratio (y) = 0.08392 0.26114
# Poissons Ratio (z) = 0.56508 0.21723
#
# Static dielectric constant tensor:
#      x y z
#    x 3.971190 0.000000 0.000000 
#    y 0.000000 3.575380 0.000000 
#    z 0.000000 0.000000 3.830750 
# 
# 
# High freq. dielectric constant tensor:
#      x y z
#    x 1.804540 0.000000 0.000000 
#    y 0.000000 1.799130 0.000000 
#    z 0.000000 0.000000 1.805710 
# 
# From -- ./inp_files/12970.got.cif
#   From: 2010.03.12/outbox.cif.g09.slc.cpg/sg51_7_cif.got.tgz:12970.got - 2010.04.16 13:43:02.
