data_PCOD8213310
_publ_section_title
;
Structure prediction by ZEFSAII (Michael W. Deem and Ramdas Pophale) SiO2 
 PCOD8213310
Probable space group: P M M A
;
_chemical_formula_sum "Si O2"
_cell_formula_units_Z 40
_cell_length_a 9.284085
_cell_length_b 9.284365
_cell_length_c 25.573647
_cell_angle_alpha 90.000000
_cell_angle_beta 90.000000
_cell_angle_gamma 90.000000
_cell_volume 2204.367401
_symmetry_space_group_name_H-M "P M M A"
_symmetry_group_IT_number 51
_symmetry_cell_setting 'orthorhombic'
loop_
_space_group_symop_operation_xyz
x,y,z
1/2-x,-y,z
1/2+x,-y,-z
-x,y,-z
-x,-y,-z
1/2+x,y,-z
1/2-x,y,z
x,-y,z
loop_
_atom_site_type_symbol
_atom_site_label
_atom_site_fract_x
_atom_site_fract_y
_atom_site_fract_z
Si Si1 0.917257 0.167075 0.550654
Si Si2 0.084675 0.667669 0.347407
Si Si3 0.582388 0.334916 0.948823
Si Si4 0.416634 0.169309 0.154386
Si Si5 0.580755 0.666641 0.243960
O O1 0.750000 0.197633 0.541411
O O2 0.973579 0.249257 0.601849
O O3 0.000000 0.227040 0.500000
O O4 0.951120 0.000000 0.559328
O O5 0.250000 0.709192 0.335154
O O6 0.067775 0.500000 0.359116
O O7 0.988470 0.716004 0.298572
O O8 0.750000 0.317366 0.960430
O O9 0.541509 0.500000 0.935996
O O10 0.533458 0.237469 0.900367
O O11 0.500000 0.279243 0.000000
O O12 0.250000 0.206940 0.165825
O O13 0.514477 0.235677 0.199139
O O14 0.443147 0.000000 0.151756
O O15 0.750000 0.693822 0.246926
O O16 0.543954 0.500000 0.232328
#
# Coordination Sequence:
#
# PCOD8213310 Si02
#       5
#     8   8   8   8   8
#     4   9  18  32  49  70  97 129 164 201 244 296
#     4   9  18  33  52  73  98 130 167 206 250 300
#     4   9  18  33  53  76 102 134 172 211 251 298
#     4  10  21  36  54  77 105 138 175 212 253 304
#     4  10  21  36  54  77 104 134 170 213 260 308
#
# _framework density 18.145795
#
# number of rings (size 3 to 8) (size 9 to 14) (size 15 to 20)
#    0.000    2.600    0.000    1.200    0.000    5.600 
#    0.000    4.000    0.000    0.000    0.000    0.000 
#    0.000    0.000    0.000    0.000    0.000    0.000 
#
# Total GULP energy -496137.126067 kJ/mol
# GULP energy per Si atom -12403.428152 kJ/mol
# Density = 1.810449 g / cm^3
# Si number density = 18.145795 Si / 1000 Ang^3
#
#
#
# Elastic Constant Matrix: (Units=GPa)
#
#
# Indices 1 2 3 4 5 6 
#
# 1 73.2679 46.5423 81.1732 0.0000 0.0000 0.0000
# 2 46.5423 73.1808 81.0627 0.0000 0.0000 0.0000
# 3 81.1732 81.0627 188.3039 0.0000 0.0000 0.0000
# 4 0.0000 0.0000 0.0000 -12.1667 0.0000 0.0000
# 5 0.0000 0.0000 0.0000 0.0000 39.1385 0.0000
# 6 0.0000 0.0000 0.0000 0.0000 0.0000 22.9575
#
#
#
# Elastic Compliance Matrix: (Units=1/GPa)
#
#
# Indices 1 2 3 4 5 6 
#
# 1 0.028767 -0.008715 -0.008649 0.000000 0.000000 0.000000
# 2 -0.008715 0.028761 -0.008624 0.000000 0.000000 0.000000
# 3 -0.008649 -0.008624 0.012752 0.000000 0.000000 0.000000
# 4 0.000000 0.000000 0.000000 -0.082191 0.000000 0.000000
# 5 0.000000 0.000000 0.000000 0.000000 0.025550 0.000000
# 6 0.000000 0.000000 0.000000 0.000000 0.000000 0.043559
#
#
# Mechanical properties :
#
#
# Convention : Reuss Voigt Hill
#
# Bulk Modulus (GPa) = 54.63719 83.58988 69.11353
# Shear Modulus (GPa) = 43.37511 18.38416 30.87963
#
# Velocity S-wave (km/s) = 4.89444 3.18643 4.12970
# Velocity P-wave (km/s) = 7.88138 7.72680 7.80448
#
# Compressibility (1/GPa) = 0.01830255
#
# Stress axis : x y z
#
# Youngs Moduli (GPa) = 34.76249 34.76989 78.42151
#
# Poissons Ratio (x) = 0.30301 0.67827
# Poissons Ratio (y) = 0.30295 0.67633
# Poissons Ratio (z) = 0.30066 0.29987
#
# Static dielectric constant tensor:
#      x y z
#    x 3.233690 0.000000 0.000000 
#    y 0.000000 3.301350 0.000000 
#    z 0.000000 0.000000 3.503740 
# 
# 
# High freq. dielectric constant tensor:
#      x y z
#    x 1.697230 0.000000 0.000000 
#    y 0.000000 1.697030 0.000000 
#    z 0.000000 0.000000 1.713480 
# 
# From -- ./inp_files/32801.got.cif
#   From: 2010.03.12/outbox.cif.g09.slc.cpg/sg51_17_cif.got.tgz:32801.got - 2010.04.16 13:43:02.
