data_PCOD8213632
_publ_section_title
;
Structure prediction by ZEFSAII (Michael W. Deem and Ramdas Pophale) SiO2 
 PCOD8213632
Probable space group: P M M A
;
_chemical_formula_sum "Si O2"
_cell_formula_units_Z 48
_cell_length_a 9.253919
_cell_length_b 8.979412
_cell_length_c 30.790389
_cell_angle_alpha 90.000000
_cell_angle_beta 90.000000
_cell_angle_gamma 90.000000
_cell_volume 2558.519717
_symmetry_space_group_name_H-M "P M M A"
_symmetry_group_IT_number 51
_symmetry_cell_setting 'orthorhombic'
loop_
_space_group_symop_operation_xyz
x,y,z
1/2-x,-y,z
1/2+x,-y,-z
-x,y,-z
-x,-y,-z
1/2+x,y,-z
1/2-x,y,z
x,-y,z
loop_
_atom_site_type_symbol
_atom_site_label
_atom_site_fract_x
_atom_site_fract_y
_atom_site_fract_z
Si Si1 0.917574 0.826515 0.714398
Si Si2 0.916448 0.824816 0.869741
Si Si3 0.582959 0.671621 0.625385
Si Si4 0.580786 0.326584 0.208209
Si Si5 0.086935 0.677356 0.541234
Si Si6 0.418208 0.328635 0.042351
O O1 0.750000 0.794133 0.724521
O O2 0.959016 0.770703 0.666600
O O3 0.013567 0.737765 0.748169
O O4 0.953279 0.000000 0.718068
O O5 0.750000 0.779406 0.861672
O O6 0.969558 0.766390 0.916393
O O7 0.013852 0.751925 0.833328
O O8 0.937748 0.000000 0.867919
O O9 0.750000 0.690418 0.612619
O O10 0.547155 0.500000 0.636195
O O11 0.489275 0.732292 0.585266
O O12 0.750000 0.294213 0.208802
O O13 0.544979 0.500000 0.205635
O O14 0.250000 0.739251 0.539964
O O15 0.085607 0.500000 0.539590
O O16 0.000000 0.742131 0.500000
O O17 0.250000 0.307196 0.033451
O O18 0.458598 0.500000 0.051416
O O19 0.500000 0.267654 0.000000
#
# Coordination Sequence:
#
# PCOD8213632 Si02
#       6
#     8   8   8   8   8   8
#     4  10  21  37  57  80 106 138 175 214 260 316
#     4  10  21  37  57  81 109 142 180 219 262 316
#     4   9  17  30  49  73 101 133 169 209 254 305
#     4  11  24  39  56  80 108 138 175 219 265 313
#     4   9  16  26  43  69 100 132 167 210 258 305
#     4   9  18  33  53  77 106 141 180 221 263 308
#
# _framework density 18.760846999999998
#
# number of rings (size 3 to 8) (size 9 to 14) (size 15 to 20)
#    0.000    2.333    0.000    2.500    0.000    9.000 
#    0.000    3.333    0.000    0.500    0.000    0.000 
#    0.000    0.000    0.000    0.000    0.000    0.000 
#
# Total GULP energy -595359.316240 kJ/mol
# GULP energy per Si atom -12403.319088 kJ/mol
# Density = 1.871815 g / cm^3
# Si number density = 18.760847 Si / 1000 Ang^3
#
#
#
# Elastic Constant Matrix: (Units=GPa)
#
#
# Indices 1 2 3 4 5 6 
#
# 1 80.9201 26.1137 63.1498 0.0000 0.0000 0.0000
# 2 26.1137 38.0957 26.5734 0.0000 0.0000 0.0000
# 3 63.1498 26.5734 129.8748 0.0000 0.0000 0.0000
# 4 0.0000 0.0000 0.0000 -97.0974 0.0000 0.0000
# 5 0.0000 0.0000 0.0000 0.0000 40.6659 0.0000
# 6 0.0000 0.0000 0.0000 0.0000 0.0000 20.8698
#
#
#
# Elastic Compliance Matrix: (Units=1/GPa)
#
#
# Indices 1 2 3 4 5 6 
#
# 1 0.022279 -0.009000 -0.008991 0.000000 0.000000 0.000000
# 2 -0.009000 0.034255 -0.002633 0.000000 0.000000 0.000000
# 3 -0.008991 -0.002633 0.012610 0.000000 0.000000 0.000000
# 4 0.000000 0.000000 0.000000 -0.010299 0.000000 0.000000
# 5 0.000000 0.000000 0.000000 0.000000 0.024591 0.000000
# 6 0.000000 0.000000 0.000000 0.000000 0.000000 0.047916
#
#
# Mechanical properties :
#
#
# Convention : Reuss Voigt Hill
#
# Bulk Modulus (GPa) = 35.84673 53.39604 44.62139
# Shear Modulus (GPa) = 27.48762 1.75790 14.62276
#
# Velocity S-wave (km/s) = 3.83189 0.96904 2.79486
# Velocity P-wave (km/s) = 6.22307 5.45667 5.85243
#
# Compressibility (1/GPa) = 0.02789655
#
# Stress axis : x y z
#
# Youngs Moduli (GPa) = 44.88503 29.19246 79.29954
#
# Poissons Ratio (x) = 0.26273 0.71302
# Poissons Ratio (y) = 0.40396 0.20879
# Poissons Ratio (z) = 0.40358 0.07686
#
# Static dielectric constant tensor:
#      x y z
#    x 3.472430 0.000000 0.000000 
#    y 0.000000 3.308520 0.000000 
#    z 0.000000 0.000000 3.627750 
# 
# 
# High freq. dielectric constant tensor:
#      x y z
#    x 1.726860 0.000000 0.000000 
#    y 0.000000 1.711740 0.000000 
#    z 0.000000 0.000000 1.744240 
# 
# From -- ./inp_files/37006.got.cif
#   From: 2010.03.12/outbox.cif.g09.slc.cpg/sg51_19_cif.got.tgz:37006.got - 2010.04.16 13:43:02.
