data_PCOD8213502
_publ_section_title
;
Structure prediction by ZEFSAII (Michael W. Deem and Ramdas Pophale) SiO2 
 PCOD8213502
Probable space group: P M M A
;
_chemical_formula_sum "Si O2"
_cell_formula_units_Z 52
_cell_length_a 8.936930
_cell_length_b 14.991860
_cell_length_c 23.028325
_cell_angle_alpha 90.000000
_cell_angle_beta 90.000000
_cell_angle_gamma 90.000000
_cell_volume 3085.362696
_symmetry_space_group_name_H-M "P M M A"
_symmetry_group_IT_number 51
_symmetry_cell_setting 'orthorhombic'
loop_
_space_group_symop_operation_xyz
x,y,z
1/2-x,-y,z
1/2+x,-y,-z
-x,y,-z
-x,-y,-z
1/2+x,y,-z
1/2-x,y,z
x,-y,z
loop_
_atom_site_type_symbol
_atom_site_label
_atom_site_fract_x
_atom_site_fract_y
_atom_site_fract_z
Si Si1 0.420081 0.164165 0.888811
Si Si2 0.418689 0.348235 0.941710
Si Si3 0.428024 0.766820 0.225635
Si Si4 0.572185 0.102885 0.316598
Si Si5 0.924639 0.398755 0.184943
Si Si6 0.423255 0.000000 0.060906
Si Si7 0.087301 0.104695 0.554027
O O1 0.250000 0.128851 0.883127
O O2 0.429201 0.240882 0.937520
O O3 0.475829 0.199576 0.827969
O O4 0.532252 0.086119 0.903587
O O5 0.250000 0.381503 0.948523
O O6 0.484562 0.389755 0.881854
O O7 0.500000 0.381842 0.000000
O O8 0.250000 0.774205 0.216774
O O9 0.477047 0.826676 0.279892
O O10 0.478831 0.662720 0.229543
O O11 0.750000 0.119392 0.310498
O O12 0.515743 0.120869 0.382531
O O13 0.536171 0.000000 0.298591
O O14 0.750000 0.369392 0.186514
O O15 0.945656 0.500000 0.206083
O O16 0.250000 0.000000 0.049363
O O17 0.500000 0.000000 0.000000
O O18 0.250000 0.149530 0.553300
O O19 0.000000 0.149211 0.500000
O O20 0.101990 0.000000 0.543249
#
# Coordination Sequence:
#
# PCOD8213502 Si02
#       7
#     8   8   8   8   8   4   8
#     4  10  21  37  52  65  88 125 161 197 241 288
#     4   9  18  31  49  71  92 115 145 182 230 286
#     4  11  22  34  50  74 101 125 158 207 253 293
#     4   9  18  32  49  69  98 139 178 205 236 287
#     4   9  19  37  56  71  92 125 161 194 238 302
#     4  12  24  36  50  70  92 118 157 200 243 292
#     4   8  14  25  42  65  94 130 170 207 241 277
#
# _framework density 16.853771999999999
#
# number of rings (size 3 to 8) (size 9 to 14) (size 15 to 20)
#    0.000    2.462    0.000    4.846    1.077    5.846 
#    0.000    1.538    0.000    0.000    0.000    0.000 
#    0.000    0.615    0.000    2.000    0.000    2.462 
#
# Total GULP energy -644416.289143 kJ/mol
# GULP energy per Si atom -12392.620945 kJ/mol
# Density = 1.681541 g / cm^3
# Si number density = 16.853772 Si / 1000 Ang^3
#
#
#
# Elastic Constant Matrix: (Units=GPa)
#
#
# Indices 1 2 3 4 5 6 
#
# 1 84.9335 28.7421 32.9175 0.0000 0.0000 0.0000
# 2 28.7421 73.9183 27.3299 0.0000 0.0000 0.0000
# 3 32.9175 27.3299 80.2740 0.0000 0.0000 0.0000
# 4 0.0000 0.0000 0.0000 10.1555 0.0000 0.0000
# 5 0.0000 0.0000 0.0000 0.0000 27.7431 0.0000
# 6 0.0000 0.0000 0.0000 0.0000 0.0000 19.0656
#
#
#
# Elastic Compliance Matrix: (Units=1/GPa)
#
#
# Indices 1 2 3 4 5 6 
#
# 1 0.014998 -0.004070 -0.004764 0.000000 0.000000 0.000000
# 2 -0.004070 0.016581 -0.003976 0.000000 0.000000 0.000000
# 3 -0.004764 -0.003976 0.015765 0.000000 0.000000 0.000000
# 4 0.000000 0.000000 0.000000 0.098469 0.000000 0.000000
# 5 0.000000 0.000000 0.000000 0.000000 0.036045 0.000000
# 6 0.000000 0.000000 0.000000 0.000000 0.000000 0.052450
#
#
# Mechanical properties :
#
#
# Convention : Reuss Voigt Hill
#
# Bulk Modulus (GPa) = 46.03546 46.34498 46.19022
# Shear Modulus (GPa) = 18.71465 21.40192 20.05829
#
# Velocity S-wave (km/s) = 3.33590 3.56737 3.45358
# Velocity P-wave (km/s) = 6.49704 6.67280 6.58551
#
# Compressibility (1/GPa) = 0.02172238
#
# Stress axis : x y z
#
# Youngs Moduli (GPa) = 66.67644 60.30933 63.43273
#
# Poissons Ratio (x) = 0.24547 0.30222
# Poissons Ratio (y) = 0.27138 0.25222
# Poissons Ratio (z) = 0.31767 0.23980
#
# Static dielectric constant tensor:
#      x y z
#    x 3.185580 0.000000 0.000000 
#    y 0.000000 3.151940 0.000000 
#    z 0.000000 0.000000 3.066840 
# 
# 
# High freq. dielectric constant tensor:
#      x y z
#    x 1.648620 0.000000 0.000000 
#    y 0.000000 1.627350 0.000000 
#    z 0.000000 0.000000 1.631870 
# 
# From -- ./inp_files/31732.got.cif
#   From: 2010.03.12/outbox.cif.g09.slc.cpg/sg51_16_cif.got.tgz:31732.got - 2010.04.16 13:43:02.
