data_PCOD8213142
_publ_section_title
;
Structure prediction by ZEFSAII (Michael W. Deem and Ramdas Pophale) SiO2 
 PCOD8213142
Probable space group: P M M A
;
_chemical_formula_sum "Si O2"
_cell_formula_units_Z 64
_cell_length_a 14.512800
_cell_length_b 9.100609
_cell_length_c 26.223517
_cell_angle_alpha 90.000000
_cell_angle_beta 90.000000
_cell_angle_gamma 90.000000
_cell_volume 3463.479355
_symmetry_space_group_name_H-M "P M M A"
_symmetry_group_IT_number 51
_symmetry_cell_setting 'orthorhombic'
loop_
_space_group_symop_operation_xyz
x,y,z
1/2-x,-y,z
1/2+x,-y,-z
-x,y,-z
-x,-y,-z
1/2+x,y,-z
1/2-x,y,z
x,-y,z
loop_
_atom_site_type_symbol
_atom_site_label
_atom_site_fract_x
_atom_site_fract_y
_atom_site_fract_z
Si Si1 0.358706 0.168810 0.733790
Si Si2 0.986343 0.673229 0.189367
Si Si3 0.646239 0.328698 0.735704
Si Si4 0.488643 0.828184 0.558110
Si Si5 0.352851 0.826461 0.002503
Si Si6 0.495801 0.173833 0.918125
Si Si7 0.853692 0.170973 0.634629
Si Si8 0.358087 0.669234 0.631692
O O1 0.250000 0.183443 0.739946
O O2 0.401982 0.249927 0.782052
O O3 0.392816 0.245146 0.681801
O O4 0.390673 0.000000 0.732326
O O5 0.968555 0.500000 0.188389
O O6 0.081859 0.714483 0.217119
O O7 0.992393 0.733918 0.132873
O O8 0.750000 0.275772 0.748725
O O9 0.643064 0.500000 0.724490
O O10 0.608473 0.250883 0.684947
O O11 0.500000 0.778338 0.500000
O O12 0.583216 0.787698 0.586743
O O13 0.405076 0.737210 0.581948
O O14 0.464843 0.000000 0.562342
O O15 0.250000 0.755646 0.003688
O O16 0.406726 0.779277 0.951360
O O17 0.344972 0.000000 0.002812
O O18 0.411340 0.778313 0.052015
O O19 0.495234 0.000000 0.906660
O O20 0.750000 0.223316 0.621595
O O21 0.856945 0.000000 0.646626
O O22 0.250000 0.689034 0.623875
O O23 0.386211 0.500000 0.638168
#
# Coordination Sequence:
#
# PCOD8213142 Si02
#       8
#     8   8   8   8   8   8   8   8
#     4  10  21  37  57  79 103 136 177 216 257 310
#     4  11  22  34  51  77 111 143 169 210 262 308
#     4   9  19  35  52  71  98 135 174 205 244 304
#     4  10  21  35  53  78 105 136 175 217 261 310
#     4   8  15  31  54  75  97 130 173 219 261 300
#     4   9  18  32  51  76 102 131 172 215 255 305
#     4   9  18  33  52  74 100 129 165 212 260 303
#     4  10  21  37  56  78 106 139 174 215 264 316
#
# _framework density 18.478528000000001
#
# number of rings (size 3 to 8) (size 9 to 14) (size 15 to 20)
#    0.000    2.500    0.000    2.625    0.000    6.750 
#    0.000    3.750    0.000    2.250    0.000    0.000 
#    0.000    0.000    0.000    0.000    0.000    0.000 
#
# Total GULP energy -793695.531256 kJ/mol
# GULP energy per Si atom -12401.492676 kJ/mol
# Density = 1.843647 g / cm^3
# Si number density = 18.478528 Si / 1000 Ang^3
#
#
#
# Elastic Constant Matrix: (Units=GPa)
#
#
# Indices 1 2 3 4 5 6 
#
# 1 97.4791 45.7051 68.5771 0.0000 0.0000 0.0000
# 2 45.7051 78.4468 66.8008 0.0000 0.0000 0.0000
# 3 68.5771 66.8008 169.0116 0.0000 0.0000 0.0000
# 4 0.0000 0.0000 0.0000 -13.1044 0.0000 0.0000
# 5 0.0000 0.0000 0.0000 0.0000 21.0873 0.0000
# 6 0.0000 0.0000 0.0000 0.0000 0.0000 21.8653
#
#
#
# Elastic Compliance Matrix: (Units=1/GPa)
#
#
# Indices 1 2 3 4 5 6 
#
# 1 0.015872 -0.005672 -0.004198 0.000000 0.000000 0.000000
# 2 -0.005672 0.021242 -0.006094 0.000000 0.000000 0.000000
# 3 -0.004198 -0.006094 0.010029 0.000000 0.000000 0.000000
# 4 0.000000 0.000000 0.000000 -0.076310 0.000000 0.000000
# 5 0.000000 0.000000 0.000000 0.000000 0.047422 0.000000
# 6 0.000000 0.000000 0.000000 0.000000 0.000000 0.045735
#
#
# Mechanical properties :
#
#
# Convention : Reuss Voigt Hill
#
# Bulk Modulus (GPa) = 65.73270 78.56707 72.14989
# Shear Modulus (GPa) = 49.51067 16.89326 33.20197
#
# Velocity S-wave (km/s) = 5.18187 3.02687 4.24345
# Velocity P-wave (km/s) = 8.45293 7.40448 7.94602
#
# Compressibility (1/GPa) = 0.01521313
#
# Stress axis : x y z
#
# Youngs Moduli (GPa) = 63.00595 47.07714 99.71362
#
# Poissons Ratio (x) = 0.26704 0.41859
# Poissons Ratio (y) = 0.35740 0.60766
# Poissons Ratio (z) = 0.26450 0.28689
#
# Static dielectric constant tensor:
#      x y z
#    x 3.789090 0.000000 0.000000 
#    y 0.000000 3.282530 0.000000 
#    z 0.000000 0.000000 3.370630 
# 
# 
# High freq. dielectric constant tensor:
#      x y z
#    x 1.727000 0.000000 0.000000 
#    y 0.000000 1.704360 0.000000 
#    z 0.000000 0.000000 1.714360 
# 
# From -- ./inp_files/35700.got.cif
#   From: 2010.03.12/outbox.cif.g09.slc.cpg/sg51_18_cif.got.tgz:35700.got - 2010.04.16 13:43:02.
