data_PCOD8213336
_publ_section_title
;
Structure prediction by ZEFSAII (Michael W. Deem and Ramdas Pophale) SiO2 
 PCOD8213336
Probable space group: P M M A
;
_chemical_formula_sum "Si O2"
_cell_formula_units_Z 48
_cell_length_a 9.284306
_cell_length_b 9.149594
_cell_length_c 30.312877
_cell_angle_alpha 90.000000
_cell_angle_beta 90.000000
_cell_angle_gamma 90.000000
_cell_volume 2575.007074
_symmetry_space_group_name_H-M "P M M A"
_symmetry_group_IT_number 51
_symmetry_cell_setting 'orthorhombic'
loop_
_space_group_symop_operation_xyz
x,y,z
1/2-x,-y,z
1/2+x,-y,-z
-x,y,-z
-x,-y,-z
1/2+x,y,-z
1/2-x,y,z
x,-y,z
loop_
_atom_site_type_symbol
_atom_site_label
_atom_site_fract_x
_atom_site_fract_y
_atom_site_fract_z
Si Si1 0.917635 0.668024 0.543041
Si Si2 0.583638 0.832188 0.782426
Si Si3 0.085844 0.672661 0.957631
Si Si4 0.582985 0.171437 0.631088
Si Si5 0.413303 0.169082 0.115663
Si Si6 0.080955 0.669889 0.708773
O O1 0.750000 0.688604 0.533697
O O2 0.957383 0.500000 0.552944
O O3 0.968455 0.763146 0.584542
O O4 0.000000 0.726106 0.500000
O O5 0.750000 0.798158 0.771800
O O6 0.549469 0.802600 0.833441
O O7 0.482979 0.725162 0.754857
O O8 0.549500 0.000000 0.770068
O O9 0.250000 0.723800 0.962604
O O10 0.072010 0.500000 0.954426
O O11 0.022308 0.737353 0.912995
O O12 0.000000 0.733187 0.000000
O O13 0.750000 0.208768 0.639815
O O14 0.489338 0.242143 0.669117
O O15 0.554734 0.000000 0.630473
O O16 0.250000 0.218901 0.105662
O O17 0.432818 0.000000 0.103833
O O18 0.250000 0.699840 0.708754
O O19 0.044583 0.500000 0.703151
#
# Coordination Sequence:
#
# PCOD8213336 Si02
#       6
#     8   8   8   8   8   8
#     4   9  18  33  53  77 106 140 176 215 260 310
#     4   9  19  37  59  81 106 138 176 216 260 314
#     4  10  21  36  54  77 106 141 180 221 265 313
#     4  10  21  37  57  80 106 139 180 222 264 314
#     4   9  19  36  57  81 108 138 174 216 262 314
#     4  11  24  38  53  78 110 141 176 219 265 314
#
# _framework density 18.640726000000001
#
# number of rings (size 3 to 8) (size 9 to 14) (size 15 to 20)
#    0.000    2.333    0.000    3.000    0.000    8.667 
#    0.000    6.667    0.000    0.000    0.000    0.000 
#    0.000    0.000    0.000    0.000    0.000    0.000 
#
# Total GULP energy -595374.740183 kJ/mol
# GULP energy per Si atom -12403.640420 kJ/mol
# Density = 1.859830 g / cm^3
# Si number density = 18.640726 Si / 1000 Ang^3
#
#
#
# Elastic Constant Matrix: (Units=GPa)
#
#
# Indices 1 2 3 4 5 6 
#
# 1 102.7532 53.7662 73.1116 0.0000 0.0000 0.0000
# 2 53.7662 67.1704 54.3165 0.0000 0.0000 0.0000
# 3 73.1116 54.3165 124.8618 0.0000 0.0000 0.0000
# 4 0.0000 0.0000 0.0000 55.8403 0.0000 0.0000
# 5 0.0000 0.0000 0.0000 0.0000 39.7074 0.0000
# 6 0.0000 0.0000 0.0000 0.0000 0.0000 30.8309
#
#
#
# Elastic Compliance Matrix: (Units=1/GPa)
#
#
# Indices 1 2 3 4 5 6 
#
# 1 0.020464 -0.010322 -0.007492 0.000000 0.000000 0.000000
# 2 -0.010322 0.028172 -0.006212 0.000000 0.000000 0.000000
# 3 -0.007492 -0.006212 0.015098 0.000000 0.000000 0.000000
# 4 0.000000 0.000000 0.000000 0.017908 0.000000 0.000000
# 5 0.000000 0.000000 0.000000 0.000000 0.025184 0.000000
# 6 0.000000 0.000000 0.000000 0.000000 0.000000 0.032435
#
#
# Mechanical properties :
#
#
# Convention : Reuss Voigt Hill
#
# Bulk Modulus (GPa) = 63.76295 73.01933 68.39114
# Shear Modulus (GPa) = 25.96851 32.84845 29.40848
#
# Velocity S-wave (km/s) = 3.73648 4.20240 3.97627
# Velocity P-wave (km/s) = 7.27294 7.92489 7.60590
#
# Compressibility (1/GPa) = 0.01568309
#
# Stress axis : x y z
#
# Youngs Moduli (GPa) = 48.86641 35.49578 66.23344
#
# Poissons Ratio (x) = 0.36637 0.49625
# Poissons Ratio (y) = 0.50438 0.41142
# Poissons Ratio (z) = 0.36613 0.22049
#
# Static dielectric constant tensor:
#      x y z
#    x 3.704810 0.000000 0.000000 
#    y 0.000000 3.383620 0.000000 
#    z 0.000000 0.000000 3.496930 
# 
# 
# High freq. dielectric constant tensor:
#      x y z
#    x 1.722190 0.000000 0.000000 
#    y 0.000000 1.721040 0.000000 
#    z 0.000000 0.000000 1.735790 
# 
# From -- ./inp_files/37008.got.cif
#   From: 2010.03.12/outbox.cif.g09.slc.cpg/sg51_19_cif.got.tgz:37008.got - 2010.04.16 13:43:02.
