data_PCOD8213523
_publ_section_title
;
Structure prediction by ZEFSAII (Michael W. Deem and Ramdas Pophale) SiO2 
 PCOD8213523
Probable space group: P M M A
;
_chemical_formula_sum "Si O2"
_cell_formula_units_Z 52
_cell_length_a 8.971418
_cell_length_b 12.422857
_cell_length_c 30.137884
_cell_angle_alpha 90.000000
_cell_angle_beta 90.000000
_cell_angle_gamma 90.000000
_cell_volume 3358.886547
_symmetry_space_group_name_H-M "P M M A"
_symmetry_group_IT_number 51
_symmetry_cell_setting 'orthorhombic'
loop_
_space_group_symop_operation_xyz
x,y,z
1/2-x,-y,z
1/2+x,-y,-z
-x,y,-z
-x,-y,-z
1/2+x,y,-z
1/2-x,y,z
x,-y,z
loop_
_atom_site_type_symbol
_atom_site_label
_atom_site_fract_x
_atom_site_fract_y
_atom_site_fract_z
Si Si1 0.417853 0.128359 0.956365
Si Si2 0.423286 0.625359 0.546094
Si Si3 0.082153 0.871619 0.130888
Si Si4 0.571437 0.000000 0.451756
Si Si5 0.925417 0.803258 0.598919
Si Si6 0.418065 0.128263 0.782209
Si Si7 0.921588 0.122722 0.695381
O O1 0.250000 0.172049 0.956730
O O2 0.497789 0.173351 0.912369
O O3 0.420941 0.000000 0.956377
O O4 0.500000 0.173336 0.000000
O O5 0.500000 0.657496 0.500000
O O6 0.250000 0.658591 0.544156
O O7 0.442881 0.500000 0.556471
O O8 0.510444 0.688147 0.584502
O O9 0.250000 0.828446 0.129394
O O10 0.005588 0.825555 0.175307
O O11 0.077381 0.000000 0.131048
O O12 0.500000 0.000000 0.500000
O O13 0.516432 0.894924 0.426202
O O14 0.750000 0.000000 0.454962
O O15 0.750000 0.815059 0.588131
O O16 0.954889 0.809272 0.651421
O O17 0.250000 0.169477 0.785749
O O18 0.487018 0.172906 0.736414
O O19 0.428466 0.000000 0.781950
O O20 0.750000 0.127862 0.709182
O O21 0.969794 0.000000 0.685582
#
# Coordination Sequence:
#
# PCOD8213523 Si02
#       7
#     8   8   8   4   8   8   8
#     4   9  15  21  28  38  53  73 100 138 184 233
#     4  10  21  37  55  74  94 117 146 178 212 251
#     4   9  15  22  31  42  57  80 110 144 185 231
#     4  12  24  36  50  68  94 122 148 174 209 252
#     4  11  21  35  52  71  94 118 146 177 213 254
#     4   9  16  24  35  51  69  91 121 155 189 230
#     4   9  17  30  44  59  82 109 134 162 199 244
#
# _framework density 15.481320999999999
#
# number of rings (size 3 to 8) (size 9 to 14) (size 15 to 20)
#    0.000    2.308    0.769    3.462    0.000    7.692 
#    0.000    0.000    0.000    0.000    0.000    0.000 
#    0.000    0.000    0.000    0.000    0.000    0.000 
#
# Total GULP energy -644791.704539 kJ/mol
# GULP energy per Si atom -12399.840472 kJ/mol
# Density = 1.544608 g / cm^3
# Si number density = 15.481321 Si / 1000 Ang^3
#
#
#
# Elastic Constant Matrix: (Units=GPa)
#
#
# Indices 1 2 3 4 5 6 
#
# 1 144.1915 23.7902 85.5395 0.0000 0.0000 0.0000
# 2 23.7902 28.1505 28.0142 0.0000 0.0000 0.0000
# 3 85.5395 28.0142 147.7965 0.0000 0.0000 0.0000
# 4 0.0000 0.0000 0.0000 5.5615 0.0000 0.0000
# 5 0.0000 0.0000 0.0000 0.0000 34.7870 0.0000
# 6 0.0000 0.0000 0.0000 0.0000 0.0000 14.9498
#
#
#
# Elastic Compliance Matrix: (Units=1/GPa)
#
#
# Indices 1 2 3 4 5 6 
#
# 1 0.010849 -0.003599 -0.005597 0.000000 0.000000 0.000000
# 2 -0.003599 0.044976 -0.006442 0.000000 0.000000 0.000000
# 3 -0.005597 -0.006442 0.011227 0.000000 0.000000 0.000000
# 4 0.000000 0.000000 0.000000 0.179809 0.000000 0.000000
# 5 0.000000 0.000000 0.000000 0.000000 0.028746 0.000000
# 6 0.000000 0.000000 0.000000 0.000000 0.000000 0.066891
#
#
# Mechanical properties :
#
#
# Convention : Reuss Voigt Hill
#
# Bulk Modulus (GPa) = 27.95212 66.09181 47.02196
# Shear Modulus (GPa) = 12.96350 23.24596 18.10473
#
# Velocity S-wave (km/s) = 2.89686 3.87919 3.42344
# Velocity P-wave (km/s) = 5.41144 7.92768 6.78719
#
# Compressibility (1/GPa) = 0.03577547
#
# Stress axis : x y z
#
# Youngs Moduli (GPa) = 92.17090 22.23430 89.07485
#
# Poissons Ratio (x) = 0.08002 0.49856
# Poissons Ratio (y) = 0.33172 0.57382
# Poissons Ratio (z) = 0.51589 0.14323
#
# Static dielectric constant tensor:
#      x y z
#    x 3.176680 0.000000 0.000000 
#    y 0.000000 2.373150 0.000000 
#    z 0.000000 0.000000 3.148120 
# 
# 
# High freq. dielectric constant tensor:
#      x y z
#    x 1.615130 0.000000 0.000000 
#    y 0.000000 1.509120 0.000000 
#    z 0.000000 0.000000 1.608260 
# 
# From -- ./inp_files/36206.got.cif
#   From: 2010.03.12/outbox.cif.g09.slc.cpg/sg51_19_cif.got.tgz:36206.got - 2010.04.16 13:43:02.
