data_PCOD8213505
_publ_section_title
;
Structure prediction by ZEFSAII (Michael W. Deem and Ramdas Pophale) SiO2 
 PCOD8213505
Probable space group: P M M A
;
_chemical_formula_sum "Si O2"
_cell_formula_units_Z 64
_cell_length_a 9.042110
_cell_length_b 23.756234
_cell_length_c 15.062823
_cell_angle_alpha 90.000000
_cell_angle_beta 90.000000
_cell_angle_gamma 90.000000
_cell_volume 3235.592003
_symmetry_space_group_name_H-M "P M M A"
_symmetry_group_IT_number 51
_symmetry_cell_setting 'orthorhombic'
loop_
_space_group_symop_operation_xyz
x,y,z
1/2-x,-y,z
1/2+x,-y,-z
-x,y,-z
-x,-y,-z
1/2+x,y,-z
1/2-x,y,z
x,-y,z
loop_
_atom_site_type_symbol
_atom_site_label
_atom_site_fract_x
_atom_site_fract_y
_atom_site_fract_z
Si Si1 0.420869 0.847327 0.762588
Si Si2 0.071869 0.799541 0.408017
Si Si3 0.419291 0.763080 0.918532
Si Si4 0.079938 0.563161 0.906958
Si Si5 0.422679 0.935091 0.908479
Si Si6 0.585256 0.679983 0.651185
Si Si7 0.925389 0.439306 0.593850
Si Si8 0.584544 0.663072 0.848812
O O1 0.250000 0.855469 0.734638
O O2 0.516486 0.839239 0.673091
O O3 0.440768 0.793331 0.825034
O O4 0.477836 0.900338 0.821924
O O5 0.250000 0.802770 0.411354
O O6 0.011661 0.734979 0.394707
O O7 0.000000 0.821720 0.500000
O O8 0.250000 0.756607 0.944247
O O9 0.493681 0.701743 0.915823
O O10 0.500000 0.795970 0.000000
O O11 0.250000 0.580307 0.917284
O O12 0.062563 0.500000 0.871174
O O13 0.997683 0.603274 0.837218
O O14 0.000000 0.571484 0.000000
O O15 0.250000 0.922818 0.922546
O O16 0.457374 0.000000 0.888152
O O17 0.500000 0.915884 0.000000
O O18 0.750000 0.675829 0.612355
O O19 0.508423 0.618486 0.637123
O O20 0.587353 0.693713 0.754655
O O21 0.750000 0.433942 0.585578
O O22 0.962268 0.500000 0.642845
O O23 0.000000 0.442902 0.500000
O O24 0.750000 0.653589 0.884990
#
# Coordination Sequence:
#
# PCOD8213505 Si02
#       8
#     8   8   8   8   8   8   8   8
#     4  10  21  37  57  85 118 154 196 238 284 336
#     4  11  22  38  59  83 113 150 195 245 297 349
#     4  11  22  35  53  78 111 148 185 225 275 331
#     4  10  21  37  54  72  95 127 171 221 274 333
#     4   9  18  34  58  90 128 166 202 240 283 335
#     4   9  19  34  52  75 102 135 176 223 276 337
#     4   9  17  31  50  71  95 123 159 206 263 329
#     4  11  21  35  53  74 102 134 175 222 274 334
#
# _framework density 19.779997000000002
#
# number of rings (size 3 to 8) (size 9 to 14) (size 15 to 20)
#    0.000    2.000    1.250    2.625    0.000    2.250 
#    0.000    3.125    0.000    1.875    0.000    0.000 
#    0.000    0.000    0.000    0.000    0.000    0.000 
#
# Total GULP energy -792960.144821 kJ/mol
# GULP energy per Si atom -12390.002263 kJ/mol
# Density = 1.973498 g / cm^3
# Si number density = 19.779997 Si / 1000 Ang^3
#
#
#
# Elastic Constant Matrix: (Units=GPa)
#
#
# Indices 1 2 3 4 5 6 
#
# 1 100.2898 41.7996 47.1709 0.0000 0.0000 0.0000
# 2 41.7996 106.1333 44.0308 0.0000 0.0000 0.0000
# 3 47.1709 44.0308 110.0359 0.0000 0.0000 0.0000
# 4 0.0000 0.0000 0.0000 33.2024 0.0000 0.0000
# 5 0.0000 0.0000 0.0000 0.0000 31.2870 0.0000
# 6 0.0000 0.0000 0.0000 0.0000 0.0000 20.5854
#
#
#
# Elastic Compliance Matrix: (Units=1/GPa)
#
#
# Indices 1 2 3 4 5 6 
#
# 1 0.013490 -0.003494 -0.004385 0.000000 0.000000 0.000000
# 2 -0.003494 0.012202 -0.003385 0.000000 0.000000 0.000000
# 3 -0.004385 -0.003385 0.012322 0.000000 0.000000 0.000000
# 4 0.000000 0.000000 0.000000 0.030118 0.000000 0.000000
# 5 0.000000 0.000000 0.000000 0.000000 0.031962 0.000000
# 6 0.000000 0.000000 0.000000 0.000000 0.000000 0.048578
#
#
# Mechanical properties :
#
#
# Convention : Reuss Voigt Hill
#
# Bulk Modulus (GPa) = 64.57005 64.71794 64.64399
# Shear Modulus (GPa) = 28.35074 29.24547 28.79810
#
# Velocity S-wave (km/s) = 3.79001 3.84935 3.81979
# Velocity P-wave (km/s) = 7.20189 7.24890 7.22543
#
# Compressibility (1/GPa) = 0.01548706
#
# Stress axis : x y z
#
# Youngs Moduli (GPa) = 74.13117 81.95097 81.15428
#
# Poissons Ratio (x) = 0.28631 0.35585
# Poissons Ratio (y) = 0.25899 0.27472
# Poissons Ratio (z) = 0.32505 0.27741
#
# Static dielectric constant tensor:
#      x y z
#    x 3.541680 0.000000 0.000000 
#    y 0.000000 3.766930 0.000000 
#    z 0.000000 0.000000 3.499080 
# 
# 
# High freq. dielectric constant tensor:
#      x y z
#    x 1.760820 0.000000 0.000000 
#    y 0.000000 1.766040 0.000000 
#    z 0.000000 0.000000 1.759790 
# 
# From -- ./inp_files/22394.got.cif
#   From: 2010.03.12/outbox.cif.g09.slc.cpg/sg51_12_cif.got.tgz:22394.got - 2010.04.16 13:43:02.
