data_PCOD8213788
_publ_section_title
;
Structure prediction by ZEFSAII (Michael W. Deem and Ramdas Pophale) SiO2 
 PCOD8213788
Probable space group: P M M A
;
_chemical_formula_sum "Si O2"
_cell_formula_units_Z 64
_cell_length_a 17.437723
_cell_length_b 19.150096
_cell_length_c 9.543457
_cell_angle_alpha 90.000000
_cell_angle_beta 90.000000
_cell_angle_gamma 90.000000
_cell_volume 3186.885433
_symmetry_space_group_name_H-M "P M M A"
_symmetry_group_IT_number 51
_symmetry_cell_setting 'orthorhombic'
loop_
_space_group_symop_operation_xyz
x,y,z
1/2-x,-y,z
1/2+x,-y,-z
-x,y,-z
-x,-y,-z
1/2+x,y,-z
1/2-x,y,z
x,-y,z
loop_
_atom_site_type_symbol
_atom_site_label
_atom_site_fract_x
_atom_site_fract_y
_atom_site_fract_z
Si Si1 0.835964 0.707663 0.990962
Si Si2 0.340201 0.077937 0.757891
Si Si3 0.087241 0.077852 0.042636
Si Si4 0.512995 0.579297 0.662078
Si Si5 0.159678 0.200255 0.556036
Si Si6 0.335353 0.421503 0.182781
Si Si7 0.599594 0.798382 0.754490
Si Si8 0.441266 0.283060 0.751289
O O1 0.750000 0.720075 0.049558
O O2 0.849314 0.626574 0.952916
O O3 0.846275 0.749544 0.847122
O O4 0.898031 0.732473 0.103495
O O5 0.250000 0.073309 0.754582
O O6 0.368693 0.130479 0.637263
O O7 0.375548 0.000000 0.733160
O O8 0.365274 0.107322 0.909700
O O9 0.098449 0.125110 0.178367
O O10 0.116133 0.000000 0.081366
O O11 0.000000 0.076935 0.000000
O O12 0.500000 0.593837 0.500000
O O13 0.488554 0.500000 0.702712
O O14 0.602715 0.592739 0.695207
O O15 0.462495 0.634933 0.747763
O O16 0.250000 0.212611 0.573475
O O17 0.137720 0.192841 0.395527
O O18 0.114927 0.266071 0.622031
O O19 0.250000 0.407790 0.246109
O O20 0.343289 0.500000 0.126011
O O21 0.515153 0.766054 0.743468
#
# Coordination Sequence:
#
# PCOD8213788 Si02
#       8
#     8   8   8   8   8   8   8   8
#     4  11  23  39  60  87 119 155 197 246 298 353
#     4   9  19  38  62  86 115 154 197 242 300 363
#     4  10  21  37  59  87 118 153 193 241 298 357
#     4  10  21  39  62  90 122 157 200 248 299 358
#     4  11  24  40  60  86 119 159 200 249 304 359
#     4   9  19  37  62  90 120 155 196 245 302 358
#     4  12  23  38  60  88 120 155 201 249 296 355
#     4  12  24  40  60  88 119 160 200 246 299 358
#
# _framework density 20.082301999999999
#
# number of rings (size 3 to 8) (size 9 to 14) (size 15 to 20)
#    0.000    1.500    1.250    4.500    0.000    3.000 
#    0.000    1.875    0.000    5.625    0.000    0.000 
#    0.000    0.000    0.000    0.000    0.000    0.000 
#
# Total GULP energy -793674.111912 kJ/mol
# GULP energy per Si atom -12401.157999 kJ/mol
# Density = 2.003659 g / cm^3
# Si number density = 20.082302 Si / 1000 Ang^3
#
#
#
# Elastic Constant Matrix: (Units=GPa)
#
#
# Indices 1 2 3 4 5 6 
#
# 1 78.0091 43.9922 29.7003 0.0000 0.0000 0.0000
# 2 43.9922 114.4791 52.2268 0.0000 0.0000 0.0000
# 3 29.7003 52.2268 107.4917 0.0000 0.0000 0.0000
# 4 0.0000 0.0000 0.0000 33.5747 0.0000 0.0000
# 5 0.0000 0.0000 0.0000 0.0000 38.4473 0.0000
# 6 0.0000 0.0000 0.0000 0.0000 0.0000 25.9445
#
#
#
# Elastic Compliance Matrix: (Units=1/GPa)
#
#
# Indices 1 2 3 4 5 6 
#
# 1 0.016668 -0.005530 -0.001919 0.000000 0.000000 0.000000
# 2 -0.005530 0.013058 -0.004816 0.000000 0.000000 0.000000
# 3 -0.001919 -0.004816 0.012173 0.000000 0.000000 0.000000
# 4 0.000000 0.000000 0.000000 0.029784 0.000000 0.000000
# 5 0.000000 0.000000 0.000000 0.000000 0.026010 0.000000
# 6 0.000000 0.000000 0.000000 0.000000 0.000000 0.038544
#
#
# Mechanical properties :
#
#
# Convention : Reuss Voigt Hill
#
# Bulk Modulus (GPa) = 57.57347 61.31320 59.44333
# Shear Modulus (GPa) = 30.01995 31.19733 30.60864
#
# Velocity S-wave (km/s) = 3.87052 3.94569 3.90828
# Velocity P-wave (km/s) = 6.97894 7.16625 7.07321
#
# Compressibility (1/GPa) = 0.01736911
#
# Stress axis : x y z
#
# Youngs Moduli (GPa) = 59.99515 76.58425 82.14735
#
# Poissons Ratio (x) = 0.42350 0.15761
# Poissons Ratio (y) = 0.33177 0.39565
# Poissons Ratio (z) = 0.11511 0.36885
#
# Static dielectric constant tensor:
#      x y z
#    x 3.734260 0.000000 0.000000 
#    y 0.000000 4.105610 0.000000 
#    z 0.000000 0.000000 3.437630 
# 
# 
# High freq. dielectric constant tensor:
#      x y z
#    x 1.788990 0.000000 0.000000 
#    y 0.000000 1.799390 0.000000 
#    z 0.000000 0.000000 1.769750 
# 
# From -- ./inp_files/10041.got.cif
#   From: 2010.03.12/outbox.cif.g09.slc.cpg/sg51_6_cif.got.tgz:10041.got - 2010.04.16 13:43:02.
