data_PCOD8213961
_publ_section_title
;
Structure prediction by ZEFSAII (Michael W. Deem and Ramdas Pophale) SiO2 
 PCOD8213961
Probable space group: P M M A
;
_chemical_formula_sum "Si O2"
_cell_formula_units_Z 40
_cell_length_a 15.544732
_cell_length_b 8.645257
_cell_length_c 14.498382
_cell_angle_alpha 90.000000
_cell_angle_beta 90.000000
_cell_angle_gamma 90.000000
_cell_volume 1948.411505
_symmetry_space_group_name_H-M "P M M A"
_symmetry_group_IT_number 51
_symmetry_cell_setting 'orthorhombic'
loop_
_space_group_symop_operation_xyz
x,y,z
1/2-x,-y,z
1/2+x,-y,-z
-x,y,-z
-x,-y,-z
1/2+x,y,-z
1/2-x,y,z
x,-y,z
loop_
_atom_site_type_symbol
_atom_site_label
_atom_site_fract_x
_atom_site_fract_y
_atom_site_fract_z
Si Si1 0.403319 0.318828 0.407595
Si Si2 0.911195 0.180653 0.403908
Si Si3 0.345397 0.678335 0.772761
Si Si4 0.995545 0.317143 0.895339
Si Si5 0.153725 0.823102 0.224566
O O1 0.394416 0.500000 0.424380
O O2 0.368967 0.231177 0.498923
O O3 0.501790 0.275925 0.387216
O O4 0.347459 0.270097 0.320129
O O5 0.847978 0.220998 0.320359
O O6 0.932149 0.000000 0.406081
O O7 0.250000 0.700066 0.816142
O O8 0.362417 0.500000 0.747309
O O9 0.416838 0.737348 0.845041
O O10 0.984811 0.500000 0.890568
O O11 0.912347 0.243269 0.849191
O O12 0.000000 0.257801 0.000000
O O13 0.250000 0.807947 0.183468
O O14 0.129290 0.000000 0.245234
#
# Coordination Sequence:
#
# PCOD8213961 Si02
#       5
#     8   8   8   8   8
#     4  11  21  36  60  88 121 162 205 248 299 358
#     4  11  21  35  58  88 123 162 203 248 299 357
#     4  10  21  38  60  88 123 162 203 248 299 360
#     4  10  22  41  66  93 121 157 202 254 309 364
#     4  11  24  41  62  91 126 163 203 251 306 363
#
# _framework density 20.529544000000001
#
# number of rings (size 3 to 8) (size 9 to 14) (size 15 to 20)
#    0.000    1.400    2.000    5.400    0.000    4.000 
#    0.000    2.000    0.000    0.000    0.000    0.000 
#    0.000    0.000    0.000    0.000    0.000    0.000 
#
# Total GULP energy -496124.979940 kJ/mol
# GULP energy per Si atom -12403.124499 kJ/mol
# Density = 2.048282 g / cm^3
# Si number density = 20.529544 Si / 1000 Ang^3
#
#
#
# Elastic Constant Matrix: (Units=GPa)
#
#
# Indices 1 2 3 4 5 6 
#
# 1 122.0821 29.4769 72.0006 0.0000 0.0000 0.0000
# 2 29.4769 75.9543 45.0145 0.0000 0.0000 0.0000
# 3 72.0006 45.0145 149.0842 0.0000 0.0000 0.0000
# 4 0.0000 0.0000 0.0000 17.2705 0.0000 0.0000
# 5 0.0000 0.0000 0.0000 0.0000 11.2336 0.0000
# 6 0.0000 0.0000 0.0000 0.0000 0.0000 25.2809
#
#
#
# Elastic Compliance Matrix: (Units=1/GPa)
#
#
# Indices 1 2 3 4 5 6 
#
# 1 0.011581 -0.001437 -0.005159 0.000000 0.000000 0.000000
# 2 -0.001437 0.016213 -0.004202 0.000000 0.000000 0.000000
# 3 -0.005159 -0.004202 0.010468 0.000000 0.000000 0.000000
# 4 0.000000 0.000000 0.000000 0.057902 0.000000 0.000000
# 5 0.000000 0.000000 0.000000 0.000000 0.089018 0.000000
# 6 0.000000 0.000000 0.000000 0.000000 0.000000 0.039556
#
#
# Mechanical properties :
#
#
# Convention : Reuss Voigt Hill
#
# Bulk Modulus (GPa) = 59.99843 71.12274 65.56059
# Shear Modulus (GPa) = 19.84999 24.13224 21.99112
#
# Velocity S-wave (km/s) = 3.11287 3.43226 3.27646
# Velocity P-wave (km/s) = 6.49683 7.10116 6.80571
#
# Compressibility (1/GPa) = 0.01666710
#
# Stress axis : x y z
#
# Youngs Moduli (GPa) = 86.34926 61.67701 95.53013
#
# Poissons Ratio (x) = 0.08862 0.49286
# Poissons Ratio (y) = 0.12407 0.40138
# Poissons Ratio (z) = 0.44549 0.25914
#
# Static dielectric constant tensor:
#      x y z
#    x 3.657730 0.000000 0.000000 
#    y 0.000000 3.677920 0.000000 
#    z 0.000000 0.000000 3.814080 
# 
# 
# High freq. dielectric constant tensor:
#      x y z
#    x 1.800200 0.000000 0.000000 
#    y 0.000000 1.803780 0.000000 
#    z 0.000000 0.000000 1.798560 
# 
# From -- ./inp_files/23690.got.cif
#   From: 2010.03.12/outbox.cif.g09.slc.cpg/sg51_12_cif.got.tgz:23690.got - 2010.04.16 13:43:02.
