data_PCOD8213510
_publ_section_title
;
Structure prediction by ZEFSAII (Michael W. Deem and Ramdas Pophale) SiO2 
 PCOD8213510
Probable space group: P M M A
;
_chemical_formula_sum "Si O2"
_cell_formula_units_Z 64
_cell_length_a 21.373293
_cell_length_b 9.249613
_cell_length_c 19.061505
_cell_angle_alpha 90.000000
_cell_angle_beta 90.000000
_cell_angle_gamma 90.000000
_cell_volume 3768.358299
_symmetry_space_group_name_H-M "P M M A"
_symmetry_group_IT_number 51
_symmetry_cell_setting 'orthorhombic'
loop_
_space_group_symop_operation_xyz
x,y,z
1/2-x,-y,z
1/2+x,-y,-z
-x,y,-z
-x,-y,-z
1/2+x,y,-z
1/2-x,y,z
x,-y,z
loop_
_atom_site_type_symbol
_atom_site_label
_atom_site_fract_x
_atom_site_fract_y
_atom_site_fract_z
Si Si1 0.439822 0.669890 0.464106
Si Si2 0.320620 0.667060 0.979653
Si Si3 0.437617 0.834721 0.039012
Si Si4 0.118782 0.333275 0.835168
Si Si5 0.178138 0.839000 0.712031
Si Si6 0.119245 0.664267 0.601717
Si Si7 0.002161 0.834272 0.181743
Si Si8 0.014598 0.665887 0.323253
O O1 0.500000 0.744749 0.500000
O O2 0.453085 0.500000 0.459232
O O3 0.382849 0.701225 0.517768
O O4 0.434140 0.719808 0.382339
O O5 0.250000 0.722899 0.997009
O O6 0.326930 0.500000 0.000614
O O7 0.330895 0.687422 0.896525
O O8 0.373890 0.751603 0.021369
O O9 0.443708 0.823062 0.123294
O O10 0.429131 0.000000 0.014357
O O11 0.500000 0.771760 0.000000
O O12 0.101443 0.500000 0.822872
O O13 0.144723 0.271753 0.763222
O O14 0.056389 0.246351 0.853853
O O15 0.250000 0.845832 0.731450
O O16 0.168878 0.775883 0.633994
O O17 0.148976 0.000000 0.717663
O O18 0.142513 0.500000 0.611632
O O19 0.053080 0.685602 0.641094
O O20 0.023556 0.762500 0.254439
O O21 0.984250 0.000000 0.196695
O O22 0.025552 0.500000 0.300700
#
# Coordination Sequence:
#
# PCOD8213510 Si02
#       8
#     8   8   8   8   8   8   8   8
#     4   7  12  24  43  67  93 119 150 189 232 281
#     4  10  22  38  56  79 103 129 170 222 266 305
#     4  10  21  37  54  75 105 140 174 208 254 313
#     4  11  21  34  52  72  98 133 172 210 251 299
#     4  11  23  34  44  64  97 135 171 207 247 291
#     4   9  16  28  47  68  91 124 163 201 240 287
#     4  11  21  32  49  74 106 136 168 208 250 300
#     4   9  16  28  47  71  97 126 159 194 243 298
#
# _framework density 16.983523000000002
#
# number of rings (size 3 to 8) (size 9 to 14) (size 15 to 20)
#    0.000    2.250    2.500    3.000    0.000    3.500 
#    0.000    0.625    0.000    2.250    0.000    0.875 
#    0.000    1.000    0.000    0.000    0.000    0.000 
#
# Total GULP energy -793002.401801 kJ/mol
# GULP energy per Si atom -12390.662528 kJ/mol
# Density = 1.694487 g / cm^3
# Si number density = 16.983523 Si / 1000 Ang^3
#
#
#
# Elastic Constant Matrix: (Units=GPa)
#
#
# Indices 1 2 3 4 5 6 
#
# 1 76.9778 40.9256 37.8933 0.0000 0.0000 0.0000
# 2 40.9256 92.5949 45.5350 0.0000 0.0000 0.0000
# 3 37.8933 45.5350 93.4369 0.0000 0.0000 0.0000
# 4 0.0000 0.0000 0.0000 18.3225 0.0000 0.0000
# 5 0.0000 0.0000 0.0000 0.0000 18.1201 0.0000
# 6 0.0000 0.0000 0.0000 0.0000 0.0000 23.7145
#
#
#
# Elastic Compliance Matrix: (Units=1/GPa)
#
#
# Indices 1 2 3 4 5 6 
#
# 1 0.018367 -0.005859 -0.004593 0.000000 0.000000 0.000000
# 2 -0.005859 0.016073 -0.005457 0.000000 0.000000 0.000000
# 3 -0.004593 -0.005457 0.015224 0.000000 0.000000 0.000000
# 4 0.000000 0.000000 0.000000 0.054578 0.000000 0.000000
# 5 0.000000 0.000000 0.000000 0.000000 0.055187 0.000000
# 6 0.000000 0.000000 0.000000 0.000000 0.000000 0.042168
#
#
# Mechanical properties :
#
#
# Convention : Reuss Voigt Hill
#
# Bulk Modulus (GPa) = 56.03514 56.85750 56.44632
# Shear Modulus (GPa) = 20.88868 21.27514 21.08191
#
# Velocity S-wave (km/s) = 3.51085 3.54318 3.52705
# Velocity P-wave (km/s) = 7.03564 7.09151 7.06363
#
# Compressibility (1/GPa) = 0.01784594
#
# Stress axis : x y z
#
# Youngs Moduli (GPa) = 54.44584 62.21718 65.68366
#
# Poissons Ratio (x) = 0.36453 0.30171
# Poissons Ratio (y) = 0.31900 0.35841
# Poissons Ratio (z) = 0.25009 0.33950
#
# Static dielectric constant tensor:
#      x y z
#    x 2.986850 0.000000 0.000000 
#    y 0.000000 3.151520 0.000000 
#    z 0.000000 0.000000 3.388190 
# 
# 
# High freq. dielectric constant tensor:
#      x y z
#    x 1.612460 0.000000 0.000000 
#    y 0.000000 1.647950 0.000000 
#    z 0.000000 0.000000 1.660820 
# 
# From -- ./inp_files/34104.got.cif
#   From: 2010.03.12/outbox.cif.g09.slc.cpg/sg51_18_cif.got.tgz:34104.got - 2010.04.16 13:43:02.
