data_PCOD8213917
_publ_section_title
;
Structure prediction by ZEFSAII (Michael W. Deem and Ramdas Pophale) SiO2 
 PCOD8213917
Probable space group: P M M A
;
_chemical_formula_sum "Si O2"
_cell_formula_units_Z 40
_cell_length_a 8.962863
_cell_length_b 24.717742
_cell_length_c 9.746138
_cell_angle_alpha 90.000000
_cell_angle_beta 90.000000
_cell_angle_gamma 90.000000
_cell_volume 2159.176324
_symmetry_space_group_name_H-M "P M M A"
_symmetry_group_IT_number 51
_symmetry_cell_setting 'orthorhombic'
loop_
_space_group_symop_operation_xyz
x,y,z
1/2-x,-y,z
1/2+x,-y,-z
-x,y,-z
-x,-y,-z
1/2+x,y,-z
1/2-x,y,z
x,-y,z
loop_
_atom_site_type_symbol
_atom_site_label
_atom_site_fract_x
_atom_site_fract_y
_atom_site_fract_z
Si Si1 0.074895 0.560687 0.357829
Si Si2 0.075792 0.231569 0.140474
Si Si3 0.427080 0.860145 0.351200
Si Si4 0.074106 0.353689 0.139998
Si Si5 0.422049 0.936124 0.859660
O O1 0.250000 0.566772 0.377160
O O2 0.032691 0.500000 0.308571
O O3 0.012003 0.604607 0.251911
O O4 0.000000 0.574978 0.500000
O O5 0.250000 0.228349 0.112777
O O6 0.028740 0.193665 0.266801
O O7 0.025577 0.292546 0.178775
O O8 0.000000 0.211493 0.000000
O O9 0.500000 0.855813 0.500000
O O10 0.250000 0.867203 0.366004
O O11 0.493956 0.911294 0.270966
O O12 0.250000 0.358434 0.123999
O O13 0.000000 0.372237 0.000000
O O14 0.250000 0.917480 0.862856
O O15 0.436370 0.000000 0.843899
O O16 0.500000 0.916170 0.000000
#
# Coordination Sequence:
#
# PCOD8213917 Si02
#       5
#     8   8   8   8   8
#     4   9  18  32  49  70  98 132 168 206 249 299
#     4   9  19  35  54  75 100 133 170 209 254 305
#     4  11  23  37  54  78 108 140 175 215 260 308
#     4   9  18  33  51  73 101 130 165 209 255 302
#     4  10  21  38  60  84 109 139 175 213 255 305
#
# _framework density 18.525583999999998
#
# number of rings (size 3 to 8) (size 9 to 14) (size 15 to 20)
#    0.000    2.400    0.000    1.800    0.000    6.800 
#    0.000    0.000    0.000    0.000    0.000    0.000 
#    0.000    0.000    0.000    0.000    0.000    0.000 
#
# Total GULP energy -496052.065660 kJ/mol
# GULP energy per Si atom -12401.301642 kJ/mol
# Density = 1.848342 g / cm^3
# Si number density = 18.525584 Si / 1000 Ang^3
#
#
#
# Elastic Constant Matrix: (Units=GPa)
#
#
# Indices 1 2 3 4 5 6 
#
# 1 68.2309 44.6461 63.5457 0.0000 0.0000 0.0000
# 2 44.6461 90.8646 79.8303 0.0000 0.0000 0.0000
# 3 63.5457 79.8303 163.7208 0.0000 0.0000 0.0000
# 4 0.0000 0.0000 0.0000 31.7408 0.0000 0.0000
# 5 0.0000 0.0000 0.0000 0.0000 38.5472 0.0000
# 6 0.0000 0.0000 0.0000 0.0000 0.0000 -556.2607
#
#
#
# Elastic Compliance Matrix: (Units=1/GPa)
#
#
# Indices 1 2 3 4 5 6 
#
# 1 0.025017 -0.006580 -0.006501 0.000000 0.000000 0.000000
# 2 -0.006580 0.020984 -0.007678 0.000000 0.000000 0.000000
# 3 -0.006501 -0.007678 0.012375 0.000000 0.000000 0.000000
# 4 0.000000 0.000000 0.000000 0.031505 0.000000 0.000000
# 5 0.000000 0.000000 0.000000 0.000000 0.025942 0.000000
# 6 0.000000 0.000000 0.000000 0.000000 0.000000 -0.001798
#
#
# Mechanical properties :
#
#
# Convention : Reuss Voigt Hill
#
# Bulk Modulus (GPa) = 59.32187 77.65118 68.48653
# Shear Modulus (GPa) = 31.02454 -88.20823 -28.59185
#
# Velocity S-wave (km/s) = 4.09673 -6.90780 -3.93284
# Velocity P-wave (km/s) = 7.38029 4.64940 4.05289
#
# Compressibility (1/GPa) = 0.01685719
#
# Stress axis : x y z
#
# Youngs Moduli (GPa) = 39.97344 47.65564 80.80730
#
# Poissons Ratio (x) = 0.31357 0.52536
# Poissons Ratio (y) = 0.26302 0.62043
# Poissons Ratio (z) = 0.25989 0.36589
#
# Static dielectric constant tensor:
#      x y z
#    x 3.409610 0.000000 0.000000 
#    y 0.000000 3.662240 0.000000 
#    z 0.000000 0.000000 3.414420 
# 
# 
# High freq. dielectric constant tensor:
#      x y z
#    x 1.719690 0.000000 0.000000 
#    y 0.000000 1.728680 0.000000 
#    z 0.000000 0.000000 1.716020 
# 
# From -- ./inp_files/5218.got.cif
#   From: 2010.03.12/outbox.cif.g09.slc.cpg/sg51_3_cif.got.tgz:5218.got - 2010.04.16 13:43:02.
