data_PCOD8213787
_publ_section_title
;
Structure prediction by ZEFSAII (Michael W. Deem and Ramdas Pophale) SiO2 
 PCOD8213787
Probable space group: P M M A
;
_chemical_formula_sum "Si O2"
_cell_formula_units_Z 48
_cell_length_a 17.729976
_cell_length_b 13.680078
_cell_length_c 9.517707
_cell_angle_alpha 90.000000
_cell_angle_beta 90.000000
_cell_angle_gamma 90.000000
_cell_volume 2308.495607
_symmetry_space_group_name_H-M "P M M A"
_symmetry_group_IT_number 51
_symmetry_cell_setting 'orthorhombic'
loop_
_space_group_symop_operation_xyz
x,y,z
1/2-x,-y,z
1/2+x,-y,-z
-x,y,-z
-x,-y,-z
1/2+x,y,-z
1/2-x,y,z
x,-y,z
loop_
_atom_site_type_symbol
_atom_site_label
_atom_site_fract_x
_atom_site_fract_y
_atom_site_fract_z
Si Si1 0.099271 0.717643 0.756522
Si Si2 0.338720 0.109291 0.246374
Si Si3 0.833214 0.614832 0.988763
Si Si4 0.413535 0.890918 0.962424
Si Si5 0.441280 0.385977 0.257488
Si Si6 0.662051 0.720242 0.548236
O O1 0.100299 0.823027 0.829112
O O2 0.145925 0.731459 0.615140
O O3 0.015468 0.679278 0.726372
O O4 0.142321 0.640500 0.854004
O O5 0.250000 0.104255 0.238908
O O6 0.364409 0.181128 0.371403
O O7 0.372019 0.000000 0.274646
O O8 0.368106 0.149807 0.097044
O O9 0.750000 0.659455 0.954722
O O10 0.828142 0.500000 0.975044
O O11 0.896199 0.652587 0.879650
O O12 0.385389 0.000000 0.923368
O O13 0.500000 0.891552 0.000000
O O14 0.463253 0.500000 0.247368
O O15 0.387033 0.369879 0.391589
O O16 0.750000 0.697872 0.573296
#
# Coordination Sequence:
#
# PCOD8213787 Si02
#       6
#     8   8   8   8   8   8
#     4  12  23  37  59  89 122 153 188 241 299 346
#     4   9  19  38  62  85 113 153 197 235 276 337
#     4  10  21  38  61  87 114 148 192 241 291 343
#     4  10  21  37  59  87 116 149 191 237 286 342
#     4  11  24  42  62  83 112 155 202 240 282 346
#     4  11  24  39  58  86 118 154 194 238 292 347
#
# _framework density 20.792762
#
# number of rings (size 3 to 8) (size 9 to 14) (size 15 to 20)
#    0.000    1.500    0.000    5.500    0.000    7.667 
#    0.000    0.000    0.000    5.000    0.000    0.000 
#    0.000    0.000    0.000    0.000    0.000    0.000 
#
# Total GULP energy -595328.936122 kJ/mol
# GULP energy per Si atom -12402.686169 kJ/mol
# Density = 2.074544 g / cm^3
# Si number density = 20.792762 Si / 1000 Ang^3
#
#
#
# Elastic Constant Matrix: (Units=GPa)
#
#
# Indices 1 2 3 4 5 6 
#
# 1 69.7337 17.9692 12.4498 0.0000 0.0000 0.0000
# 2 17.9692 55.8519 24.4865 0.0000 0.0000 0.0000
# 3 12.4498 24.4865 115.4284 0.0000 0.0000 0.0000
# 4 0.0000 0.0000 0.0000 25.9912 0.0000 0.0000
# 5 0.0000 0.0000 0.0000 0.0000 36.3315 0.0000
# 6 0.0000 0.0000 0.0000 0.0000 0.0000 23.5743
#
#
#
# Elastic Compliance Matrix: (Units=1/GPa)
#
#
# Indices 1 2 3 4 5 6 
#
# 1 0.015686 -0.004746 -0.000685 0.000000 0.000000 0.000000
# 2 -0.004746 0.021177 -0.003980 0.000000 0.000000 0.000000
# 3 -0.000685 -0.003980 0.009582 0.000000 0.000000 0.000000
# 4 0.000000 0.000000 0.000000 0.038475 0.000000 0.000000
# 5 0.000000 0.000000 0.000000 0.000000 0.027524 0.000000
# 6 0.000000 0.000000 0.000000 0.000000 0.000000 0.042419
#
#
# Mechanical properties :
#
#
# Convention : Reuss Voigt Hill
#
# Bulk Modulus (GPa) = 36.20481 38.98056 37.59268
# Shear Modulus (GPa) = 27.33858 29.58664 28.46261
#
# Velocity S-wave (km/s) = 3.62997 3.77627 3.70384
# Velocity P-wave (km/s) = 5.91768 6.14829 6.03409
#
# Compressibility (1/GPa) = 0.02762064
#
# Stress axis : x y z
#
# Youngs Moduli (GPa) = 63.75286 47.22200 104.36628
#
# Poissons Ratio (x) = 0.22413 0.07149
# Poissons Ratio (y) = 0.30258 0.41542
# Poissons Ratio (z) = 0.04367 0.18796
#
# Static dielectric constant tensor:
#      x y z
#    x 3.878520 0.000000 0.000000 
#    y 0.000000 4.060430 0.000000 
#    z 0.000000 0.000000 3.702640 
# 
# 
# High freq. dielectric constant tensor:
#      x y z
#    x 1.820950 0.000000 0.000000 
#    y 0.000000 1.822890 0.000000 
#    z 0.000000 0.000000 1.806740 
# 
# From -- ./inp_files/9574.got.cif
#   From: 2010.03.12/outbox.cif.g09.slc.cpg/sg51_5_cif.got.tgz:9574.got - 2010.04.16 13:43:02.
