data_PCOD8213063
_publ_section_title
;
Structure prediction by ZEFSAII (Michael W. Deem and Ramdas Pophale) SiO2 
 PCOD8213063
Probable space group: P M M A
;
_chemical_formula_sum "Si O2"
_cell_formula_units_Z 64
_cell_length_a 9.006816
_cell_length_b 14.305308
_cell_length_c 26.061752
_cell_angle_alpha 90.000000
_cell_angle_beta 90.000000
_cell_angle_gamma 90.000000
_cell_volume 3357.933655
_symmetry_space_group_name_H-M "P M M A"
_symmetry_group_IT_number 51
_symmetry_cell_setting 'orthorhombic'
loop_
_space_group_symop_operation_xyz
x,y,z
1/2-x,-y,z
1/2+x,-y,-z
-x,y,-z
-x,-y,-z
1/2+x,y,-z
1/2-x,y,z
x,-y,z
loop_
_atom_site_type_symbol
_atom_site_label
_atom_site_fract_x
_atom_site_fract_y
_atom_site_fract_z
Si Si1 0.425065 0.212325 0.948540
Si Si2 0.913890 0.610373 0.212464
Si Si3 0.924029 0.607520 0.686640
Si Si4 0.420569 0.109635 0.846988
Si Si5 0.924346 0.106614 0.448521
Si Si6 0.426134 0.781311 0.651003
Si Si7 0.425996 0.397417 0.899574
Si Si8 0.076373 0.890373 0.256459
O O1 0.250000 0.200967 0.954461
O O2 0.482439 0.155232 0.899262
O O3 0.474385 0.321031 0.941520
O O4 0.500000 0.172852 0.000000
O O5 0.750000 0.653468 0.224441
O O6 0.898484 0.500000 0.210525
O O7 0.975131 0.641630 0.156633
O O8 0.030028 0.640343 0.256095
O O9 0.750000 0.621820 0.680062
O O10 0.970347 0.500000 0.675835
O O11 0.011320 0.675289 0.647718
O O12 0.250000 0.138688 0.837871
O O13 0.513866 0.145787 0.798167
O O14 0.439613 0.000000 0.853799
O O15 0.750000 0.114213 0.456155
O O16 0.978923 0.168032 0.400789
O O17 0.000000 0.145806 0.500000
O O18 0.974146 0.000000 0.438134
O O19 0.250000 0.780147 0.656115
O O20 0.493649 0.835953 0.698825
O O21 0.250000 0.406767 0.897730
O O22 0.495783 0.500000 0.912367
O O23 0.250000 0.868360 0.259189
O O24 0.042408 0.000000 0.263134
#
# Coordination Sequence:
#
# PCOD8213063 Si02
#       8
#     8   8   8   8   8   8   8   8
#     4  10  21  35  51  72  96 126 167 213 263 317
#     4   8  14  27  48  71  94 127 172 215 258 316
#     4  10  21  35  50  75 113 150 186 233 283 325
#     4   9  19  36  55  74  99 133 172 214 262 320
#     4   9  19  36  58  85 116 150 188 231 277 324
#     4  11  22  35  56  84 115 153 194 230 268 324
#     4   8  15  29  49  71  95 124 161 205 253 311
#     4  10  21  36  55  83 116 145 175 217 274 334
#
# _framework density 19.059339999999999
#
# number of rings (size 3 to 8) (size 9 to 14) (size 15 to 20)
#    0.000    2.625    0.000    2.250    1.750    4.000 
#    0.000    1.875    0.000    1.125    0.000    0.000 
#    0.000    0.000    0.000    0.000    0.000    0.000 
#
# Total GULP energy -793436.709361 kJ/mol
# GULP energy per Si atom -12397.448584 kJ/mol
# Density = 1.901596 g / cm^3
# Si number density = 19.059340 Si / 1000 Ang^3
#
#
#
# Elastic Constant Matrix: (Units=GPa)
#
#
# Indices 1 2 3 4 5 6 
#
# 1 65.5353 38.9040 51.7990 0.0000 0.0000 0.0000
# 2 38.9040 67.1276 66.4451 0.0000 0.0000 0.0000
# 3 51.7990 66.4451 149.1280 0.0000 0.0000 0.0000
# 4 0.0000 0.0000 0.0000 30.3851 0.0000 0.0000
# 5 0.0000 0.0000 0.0000 0.0000 30.3672 0.0000
# 6 0.0000 0.0000 0.0000 0.0000 0.0000 23.9934
#
#
#
# Elastic Compliance Matrix: (Units=1/GPa)
#
#
# Indices 1 2 3 4 5 6 
#
# 1 0.024468 -0.010319 -0.003901 0.000000 0.000000 0.000000
# 2 -0.010319 0.031003 -0.010229 0.000000 0.000000 0.000000
# 3 -0.003901 -0.010229 0.012618 0.000000 0.000000 0.000000
# 4 0.000000 0.000000 0.000000 0.032911 0.000000 0.000000
# 5 0.000000 0.000000 0.000000 0.000000 0.032930 0.000000
# 6 0.000000 0.000000 0.000000 0.000000 0.000000 0.041678
#
#
# Mechanical properties :
#
#
# Convention : Reuss Voigt Hill
#
# Bulk Modulus (GPa) = 52.10955 66.23191 59.17073
# Shear Modulus (GPa) = 21.65399 25.25866 23.45633
#
# Velocity S-wave (km/s) = 3.37432 3.64437 3.51194
# Velocity P-wave (km/s) = 6.52544 7.24806 6.89622
#
# Compressibility (1/GPa) = 0.01919034
#
# Stress axis : x y z
#
# Youngs Moduli (GPa) = 40.86926 32.25527 79.24944
#
# Poissons Ratio (x) = 0.33285 0.30917
# Poissons Ratio (y) = 0.42174 0.81065
# Poissons Ratio (z) = 0.15944 0.32994
#
# Static dielectric constant tensor:
#      x y z
#    x 3.487190 0.000000 0.000000 
#    y 0.000000 3.694990 0.000000 
#    z 0.000000 0.000000 3.566200 
# 
# 
# High freq. dielectric constant tensor:
#      x y z
#    x 1.721560 0.000000 0.000000 
#    y 0.000000 1.745650 0.000000 
#    z 0.000000 0.000000 1.728860 
# 
# From -- ./inp_files/35020.got.cif
#   From: 2010.03.12/outbox.cif.g09.slc.cpg/sg51_18_cif.got.tgz:35020.got - 2010.04.16 13:43:02.
