data_PCOD8213419
_publ_section_title
;
Structure prediction by ZEFSAII (Michael W. Deem and Ramdas Pophale) SiO2 
 PCOD8213419
Probable space group: P M M A
;
_chemical_formula_sum "Si O2"
_cell_formula_units_Z 64
_cell_length_a 15.023244
_cell_length_b 17.553124
_cell_length_c 11.328441
_cell_angle_alpha 90.000000
_cell_angle_beta 90.000000
_cell_angle_gamma 90.000000
_cell_volume 2987.365002
_symmetry_space_group_name_H-M "P M M A"
_symmetry_group_IT_number 51
_symmetry_cell_setting 'orthorhombic'
loop_
_space_group_symop_operation_xyz
x,y,z
1/2-x,-y,z
1/2+x,-y,-z
-x,y,-z
-x,-y,-z
1/2+x,y,-z
1/2-x,y,z
x,-y,z
loop_
_atom_site_type_symbol
_atom_site_label
_atom_site_fract_x
_atom_site_fract_y
_atom_site_fract_z
Si Si1 0.102037 0.916708 0.969521
Si Si2 0.651064 0.336571 0.771562
Si Si3 0.517003 0.915945 0.263197
Si Si4 0.994138 0.588842 0.363137
Si Si5 0.649139 0.699901 0.265710
Si Si6 0.895035 0.751538 0.003517
Si Si7 0.650421 0.152293 0.414829
Si Si8 0.347477 0.172521 0.311376
O O1 0.097034 0.900057 0.829437
O O2 0.150147 0.000000 0.996963
O O3 0.144497 0.838248 0.024250
O O4 0.000000 0.927973 0.000000
O O5 0.750000 0.372567 0.764228
O O6 0.582592 0.396521 0.715599
O O7 0.635021 0.310124 0.906864
O O8 0.642607 0.262754 0.690532
O O9 0.570310 0.905065 0.384450
O O10 0.429700 0.864117 0.239686
O O11 0.477191 0.000000 0.254655
O O12 0.973543 0.500000 0.359616
O O13 0.000000 0.616172 0.500000
O O14 0.913333 0.629643 0.297345
O O15 0.750000 0.673397 0.286398
O O16 0.624112 0.767856 0.354498
O O17 0.637096 0.723424 0.130060
O O18 0.000000 0.759175 0.000000
O O19 0.750000 0.127664 0.373623
O O20 0.645934 0.151093 0.553830
O O21 0.250000 0.147283 0.260800
#
# Coordination Sequence:
#
# PCOD8213419 Si02
#       8
#     8   8   8   8   8   8   8   8
#     4   9  18  32  54  85 119 160 209 260 315 371
#     4  11  23  41  66  97 128 163 209 258 312 374
#     4  11  21  35  54  77 112 157 202 255 316 371
#     4  11  25  45  70 100 133 167 202 247 307 376
#     4  11  22  40  65  95 127 165 212 261 313 374
#     4  11  19  37  66  92 127 171 214 267 319 370
#     4  10  21  36  55  81 115 154 202 257 308 364
#     4  10  21  36  55  82 115 153 202 258 308 366
#
# _framework density 21.423563000000001
#
# number of rings (size 3 to 8) (size 9 to 14) (size 15 to 20)
#    0.000    1.500    2.500    3.750    0.000    3.500 
#    0.000    3.750    0.000    3.750    0.000    3.500 
#    0.000    0.000    0.000    0.000    0.000    0.000 
#
# Total GULP energy -792886.920486 kJ/mol
# GULP energy per Si atom -12388.858133 kJ/mol
# Density = 2.137480 g / cm^3
# Si number density = 21.423563 Si / 1000 Ang^3
#
#
#
# Elastic Constant Matrix: (Units=GPa)
#
#
# Indices 1 2 3 4 5 6 
#
# 1 97.7566 26.6788 21.4642 0.0000 0.0000 0.0000
# 2 26.6788 70.3809 30.5274 0.0000 0.0000 0.0000
# 3 21.4642 30.5274 60.5677 0.0000 0.0000 0.0000
# 4 0.0000 0.0000 0.0000 25.1586 0.0000 0.0000
# 5 0.0000 0.0000 0.0000 0.0000 20.9411 0.0000
# 6 0.0000 0.0000 0.0000 0.0000 0.0000 5.6515
#
#
#
# Elastic Compliance Matrix: (Units=1/GPa)
#
#
# Indices 1 2 3 4 5 6 
#
# 1 0.011686 -0.003370 -0.002443 0.000000 0.000000 0.000000
# 2 -0.003370 0.019156 -0.008461 0.000000 0.000000 0.000000
# 3 -0.002443 -0.008461 0.021640 0.000000 0.000000 0.000000
# 4 0.000000 0.000000 0.000000 0.039748 0.000000 0.000000
# 5 0.000000 0.000000 0.000000 0.000000 0.047753 0.000000
# 6 0.000000 0.000000 0.000000 0.000000 0.000000 0.176945
#
#
# Mechanical properties :
#
#
# Convention : Reuss Voigt Hill
#
# Bulk Modulus (GPa) = 41.77965 42.89401 42.33683
# Shear Modulus (GPa) = 14.14619 20.35256 17.24937
#
# Velocity S-wave (km/s) = 2.57244 3.08556 2.84061
# Velocity P-wave (km/s) = 5.32610 5.72360 5.52842
#
# Compressibility (1/GPa) = 0.02393510
#
# Stress axis : x y z
#
# Youngs Moduli (GPa) = 85.57589 52.20401 46.20997
#
# Poissons Ratio (x) = 0.17593 0.11287
# Poissons Ratio (y) = 0.28840 0.39096
# Poissons Ratio (z) = 0.20902 0.44167
#
# Static dielectric constant tensor:
#      x y z
#    x 3.973980 0.000000 0.000000 
#    y 0.000000 3.671690 0.000000 
#    z 0.000000 0.000000 -62.175290 
# 
# 
# High freq. dielectric constant tensor:
#      x y z
#    x 1.840560 0.000000 0.000000 
#    y 0.000000 1.812650 0.000000 
#    z 0.000000 0.000000 1.858220 
# 
# From -- ./inp_files/16868.got.cif
#   From: 2010.03.12/outbox.cif.g09.slc.cpg/sg51_9_cif.got.tgz:16868.got - 2010.04.16 13:43:02.
