data_PCOD8213071
_publ_section_title
;
Structure prediction by ZEFSAII (Michael W. Deem and Ramdas Pophale) SiO2 
 PCOD8213071
Probable space group: P M M A
;
_chemical_formula_sum "Si O2"
_cell_formula_units_Z 48
_cell_length_a 9.602893
_cell_length_b 7.617993
_cell_length_c 34.076287
_cell_angle_alpha 90.000000
_cell_angle_beta 90.000000
_cell_angle_gamma 90.000000
_cell_volume 2492.842994
_symmetry_space_group_name_H-M "P M M A"
_symmetry_group_IT_number 51
_symmetry_cell_setting 'orthorhombic'
loop_
_space_group_symop_operation_xyz
x,y,z
1/2-x,-y,z
1/2+x,-y,-z
-x,y,-z
-x,-y,-z
1/2+x,y,-z
1/2-x,y,z
x,-y,z
loop_
_atom_site_type_symbol
_atom_site_label
_atom_site_fract_x
_atom_site_fract_y
_atom_site_fract_z
Si Si1 0.087793 0.000000 0.097454
Si Si2 0.095236 0.791261 0.534077
Si Si3 0.596253 0.700965 0.692294
Si Si4 0.089123 0.299754 0.037665
Si Si5 0.089508 0.296056 0.763266
Si Si6 0.910583 0.000000 0.175347
Si Si7 0.593001 0.207346 0.378685
O O1 0.046453 0.173949 0.073313
O O2 0.250000 0.000000 0.107998
O O3 0.003486 0.000000 0.137177
O O4 0.250000 0.720982 0.526377
O O5 0.046769 0.732107 0.577589
O O6 0.000000 0.707602 0.500000
O O7 0.092114 0.000000 0.531866
O O8 0.750000 0.791681 0.690408
O O9 0.617770 0.500000 0.702367
O O10 0.502657 0.779800 0.727319
O O11 0.518122 0.714746 0.651063
O O12 0.250000 0.272842 0.026297
O O13 0.058194 0.500000 0.050504
O O14 0.000000 0.245695 0.000000
O O15 0.250000 0.271615 0.750717
O O16 0.058073 0.500000 0.773481
O O17 0.053634 0.176520 0.800599
O O18 0.750000 0.000000 0.162687
O O19 0.750000 0.275936 0.369653
O O20 0.591181 0.000000 0.375291
#
# Coordination Sequence:
#
# PCOD8213071 Si02
#       7
#     4   8   8   8   8   4   8
#     4  10  21  35  51  76 110 144 176 217 271 320
#     4   8  14  25  41  63  92 124 156 192 235 285
#     4  10  21  35  51  74 101 127 159 203 254 305
#     4   9  18  33  53  78 108 143 183 224 267 315
#     4   9  19  37  57  75 100 135 172 214 264 314
#     4  10  22  37  55  80 105 136 181 223 260 314
#     4   9  18  31  48  72  99 127 161 199 242 295
#
# _framework density 19.255123999999999
#
# number of rings (size 3 to 8) (size 9 to 14) (size 15 to 20)
#    0.000    2.833    0.000    1.750    1.167    4.000 
#    0.000    1.667    0.000    0.500    0.000    0.000 
#    0.000    0.000    0.000    0.000    0.000    0.000 
#
# Total GULP energy -595011.451338 kJ/mol
# GULP energy per Si atom -12396.071903 kJ/mol
# Density = 1.921130 g / cm^3
# Si number density = 19.255124 Si / 1000 Ang^3
#
#
#
# Elastic Constant Matrix: (Units=GPa)
#
#
# Indices 1 2 3 4 5 6 
#
# 1 117.9146 37.8153 101.8450 0.0000 0.0000 0.0000
# 2 37.8153 66.7304 52.1412 0.0000 0.0000 0.0000
# 3 101.8450 52.1412 174.3541 0.0000 0.0000 0.0000
# 4 0.0000 0.0000 0.0000 54.5468 0.0000 0.0000
# 5 0.0000 0.0000 0.0000 0.0000 44.7476 0.0000
# 6 0.0000 0.0000 0.0000 0.0000 0.0000 15.6137
#
#
#
# Elastic Compliance Matrix: (Units=1/GPa)
#
#
# Indices 1 2 3 4 5 6 
#
# 1 0.017432 -0.002508 -0.009432 0.000000 0.000000 0.000000
# 2 -0.002508 0.019916 -0.004491 0.000000 0.000000 0.000000
# 3 -0.009432 -0.004491 0.012588 0.000000 0.000000 0.000000
# 4 0.000000 0.000000 0.000000 0.018333 0.000000 0.000000
# 5 0.000000 0.000000 0.000000 0.000000 0.022348 0.000000
# 6 0.000000 0.000000 0.000000 0.000000 0.000000 0.064046
#
#
# Mechanical properties :
#
#
# Convention : Reuss Voigt Hill
#
# Bulk Modulus (GPa) = 58.57113 82.51134 70.54124
# Shear Modulus (GPa) = 25.87758 34.12812 30.00285
#
# Velocity S-wave (km/s) = 3.66995 4.21458 3.95165
# Velocity P-wave (km/s) = 6.96006 8.16261 7.58521
#
# Compressibility (1/GPa) = 0.01707326
#
# Stress axis : x y z
#
# Youngs Moduli (GPa) = 57.36528 50.21070 79.43939
#
# Poissons Ratio (x) = 0.12594 0.74931
# Poissons Ratio (y) = 0.14389 0.35675
# Poissons Ratio (z) = 0.54110 0.22549
#
# Static dielectric constant tensor:
#      x y z
#    x 3.860430 0.000000 0.000000 
#    y 0.000000 3.486710 0.000000 
#    z 0.000000 0.000000 3.500950 
# 
# 
# High freq. dielectric constant tensor:
#      x y z
#    x 1.747090 0.000000 0.000000 
#    y 0.000000 1.742810 0.000000 
#    z 0.000000 0.000000 1.741550 
# 
# From -- ./inp_files/37074.got.cif
#   From: 2010.03.12/outbox.cif.g09.slc.cpg/sg51_19_cif.got.tgz:37074.got - 2010.04.16 13:43:02.
