data_PCOD8213860
_publ_section_title
;
Structure prediction by ZEFSAII (Michael W. Deem and Ramdas Pophale) SiO2 
 PCOD8213860
Probable space group: P M M A
;
_chemical_formula_sum "Si O2"
_cell_formula_units_Z 64
_cell_length_a 9.003416
_cell_length_b 14.408438
_cell_length_c 27.732232
_cell_angle_alpha 90.000000
_cell_angle_beta 90.000000
_cell_angle_gamma 90.000000
_cell_volume 3597.568267
_symmetry_space_group_name_H-M "P M M A"
_symmetry_group_IT_number 51
_symmetry_cell_setting 'orthorhombic'
loop_
_space_group_symop_operation_xyz
x,y,z
1/2-x,-y,z
1/2+x,-y,-z
-x,y,-z
-x,-y,-z
1/2+x,y,-z
1/2-x,y,z
x,-y,z
loop_
_atom_site_type_symbol
_atom_site_label
_atom_site_fract_x
_atom_site_fract_y
_atom_site_fract_z
Si Si1 0.574987 0.393863 0.951243
Si Si2 0.077328 0.605499 0.668697
Si Si3 0.076287 0.107251 0.549977
Si Si4 0.922760 0.895925 0.173272
Si Si5 0.580273 0.892428 0.284656
Si Si6 0.575001 0.219198 0.634850
Si Si7 0.080750 0.606856 0.780336
Si Si8 0.424950 0.721530 0.139884
O O1 0.750000 0.384476 0.957185
O O2 0.527715 0.500000 0.941174
O O3 0.514641 0.332501 0.906976
O O4 0.500000 0.356552 0.000000
O O5 0.250000 0.624409 0.658231
O O6 0.035777 0.500000 0.654809
O O7 0.042158 0.623822 0.724685
O O8 0.977403 0.673853 0.636625
O O9 0.250000 0.128316 0.545952
O O10 0.000000 0.134708 0.500000
O O11 0.005960 0.169590 0.591065
O O12 0.046087 0.000000 0.562842
O O13 0.750000 0.887451 0.161607
O O14 0.952791 0.871304 0.228991
O O15 0.011110 0.825531 0.139181
O O16 0.978895 0.000000 0.162107
O O17 0.750000 0.865300 0.297477
O O18 0.468328 0.831081 0.315516
O O19 0.553458 0.000000 0.296521
O O20 0.750000 0.214342 0.627072
O O21 0.250000 0.636700 0.790840
O O22 0.055855 0.500000 0.794047
O O23 0.972754 0.668887 0.811928
O O24 0.250000 0.726891 0.138926
#
# Coordination Sequence:
#
# PCOD8213860 Si02
#       8
#     8   8   8   8   8   8   8   8
#     4   9  19  35  52  72  99 128 158 195 242 296
#     4   9  19  36  54  71  97 136 179 218 251 287
#     4  10  21  38  59  81 106 135 167 206 252 301
#     4   9  19  35  52  70  96 133 175 213 246 287
#     4   9  18  33  51  71  99 136 175 212 248 288
#     4  12  23  32  49  78 108 137 170 208 252 304
#     4   9  18  32  50  73 101 135 174 209 243 293
#     4  11  21  31  48  75 104 131 160 201 254 305
#
# _framework density 17.789795000000002
#
# number of rings (size 3 to 8) (size 9 to 14) (size 15 to 20)
#    0.000    2.250    0.000    4.875    0.000    8.750 
#    0.000    3.750    0.000    0.750    0.000    0.000 
#    0.000    0.000    0.000    0.000    0.000    0.000 
#
# Total GULP energy -793754.714540 kJ/mol
# GULP energy per Si atom -12402.417415 kJ/mol
# Density = 1.774930 g / cm^3
# Si number density = 17.789795 Si / 1000 Ang^3
#
#
#
# Elastic Constant Matrix: (Units=GPa)
#
#
# Indices 1 2 3 4 5 6 
#
# 1 75.5082 52.1672 46.1367 0.0000 0.0000 0.0000
# 2 52.1672 110.1186 66.6204 0.0000 0.0000 0.0000
# 3 46.1367 66.6204 81.0943 0.0000 0.0000 0.0000
# 4 0.0000 0.0000 0.0000 28.4271 0.0000 0.0000
# 5 0.0000 0.0000 0.0000 0.0000 30.0012 0.0000
# 6 0.0000 0.0000 0.0000 0.0000 0.0000 28.7598
#
#
#
# Elastic Compliance Matrix: (Units=1/GPa)
#
#
# Indices 1 2 3 4 5 6 
#
# 1 0.021937 -0.005650 -0.007839 0.000000 0.000000 0.000000
# 2 -0.005650 0.019509 -0.012813 0.000000 0.000000 0.000000
# 3 -0.007839 -0.012813 0.027317 0.000000 0.000000 0.000000
# 4 0.000000 0.000000 0.000000 0.035178 0.000000 0.000000
# 5 0.000000 0.000000 0.000000 0.000000 0.033332 0.000000
# 6 0.000000 0.000000 0.000000 0.000000 0.000000 0.034771
#
#
# Mechanical properties :
#
#
# Convention : Reuss Voigt Hill
#
# Bulk Modulus (GPa) = 61.88194 66.28552 64.08373
# Shear Modulus (GPa) = 21.73597 24.22409 22.98003
#
# Velocity S-wave (km/s) = 3.49925 3.69410 3.59800
# Velocity P-wave (km/s) = 7.15450 7.45228 7.30491
#
# Compressibility (1/GPa) = 0.01615980
#
# Stress axis : x y z
#
# Youngs Moduli (GPa) = 45.58589 51.25767 36.60685
#
# Poissons Ratio (x) = 0.28959 0.28696
# Poissons Ratio (y) = 0.25754 0.46904
# Poissons Ratio (z) = 0.35735 0.65676
#
# Static dielectric constant tensor:
#      x y z
#    x 0.819510 0.000000 0.000000 
#    y 0.000000 3.433140 0.000000 
#    z 0.000000 0.000000 3.217160 
# 
# 
# High freq. dielectric constant tensor:
#      x y z
#    x 1.683930 0.000000 0.000000 
#    y 0.000000 1.694060 0.000000 
#    z 0.000000 0.000000 1.668920 
# 
# From -- ./inp_files/34882.got.cif
#   From: 2010.03.12/outbox.cif.g09.slc.cpg/sg51_18_cif.got.tgz:34882.got - 2010.04.16 13:43:02.
