data_PCOD8213292
_publ_section_title
;
Structure prediction by ZEFSAII (Michael W. Deem and Ramdas Pophale) SiO2 
 PCOD8213292
Probable space group: P M M A
;
_chemical_formula_sum "Si O2"
_cell_formula_units_Z 40
_cell_length_a 9.310188
_cell_length_b 9.116384
_cell_length_c 25.710520
_cell_angle_alpha 90.000000
_cell_angle_beta 90.000000
_cell_angle_gamma 90.000000
_cell_volume 2182.186785
_symmetry_space_group_name_H-M "P M M A"
_symmetry_group_IT_number 51
_symmetry_cell_setting 'orthorhombic'
loop_
_space_group_symop_operation_xyz
x,y,z
1/2-x,-y,z
1/2+x,-y,-z
-x,y,-z
-x,-y,-z
1/2+x,y,-z
1/2-x,y,z
x,-y,z
loop_
_atom_site_type_symbol
_atom_site_label
_atom_site_fract_x
_atom_site_fract_y
_atom_site_fract_z
Si Si1 0.912415 0.325337 0.950781
Si Si2 0.917249 0.170431 0.254598
Si Si3 0.916156 0.670280 0.149691
Si Si4 0.082777 0.169124 0.449224
Si Si5 0.418994 0.330970 0.345807
O O1 0.750000 0.264222 0.952220
O O2 0.912414 0.500000 0.952849
O O3 0.989641 0.271337 0.898314
O O4 0.000000 0.262067 0.000000
O O5 0.750000 0.199144 0.264731
O O6 0.964823 0.238683 0.199797
O O7 0.004779 0.247039 0.299677
O O8 0.955608 0.000000 0.253869
O O9 0.750000 0.697226 0.135696
O O10 0.945897 0.500000 0.161336
O O11 0.250000 0.192808 0.459816
O O12 0.029057 0.263541 0.400398
O O13 0.000000 0.226025 0.500000
O O14 0.045954 0.000000 0.437519
O O15 0.250000 0.309204 0.338881
O O16 0.464420 0.500000 0.344434
#
# Coordination Sequence:
#
# PCOD8213292 Si02
#       5
#     8   8   8   8   8
#     4   9  16  26  43  69  99 129 162 201 246 296
#     4  10  21  36  54  76 102 134 172 212 256 308
#     4   9  17  30  48  70  98 130 163 203 250 297
#     4   9  18  33  52  74 102 136 172 209 250 298
#     4  10  21  36  54  77 105 136 171 212 257 304
#
# _framework density 18.330238000000001
#
# number of rings (size 3 to 8) (size 9 to 14) (size 15 to 20)
#    0.000    2.600    0.000    1.800    0.000    6.800 
#    0.000    4.000    0.000    0.600    0.000    0.000 
#    0.000    0.000    0.000    0.000    0.000    0.000 
#
# Total GULP energy -496101.632799 kJ/mol
# GULP energy per Si atom -12402.540820 kJ/mol
# Density = 1.828852 g / cm^3
# Si number density = 18.330238 Si / 1000 Ang^3
#
#
#
# Elastic Constant Matrix: (Units=GPa)
#
#
# Indices 1 2 3 4 5 6 
#
# 1 79.8637 40.2528 83.0135 0.0000 0.0000 0.0000
# 2 40.2528 81.6195 77.2216 0.0000 0.0000 0.0000
# 3 83.0135 77.2216 192.9341 0.0000 0.0000 0.0000
# 4 0.0000 0.0000 0.0000 -493.4123 0.0000 0.0000
# 5 0.0000 0.0000 0.0000 0.0000 42.5420 0.0000
# 6 0.0000 0.0000 0.0000 0.0000 0.0000 20.3438
#
#
#
# Elastic Compliance Matrix: (Units=1/GPa)
#
#
# Indices 1 2 3 4 5 6 
#
# 1 0.023163 -0.003210 -0.008682 0.000000 0.000000 0.000000
# 2 -0.003210 0.020164 -0.006690 0.000000 0.000000 0.000000
# 3 -0.008682 -0.006690 0.011596 0.000000 0.000000 0.000000
# 4 0.000000 0.000000 0.000000 -0.002027 0.000000 0.000000
# 5 0.000000 0.000000 0.000000 0.000000 0.023506 0.000000
# 6 0.000000 0.000000 0.000000 0.000000 0.000000 0.049155
#
#
# Mechanical properties :
#
#
# Convention : Reuss Voigt Hill
#
# Bulk Modulus (GPa) = 56.30191 83.93256 70.11723
# Shear Modulus (GPa) = 29.64891 -75.84333 -23.09721
#
# Velocity S-wave (km/s) = 4.02616 -6.43940 -3.55358
# Velocity P-wave (km/s) = 7.23846 3.06583 4.63659
#
# Compressibility (1/GPa) = 0.01776139
#
# Stress axis : x y z
#
# Youngs Moduli (GPa) = 43.17196 49.59316 86.23568
#
# Poissons Ratio (x) = 0.15917 0.74868
# Poissons Ratio (y) = 0.13856 0.57689
# Poissons Ratio (z) = 0.37481 0.33176
#
# Static dielectric constant tensor:
#      x y z
#    x 3.775710 0.000000 0.000000 
#    y 0.000000 3.228600 0.000000 
#    z 0.000000 0.000000 3.556710 
# 
# 
# High freq. dielectric constant tensor:
#      x y z
#    x 1.707540 0.000000 0.000000 
#    y 0.000000 1.688860 0.000000 
#    z 0.000000 0.000000 1.725080 
# 
# From -- ./inp_files/34317.got.cif
#   From: 2010.03.12/outbox.cif.g09.slc.cpg/sg51_18_cif.got.tgz:34317.got - 2010.04.16 13:43:02.
