data_PCOD8213433
_publ_section_title
;
Structure prediction by ZEFSAII (Michael W. Deem and Ramdas Pophale) SiO2 
 PCOD8213433
Probable space group: P M M A
;
_chemical_formula_sum "Si O2"
_cell_formula_units_Z 52
_cell_length_a 15.207772
_cell_length_b 14.016558
_cell_length_c 12.262238
_cell_angle_alpha 90.000000
_cell_angle_beta 90.000000
_cell_angle_gamma 90.000000
_cell_volume 2613.826234
_symmetry_space_group_name_H-M "P M M A"
_symmetry_group_IT_number 51
_symmetry_cell_setting 'orthorhombic'
loop_
_space_group_symop_operation_xyz
x,y,z
1/2-x,-y,z
1/2+x,-y,-z
-x,y,-z
-x,-y,-z
1/2+x,y,-z
1/2-x,y,z
x,-y,z
loop_
_atom_site_type_symbol
_atom_site_label
_atom_site_fract_x
_atom_site_fract_y
_atom_site_fract_z
Si Si1 0.500000 0.749467 0.500000
Si Si2 0.351205 0.888097 0.127793
Si Si3 0.060671 0.605035 0.223588
Si Si4 0.003603 0.200249 0.734078
Si Si5 0.350805 0.800057 0.895279
Si Si6 0.850516 0.394516 0.003386
Si Si7 0.150507 0.607556 0.441647
O O1 0.493204 0.820410 0.604555
O O2 0.585940 0.682424 0.500808
O O3 0.250000 0.862224 0.154600
O O4 0.412144 0.838629 0.217927
O O5 0.367965 0.000000 0.131869
O O6 0.376314 0.851411 0.007742
O O7 0.016645 0.500000 0.227022
O O8 0.140108 0.610484 0.310477
O O9 0.989947 0.684842 0.255275
O O10 0.093646 0.628667 0.103021
O O11 0.087254 0.157642 0.799532
O O12 0.250000 0.821243 0.863456
O O13 0.369296 0.686375 0.906840
O O14 0.750000 0.390048 0.966042
O O15 0.874078 0.500000 0.050517
O O16 0.250000 0.636866 0.470867
O O17 0.130170 0.500000 0.484107
#
# Coordination Sequence:
#
# PCOD8213433 Si02
#       7
#     4   8   8   8   8   8   8
#     4  10  23  36  51  80 116 150 196 238 278 324
#     4  10  22  41  66  92 112 134 173 230 290 345
#     4   9  17  28  48  79 112 147 191 234 275 326
#     4  11  22  37  57  82 114 156 191 230 277 329
#     4  10  21  36  55  83 118 149 185 228 275 336
#     4   9  16  27  45  74 113 149 180 220 272 331
#     4   9  17  31  51  73 103 150 203 249 285 315
#
# _framework density 19.894206000000001
#
# number of rings (size 3 to 8) (size 9 to 14) (size 15 to 20)
#    0.000    2.308    1.538    1.154    0.000    7.385 
#    0.000    1.923    0.000    1.846    0.000    2.154 
#    0.000    0.000    0.000    0.000    0.000    0.000 
#
# Total GULP energy -644543.220298 kJ/mol
# GULP energy per Si atom -12395.061929 kJ/mol
# Density = 1.984893 g / cm^3
# Si number density = 19.894206 Si / 1000 Ang^3
#
#
#
# Elastic Constant Matrix: (Units=GPa)
#
#
# Indices 1 2 3 4 5 6 
#
# 1 93.3420 24.2214 63.9150 0.0000 0.0000 0.0000
# 2 24.2214 59.1688 32.1583 0.0000 0.0000 0.0000
# 3 63.9150 32.1583 128.7048 0.0000 0.0000 0.0000
# 4 0.0000 0.0000 0.0000 9.0994 0.0000 0.0000
# 5 0.0000 0.0000 0.0000 0.0000 25.0896 0.0000
# 6 0.0000 0.0000 0.0000 0.0000 0.0000 16.6394
#
#
#
# Elastic Compliance Matrix: (Units=1/GPa)
#
#
# Indices 1 2 3 4 5 6 
#
# 1 0.016592 -0.002677 -0.007571 0.000000 0.000000 0.000000
# 2 -0.002677 0.019989 -0.003665 0.000000 0.000000 0.000000
# 3 -0.007571 -0.003665 0.012445 0.000000 0.000000 0.000000
# 4 0.000000 0.000000 0.000000 0.109897 0.000000 0.000000
# 5 0.000000 0.000000 0.000000 0.000000 0.039857 0.000000
# 6 0.000000 0.000000 0.000000 0.000000 0.000000 0.060098
#
#
# Mechanical properties :
#
#
# Convention : Reuss Voigt Hill
#
# Bulk Modulus (GPa) = 47.16993 57.97832 52.57413
# Shear Modulus (GPa) = 17.02009 20.89375 18.95692
#
# Velocity S-wave (km/s) = 2.92812 3.24426 3.09023
# Velocity P-wave (km/s) = 5.93243 6.57573 6.26234
#
# Compressibility (1/GPa) = 0.02119995
#
# Stress axis : x y z
#
# Youngs Moduli (GPa) = 60.27007 50.02844 80.35371
#
# Poissons Ratio (x) = 0.13395 0.60833
# Poissons Ratio (y) = 0.16137 0.29448
# Poissons Ratio (z) = 0.45628 0.18334
#
# Static dielectric constant tensor:
#      x y z
#    x 3.546320 0.000000 0.000000 
#    y 0.000000 3.601840 0.000000 
#    z 0.000000 0.000000 3.518280 
# 
# 
# High freq. dielectric constant tensor:
#      x y z
#    x 1.772340 0.000000 0.000000 
#    y 0.000000 1.758390 0.000000 
#    z 0.000000 0.000000 1.754750 
# 
# From -- ./inp_files/16565.got.cif
#   From: 2010.03.12/outbox.cif.g09.slc.cpg/sg51_9_cif.got.tgz:16565.got - 2010.04.16 13:43:02.
