data_PCOD8213226
_publ_section_title
;
Structure prediction by ZEFSAII (Michael W. Deem and Ramdas Pophale) SiO2 
 PCOD8213226
Probable space group: P M M A
;
_chemical_formula_sum "Si O2"
_cell_formula_units_Z 64
_cell_length_a 9.198490
_cell_length_b 9.928342
_cell_length_c 40.573110
_cell_angle_alpha 90.000000
_cell_angle_beta 90.000000
_cell_angle_gamma 90.000000
_cell_volume 3705.369887
_symmetry_space_group_name_H-M "P M M A"
_symmetry_group_IT_number 51
_symmetry_cell_setting 'orthorhombic'
loop_
_space_group_symop_operation_xyz
x,y,z
1/2-x,-y,z
1/2+x,-y,-z
-x,y,-z
-x,-y,-z
1/2+x,y,-z
1/2-x,y,z
x,-y,z
loop_
_atom_site_type_symbol
_atom_site_label
_atom_site_fract_x
_atom_site_fract_y
_atom_site_fract_z
Si Si1 0.920138 0.654845 0.033650
Si Si2 0.577687 0.148417 0.841381
Si Si3 0.081712 0.842578 0.084089
Si Si4 0.920647 0.654546 0.466930
Si Si5 0.919674 0.845129 0.336810
Si Si6 0.920162 0.345322 0.713652
Si Si7 0.076960 0.649376 0.212548
Si Si8 0.422842 0.149546 0.589519
O O1 0.750000 0.680820 0.028763
O O2 0.952167 0.500000 0.043391
O O3 0.979113 0.751700 0.061864
O O4 0.000000 0.693515 0.000000
O O5 0.750000 0.143726 0.837789
O O6 0.538078 0.193182 0.878390
O O7 0.509035 0.250452 0.814682
O O8 0.513613 0.000000 0.834192
O O9 0.250000 0.806927 0.077360
O O10 0.053652 0.000000 0.076822
O O11 0.750000 0.676848 0.472015
O O12 0.957713 0.500000 0.458764
O O13 0.983186 0.743311 0.436831
O O14 0.000000 0.702486 0.500000
O O15 0.750000 0.815197 0.334105
O O16 0.976470 0.812138 0.373771
O O17 0.000031 0.749944 0.311611
O O18 0.953734 0.000000 0.328120
O O19 0.750000 0.322374 0.709505
O O20 0.961380 0.500000 0.706339
O O21 0.970009 0.306020 0.750715
O O22 0.250000 0.648005 0.210440
O O23 0.017055 0.500000 0.204947
O O24 0.250000 0.150281 0.589556
O O25 0.478963 0.000000 0.579995
#
# Coordination Sequence:
#
# PCOD8213226 Si02
#       8
#     8   8   8   8   8   8   8   8
#     4  10  21  36  53  73  97 126 161 199 238 281
#     4   8  14  25  42  66  94 121 152 190 228 270
#     4   9  18  32  50  74 102 128 156 193 236 281
#     4   9  17  29  45  65  88 113 142 176 215 261
#     4   9  18  32  49  69  92 119 155 197 236 276
#     4   9  18  31  46  68  98 127 156 193 236 281
#     4   8  14  25  41  63  92 123 154 189 229 273
#     4   8  15  29  47  65  86 113 146 184 222 262
#
# _framework density 17.27223
#
# number of rings (size 3 to 8) (size 9 to 14) (size 15 to 20)
#    0.000    3.250    0.000    2.625    0.000    3.500 
#    0.000    4.375    0.000    3.000    0.000    0.000 
#    0.000    0.000    0.000    0.000    0.000    0.000 
#
# Total GULP energy -793323.241887 kJ/mol
# GULP energy per Si atom -12395.675654 kJ/mol
# Density = 1.723292 g / cm^3
# Si number density = 17.272230 Si / 1000 Ang^3
#
#
#
# Elastic Constant Matrix: (Units=GPa)
#
#
# Indices 1 2 3 4 5 6 
#
# 1 39.8417 40.8782 46.1663 0.0000 0.0000 0.0000
# 2 40.8782 112.0963 105.5642 0.0000 0.0000 0.0000
# 3 46.1663 105.5642 160.6740 0.0000 0.0000 0.0000
# 4 0.0000 0.0000 0.0000 40.3233 0.0000 0.0000
# 5 0.0000 0.0000 0.0000 0.0000 24.7846 0.0000
# 6 0.0000 0.0000 0.0000 0.0000 0.0000 24.2674
#
#
#
# Elastic Compliance Matrix: (Units=1/GPa)
#
#
# Indices 1 2 3 4 5 6 
#
# 1 0.041711 -0.010293 -0.005222 0.000000 0.000000 0.000000
# 2 -0.010293 0.025937 -0.014084 0.000000 0.000000 0.000000
# 3 -0.005222 -0.014084 0.016977 0.000000 0.000000 0.000000
# 4 0.000000 0.000000 0.000000 0.024800 0.000000 0.000000
# 5 0.000000 0.000000 0.000000 0.000000 0.040348 0.000000
# 6 0.000000 0.000000 0.000000 0.000000 0.000000 0.041208
#
#
# Mechanical properties :
#
#
# Convention : Reuss Voigt Hill
#
# Bulk Modulus (GPa) = 39.32615 77.53658 58.43137
# Shear Modulus (GPa) = 19.33080 25.87527 22.60304
#
# Velocity S-wave (km/s) = 3.34905 3.87471 3.62143
# Velocity P-wave (km/s) = 6.14595 8.06264 7.16864
#
# Compressibility (1/GPa) = 0.02542837
#
# Stress axis : x y z
#
# Youngs Moduli (GPa) = 23.97432 38.55450 58.90181
#
# Poissons Ratio (x) = 0.39683 0.30761
# Poissons Ratio (y) = 0.24676 0.82955
# Poissons Ratio (z) = 0.12520 0.54299
#
# Static dielectric constant tensor:
#      x y z
#    x 2.793580 0.000000 0.000000 
#    y 0.000000 3.446370 0.000000 
#    z 0.000000 0.000000 3.706490 
# 
# 
# High freq. dielectric constant tensor:
#      x y z
#    x 1.624890 0.000000 0.000000 
#    y 0.000000 1.670840 0.000000 
#    z 0.000000 0.000000 1.675730 
# 
# From -- ./inp_files/37431.got.cif
#   From: 2010.03.12/outbox.cif.g09.slc.cpg/sg51_19_cif.got.tgz:37431.got - 2010.04.16 13:43:02.
