data_PCOD8213494
_publ_section_title
;
Structure prediction by ZEFSAII (Michael W. Deem and Ramdas Pophale) SiO2 
 PCOD8213494
Probable space group: P M M A
;
_chemical_formula_sum "Si O2"
_cell_formula_units_Z 32
_cell_length_a 15.525393
_cell_length_b 11.591757
_cell_length_c 8.755717
_cell_angle_alpha 90.000000
_cell_angle_beta 90.000000
_cell_angle_gamma 90.000000
_cell_volume 1575.736470
_symmetry_space_group_name_H-M "P M M A"
_symmetry_group_IT_number 51
_symmetry_cell_setting 'orthorhombic'
loop_
_space_group_symop_operation_xyz
x,y,z
1/2-x,-y,z
1/2+x,-y,-z
-x,y,-z
-x,-y,-z
1/2+x,y,-z
1/2-x,y,z
x,-y,z
loop_
_atom_site_type_symbol
_atom_site_label
_atom_site_fract_x
_atom_site_fract_y
_atom_site_fract_z
Si Si1 0.250000 0.755277 0.088945
Si Si2 0.750000 0.251500 0.574962
Si Si3 0.750000 0.000000 0.943135
Si Si4 0.612776 0.000000 0.199444
Si Si5 0.588082 0.633956 0.419827
Si Si6 0.578356 0.752891 0.108578
Si Si7 0.750000 0.000000 0.461671
O O1 0.250000 0.691674 0.253178
O O2 0.250000 0.885527 0.156623
O O3 0.333292 0.735134 0.984980
O O4 0.834438 0.293432 0.489005
O O5 0.750000 0.112310 0.568213
O O6 0.667818 0.000000 0.048741
O O7 0.560375 0.120393 0.184712
O O8 0.665423 0.000000 0.355703
O O9 0.500000 0.672949 0.500000
O O10 0.607074 0.500000 0.446581
O O11 0.580804 0.658282 0.240557
O O12 0.500000 0.721181 0.000000
#
# Coordination Sequence:
#
# PCOD8213494 Si02
#       7
#     4   4   2   4   8   8   2
#     4  10  21  36  59  90 123 159 205 253 305 375
#     4  12  22  41  66  94 128 167 207 260 323 382
#     4   7  15  30  52  78 122 154 180 236 300 354
#     4   9  17  34  58  92 123 156 196 251 309 373
#     4  11  25  44  64  90 126 169 218 269 316 368
#     4  11  21  39  64  91 125 166 206 256 318 380
#     4  11  19  36  66  96 126 162 206 256 312 392
#
# _framework density 20.307963000000001
#
# number of rings (size 3 to 8) (size 9 to 14) (size 15 to 20)
#    0.000    1.500    2.500    4.125    0.000    0.500 
#    0.000    7.500    0.000    0.000    0.000    0.000 
#    0.000    0.000    0.000    0.000    0.000    0.000 
#
# Total GULP energy -396590.116957 kJ/mol
# GULP energy per Si atom -12393.441155 kJ/mol
# Density = 2.026174 g / cm^3
# Si number density = 20.307963 Si / 1000 Ang^3
#
#
#
# Elastic Constant Matrix: (Units=GPa)
#
#
# Indices 1 2 3 4 5 6 
#
# 1 148.9614 42.3342 63.5075 0.0000 0.0000 0.0000
# 2 42.3342 70.9095 25.7225 0.0000 0.0000 0.0000
# 3 63.5075 25.7225 142.8607 0.0000 0.0000 0.0000
# 4 0.0000 0.0000 0.0000 24.1185 0.0000 0.0000
# 5 0.0000 0.0000 0.0000 0.0000 33.1488 0.0000
# 6 0.0000 0.0000 0.0000 0.0000 0.0000 6.3088
#
#
#
# Elastic Compliance Matrix: (Units=1/GPa)
#
#
# Indices 1 2 3 4 5 6 
#
# 1 0.009405 -0.004385 -0.003392 0.000000 0.000000 0.000000
# 2 -0.004385 0.017132 -0.001135 0.000000 0.000000 0.000000
# 3 -0.003392 -0.001135 0.008712 0.000000 0.000000 0.000000
# 4 0.000000 0.000000 0.000000 0.041462 0.000000 0.000000
# 5 0.000000 0.000000 0.000000 0.000000 0.030167 0.000000
# 6 0.000000 0.000000 0.000000 0.000000 0.000000 0.158510
#
#
# Mechanical properties :
#
#
# Convention : Reuss Voigt Hill
#
# Bulk Modulus (GPa) = 57.38629 69.53999 63.46314
# Shear Modulus (GPa) = 17.29983 28.12637 22.71310
#
# Velocity S-wave (km/s) = 2.92185 3.72559 3.34793
# Velocity P-wave (km/s) = 6.30098 7.26799 6.80169
#
# Compressibility (1/GPa) = 0.01742577
#
# Stress axis : x y z
#
# Youngs Moduli (GPa) = 106.32403 58.36967 114.78497
#
# Poissons Ratio (x) = 0.25594 0.38929
# Poissons Ratio (y) = 0.46621 0.13033
# Poissons Ratio (z) = 0.36060 0.06628
#
# Static dielectric constant tensor:
#      x y z
#    x 3.879210 0.000000 0.000000 
#    y 0.000000 3.812200 0.000000 
#    z 0.000000 0.000000 3.624840 
# 
# 
# High freq. dielectric constant tensor:
#      x y z
#    x 1.789740 0.000000 0.000000 
#    y 0.000000 1.787780 0.000000 
#    z 0.000000 0.000000 1.805360 
# 
# From -- ./inp_files/7674.got.cif
#   From: 2010.03.12/outbox.cif.g09.slc.cpg/sg51_4_cif.got.tgz:7674.got - 2010.04.16 13:43:02.
