data_PCOD8213237
_publ_section_title
;
Structure prediction by ZEFSAII (Michael W. Deem and Ramdas Pophale) SiO2 
 PCOD8213237
Probable space group: P M M A
;
_chemical_formula_sum "Si O2"
_cell_formula_units_Z 48
_cell_length_a 9.490234
_cell_length_b 8.988091
_cell_length_c 31.481338
_cell_angle_alpha 90.000000
_cell_angle_beta 90.000000
_cell_angle_gamma 90.000000
_cell_volume 2685.329383
_symmetry_space_group_name_H-M "P M M A"
_symmetry_group_IT_number 51
_symmetry_cell_setting 'orthorhombic'
loop_
_space_group_symop_operation_xyz
x,y,z
1/2-x,-y,z
1/2+x,-y,-z
-x,y,-z
-x,-y,-z
1/2+x,y,-z
1/2-x,y,z
x,-y,z
loop_
_atom_site_type_symbol
_atom_site_label
_atom_site_fract_x
_atom_site_fract_y
_atom_site_fract_z
Si Si1 0.586650 0.171188 0.201191
Si Si2 0.910682 0.675778 0.114388
Si Si3 0.591787 0.177995 0.720311
Si Si4 0.417725 0.163481 0.370650
Si Si5 0.086260 0.174304 0.041526
Si Si6 0.408202 0.821685 0.461571
O O1 0.750000 0.188917 0.211224
O O2 0.541807 0.264720 0.160175
O O3 0.506189 0.238055 0.241946
O O4 0.545113 0.000000 0.192788
O O5 0.750000 0.727683 0.104109
O O6 0.921670 0.500000 0.114336
O O7 0.019821 0.739611 0.080748
O O8 0.750000 0.232197 0.730111
O O9 0.539622 0.243339 0.674104
O O10 0.585932 0.000000 0.717758
O O11 0.250000 0.147827 0.371115
O O12 0.462801 0.241767 0.415389
O O13 0.486965 0.000000 0.370353
O O14 0.250000 0.219002 0.035905
O O15 0.069635 0.000000 0.050060
O O16 0.000000 0.223369 0.000000
O O17 0.500000 0.755555 0.500000
O O18 0.250000 0.767509 0.470124
O O19 0.415811 0.000000 0.460147
#
# Coordination Sequence:
#
# PCOD8213237 Si02
#       6
#     8   8   8   8   8   8
#     4   9  17  29  45  65  89 115 144 184 231 270
#     4  10  21  36  53  73  99 132 165 194 229 275
#     4   8  13  22  37  55  73  97 133 174 214 259
#     4   7  10  17  28  41  59  85 118 158 202 246
#     4  10  21  37  58  82 105 130 161 196 233 272
#     4   8  12  17  24  34  51  78 113 152 194 240
#
# _framework density 17.874903
#
# number of rings (size 3 to 8) (size 9 to 14) (size 15 to 20)
#    0.000    3.333    0.000    3.000    0.000    3.000 
#    0.000    2.500    0.000    5.000    0.000    0.000 
#    0.000    0.000    0.000    0.000    0.000    0.833 
#
# Total GULP energy -594633.065706 kJ/mol
# GULP energy per Si atom -12388.188869 kJ/mol
# Density = 1.783422 g / cm^3
# Si number density = 17.874903 Si / 1000 Ang^3
#
#
#
# Elastic Constant Matrix: (Units=GPa)
#
#
# Indices 1 2 3 4 5 6 
#
# 1 86.3665 24.6729 89.8448 0.0000 0.0000 0.0000
# 2 24.6729 20.2504 33.7344 0.0000 0.0000 0.0000
# 3 89.8448 33.7344 200.1980 0.0000 0.0000 0.0000
# 4 0.0000 0.0000 0.0000 -3.1164 0.0000 0.0000
# 5 0.0000 0.0000 0.0000 0.0000 37.0711 0.0000
# 6 0.0000 0.0000 0.0000 0.0000 0.0000 11.9930
#
#
#
# Elastic Compliance Matrix: (Units=1/GPa)
#
#
# Indices 1 2 3 4 5 6 
#
# 1 0.025122 -0.016443 -0.008504 0.000000 0.000000 0.000000
# 2 -0.016443 0.079415 -0.006003 0.000000 0.000000 0.000000
# 3 -0.008504 -0.006003 0.009823 0.000000 0.000000 0.000000
# 4 0.000000 0.000000 0.000000 -0.320885 0.000000 0.000000
# 5 0.000000 0.000000 0.000000 0.000000 0.026975 0.000000
# 6 0.000000 0.000000 0.000000 0.000000 0.000000 0.083382
#
#
# Mechanical properties :
#
#
# Convention : Reuss Voigt Hill
#
# Bulk Modulus (GPa) = 19.06148 67.03548 43.04848
# Shear Modulus (GPa) = -297.90995 19.76039 -139.07478
#
# Velocity S-wave (km/s) = -12.92384 3.32849 -8.83025
# Velocity P-wave (km/s) = 14.56070 7.23573 8.93471
#
# Compressibility (1/GPa) = 0.05246183
#
# Stress axis : x y z
#
# Youngs Moduli (GPa) = 39.80603 12.59211 101.80449
#
# Poissons Ratio (x) = 0.20705 0.86570
# Poissons Ratio (y) = 0.65451 0.61110
# Poissons Ratio (z) = 0.33849 0.07559
#
# Static dielectric constant tensor:
#      x y z
#    x 3.235390 0.000000 0.000000 
#    y 0.000000 2.716260 0.000000 
#    z 0.000000 0.000000 3.865210 
# 
# 
# High freq. dielectric constant tensor:
#      x y z
#    x 1.670760 0.000000 0.000000 
#    y 0.000000 1.625290 0.000000 
#    z 0.000000 0.000000 1.719220 
# 
# From -- ./inp_files/36972.got.cif
#   From: 2010.03.12/outbox.cif.g09.slc.cpg/sg51_19_cif.got.tgz:36972.got - 2010.04.16 13:43:02.
