data_PCOD8213075
_publ_section_title
;
Structure prediction by ZEFSAII (Michael W. Deem and Ramdas Pophale) SiO2 
 PCOD8213075
Probable space group: P M M A
;
_chemical_formula_sum "Si O2"
_cell_formula_units_Z 64
_cell_length_a 14.928894
_cell_length_b 9.343965
_cell_length_c 24.429600
_cell_angle_alpha 90.000000
_cell_angle_beta 90.000000
_cell_angle_gamma 90.000000
_cell_volume 3407.808592
_symmetry_space_group_name_H-M "P M M A"
_symmetry_group_IT_number 51
_symmetry_cell_setting 'orthorhombic'
loop_
_space_group_symop_operation_xyz
x,y,z
1/2-x,-y,z
1/2+x,-y,-z
-x,y,-z
-x,-y,-z
1/2+x,y,-z
1/2-x,y,z
x,-y,z
loop_
_atom_site_type_symbol
_atom_site_label
_atom_site_fract_x
_atom_site_fract_y
_atom_site_fract_z
Si Si1 0.993672 0.331799 0.810315
Si Si2 0.646341 0.667636 0.898380
Si Si3 0.647280 0.333197 0.109428
Si Si4 0.143838 0.838724 0.995974
Si Si5 0.648110 0.667361 0.603610
Si Si6 0.146441 0.831933 0.620709
Si Si7 0.501880 0.669686 0.311949
Si Si8 0.143816 0.157873 0.499196
O O1 0.984989 0.500000 0.805147
O O2 0.087862 0.289392 0.838340
O O3 0.989270 0.267640 0.749292
O O4 0.910115 0.276328 0.846392
O O5 0.750000 0.700300 0.886078
O O6 0.630393 0.500000 0.909945
O O7 0.609855 0.753854 0.950822
O O8 0.750000 0.295817 0.123647
O O9 0.636192 0.500000 0.094656
O O10 0.610533 0.243415 0.058007
O O11 0.250000 0.840416 0.996189
O O12 0.104968 0.000000 0.996374
O O13 0.750000 0.717465 0.616028
O O14 0.644214 0.500000 0.593287
O O15 0.586886 0.713786 0.654546
O O16 0.608746 0.738326 0.548413
O O17 0.250000 0.791359 0.629657
O O18 0.089775 0.741824 0.663575
O O19 0.113938 0.788659 0.559363
O O20 0.131341 0.000000 0.630137
O O21 0.516813 0.500000 0.312577
O O22 0.250000 0.151047 0.499044
O O23 0.104401 0.000000 0.487595
#
# Coordination Sequence:
#
# PCOD8213075 Si02
#       8
#     8   8   8   8   8   8   8   8
#     4   9  19  34  50  71  97 126 166 207 237 276
#     4   9  17  31  52  74  96 126 162 198 237 283
#     4   9  17  31  51  71  93 124 159 195 236 283
#     4   9  17  30  49  74 102 126 151 191 243 294
#     4   9  18  32  50  74 105 136 164 202 253 302
#     4   9  19  36  55  75 101 132 165 205 254 303
#     4  10  21  35  51  74 102 133 172 212 249 294
#     4   8  15  30  52  75  98 127 165 205 247 301
#
# _framework density 18.780397000000001
#
# number of rings (size 3 to 8) (size 9 to 14) (size 15 to 20)
#    0.000    3.000    0.000    1.125    0.000    4.750 
#    0.000   11.875    0.000    1.500    0.000    3.500 
#    0.000    0.000    0.000    0.000    0.000    0.000 
#
# Total GULP energy -793421.157842 kJ/mol
# GULP energy per Si atom -12397.205591 kJ/mol
# Density = 1.873765 g / cm^3
# Si number density = 18.780397 Si / 1000 Ang^3
#
#
#
# Elastic Constant Matrix: (Units=GPa)
#
#
# Indices 1 2 3 4 5 6 
#
# 1 75.0586 24.4049 49.5103 0.0000 0.0000 0.0000
# 2 24.4049 47.8944 43.9468 0.0000 0.0000 0.0000
# 3 49.5103 43.9468 159.3932 0.0000 0.0000 0.0000
# 4 0.0000 0.0000 0.0000 1.3171 0.0000 0.0000
# 5 0.0000 0.0000 0.0000 0.0000 25.0204 0.0000
# 6 0.0000 0.0000 0.0000 0.0000 0.0000 14.9126
#
#
#
# Elastic Compliance Matrix: (Units=1/GPa)
#
#
# Indices 1 2 3 4 5 6 
#
# 1 0.017716 -0.005325 -0.004035 0.000000 0.000000 0.000000
# 2 -0.005325 0.029551 -0.006494 0.000000 0.000000 0.000000
# 3 -0.004035 -0.006494 0.009317 0.000000 0.000000 0.000000
# 4 0.000000 0.000000 0.000000 0.759243 0.000000 0.000000
# 5 0.000000 0.000000 0.000000 0.000000 0.039967 0.000000
# 6 0.000000 0.000000 0.000000 0.000000 0.000000 0.067057
#
#
# Mechanical properties :
#
#
# Convention : Reuss Voigt Hill
#
# Bulk Modulus (GPa) = 40.19679 57.56337 48.88008
# Shear Modulus (GPa) = 5.19291 19.21563 12.20427
#
# Velocity S-wave (km/s) = 1.66465 3.20218 2.55196
# Velocity P-wave (km/s) = 5.01446 6.66253 5.89636
#
# Compressibility (1/GPa) = 0.02487761
#
# Stress axis : x y z
#
# Youngs Moduli (GPa) = 56.44732 33.83983 107.32640
#
# Poissons Ratio (x) = 0.18020 0.43302
# Poissons Ratio (y) = 0.30058 0.69693
# Poissons Ratio (z) = 0.22774 0.21974
#
# Static dielectric constant tensor:
#      x y z
#    x 3.385070 0.000000 0.000000 
#    y 0.000000 3.359450 0.000000 
#    z 0.000000 0.000000 3.689170 
# 
# 
# High freq. dielectric constant tensor:
#      x y z
#    x 1.728550 0.000000 0.000000 
#    y 0.000000 1.706040 0.000000 
#    z 0.000000 0.000000 1.728550 
# 
# From -- ./inp_files/35676.got.cif
#   From: 2010.03.12/outbox.cif.g09.slc.cpg/sg51_18_cif.got.tgz:35676.got - 2010.04.16 13:43:02.
