data_PCOD8213517
_publ_section_title
;
Structure prediction by ZEFSAII (Michael W. Deem and Ramdas Pophale) SiO2 
 PCOD8213517
Probable space group: P M M A
;
_chemical_formula_sum "Si O2"
_cell_formula_units_Z 64
_cell_length_a 14.599687
_cell_length_b 8.972588
_cell_length_c 24.341487
_cell_angle_alpha 90.000000
_cell_angle_beta 90.000000
_cell_angle_gamma 90.000000
_cell_volume 3188.661198
_symmetry_space_group_name_H-M "P M M A"
_symmetry_group_IT_number 51
_symmetry_cell_setting 'orthorhombic'
loop_
_space_group_symop_operation_xyz
x,y,z
1/2-x,-y,z
1/2+x,-y,-z
-x,y,-z
-x,-y,-z
1/2+x,y,-z
1/2-x,y,z
x,-y,z
loop_
_atom_site_type_symbol
_atom_site_label
_atom_site_fract_x
_atom_site_fract_y
_atom_site_fract_z
Si Si1 0.009297 0.323362 0.749993
Si Si2 0.357642 0.329540 0.547087
Si Si3 0.022428 0.826700 0.636404
Si Si4 0.641110 0.668533 0.920933
Si Si5 0.353818 0.828897 0.436037
Si Si6 0.353281 0.321794 0.843440
Si Si7 0.643483 0.826486 0.812382
Si Si8 0.358688 0.667469 0.961278
O O1 0.004578 0.500000 0.749158
O O2 0.909624 0.257914 0.763995
O O3 0.041406 0.266046 0.691110
O O4 0.081795 0.263220 0.795002
O O5 0.250000 0.312414 0.556265
O O6 0.389792 0.500000 0.553762
O O7 0.405752 0.225420 0.591175
O O8 0.384926 0.274719 0.486369
O O9 0.919178 0.795438 0.615493
O O10 0.037959 0.000000 0.648693
O O11 0.750000 0.665083 0.921369
O O12 0.603846 0.500000 0.912131
O O13 0.605628 0.770602 0.871335
O O14 0.607794 0.738602 0.980196
O O15 0.250000 0.792912 0.417489
O O16 0.363506 0.000000 0.455319
O O17 0.250000 0.263103 0.832296
O O18 0.352412 0.500000 0.845660
O O19 0.392142 0.260912 0.903099
O O20 0.750000 0.788413 0.805025
O O21 0.623813 0.000000 0.807366
O O22 0.250000 0.669930 0.958060
O O23 0.395204 0.500000 0.964472
#
# Coordination Sequence:
#
# PCOD8213517 Si02
#       8
#     8   8   8   8   8   8   8   8
#     4  11  23  37  55  80 108 141 184 231 273 316
#     4  10  21  37  59  88 119 148 180 222 270 316
#     4  11  23  38  57  81 112 151 189 225 268 321
#     4   8  13  24  47  77 102 125 162 214 268 323
#     4   9  19  37  60  85 113 145 180 218 266 326
#     4   8  15  30  52  77 105 136 171 216 271 326
#     4  10  21  37  55  73 100 141 182 222 272 327
#     4   7  10  20  43  74 102 127 160 207 264 324
#
# _framework density 20.071120000000001
#
# number of rings (size 3 to 8) (size 9 to 14) (size 15 to 20)
#    0.000    2.750    0.000    3.375    0.000    5.000 
#    0.000    3.125    0.000    6.375    0.000    3.500 
#    0.000    0.000    0.000    0.000    0.000    0.000 
#
# Total GULP energy -793190.735521 kJ/mol
# GULP energy per Si atom -12393.605243 kJ/mol
# Density = 2.002544 g / cm^3
# Si number density = 20.071120 Si / 1000 Ang^3
#
#
#
# Elastic Constant Matrix: (Units=GPa)
#
#
# Indices 1 2 3 4 5 6 
#
# 1 30.7046 20.3262 14.6740 0.0000 0.0000 0.0000
# 2 20.3262 60.0366 21.7491 0.0000 0.0000 0.0000
# 3 14.6740 21.7491 83.6820 0.0000 0.0000 0.0000
# 4 0.0000 0.0000 0.0000 -12.1267 0.0000 0.0000
# 5 0.0000 0.0000 0.0000 0.0000 24.4101 0.0000
# 6 0.0000 0.0000 0.0000 0.0000 0.0000 21.1681
#
#
#
# Elastic Compliance Matrix: (Units=1/GPa)
#
#
# Indices 1 2 3 4 5 6 
#
# 1 0.043257 -0.013134 -0.004172 0.000000 0.000000 0.000000
# 2 -0.013134 0.022376 -0.003512 0.000000 0.000000 0.000000
# 3 -0.004172 -0.003512 0.013594 0.000000 0.000000 0.000000
# 4 0.000000 0.000000 0.000000 -0.082463 0.000000 0.000000
# 5 0.000000 0.000000 0.000000 0.000000 0.040967 0.000000
# 6 0.000000 0.000000 0.000000 0.000000 0.000000 0.047241
#
#
# Mechanical properties :
#
#
# Convention : Reuss Voigt Hill
#
# Bulk Modulus (GPa) = 26.60233 31.99131 29.29682
# Shear Modulus (GPa) = 35.93578 14.53525 25.23551
#
# Velocity S-wave (km/s) = 4.23593 2.69399 3.54970
# Velocity P-wave (km/s) = 6.09975 5.06462 5.60613
#
# Compressibility (1/GPa) = 0.03759069
#
# Stress axis : x y z
#
# Youngs Moduli (GPa) = 23.11787 44.69158 73.55969
#
# Poissons Ratio (x) = 0.58697 0.30687
# Poissons Ratio (y) = 0.30363 0.25837
# Poissons Ratio (z) = 0.09644 0.15697
#
# Static dielectric constant tensor:
#      x y z
#    x 3.604030 0.000000 0.000000 
#    y 0.000000 3.385580 0.000000 
#    z 0.000000 0.000000 3.878090 
# 
# 
# High freq. dielectric constant tensor:
#      x y z
#    x 1.779040 0.000000 0.000000 
#    y 0.000000 1.747750 0.000000 
#    z 0.000000 0.000000 1.791500 
# 
# From -- ./inp_files/35671.got.cif
#   From: 2010.03.12/outbox.cif.g09.slc.cpg/sg51_18_cif.got.tgz:35671.got - 2010.04.16 13:43:02.
