data_PCOD8213167
_publ_section_title
;
Structure prediction by ZEFSAII (Michael W. Deem and Ramdas Pophale) SiO2 
 PCOD8213167
Probable space group: P M M A
;
_chemical_formula_sum "Si O2"
_cell_formula_units_Z 48
_cell_length_a 16.778176
_cell_length_b 9.530801
_cell_length_c 14.914647
_cell_angle_alpha 90.000000
_cell_angle_beta 90.000000
_cell_angle_gamma 90.000000
_cell_volume 2384.993097
_symmetry_space_group_name_H-M "P M M A"
_symmetry_group_IT_number 51
_symmetry_cell_setting 'orthorhombic'
loop_
_space_group_symop_operation_xyz
x,y,z
1/2-x,-y,z
1/2+x,-y,-z
-x,y,-z
-x,-y,-z
1/2+x,y,-z
1/2-x,y,z
x,-y,z
loop_
_atom_site_type_symbol
_atom_site_label
_atom_site_fract_x
_atom_site_fract_y
_atom_site_fract_z
Si Si1 0.341579 0.162494 0.724331
Si Si2 0.418110 0.660034 0.880942
Si Si3 0.657430 0.655482 0.611925
Si Si4 0.341100 0.154446 0.233020
Si Si5 0.088834 0.838686 0.534451
Si Si6 0.398873 0.339438 0.084109
O O1 0.250000 0.205781 0.703616
O O2 0.373823 0.244002 0.809973
O O3 0.398069 0.196388 0.639119
O O4 0.346626 0.000000 0.748907
O O5 0.403808 0.500000 0.852249
O O6 0.511266 0.693980 0.886221
O O7 0.382348 0.687580 0.979560
O O8 0.750000 0.637249 0.631988
O O9 0.617700 0.500000 0.609462
O O10 0.616869 0.748474 0.691135
O O11 0.646971 0.735222 0.518431
O O12 0.250000 0.132434 0.259872
O O13 0.343973 0.231428 0.137544
O O14 0.382579 0.000000 0.229834
O O15 0.000000 0.807665 0.500000
O O16 0.112820 0.000000 0.514996
O O17 0.377145 0.500000 0.108401
#
# Coordination Sequence:
#
# PCOD8213167 Si02
#       6
#     8   8   8   8   8   8
#     4  10  22  39  58  83 118 156 192 236 290 345
#     4   9  20  38  59  83 112 149 190 234 286 341
#     4  10  21  37  57  82 113 149 188 232 283 337
#     4  10  21  35  54  82 114 149 187 229 280 338
#     4  10  22  39  59  85 115 149 191 239 289 342
#     4   9  19  37  58  82 114 149 188 236 288 338
#
# _framework density 20.125845000000002
#
# number of rings (size 3 to 8) (size 9 to 14) (size 15 to 20)
#    0.000    2.333    0.000    2.500    2.333    6.000 
#    0.000    5.000    0.000    0.000    0.000    0.000 
#    0.000    0.000    0.000    0.000    0.000    0.000 
#
# Total GULP energy -595113.158297 kJ/mol
# GULP energy per Si atom -12398.190798 kJ/mol
# Density = 2.008004 g / cm^3
# Si number density = 20.125845 Si / 1000 Ang^3
#
#
#
# Elastic Constant Matrix: (Units=GPa)
#
#
# Indices 1 2 3 4 5 6 
#
# 1 53.4294 31.5914 39.8863 0.0000 0.0000 0.0000
# 2 31.5914 138.3803 82.8722 0.0000 0.0000 0.0000
# 3 39.8863 82.8722 132.5539 0.0000 0.0000 0.0000
# 4 0.0000 0.0000 0.0000 37.3686 0.0000 0.0000
# 5 0.0000 0.0000 0.0000 0.0000 36.0188 0.0000
# 6 0.0000 0.0000 0.0000 0.0000 0.0000 26.2231
#
#
#
# Elastic Compliance Matrix: (Units=1/GPa)
#
#
# Indices 1 2 3 4 5 6 
#
# 1 0.024440 -0.001879 -0.006180 0.000000 0.000000 0.000000
# 2 -0.001879 0.011696 -0.006747 0.000000 0.000000 0.000000
# 3 -0.006180 -0.006747 0.013622 0.000000 0.000000 0.000000
# 4 0.000000 0.000000 0.000000 0.026760 0.000000 0.000000
# 5 0.000000 0.000000 0.000000 0.000000 0.027763 0.000000
# 6 0.000000 0.000000 0.000000 0.000000 0.000000 0.038134
#
#
# Mechanical properties :
#
#
# Convention : Reuss Voigt Hill
#
# Bulk Modulus (GPa) = 49.63426 70.34039 59.98732
# Shear Modulus (GPa) = 27.97319 31.25636 29.61477
#
# Velocity S-wave (km/s) = 3.73220 3.94515 3.84015
# Velocity P-wave (km/s) = 6.57935 7.46849 7.03798
#
# Compressibility (1/GPa) = 0.02014738
#
# Stress axis : x y z
#
# Youngs Moduli (GPa) = 40.91580 85.49995 73.41205
#
# Poissons Ratio (x) = 0.16063 0.45366
# Poissons Ratio (y) = 0.07687 0.49530
# Poissons Ratio (z) = 0.25285 0.57686
#
# Static dielectric constant tensor:
#      x y z
#    x 3.397910 0.000000 0.000000 
#    y 0.000000 3.863440 0.000000 
#    z 0.000000 0.000000 3.630340 
# 
# 
# High freq. dielectric constant tensor:
#      x y z
#    x 1.763390 0.000000 0.000000 
#    y 0.000000 1.791730 0.000000 
#    z 0.000000 0.000000 1.791260 
# 
# From -- ./inp_files/24682.got.cif
#   From: 2010.03.12/outbox.cif.g09.slc.cpg/sg51_13_cif.got.tgz:24682.got - 2010.04.16 13:43:02.
