data_PCOD8213601
_publ_section_title
;
Structure prediction by ZEFSAII (Michael W. Deem and Ramdas Pophale) SiO2 
 PCOD8213601
Probable space group: P M M A
;
_chemical_formula_sum "Si O2"
_cell_formula_units_Z 64
_cell_length_a 28.806287
_cell_length_b 9.112322
_cell_length_c 12.214289
_cell_angle_alpha 90.000000
_cell_angle_beta 90.000000
_cell_angle_gamma 90.000000
_cell_volume 3206.155136
_symmetry_space_group_name_H-M "P M M A"
_symmetry_group_IT_number 51
_symmetry_cell_setting 'orthorhombic'
loop_
_space_group_symop_operation_xyz
x,y,z
1/2-x,-y,z
1/2+x,-y,-z
-x,y,-z
-x,-y,-z
1/2+x,y,-z
1/2-x,y,z
x,-y,z
loop_
_atom_site_type_symbol
_atom_site_label
_atom_site_fract_x
_atom_site_fract_y
_atom_site_fract_z
Si Si1 0.541978 0.673897 0.580986
Si Si2 0.305325 0.665504 0.295301
Si Si3 0.697489 0.165290 0.318753
Si Si4 0.521518 0.325968 0.826325
Si Si5 0.697684 0.160299 0.907515
Si Si6 0.136780 0.169335 0.470945
Si Si7 0.566803 0.326167 0.045526
Si Si8 0.168127 0.327014 0.891024
O O1 0.500000 0.717355 0.500000
O O2 0.549595 0.500000 0.581897
O O3 0.532617 0.735339 0.704594
O O4 0.587889 0.748350 0.533333
O O5 0.250000 0.666357 0.301822
O O6 0.324635 0.500000 0.301721
O O7 0.325814 0.735522 0.183462
O O8 0.325426 0.760638 0.392292
O O9 0.750000 0.192973 0.363033
O O10 0.658757 0.188037 0.410075
O O11 0.685973 0.285074 0.227818
O O12 0.693986 0.000000 0.270922
O O13 0.520171 0.500000 0.817475
O O14 0.471952 0.265341 0.870078
O O15 0.558793 0.274504 0.919053
O O16 0.750000 0.134345 0.869199
O O17 0.672935 0.000000 0.914927
O O18 0.699651 0.243112 0.022431
O O19 0.129413 0.000000 0.439680
O O20 0.563819 0.500000 0.047328
O O21 0.615913 0.269628 0.088754
O O22 0.172998 0.500000 0.907715
#
# Coordination Sequence:
#
# PCOD8213601 Si02
#       8
#     8   8   8   8   8   8   8   8
#     4  10  22  37  60  90 120 155 198 250 302 357
#     4  10  21  38  62  91 121 152 194 251 304 353
#     4  10  23  43  62  80 111 159 207 248 299 369
#     4   8  15  32  54  78 113 152 189 229 289 352
#     4  10  21  37  56  80 117 161 196 229 283 357
#     4  11  24  41  62  87 117 159 204 247 303 373
#     4   8  16  30  52  81 112 149 188 233 286 349
#     4  11  22  33  56  90 119 148 195 253 303 350
#
# _framework density 19.961604999999999
#
# number of rings (size 3 to 8) (size 9 to 14) (size 15 to 20)
#    0.000    2.250    0.000    3.000    3.500    5.000 
#    0.000    0.000    0.000    0.000    0.000    4.375 
#    0.000    0.000    0.000    0.000    0.000    0.000 
#
# Total GULP energy -793345.899204 kJ/mol
# GULP energy per Si atom -12396.029675 kJ/mol
# Density = 1.991617 g / cm^3
# Si number density = 19.961605 Si / 1000 Ang^3
#
#
#
# Elastic Constant Matrix: (Units=GPa)
#
#
# Indices 1 2 3 4 5 6 
#
# 1 88.9944 28.6430 37.0892 0.0000 0.0000 0.0000
# 2 28.6430 77.7493 45.7825 0.0000 0.0000 0.0000
# 3 37.0892 45.7825 114.9671 0.0000 0.0000 0.0000
# 4 0.0000 0.0000 0.0000 25.9059 0.0000 0.0000
# 5 0.0000 0.0000 0.0000 0.0000 27.0828 0.0000
# 6 0.0000 0.0000 0.0000 0.0000 0.0000 11.0354
#
#
#
# Elastic Compliance Matrix: (Units=1/GPa)
#
#
# Indices 1 2 3 4 5 6 
#
# 1 0.013551 -0.003159 -0.003114 0.000000 0.000000 0.000000
# 2 -0.003159 0.017538 -0.005965 0.000000 0.000000 0.000000
# 3 -0.003114 -0.005965 0.012078 0.000000 0.000000 0.000000
# 4 0.000000 0.000000 0.000000 0.038601 0.000000 0.000000
# 5 0.000000 0.000000 0.000000 0.000000 0.036924 0.000000
# 6 0.000000 0.000000 0.000000 0.000000 0.000000 0.090617
#
#
# Mechanical properties :
#
#
# Convention : Reuss Voigt Hill
#
# Bulk Modulus (GPa) = 53.49849 56.08223 54.79036
# Shear Modulus (GPa) = 20.83201 24.15123 22.49162
#
# Velocity S-wave (km/s) = 3.23399 3.48211 3.36034
# Velocity P-wave (km/s) = 6.38779 6.65754 6.52406
#
# Compressibility (1/GPa) = 0.01869212
#
# Stress axis : x y z
#
# Youngs Moduli (GPa) = 73.79543 57.01908 82.79463
#
# Poissons Ratio (x) = 0.18010 0.25781
# Poissons Ratio (y) = 0.23309 0.49387
# Poissons Ratio (z) = 0.22978 0.34012
#
# Static dielectric constant tensor:
#      x y z
#    x 3.826430 0.000000 0.000000 
#    y 0.000000 3.602680 0.000000 
#    z 0.000000 0.000000 3.758700 
# 
# 
# High freq. dielectric constant tensor:
#      x y z
#    x 1.779270 0.000000 0.000000 
#    y 0.000000 1.757740 0.000000 
#    z 0.000000 0.000000 1.785090 
# 
# From -- ./inp_files/19573.got.cif
#   From: 2010.03.12/outbox.cif.g09.slc.cpg/sg51_10_cif.got.tgz:19573.got - 2010.04.16 13:43:02.
