data_PCOD8213011
_publ_section_title
;
Structure prediction by ZEFSAII (Michael W. Deem and Ramdas Pophale) SiO2 
 PCOD8213011
Probable space group: P M M A
;
_chemical_formula_sum "Si O2"
_cell_formula_units_Z 48
_cell_length_a 8.827152
_cell_length_b 30.606748
_cell_length_c 9.594011
_cell_angle_alpha 90.000000
_cell_angle_beta 90.000000
_cell_angle_gamma 90.000000
_cell_volume 2592.017951
_symmetry_space_group_name_H-M "P M M A"
_symmetry_group_IT_number 51
_symmetry_cell_setting 'orthorhombic'
loop_
_space_group_symop_operation_xyz
x,y,z
1/2-x,-y,z
1/2+x,-y,-z
-x,y,-z
-x,-y,-z
1/2+x,y,-z
1/2-x,y,z
x,-y,z
loop_
_atom_site_type_symbol
_atom_site_label
_atom_site_fract_x
_atom_site_fract_y
_atom_site_fract_z
Si Si1 0.929641 0.617972 0.847083
Si Si2 0.426438 0.799368 0.849610
Si Si3 0.929187 0.124328 0.348700
Si Si4 0.071642 0.950701 0.855854
Si Si5 0.427041 0.703151 0.849598
Si Si6 0.574903 0.551014 0.354671
O O1 0.750000 0.617938 0.854737
O O2 0.989028 0.662814 0.771127
O O3 0.986051 0.575864 0.765421
O O4 0.000000 0.615509 0.000000
O O5 0.250000 0.807129 0.874330
O O6 0.490742 0.834309 0.739453
O O7 0.455708 0.751012 0.782580
O O8 0.500000 0.806015 0.000000
O O9 0.750000 0.126345 0.364596
O O10 0.982110 0.080313 0.269828
O O11 0.000000 0.125019 0.500000
O O12 0.250000 0.948129 0.875206
O O13 0.017635 0.000000 0.821245
O O14 0.000000 0.934002 0.000000
O O15 0.250000 0.692163 0.860028
O O16 0.500000 0.706110 0.000000
O O17 0.500000 0.564244 0.500000
O O18 0.750000 0.564931 0.357204
O O19 0.555388 0.500000 0.323797
#
# Coordination Sequence:
#
# PCOD8213011 Si02
#       6
#     8   8   8   8   8   8
#     4  11  21  34  54  80 109 139 173 214 260 307
#     4   9  18  32  52  75  98 128 167 211 253 299
#     4  10  21  35  49  71 103 135 168 206 251 300
#     4   9  18  33  53  76 101 129 165 209 252 298
#     4   9  16  29  49  73 101 130 164 208 257 304
#     4  10  21  38  58  79 105 138 175 214 257 307
#
# _framework density 18.51839
#
# number of rings (size 3 to 8) (size 9 to 14) (size 15 to 20)
#    0.000    2.333    0.000    4.000    0.000    3.667 
#    0.000    0.833    0.000    2.000    0.000    0.000 
#    0.000    0.000    0.000    0.000    0.000    0.000 
#
# Total GULP energy -595011.228771 kJ/mol
# GULP energy per Si atom -12396.067266 kJ/mol
# Density = 1.847624 g / cm^3
# Si number density = 18.518390 Si / 1000 Ang^3
#
#
#
# Elastic Constant Matrix: (Units=GPa)
#
#
# Indices 1 2 3 4 5 6 
#
# 1 100.4842 55.8728 47.2764 0.0000 0.0000 0.0000
# 2 55.8728 121.5990 73.0108 0.0000 0.0000 0.0000
# 3 47.2764 73.0108 111.6110 0.0000 0.0000 0.0000
# 4 0.0000 0.0000 0.0000 11.7622 0.0000 0.0000
# 5 0.0000 0.0000 0.0000 0.0000 31.7164 0.0000
# 6 0.0000 0.0000 0.0000 0.0000 0.0000 22.1390
#
#
#
# Elastic Compliance Matrix: (Units=1/GPa)
#
#
# Indices 1 2 3 4 5 6 
#
# 1 0.013883 -0.004690 -0.002812 0.000000 0.000000 0.000000
# 2 -0.004690 0.015128 -0.007909 0.000000 0.000000 0.000000
# 3 -0.002812 -0.007909 0.015325 0.000000 0.000000 0.000000
# 4 0.000000 0.000000 0.000000 0.085018 0.000000 0.000000
# 5 0.000000 0.000000 0.000000 0.000000 0.031529 0.000000
# 6 0.000000 0.000000 0.000000 0.000000 0.000000 0.045169
#
#
# Mechanical properties :
#
#
# Convention : Reuss Voigt Hill
#
# Bulk Modulus (GPa) = 74.00965 76.22382 75.11673
# Shear Modulus (GPa) = 20.71427 23.62579 22.17003
#
# Velocity S-wave (km/s) = 3.34814 3.57571 3.46380
# Velocity P-wave (km/s) = 7.41613 7.63532 7.52652
#
# Compressibility (1/GPa) = 0.01351175
#
# Stress axis : x y z
#
# Youngs Moduli (GPa) = 72.03037 66.10371 65.25407
#
# Poissons Ratio (x) = 0.31006 0.18352
# Poissons Ratio (y) = 0.33785 0.51610
# Poissons Ratio (z) = 0.20257 0.52282
#
# Static dielectric constant tensor:
#      x y z
#    x 3.426620 0.000000 0.000000 
#    y 0.000000 4.216260 0.000000 
#    z 0.000000 0.000000 3.172760 
# 
# 
# High freq. dielectric constant tensor:
#      x y z
#    x 1.722910 0.000000 0.000000 
#    y 0.000000 1.740390 0.000000 
#    z 0.000000 0.000000 1.687820 
# 
# From -- ./inp_files/6081.got.cif
#   From: 2010.03.12/outbox.cif.g09.slc.cpg/sg51_4_cif.got.tgz:6081.got - 2010.04.16 13:43:02.
