data_PCOD8213473
_publ_section_title
;
Structure prediction by ZEFSAII (Michael W. Deem and Ramdas Pophale) SiO2 
 PCOD8213473
Probable space group: P M M A
;
_chemical_formula_sum "Si O2"
_cell_formula_units_Z 64
_cell_length_a 16.248092
_cell_length_b 19.396841
_cell_length_c 9.114487
_cell_angle_alpha 90.000000
_cell_angle_beta 90.000000
_cell_angle_gamma 90.000000
_cell_volume 2872.536826
_symmetry_space_group_name_H-M "P M M A"
_symmetry_group_IT_number 51
_symmetry_cell_setting 'orthorhombic'
loop_
_space_group_symop_operation_xyz
x,y,z
1/2-x,-y,z
1/2+x,-y,-z
-x,y,-z
-x,-y,-z
1/2+x,y,-z
1/2-x,y,z
x,-y,z
loop_
_atom_site_type_symbol
_atom_site_label
_atom_site_fract_x
_atom_site_fract_y
_atom_site_fract_z
Si Si1 0.159289 0.747414 0.345011
Si Si2 0.661573 0.120897 0.460560
Si Si3 0.904526 0.164580 0.181950
Si Si4 0.573908 0.317206 0.104337
Si Si5 0.156447 0.139138 0.121718
Si Si6 0.035491 0.626359 0.345352
Si Si7 0.960610 0.924272 0.674150
Si Si8 0.843933 0.576342 0.889802
O O1 0.250000 0.711634 0.351084
O O2 0.153569 0.804567 0.469034
O O3 0.148455 0.782734 0.185086
O O4 0.085084 0.696209 0.377926
O O5 0.750000 0.086319 0.505048
O O6 0.665140 0.131661 0.285914
O O7 0.575341 0.080129 0.503814
O O8 0.888422 0.246608 0.168542
O O9 0.989501 0.141272 0.261517
O O10 0.899603 0.131017 0.022235
O O11 0.543320 0.361673 0.242307
O O12 0.500000 0.293938 0.000000
O O13 0.635403 0.365131 0.010043
O O14 0.250000 0.122781 0.080711
O O15 0.126941 0.083136 0.241117
O O16 0.099104 0.577987 0.256312
O O17 0.000000 0.595818 0.500000
O O18 0.999209 0.000000 0.703733
O O19 0.750000 0.588190 0.840549
O O20 0.855476 0.500000 0.959671
#
# Coordination Sequence:
#
# PCOD8213473 Si02
#       8
#     8   8   8   8   8   8   8   8
#     4   9  18  35  57  83 119 162 202 240 296 369
#     4  10  22  38  58  83 114 154 199 249 302 359
#     4  12  22  36  59  92 124 148 193 257 313 354
#     4  10  21  37  62  93 125 164 206 251 305 373
#     4  10  21  36  57  84 113 149 198 255 307 358
#     4  11  21  34  58  92 126 161 204 256 311 362
#     4  11  24  42  60  78 112 163 207 242 294 371
#     4  10  23  44  66  88 121 168 214 251 299 372
#
# _framework density 22.279957
#
# number of rings (size 3 to 8) (size 9 to 14) (size 15 to 20)
#    0.000    1.625    0.000    7.125    0.000    7.500 
#    0.000    1.250    0.000    3.750    0.000    0.000 
#    0.000    0.000    0.000    0.000    0.000    0.000 
#
# Total GULP energy -792948.353407 kJ/mol
# GULP energy per Si atom -12389.818022 kJ/mol
# Density = 2.222925 g / cm^3
# Si number density = 22.279957 Si / 1000 Ang^3
#
#
#
# Elastic Constant Matrix: (Units=GPa)
#
#
# Indices 1 2 3 4 5 6 
#
# 1 83.7521 28.2640 13.6652 0.0000 0.0000 0.0000
# 2 28.2640 107.0789 17.9817 0.0000 0.0000 0.0000
# 3 13.6652 17.9817 107.8957 0.0000 0.0000 0.0000
# 4 0.0000 0.0000 0.0000 21.3931 0.0000 0.0000
# 5 0.0000 0.0000 0.0000 0.0000 25.1853 0.0000
# 6 0.0000 0.0000 0.0000 0.0000 0.0000 23.3017
#
#
#
# Elastic Compliance Matrix: (Units=1/GPa)
#
#
# Indices 1 2 3 4 5 6 
#
# 1 0.013239 -0.003305 -0.001126 0.000000 0.000000 0.000000
# 2 -0.003305 0.010433 -0.001320 0.000000 0.000000 0.000000
# 3 -0.001126 -0.001320 0.009631 0.000000 0.000000 0.000000
# 4 0.000000 0.000000 0.000000 0.046744 0.000000 0.000000
# 5 0.000000 0.000000 0.000000 0.000000 0.039706 0.000000
# 6 0.000000 0.000000 0.000000 0.000000 0.000000 0.042915
#
#
# Mechanical properties :
#
#
# Convention : Reuss Voigt Hill
#
# Bulk Modulus (GPa) = 45.87125 46.50539 46.18832
# Shear Modulus (GPa) = 27.55761 29.89705 28.72733
#
# Velocity S-wave (km/s) = 3.52074 3.66714 3.59469
# Velocity P-wave (km/s) = 6.09597 6.23290 6.16482
#
# Compressibility (1/GPa) = 0.02180015
#
# Stress axis : x y z
#
# Youngs Moduli (GPa) = 75.53314 95.84881 103.83334
#
# Poissons Ratio (x) = 0.31683 0.11690
# Poissons Ratio (y) = 0.24967 0.13707
# Poissons Ratio (z) = 0.08504 0.12653
#
# Static dielectric constant tensor:
#      x y z
#    x 4.206330 0.000000 0.000000 
#    y 0.000000 3.679880 0.000000 
#    z 0.000000 0.000000 4.227360 
# 
# 
# High freq. dielectric constant tensor:
#      x y z
#    x 1.888750 0.000000 0.000000 
#    y 0.000000 1.842920 0.000000 
#    z 0.000000 0.000000 1.884730 
# 
# From -- ./inp_files/9997.got.cif
#   From: 2010.03.12/outbox.cif.g09.slc.cpg/sg51_5_cif.got.tgz:9997.got - 2010.04.16 13:43:02.
