data_PCOD8213706
_publ_section_title
;
Structure prediction by ZEFSAII (Michael W. Deem and Ramdas Pophale) SiO2 
 PCOD8213706
Probable space group: P M M A
;
_chemical_formula_sum "Si O2"
_cell_formula_units_Z 64
_cell_length_a 8.961958
_cell_length_b 13.899051
_cell_length_c 26.127273
_cell_angle_alpha 90.000000
_cell_angle_beta 90.000000
_cell_angle_gamma 90.000000
_cell_volume 3254.483964
_symmetry_space_group_name_H-M "P M M A"
_symmetry_group_IT_number 51
_symmetry_cell_setting 'orthorhombic'
loop_
_space_group_symop_operation_xyz
x,y,z
1/2-x,-y,z
1/2+x,-y,-z
-x,y,-z
-x,-y,-z
1/2+x,y,-z
1/2-x,y,z
x,-y,z
loop_
_atom_site_type_symbol
_atom_site_label
_atom_site_fract_x
_atom_site_fract_y
_atom_site_fract_z
Si Si1 0.926412 0.605212 0.908416
Si Si2 0.078457 0.393509 0.699029
Si Si3 0.580575 0.885924 0.151280
Si Si4 0.579616 0.885686 0.746624
Si Si5 0.075368 0.111168 0.447560
Si Si6 0.913778 0.613660 0.797434
Si Si7 0.576310 0.797499 0.351335
Si Si8 0.926261 0.195681 0.948517
O O1 0.750000 0.595662 0.901178
O O2 0.989809 0.500000 0.926341
O O3 0.991100 0.635773 0.852442
O O4 0.966896 0.689996 0.947530
O O5 0.250000 0.403935 0.712507
O O6 0.013944 0.500000 0.684493
O O7 0.052207 0.317934 0.653362
O O8 0.006189 0.345803 0.749696
O O9 0.750000 0.846071 0.150002
O O10 0.495069 0.843742 0.201193
O O11 0.493405 0.856672 0.100305
O O12 0.581733 0.000000 0.154175
O O13 0.750000 0.849207 0.743263
O O14 0.488248 0.851955 0.697531
O O15 0.573856 0.000000 0.747751
O O16 0.250000 0.130011 0.451840
O O17 0.000000 0.145706 0.500000
O O18 0.009888 0.173274 0.401928
O O19 0.038569 0.000000 0.436635
O O20 0.750000 0.661053 0.794541
O O21 0.903291 0.500000 0.791310
O O22 0.750000 0.824330 0.356268
O O23 0.750000 0.177433 0.949772
O O24 0.000000 0.153142 0.000000
#
# Coordination Sequence:
#
# PCOD8213706 Si02
#       8
#     8   8   8   8   8   8   8   8
#     4   8  16  32  53  77 105 137 174 217 267 323
#     4   9  19  34  49  72 110 151 189 230 275 320
#     4  10  22  41  62  82 107 139 175 222 279 335
#     4  10  21  37  57  83 115 148 181 220 271 334
#     4  10  21  38  60  86 117 153 192 236 284 335
#     4   8  14  27  48  72  97 130 174 220 266 319
#     4  11  22  34  54  85 118 155 193 234 280 326
#     4  11  23  38  57  81 107 139 179 225 272 326
#
# _framework density 19.665177
#
# number of rings (size 3 to 8) (size 9 to 14) (size 15 to 20)
#    0.000    2.375    0.000    3.000    1.750    5.250 
#    0.000    0.625    0.000    2.250    0.000    0.000 
#    0.000    0.000    0.000    0.000    0.000    0.000 
#
# Total GULP energy -793355.805802 kJ/mol
# GULP energy per Si atom -12396.184466 kJ/mol
# Density = 1.962042 g / cm^3
# Si number density = 19.665177 Si / 1000 Ang^3
#
#
#
# Elastic Constant Matrix: (Units=GPa)
#
#
# Indices 1 2 3 4 5 6 
#
# 1 95.1494 23.8920 57.1009 0.0000 0.0000 0.0000
# 2 23.8920 26.1054 30.7937 0.0000 0.0000 0.0000
# 3 57.1009 30.7937 144.6064 0.0000 0.0000 0.0000
# 4 0.0000 0.0000 0.0000 24.7162 0.0000 0.0000
# 5 0.0000 0.0000 0.0000 0.0000 35.7263 0.0000
# 6 0.0000 0.0000 0.0000 0.0000 0.0000 19.4446
#
#
#
# Elastic Compliance Matrix: (Units=1/GPa)
#
#
# Indices 1 2 3 4 5 6 
#
# 1 0.015253 -0.009155 -0.004074 0.000000 0.000000 0.000000
# 2 -0.009155 0.056651 -0.008449 0.000000 0.000000 0.000000
# 3 -0.004074 -0.008449 0.010323 0.000000 0.000000 0.000000
# 4 0.000000 0.000000 0.000000 0.040459 0.000000 0.000000
# 5 0.000000 0.000000 0.000000 0.000000 0.027991 0.000000
# 6 0.000000 0.000000 0.000000 0.000000 0.000000 0.051428
#
#
# Mechanical properties :
#
#
# Convention : Reuss Voigt Hill
#
# Bulk Modulus (GPa) = 25.72481 54.38157 40.05319
# Shear Modulus (GPa) = 19.34858 26.24907 22.79883
#
# Velocity S-wave (km/s) = 3.14012 3.65745 3.40862
# Velocity P-wave (km/s) = 5.12415 6.74905 5.99194
#
# Compressibility (1/GPa) = 0.03887297
#
# Stress axis : x y z
#
# Youngs Moduli (GPa) = 65.56023 17.65195 96.87112
#
# Poissons Ratio (x) = 0.16160 0.39461
# Poissons Ratio (y) = 0.60019 0.81844
# Poissons Ratio (z) = 0.26706 0.14914
#
# Static dielectric constant tensor:
#      x y z
#    x 3.670210 0.000000 0.000000 
#    y 0.000000 3.723990 0.000000 
#    z 0.000000 0.000000 3.545360 
# 
# 
# High freq. dielectric constant tensor:
#      x y z
#    x 1.761900 0.000000 0.000000 
#    y 0.000000 1.767700 0.000000 
#    z 0.000000 0.000000 1.755070 
# 
# From -- ./inp_files/34853.got.cif
#   From: 2010.03.12/outbox.cif.g09.slc.cpg/sg51_18_cif.got.tgz:34853.got - 2010.04.16 13:43:02.
