data_PCOD8213097
_publ_section_title
;
Structure prediction by ZEFSAII (Michael W. Deem and Ramdas Pophale) SiO2 
 PCOD8213097
Probable space group: P M M A
;
_chemical_formula_sum "Si O2"
_cell_formula_units_Z 28
_cell_length_a 9.189636
_cell_length_b 7.671504
_cell_length_c 19.476418
_cell_angle_alpha 90.000000
_cell_angle_beta 90.000000
_cell_angle_gamma 90.000000
_cell_volume 1373.054930
_symmetry_space_group_name_H-M "P M M A"
_symmetry_group_IT_number 51
_symmetry_cell_setting 'orthorhombic'
loop_
_space_group_symop_operation_xyz
x,y,z
1/2-x,-y,z
1/2+x,-y,-z
-x,y,-z
-x,-y,-z
1/2+x,y,-z
1/2-x,y,z
x,-y,z
loop_
_atom_site_type_symbol
_atom_site_label
_atom_site_fract_x
_atom_site_fract_y
_atom_site_fract_z
Si Si1 0.407724 0.300875 0.438951
Si Si2 0.411764 0.796838 0.687566
Si Si3 0.424754 0.500000 0.073211
Si Si4 0.920016 0.798059 0.155646
O O1 0.500000 0.208429 0.500000
O O2 0.250000 0.208068 0.435067
O O3 0.385417 0.500000 0.459750
O O4 0.480824 0.295988 0.364554
O O5 0.250000 0.721769 0.675846
O O6 0.460626 0.759857 0.765371
O O7 0.413525 0.000000 0.672070
O O8 0.250000 0.500000 0.067139
O O9 0.476822 0.324875 0.111111
O O10 0.500000 0.500000 0.000000
O O11 0.750000 0.755940 0.142144
O O12 0.951821 0.000000 0.137201
#
# Coordination Sequence:
#
# PCOD8213097 Si02
#       4
#     8   8   4   8
#     4  10  21  35  51  75 108 146 191 238 288 342
#     4   9  19  36  58  83 110 145 188 232 285 346
#     4  12  26  42  64  94 127 162 203 244 294 358
#     4   9  20  41  66  92 124 161 202 248 299 357
#
# _framework density 20.392482000000001
#
# number of rings (size 3 to 8) (size 9 to 14) (size 15 to 20)
#    0.000    2.286    0.000    3.857    2.000    5.143 
#    0.000    2.857    0.000    0.000    0.000    0.000 
#    0.000    0.000    0.000    0.000    0.000    0.000 
#
# Total GULP energy -347105.242999 kJ/mol
# GULP energy per Si atom -12396.615821 kJ/mol
# Density = 2.034607 g / cm^3
# Si number density = 20.392482 Si / 1000 Ang^3
#
#
#
# Elastic Constant Matrix: (Units=GPa)
#
#
# Indices 1 2 3 4 5 6 
#
# 1 164.9751 51.8365 91.7768 0.0000 0.0000 0.0000
# 2 51.8365 72.0046 48.5475 0.0000 0.0000 0.0000
# 3 91.7768 48.5475 139.9534 0.0000 0.0000 0.0000
# 4 0.0000 0.0000 0.0000 -565.5140 0.0000 0.0000
# 5 0.0000 0.0000 0.0000 0.0000 39.3153 0.0000
# 6 0.0000 0.0000 0.0000 0.0000 0.0000 27.9930
#
#
#
# Elastic Compliance Matrix: (Units=1/GPa)
#
#
# Indices 1 2 3 4 5 6 
#
# 1 0.010252 -0.003717 -0.005434 0.000000 0.000000 0.000000
# 2 -0.003717 0.019475 -0.004318 0.000000 0.000000 0.000000
# 3 -0.005434 -0.004318 0.012206 0.000000 0.000000 0.000000
# 4 0.000000 0.000000 0.000000 -0.001768 0.000000 0.000000
# 5 0.000000 0.000000 0.000000 0.000000 0.025435 0.000000
# 6 0.000000 0.000000 0.000000 0.000000 0.000000 0.035723
#
#
# Mechanical properties :
#
#
# Convention : Reuss Voigt Hill
#
# Bulk Modulus (GPa) = 66.68384 84.58385 75.63384
# Shear Modulus (GPa) = 37.52041 -87.32298 -24.90128
#
# Velocity S-wave (km/s) = 4.29408 -6.55089 -3.49822
# Velocity P-wave (km/s) = 7.57342 3.95611 4.56650
#
# Compressibility (1/GPa) = 0.01499614
#
# Stress axis : x y z
#
# Youngs Moduli (GPa) = 97.53934 51.34695 81.92453
#
# Poissons Ratio (x) = 0.19086 0.44515
# Poissons Ratio (y) = 0.36256 0.35376
# Poissons Ratio (z) = 0.53000 0.22172
#
# Static dielectric constant tensor:
#      x y z
#    x 3.965450 0.000000 0.000000 
#    y 0.000000 3.534460 0.000000 
#    z 0.000000 0.000000 3.713510 
# 
# 
# High freq. dielectric constant tensor:
#      x y z
#    x 1.795950 0.000000 0.000000 
#    y 0.000000 1.790820 0.000000 
#    z 0.000000 0.000000 1.799300 
# 
# From -- ./inp_files/26872.got.cif
#   From: 2010.03.12/outbox.cif.g09.slc.cpg/sg51_14_cif.got.tgz:26872.got - 2010.04.16 13:43:02.
