data_PCOD8213324
_publ_section_title
;
Structure prediction by ZEFSAII (Michael W. Deem and Ramdas Pophale) SiO2 
 PCOD8213324
Probable space group: P M M A
;
_chemical_formula_sum "Si O2"
_cell_formula_units_Z 48
_cell_length_a 9.052078
_cell_length_b 9.258668
_cell_length_c 30.975275
_cell_angle_alpha 90.000000
_cell_angle_beta 90.000000
_cell_angle_gamma 90.000000
_cell_volume 2596.043525
_symmetry_space_group_name_H-M "P M M A"
_symmetry_group_IT_number 51
_symmetry_cell_setting 'orthorhombic'
loop_
_space_group_symop_operation_xyz
x,y,z
1/2-x,-y,z
1/2+x,-y,-z
-x,y,-z
-x,-y,-z
1/2+x,y,-z
1/2-x,y,z
x,-y,z
loop_
_atom_site_type_symbol
_atom_site_label
_atom_site_fract_x
_atom_site_fract_y
_atom_site_fract_z
Si Si1 0.076583 0.833981 0.456536
Si Si2 0.421688 0.831615 0.043546
Si Si3 0.080406 0.330288 0.879962
Si Si4 0.926123 0.336722 0.626655
Si Si5 0.921059 0.332453 0.792770
Si Si6 0.074125 0.836890 0.291125
O O1 0.250000 0.814050 0.462420
O O2 0.015896 0.739711 0.416774
O O3 0.000000 0.777250 0.500000
O O4 0.034760 0.000000 0.447286
O O5 0.250000 0.795141 0.039437
O O6 0.487854 0.747642 0.083558
O O7 0.451137 0.000000 0.051043
O O8 0.500000 0.777366 0.000000
O O9 0.250000 0.281138 0.882497
O O10 0.062390 0.500000 0.886897
O O11 0.016005 0.283651 0.833798
O O12 0.750000 0.334855 0.627623
O O13 0.986631 0.500000 0.628158
O O14 0.989298 0.249848 0.667782
O O15 0.750000 0.299575 0.802787
O O16 0.944700 0.500000 0.781519
O O17 0.980435 0.240633 0.752408
O O18 0.250000 0.836360 0.292718
O O19 0.012598 0.000000 0.292222
#
# Coordination Sequence:
#
# PCOD8213324 Si02
#       6
#     8   8   8   8   8   8
#     4   9  17  29  45  65  90 120 153 190 233 280
#     4  10  21  37  57  80 106 137 173 213 257 303
#     4  10  21  36  54  77 105 138 174 210 250 298
#     4   9  16  26  42  65  92 121 153 191 236 284
#     4   9  17  30  48  70  97 127 158 196 243 291
#     4   9  16  26  43  68  95 121 153 195 240 286
#
# _framework density 18.489674000000001
#
# number of rings (size 3 to 8) (size 9 to 14) (size 15 to 20)
#    0.000    2.667    0.000    2.000    0.000    7.333 
#    0.000    1.667    0.000    1.000    0.000    0.000 
#    0.000    0.000    0.000    0.000    0.000    0.000 
#
# Total GULP energy -595279.055042 kJ/mol
# GULP energy per Si atom -12401.646980 kJ/mol
# Density = 1.844759 g / cm^3
# Si number density = 18.489674 Si / 1000 Ang^3
#
#
#
# Elastic Constant Matrix: (Units=GPa)
#
#
# Indices 1 2 3 4 5 6 
#
# 1 50.0217 29.7072 49.1351 0.0000 0.0000 0.0000
# 2 29.7072 102.4466 89.2562 0.0000 0.0000 0.0000
# 3 49.1351 89.2562 185.6492 0.0000 0.0000 0.0000
# 4 0.0000 0.0000 0.0000 41.5125 0.0000 0.0000
# 5 0.0000 0.0000 0.0000 0.0000 27.6804 0.0000
# 6 0.0000 0.0000 0.0000 0.0000 0.0000 17.2671
#
#
#
# Elastic Compliance Matrix: (Units=1/GPa)
#
#
# Indices 1 2 3 4 5 6 
#
# 1 0.027476 -0.002808 -0.005922 0.000000 0.000000 0.000000
# 2 -0.002808 0.017084 -0.007470 0.000000 0.000000 0.000000
# 3 -0.005922 -0.007470 0.010545 0.000000 0.000000 0.000000
# 4 0.000000 0.000000 0.000000 0.024089 0.000000 0.000000
# 5 0.000000 0.000000 0.000000 0.000000 0.036127 0.000000
# 6 0.000000 0.000000 0.000000 0.000000 0.000000 0.057914
#
#
# Mechanical properties :
#
#
# Convention : Reuss Voigt Hill
#
# Bulk Modulus (GPa) = 44.04369 74.92385 59.48377
# Shear Modulus (GPa) = 23.45173 28.62660 26.03917
#
# Velocity S-wave (km/s) = 3.56528 3.93905 3.75682
# Velocity P-wave (km/s) = 6.38911 7.82931 7.14559
#
# Compressibility (1/GPa) = 0.02270473
#
# Stress axis : x y z
#
# Youngs Moduli (GPa) = 36.39550 58.53413 94.82721
#
# Poissons Ratio (x) = 0.16436 0.56156
# Poissons Ratio (y) = 0.10220 0.70841
# Poissons Ratio (z) = 0.21553 0.43728
#
# Static dielectric constant tensor:
#      x y z
#    x 3.009270 0.000000 0.000000 
#    y 0.000000 3.457140 0.000000 
#    z 0.000000 0.000000 3.600100 
# 
# 
# High freq. dielectric constant tensor:
#      x y z
#    x 1.679090 0.000000 0.000000 
#    y 0.000000 1.717100 0.000000 
#    z 0.000000 0.000000 1.733650 
# 
# From -- ./inp_files/37002.got.cif
#   From: 2010.03.12/outbox.cif.g09.slc.cpg/sg51_19_cif.got.tgz:37002.got - 2010.04.16 13:43:02.
