data_PCOD8213364
_publ_section_title
;
Structure prediction by ZEFSAII (Michael W. Deem and Ramdas Pophale) SiO2 
 PCOD8213364
Probable space group: P M M A
;
_chemical_formula_sum "Si O2"
_cell_formula_units_Z 64
_cell_length_a 9.238915
_cell_length_b 23.124711
_cell_length_c 15.083918
_cell_angle_alpha 90.000000
_cell_angle_beta 90.000000
_cell_angle_gamma 90.000000
_cell_volume 3222.637439
_symmetry_space_group_name_H-M "P M M A"
_symmetry_group_IT_number 51
_symmetry_cell_setting 'orthorhombic'
loop_
_space_group_symop_operation_xyz
x,y,z
1/2-x,-y,z
1/2+x,-y,-z
-x,y,-z
-x,-y,-z
1/2+x,y,-z
1/2-x,y,z
x,-y,z
loop_
_atom_site_type_symbol
_atom_site_label
_atom_site_fract_x
_atom_site_fract_y
_atom_site_fract_z
Si Si1 0.415147 0.065920 0.246870
Si Si2 0.921209 0.564144 0.273742
Si Si3 0.578729 0.324341 0.722339
Si Si4 0.095356 0.565845 0.925185
Si Si5 0.581411 0.244300 0.410992
Si Si6 0.917714 0.278361 0.912712
Si Si7 0.083166 0.108562 0.587673
Si Si8 0.419374 0.146157 0.087638
O O1 0.250000 0.082519 0.272017
O O2 0.516431 0.073850 0.331188
O O3 0.473247 0.106975 0.168813
O O4 0.425137 0.000000 0.214026
O O5 0.750000 0.575951 0.283663
O O6 0.957606 0.500000 0.312863
O O7 0.973440 0.566298 0.171993
O O8 0.015406 0.615159 0.317947
O O9 0.750000 0.320938 0.705014
O O10 0.498079 0.273166 0.671879
O O11 0.541686 0.317509 0.827131
O O12 0.250000 0.598035 0.923762
O O13 0.118995 0.500000 0.955538
O O14 0.000000 0.598095 0.000000
O O15 0.500000 0.264641 0.500000
O O16 0.750000 0.262634 0.416232
O O17 0.563568 0.176462 0.396180
O O18 0.750000 0.282907 0.934256
O O19 0.961151 0.212341 0.890591
O O20 0.000000 0.300926 0.000000
O O21 0.250000 0.091408 0.577087
O O22 0.000000 0.088472 0.500000
O O23 0.250000 0.138280 0.071394
O O24 0.500000 0.124368 0.000000
#
# Coordination Sequence:
#
# PCOD8213364 Si02
#       8
#     8   8   8   8   8   8   8   8
#     4  10  21  36  54  78 111 151 191 231 276 326
#     4   9  19  35  51  69  99 140 181 219 264 319
#     4  11  22  35  55  83 112 143 180 224 273 324
#     4   8  14  25  41  60  84 119 164 211 255 298
#     4  10  21  38  61  88 114 140 174 219 273 330
#     4   9  19  34  52  76 107 143 182 227 277 328
#     4  10  21  37  59  85 112 144 180 221 271 327
#     4   9  18  34  54  75 103 141 185 232 281 328
#
# _framework density 19.85951
#
# number of rings (size 3 to 8) (size 9 to 14) (size 15 to 20)
#    0.000    2.500    0.000    2.625    0.000    6.000 
#    0.000    6.250    0.000    0.375    0.000    0.000 
#    0.000    0.000    0.000    0.000    0.000    0.000 
#
# Total GULP energy -793428.167539 kJ/mol
# GULP energy per Si atom -12397.315118 kJ/mol
# Density = 1.981431 g / cm^3
# Si number density = 19.859510 Si / 1000 Ang^3
#
#
#
# Elastic Constant Matrix: (Units=GPa)
#
#
# Indices 1 2 3 4 5 6 
#
# 1 88.3511 37.5391 38.1085 0.0000 0.0000 0.0000
# 2 37.5391 80.0934 30.0269 0.0000 0.0000 0.0000
# 3 38.1085 30.0269 74.3883 0.0000 0.0000 0.0000
# 4 0.0000 0.0000 0.0000 6.1888 0.0000 0.0000
# 5 0.0000 0.0000 0.0000 0.0000 37.0205 0.0000
# 6 0.0000 0.0000 0.0000 0.0000 0.0000 26.2484
#
#
#
# Elastic Compliance Matrix: (Units=1/GPa)
#
#
# Indices 1 2 3 4 5 6 
#
# 1 0.016232 -0.005291 -0.006180 0.000000 0.000000 0.000000
# 2 -0.005291 0.016436 -0.003924 0.000000 0.000000 0.000000
# 3 -0.006180 -0.003924 0.018193 0.000000 0.000000 0.000000
# 4 0.000000 0.000000 0.000000 0.161583 0.000000 0.000000
# 5 0.000000 0.000000 0.000000 0.000000 0.027012 0.000000
# 6 0.000000 0.000000 0.000000 0.000000 0.000000 0.038098
#
#
# Mechanical properties :
#
#
# Convention : Reuss Voigt Hill
#
# Bulk Modulus (GPa) = 49.82186 50.46464 50.14325
# Shear Modulus (GPa) = 15.87128 23.03542 19.45335
#
# Velocity S-wave (km/s) = 2.83004 3.40945 3.13317
# Velocity P-wave (km/s) = 5.98502 6.40040 6.19619
#
# Compressibility (1/GPa) = 0.02007151
#
# Stress axis : x y z
#
# Youngs Moduli (GPa) = 61.60627 60.84058 54.96689
#
# Poissons Ratio (x) = 0.32191 0.33969
# Poissons Ratio (y) = 0.32596 0.21569
# Poissons Ratio (z) = 0.38072 0.23874
#
# Static dielectric constant tensor:
#      x y z
#    x 3.617050 0.000000 0.000000 
#    y 0.000000 3.597960 0.000000 
#    z 0.000000 0.000000 3.425750 
# 
# 
# High freq. dielectric constant tensor:
#      x y z
#    x 1.774010 0.000000 0.000000 
#    y 0.000000 1.777200 0.000000 
#    z 0.000000 0.000000 1.753420 
# 
# From -- ./inp_files/22236.got.cif
#   From: 2010.03.12/outbox.cif.g09.slc.cpg/sg51_12_cif.got.tgz:22236.got - 2010.04.16 13:43:02.
