data_PCOD8213829
_publ_section_title
;
Structure prediction by ZEFSAII (Michael W. Deem and Ramdas Pophale) SiO2 
 PCOD8213829
Probable space group: P M M A
;
_chemical_formula_sum "Si O2"
_cell_formula_units_Z 44
_cell_length_a 8.810627
_cell_length_b 13.410066
_cell_length_c 18.963324
_cell_angle_alpha 90.000000
_cell_angle_beta 90.000000
_cell_angle_gamma 90.000000
_cell_volume 2240.537392
_symmetry_space_group_name_H-M "P M M A"
_symmetry_group_IT_number 51
_symmetry_cell_setting 'orthorhombic'
loop_
_space_group_symop_operation_xyz
x,y,z
1/2-x,-y,z
1/2+x,-y,-z
-x,y,-z
-x,-y,-z
1/2+x,y,-z
1/2-x,y,z
x,-y,z
loop_
_atom_site_type_symbol
_atom_site_label
_atom_site_fract_x
_atom_site_fract_y
_atom_site_fract_z
Si Si1 0.929602 0.108310 0.838450
Si Si2 0.569046 0.500000 0.576978
Si Si3 0.929246 0.887916 0.678400
Si Si4 0.080312 0.612012 0.803620
Si Si5 0.071734 0.689280 0.654432
Si Si6 0.072709 0.291324 0.074398
O O1 0.750000 0.119495 0.836451
O O2 0.988970 0.120938 0.758818
O O3 0.997799 0.189875 0.892056
O O4 0.978397 0.000000 0.867674
O O5 0.750000 0.500000 0.574461
O O6 0.500000 0.500000 0.500000
O O7 0.514753 0.398515 0.614197
O O8 0.750000 0.870718 0.673560
O O9 0.011569 0.800289 0.632985
O O10 0.969745 0.000000 0.650104
O O11 0.250000 0.637582 0.830005
O O12 0.070423 0.500000 0.775224
O O13 0.034807 0.680328 0.737609
O O14 0.965948 0.623224 0.869105
O O15 0.250000 0.679773 0.638024
O O16 0.250000 0.284308 0.062469
O O17 0.000000 0.316655 0.000000
#
# Coordination Sequence:
#
# PCOD8213829 Si02
#       6
#     8   4   8   8   8   8
#     4   8  15  29  49  73 103 139 183 237 290 343
#     4  12  26  44  68  98 133 166 201 236 286 348
#     4   9  17  32  56  87 121 158 204 252 297 350
#     4  10  21  38  57  78 107 142 185 239 293 348
#     4  11  21  37  62  93 128 160 197 245 299 351
#     4  11  22  35  52  73 102 141 189 240 298 358
#
# _framework density 19.638145999999999
#
# number of rings (size 3 to 8) (size 9 to 14) (size 15 to 20)
#    0.000    2.000    2.727    3.000    0.000    2.182 
#    0.000    0.000    0.000    2.182    0.000    0.000 
#    0.000    0.000    0.000    0.000    0.000    0.000 
#
# Total GULP energy -545349.218946 kJ/mol
# GULP energy per Si atom -12394.300431 kJ/mol
# Density = 1.959345 g / cm^3
# Si number density = 19.638146 Si / 1000 Ang^3
#
#
#
# Elastic Constant Matrix: (Units=GPa)
#
#
# Indices 1 2 3 4 5 6 
#
# 1 88.7785 51.5493 37.3621 0.0000 0.0000 0.0000
# 2 51.5493 140.4137 41.3115 0.0000 0.0000 0.0000
# 3 37.3621 41.3115 63.2275 0.0000 0.0000 0.0000
# 4 0.0000 0.0000 0.0000 13.6574 0.0000 0.0000
# 5 0.0000 0.0000 0.0000 0.0000 22.7308 0.0000
# 6 0.0000 0.0000 0.0000 0.0000 0.0000 30.7218
#
#
#
# Elastic Compliance Matrix: (Units=1/GPa)
#
#
# Indices 1 2 3 4 5 6 
#
# 1 0.016609 -0.003974 -0.007218 0.000000 0.000000 0.000000
# 2 -0.003974 0.009767 -0.004034 0.000000 0.000000 0.000000
# 3 -0.007218 -0.004034 0.022717 0.000000 0.000000 0.000000
# 4 0.000000 0.000000 0.000000 0.073220 0.000000 0.000000
# 5 0.000000 0.000000 0.000000 0.000000 0.043993 0.000000
# 6 0.000000 0.000000 0.000000 0.000000 0.000000 0.032550
#
#
# Mechanical properties :
#
#
# Convention : Reuss Voigt Hill
#
# Bulk Modulus (GPa) = 53.64234 61.42948 57.53591
# Shear Modulus (GPa) = 21.22940 24.23511 22.73226
#
# Velocity S-wave (km/s) = 3.29147 3.51676 3.40598
# Velocity P-wave (km/s) = 6.46681 6.91656 6.69546
#
# Compressibility (1/GPa) = 0.01864199
#
# Stress axis : x y z
#
# Youngs Moduli (GPa) = 60.20760 102.38041 44.02060
#
# Poissons Ratio (x) = 0.40686 0.31775
# Poissons Ratio (y) = 0.23926 0.17756
# Poissons Ratio (z) = 0.43458 0.41296
#
# Static dielectric constant tensor:
#      x y z
#    x 3.368060 0.000000 0.000000 
#    y 0.000000 3.909300 0.000000 
#    z 0.000000 0.000000 3.391220 
# 
# 
# High freq. dielectric constant tensor:
#      x y z
#    x 1.749570 0.000000 0.000000 
#    y 0.000000 1.784550 0.000000 
#    z 0.000000 0.000000 1.729680 
# 
# From -- ./inp_files/27416.got.cif
#   From: 2010.03.12/outbox.cif.g09.slc.cpg/sg51_14_cif.got.tgz:27416.got - 2010.04.16 13:43:02.
