data_PCOD8213690
_publ_section_title
;
Structure prediction by ZEFSAII (Michael W. Deem and Ramdas Pophale) SiO2 
 PCOD8213690
Probable space group: P M M A
;
_chemical_formula_sum "Si O2"
_cell_formula_units_Z 40
_cell_length_a 9.053241
_cell_length_b 8.800131
_cell_length_c 25.620925
_cell_angle_alpha 90.000000
_cell_angle_beta 90.000000
_cell_angle_gamma 90.000000
_cell_volume 2041.211582
_symmetry_space_group_name_H-M "P M M A"
_symmetry_group_IT_number 51
_symmetry_cell_setting 'orthorhombic'
loop_
_space_group_symop_operation_xyz
x,y,z
1/2-x,-y,z
1/2+x,-y,-z
-x,y,-z
-x,-y,-z
1/2+x,y,-z
1/2-x,y,z
x,-y,z
loop_
_atom_site_type_symbol
_atom_site_label
_atom_site_fract_x
_atom_site_fract_y
_atom_site_fract_z
Si Si1 0.581304 0.179729 0.448242
Si Si2 0.578264 0.177408 0.253890
Si Si3 0.918364 0.679238 0.649379
Si Si4 0.422530 0.173166 0.051837
Si Si5 0.577890 0.676551 0.841370
O O1 0.500000 0.240051 0.500000
O O2 0.750000 0.234048 0.451053
O O3 0.507069 0.249562 0.397900
O O4 0.568839 0.000000 0.443791
O O5 0.750000 0.219045 0.258276
O O6 0.489111 0.271442 0.296449
O O7 0.519474 0.223423 0.197349
O O8 0.551263 0.000000 0.263300
O O9 0.750000 0.737137 0.647322
O O10 0.926821 0.500000 0.644902
O O11 0.250000 0.183336 0.041822
O O12 0.470079 0.277421 0.100360
O O13 0.472381 0.000000 0.063158
O O14 0.500000 0.237441 0.000000
O O15 0.750000 0.713736 0.831847
O O16 0.544125 0.500000 0.832397
#
# Coordination Sequence:
#
# PCOD8213690 Si02
#       5
#     8   8   8   8   8
#     4  10  21  38  61  88 117 151 192 235 279 329
#     4  11  24  40  59  84 112 144 185 231 279 333
#     4  11  24  40  59  85 116 150 188 230 279 334
#     4   9  18  33  53  77 107 144 185 228 273 323
#     4  10  21  37  57  82 112 146 185 228 276 332
#
# _framework density 19.596205000000001
#
# number of rings (size 3 to 8) (size 9 to 14) (size 15 to 20)
#    0.000    1.800    0.000    3.600    0.000   12.000 
#    0.000    2.000    0.000    0.000    0.000    0.000 
#    0.000    0.000    0.000    0.000    0.000    0.000 
#
# Total GULP energy -496208.902561 kJ/mol
# GULP energy per Si atom -12405.222564 kJ/mol
# Density = 1.955160 g / cm^3
# Si number density = 19.596205 Si / 1000 Ang^3
#
#
#
# Elastic Constant Matrix: (Units=GPa)
#
#
# Indices 1 2 3 4 5 6 
#
# 1 130.6745 53.5844 73.0147 0.0000 0.0000 0.0000
# 2 53.5844 81.4811 41.7626 0.0000 0.0000 0.0000
# 3 73.0147 41.7626 139.4389 0.0000 0.0000 0.0000
# 4 0.0000 0.0000 0.0000 89.7720 0.0000 0.0000
# 5 0.0000 0.0000 0.0000 0.0000 45.0394 0.0000
# 6 0.0000 0.0000 0.0000 0.0000 0.0000 64.1341
#
#
#
# Elastic Compliance Matrix: (Units=1/GPa)
#
#
# Indices 1 2 3 4 5 6 
#
# 1 0.012844 -0.005906 -0.004957 0.000000 0.000000 0.000000
# 2 -0.005906 0.017214 -0.002063 0.000000 0.000000 0.000000
# 3 -0.004957 -0.002063 0.010385 0.000000 0.000000 0.000000
# 4 0.000000 0.000000 0.000000 0.011139 0.000000 0.000000
# 5 0.000000 0.000000 0.000000 0.000000 0.022203 0.000000
# 6 0.000000 0.000000 0.000000 0.000000 0.000000 0.015592
#
#
# Mechanical properties :
#
#
# Convention : Reuss Voigt Hill
#
# Bulk Modulus (GPa) = 68.53302 76.47977 72.50639
# Shear Modulus (GPa) = 41.63436 52.00464 46.81950
#
# Velocity S-wave (km/s) = 4.61435 5.15710 4.89326
# Velocity P-wave (km/s) = 7.96481 8.63560 8.30698
#
# Compressibility (1/GPa) = 0.01459151
#
# Stress axis : x y z
#
# Youngs Moduli (GPa) = 77.85753 58.09147 96.29305
#
# Poissons Ratio (x) = 0.34309 0.47729
# Poissons Ratio (y) = 0.45983 0.19866
# Poissons Ratio (z) = 0.38591 0.11985
#
# Static dielectric constant tensor:
#      x y z
#    x 3.694900 0.000000 0.000000 
#    y 0.000000 3.548580 0.000000 
#    z 0.000000 0.000000 3.661950 
# 
# 
# High freq. dielectric constant tensor:
#      x y z
#    x 1.770050 0.000000 0.000000 
#    y 0.000000 1.762090 0.000000 
#    z 0.000000 0.000000 1.779900 
# 
# From -- ./inp_files/34284.got.cif
#   From: 2010.03.12/outbox.cif.g09.slc.cpg/sg51_18_cif.got.tgz:34284.got - 2010.04.16 13:43:02.
