data_PCOD8213626
_publ_section_title
;
Structure prediction by ZEFSAII (Michael W. Deem and Ramdas Pophale) SiO2 
 PCOD8213626
Probable space group: P M M A
;
_chemical_formula_sum "Si O2"
_cell_formula_units_Z 48
_cell_length_a 18.551359
_cell_length_b 9.177256
_cell_length_c 15.167003
_cell_angle_alpha 90.000000
_cell_angle_beta 90.000000
_cell_angle_gamma 90.000000
_cell_volume 2582.190916
_symmetry_space_group_name_H-M "P M M A"
_symmetry_group_IT_number 51
_symmetry_cell_setting 'orthorhombic'
loop_
_space_group_symop_operation_xyz
x,y,z
1/2-x,-y,z
1/2+x,-y,-z
-x,y,-z
-x,-y,-z
1/2+x,y,-z
1/2-x,y,z
x,-y,z
loop_
_atom_site_type_symbol
_atom_site_label
_atom_site_fract_x
_atom_site_fract_y
_atom_site_fract_z
Si Si1 0.168930 0.330198 0.399918
Si Si2 0.081016 0.169674 0.255382
Si Si3 0.913488 0.170517 0.248195
Si Si4 0.834095 0.330316 0.091183
Si Si5 0.333531 0.831153 0.085001
Si Si6 0.166464 0.333111 0.602970
O O1 0.250000 0.275065 0.379126
O O2 0.163311 0.500000 0.379282
O O3 0.111313 0.247334 0.341402
O O4 0.149964 0.298955 0.501365
O O5 0.121343 0.226836 0.168103
O O6 0.997556 0.206686 0.246145
O O7 0.095719 0.000000 0.267743
O O8 0.877122 0.255614 0.168960
O O9 0.881728 0.224077 0.340636
O O10 0.898017 0.000000 0.237364
O O11 0.750000 0.301607 0.107676
O O12 0.852647 0.500000 0.089137
O O13 0.859006 0.260671 0.999115
O O14 0.250000 0.804133 0.106429
O O15 0.349616 0.000000 0.065047
O O16 0.250000 0.305570 0.624863
O O17 0.146469 0.500000 0.625794
#
# Coordination Sequence:
#
# PCOD8213626 Si02
#       6
#     8   8   8   8   8   8
#     4   9  19  36  58  82 106 136 177 223 267 312
#     4  10  22  37  53  78 112 146 177 214 262 314
#     4  11  23  36  52  78 111 144 178 217 262 314
#     4  10  21  37  57  80 105 135 174 221 269 315
#     4   9  18  35  58  79 101 135 177 217 259 310
#     4   9  19  37  58  79 105 138 178 223 268 314
#
# _framework density 18.588865999999999
#
# number of rings (size 3 to 8) (size 9 to 14) (size 15 to 20)
#    0.000    2.333    0.000    3.000    0.000    8.333 
#    0.000   10.000    0.000    0.000    0.000    0.000 
#    0.000    0.000    0.000    0.000    0.000    0.000 
#
# Total GULP energy -595378.173667 kJ/mol
# GULP energy per Si atom -12403.711951 kJ/mol
# Density = 1.854656 g / cm^3
# Si number density = 18.588866 Si / 1000 Ang^3
#
#
#
# Elastic Constant Matrix: (Units=GPa)
#
#
# Indices 1 2 3 4 5 6 
#
# 1 86.1195 58.9031 74.6642 0.0000 0.0000 0.0000
# 2 58.9031 80.3378 68.2009 0.0000 0.0000 0.0000
# 3 74.6642 68.2009 136.9062 0.0000 0.0000 0.0000
# 4 0.0000 0.0000 0.0000 42.2535 0.0000 0.0000
# 5 0.0000 0.0000 0.0000 0.0000 23.9186 0.0000
# 6 0.0000 0.0000 0.0000 0.0000 0.0000 29.4443
#
#
#
# Elastic Compliance Matrix: (Units=1/GPa)
#
#
# Indices 1 2 3 4 5 6 
#
# 1 0.028380 -0.013289 -0.008858 0.000000 0.000000 0.000000
# 2 -0.013289 0.027791 -0.006597 0.000000 0.000000 0.000000
# 3 -0.008858 -0.006597 0.015422 0.000000 0.000000 0.000000
# 4 0.000000 0.000000 0.000000 0.023667 0.000000 0.000000
# 5 0.000000 0.000000 0.000000 0.000000 0.041808 0.000000
# 6 0.000000 0.000000 0.000000 0.000000 0.000000 0.033962
#
#
# Mechanical properties :
#
#
# Convention : Reuss Voigt Hill
#
# Bulk Modulus (GPa) = 70.89374 78.54444 74.71909
# Shear Modulus (GPa) = 21.43899 25.89630 23.66765
#
# Velocity S-wave (km/s) = 3.39975 3.73649 3.57209
# Velocity P-wave (km/s) = 7.32336 7.80771 7.56941
#
# Compressibility (1/GPa) = 0.01410562
#
# Stress axis : x y z
#
# Youngs Moduli (GPa) = 35.23550 35.98279 64.84428
#
# Poissons Ratio (x) = 0.47816 0.57439
# Poissons Ratio (y) = 0.46823 0.42779
# Poissons Ratio (z) = 0.31212 0.23738
#
# Static dielectric constant tensor:
#      x y z
#    x 3.666360 0.000000 0.000000 
#    y 0.000000 3.395210 0.000000 
#    z 0.000000 0.000000 3.492980 
# 
# 
# High freq. dielectric constant tensor:
#      x y z
#    x 1.718360 0.000000 0.000000 
#    y 0.000000 1.720520 0.000000 
#    z 0.000000 0.000000 1.734050 
# 
# From -- ./inp_files/24699.got.cif
#   From: 2010.03.12/outbox.cif.g09.slc.cpg/sg51_13_cif.got.tgz:24699.got - 2010.04.16 13:43:02.
