data_PCOD8213134
_publ_section_title
;
Structure prediction by ZEFSAII (Michael W. Deem and Ramdas Pophale) SiO2 
 PCOD8213134
Probable space group: P M M A
;
_chemical_formula_sum "Si O2"
_cell_formula_units_Z 48
_cell_length_a 22.844620
_cell_length_b 13.635546
_cell_length_c 7.522145
_cell_angle_alpha 90.000000
_cell_angle_beta 90.000000
_cell_angle_gamma 90.000000
_cell_volume 2343.139644
_symmetry_space_group_name_H-M "P M M A"
_symmetry_group_IT_number 51
_symmetry_cell_setting 'orthorhombic'
loop_
_space_group_symop_operation_xyz
x,y,z
1/2-x,-y,z
1/2+x,-y,-z
-x,y,-z
-x,-y,-z
1/2+x,y,-z
1/2-x,y,z
x,-y,z
loop_
_atom_site_type_symbol
_atom_site_label
_atom_site_fract_x
_atom_site_fract_y
_atom_site_fract_z
Si Si1 0.418954 0.614487 0.639389
Si Si2 0.364694 0.755513 0.101665
Si Si3 0.046434 0.383970 0.248709
Si Si4 0.318635 0.888636 0.404495
Si Si5 0.183187 0.114032 0.811081
Si Si6 0.814222 0.610838 0.127564
O O1 0.409347 0.500000 0.632214
O O2 0.425370 0.648732 0.436724
O O3 0.477333 0.638344 0.751579
O O4 0.361300 0.659098 0.735159
O O5 0.424605 0.690940 0.107562
O O6 0.353290 0.811223 0.285066
O O7 0.363560 0.833579 0.939900
O O8 0.315277 0.673913 0.054541
O O9 0.057469 0.500000 0.205072
O O10 0.250000 0.877064 0.369315
O O11 0.334627 0.865217 0.607971
O O12 0.337733 0.000000 0.357454
O O13 0.250000 0.151314 0.846439
O O14 0.180235 0.000000 0.854021
O O15 0.750000 0.617190 0.215760
O O16 0.830482 0.500000 0.076944
#
# Coordination Sequence:
#
# PCOD8213134 Si02
#       6
#     8   8   8   8   8   8
#     4   8  17  38  61  78 109 156 206 246 280 327
#     4  12  21  30  54  88 119 148 188 237 284 343
#     4   9  19  36  58  84 114 154 201 247 280 324
#     4   9  19  36  56  79 112 155 198 241 291 344
#     4   9  19  36  55  78 113 154 196 242 289 342
#     4  10  21  35  52  81 122 157 184 227 287 347
#
# _framework density 20.485334999999999
#
# number of rings (size 3 to 8) (size 9 to 14) (size 15 to 20)
#    0.000    2.500    0.000    4.500    2.333    2.000 
#    0.000    4.167    0.000    4.000    0.000   18.667 
#    0.000    0.000    0.000    0.000    0.000    0.000 
#
# Total GULP energy -594683.947431 kJ/mol
# GULP energy per Si atom -12389.248905 kJ/mol
# Density = 2.043871 g / cm^3
# Si number density = 20.485335 Si / 1000 Ang^3
#
#
#
# Elastic Constant Matrix: (Units=GPa)
#
#
# Indices 1 2 3 4 5 6 
#
# 1 103.3212 34.9974 51.3864 0.0000 0.0000 0.0000
# 2 34.9974 99.2210 53.3583 0.0000 0.0000 0.0000
# 3 51.3864 53.3583 95.0769 0.0000 0.0000 0.0000
# 4 0.0000 0.0000 0.0000 37.3997 0.0000 0.0000
# 5 0.0000 0.0000 0.0000 0.0000 28.9516 0.0000
# 6 0.0000 0.0000 0.0000 0.0000 0.0000 11.7253
#
#
#
# Elastic Compliance Matrix: (Units=1/GPa)
#
#
# Indices 1 2 3 4 5 6 
#
# 1 0.013333 -0.001185 -0.006541 0.000000 0.000000 0.000000
# 2 -0.001185 0.014540 -0.007520 0.000000 0.000000 0.000000
# 3 -0.006541 -0.007520 0.018273 0.000000 0.000000 0.000000
# 4 0.000000 0.000000 0.000000 0.026738 0.000000 0.000000
# 5 0.000000 0.000000 0.000000 0.000000 0.034540 0.000000
# 6 0.000000 0.000000 0.000000 0.000000 0.000000 0.085285
#
#
# Mechanical properties :
#
#
# Convention : Reuss Voigt Hill
#
# Bulk Modulus (GPa) = 63.87795 64.12257 64.00026
# Shear Modulus (GPa) = 21.88940 26.14045 24.01492
#
# Velocity S-wave (km/s) = 3.27240 3.57607 3.42760
# Velocity P-wave (km/s) = 6.74745 6.95850 6.85379
#
# Compressibility (1/GPa) = 0.01565485
#
# Stress axis : x y z
#
# Youngs Moduli (GPa) = 75.00074 68.77361 54.72510
#
# Poissons Ratio (x) = 0.08152 0.35796
# Poissons Ratio (y) = 0.08890 0.41151
# Poissons Ratio (z) = 0.49058 0.51715
#
# Static dielectric constant tensor:
#      x y z
#    x 3.706910 0.000000 0.000000 
#    y 0.000000 3.753160 0.000000 
#    z 0.000000 0.000000 3.969710 
# 
# 
# High freq. dielectric constant tensor:
#      x y z
#    x 1.771410 0.000000 0.000000 
#    y 0.000000 1.803290 0.000000 
#    z 0.000000 0.000000 1.801080 
# 
# From -- ./inp_files/10808.got.cif
#   From: 2010.03.12/outbox.cif.g09.slc.cpg/sg51_6_cif.got.tgz:10808.got - 2010.04.16 13:43:02.
