data_PCOD8213756
_publ_section_title
;
Structure prediction by ZEFSAII (Michael W. Deem and Ramdas Pophale) SiO2 
 PCOD8213756
Probable space group: P M M A
;
_chemical_formula_sum "Si O2"
_cell_formula_units_Z 44
_cell_length_a 9.311593
_cell_length_b 7.997841
_cell_length_c 29.378022
_cell_angle_alpha 90.000000
_cell_angle_beta 90.000000
_cell_angle_gamma 90.000000
_cell_volume 2187.858864
_symmetry_space_group_name_H-M "P M M A"
_symmetry_group_IT_number 51
_symmetry_cell_setting 'orthorhombic'
loop_
_space_group_symop_operation_xyz
x,y,z
1/2-x,-y,z
1/2+x,-y,-z
-x,y,-z
-x,-y,-z
1/2+x,y,-z
1/2-x,y,z
x,-y,z
loop_
_atom_site_type_symbol
_atom_site_label
_atom_site_fract_x
_atom_site_fract_y
_atom_site_fract_z
Si Si1 0.587249 0.697259 0.292902
Si Si2 0.584151 0.813476 0.892487
Si Si3 0.087826 0.191783 0.375872
Si Si4 0.080095 0.500000 0.047346
Si Si5 0.091047 0.306772 0.541133
Si Si6 0.582486 0.309569 0.190044
O O1 0.750000 0.751754 0.304836
O O2 0.571130 0.500000 0.298938
O O3 0.476614 0.790418 0.325557
O O4 0.549604 0.750375 0.241365
O O5 0.750000 0.782381 0.881788
O O6 0.529335 0.667952 0.926326
O O7 0.501922 0.807165 0.844711
O O8 0.559138 0.000000 0.913532
O O9 0.250000 0.263541 0.376449
O O10 0.990476 0.291700 0.411216
O O11 0.087646 0.000000 0.390508
O O12 0.250000 0.500000 0.038955
O O13 0.000000 0.500000 0.000000
O O14 0.250000 0.223083 0.543887
O O15 0.111258 0.500000 0.529939
O O16 0.000000 0.222122 0.500000
O O17 0.750000 0.293910 0.179582
O O18 0.530847 0.500000 0.183489
#
# Coordination Sequence:
#
# PCOD8213756 Si02
#       6
#     8   8   8   4   8   8
#     4   9  19  36  57  81 109 144 186 230 275 326
#     4  10  21  37  58  85 117 153 193 237 288 347
#     4  11  24  38  52  76 111 147 183 224 271 326
#     4  10  22  40  60  84 116 154 194 242 293 342
#     4  10  21  38  61  85 106 133 173 221 273 331
#     4   9  18  34  57  84 114 148 189 235 283 338
#
# _framework density 20.110984999999999
#
# number of rings (size 3 to 8) (size 9 to 14) (size 15 to 20)
#    0.000    2.182    0.909    2.727    0.000    8.364 
#    0.000    5.455    0.000    0.000    0.000    0.000 
#    0.000    0.000    0.000    0.000    0.000    0.000 
#
# Total GULP energy -545609.020677 kJ/mol
# GULP energy per Si atom -12400.205015 kJ/mol
# Density = 2.006521 g / cm^3
# Si number density = 20.110985 Si / 1000 Ang^3
#
#
#
# Elastic Constant Matrix: (Units=GPa)
#
#
# Indices 1 2 3 4 5 6 
#
# 1 117.7215 31.4923 69.3265 0.0000 0.0000 0.0000
# 2 31.4923 74.9259 38.9080 0.0000 0.0000 0.0000
# 3 69.3265 38.9080 131.4530 0.0000 0.0000 0.0000
# 4 0.0000 0.0000 0.0000 9.9662 0.0000 0.0000
# 5 0.0000 0.0000 0.0000 0.0000 41.9701 0.0000
# 6 0.0000 0.0000 0.0000 0.0000 0.0000 22.4472
#
#
#
# Elastic Compliance Matrix: (Units=1/GPa)
#
#
# Indices 1 2 3 4 5 6 
#
# 1 0.012617 -0.002183 -0.006008 0.000000 0.000000 0.000000
# 2 -0.002183 0.016148 -0.003628 0.000000 0.000000 0.000000
# 3 -0.006008 -0.003628 0.011849 0.000000 0.000000 0.000000
# 4 0.000000 0.000000 0.000000 0.100339 0.000000 0.000000
# 5 0.000000 0.000000 0.000000 0.000000 0.023826 0.000000
# 6 0.000000 0.000000 0.000000 0.000000 0.000000 0.044549
#
#
# Mechanical properties :
#
#
# Convention : Reuss Voigt Hill
#
# Bulk Modulus (GPa) = 58.90596 67.06155 62.98376
# Shear Modulus (GPa) = 20.95332 27.16828 24.06080
#
# Velocity S-wave (km/s) = 3.23133 3.67947 3.46266
# Velocity P-wave (km/s) = 6.57845 7.17422 6.88278
#
# Compressibility (1/GPa) = 0.01697621
#
# Stress axis : x y z
#
# Youngs Moduli (GPa) = 79.26092 61.92624 84.39176
#
# Poissons Ratio (x) = 0.13520 0.50699
# Poissons Ratio (y) = 0.17304 0.30619
# Poissons Ratio (z) = 0.47617 0.22468
#
# Static dielectric constant tensor:
#      x y z
#    x 3.757830 0.000000 0.000000 
#    y 0.000000 3.554500 0.000000 
#    z 0.000000 0.000000 3.549150 
# 
# 
# High freq. dielectric constant tensor:
#      x y z
#    x 1.785550 0.000000 0.000000 
#    y 0.000000 1.776200 0.000000 
#    z 0.000000 0.000000 1.781810 
# 
# From -- ./inp_files/36830.got.cif
#   From: 2010.03.12/outbox.cif.g09.slc.cpg/sg51_19_cif.got.tgz:36830.got - 2010.04.16 13:43:02.
