data_PCOD8213808
_publ_section_title
;
Structure prediction by ZEFSAII (Michael W. Deem and Ramdas Pophale) SiO2 
 PCOD8213808
Probable space group: P M M A
;
_chemical_formula_sum "Si O2"
_cell_formula_units_Z 64
_cell_length_a 14.909316
_cell_length_b 22.690594
_cell_length_c 8.918616
_cell_angle_alpha 90.000000
_cell_angle_beta 90.000000
_cell_angle_gamma 90.000000
_cell_volume 3017.178818
_symmetry_space_group_name_H-M "P M M A"
_symmetry_group_IT_number 51
_symmetry_cell_setting 'orthorhombic'
loop_
_space_group_symop_operation_xyz
x,y,z
1/2-x,-y,z
1/2+x,-y,-z
-x,y,-z
-x,-y,-z
1/2+x,y,-z
1/2-x,y,z
x,-y,z
loop_
_atom_site_type_symbol
_atom_site_label
_atom_site_fract_x
_atom_site_fract_y
_atom_site_fract_z
Si Si1 0.908161 0.350458 0.912590
Si Si2 0.355301 0.242320 0.266669
Si Si3 0.849018 0.616890 0.216893
Si Si4 0.485399 0.433663 0.331620
Si Si5 0.648584 0.140667 0.353558
Si Si6 0.477453 0.866808 0.171490
Si Si7 0.351388 0.934165 0.354908
Si Si8 0.647738 0.275284 0.411894
O O1 0.862776 0.289572 0.864614
O O2 0.919016 0.393657 0.769100
O O3 0.841734 0.377005 0.037195
O O4 0.000000 0.337994 0.000000
O O5 0.250000 0.221156 0.282273
O O6 0.423403 0.189638 0.232383
O O7 0.392009 0.273268 0.419422
O O8 0.750000 0.601981 0.277814
O O9 0.916321 0.564014 0.255336
O O10 0.892978 0.675556 0.298773
O O11 0.500000 0.408586 0.500000
O O12 0.446235 0.500000 0.336305
O O13 0.750000 0.122227 0.304358
O O14 0.573110 0.117011 0.243897
O O15 0.628249 0.114681 0.518044
O O16 0.637508 0.210691 0.343580
O O17 0.414111 0.922260 0.210854
O O18 0.500000 0.859301 0.000000
O O19 0.250000 0.928438 0.298467
O O20 0.369979 0.000000 0.417822
O O21 0.750000 0.293871 0.427468
#
# Coordination Sequence:
#
# PCOD8213808 Si02
#       8
#     8   8   8   8   8   8   8   8
#     4  10  22  37  56  87 122 160 202 252 312 381
#     4  11  22  38  59  86 126 166 210 261 317 378
#     4  10  21  37  60  89 120 160 203 255 321 379
#     4  10  22  41  63  87 119 163 212 261 305 366
#     4  10  22  41  62  90 123 164 214 264 312 370
#     4  12  26  38  59  96 132 171 208 258 323 391
#     4  10  22  45  72  94 122 165 218 271 318 373
#     4   9  19  35  57  84 118 156 204 258 310 363
#
# _framework density 21.211869
#
# number of rings (size 3 to 8) (size 9 to 14) (size 15 to 20)
#    0.000    1.750    1.250    2.250    5.250    4.750 
#    0.000    0.625    0.000    4.125    0.000    0.000 
#    0.000    0.000    0.000    0.000    0.000    0.000 
#
# Total GULP energy -793101.096892 kJ/mol
# GULP energy per Si atom -12392.204639 kJ/mol
# Density = 2.116359 g / cm^3
# Si number density = 21.211869 Si / 1000 Ang^3
#
#
#
# Elastic Constant Matrix: (Units=GPa)
#
#
# Indices 1 2 3 4 5 6 
#
# 1 88.5035 23.5636 38.3805 0.0000 0.0000 0.0000
# 2 23.5636 69.0404 28.5942 0.0000 0.0000 0.0000
# 3 38.3805 28.5942 125.2308 0.0000 0.0000 0.0000
# 4 0.0000 0.0000 0.0000 16.8136 0.0000 0.0000
# 5 0.0000 0.0000 0.0000 0.0000 25.7489 0.0000
# 6 0.0000 0.0000 0.0000 0.0000 0.0000 25.4084
#
#
#
# Elastic Compliance Matrix: (Units=1/GPa)
#
#
# Indices 1 2 3 4 5 6 
#
# 1 0.013654 -0.003233 -0.003447 0.000000 0.000000 0.000000
# 2 -0.003233 0.016762 -0.002837 0.000000 0.000000 0.000000
# 3 -0.003447 -0.002837 0.009689 0.000000 0.000000 0.000000
# 4 0.000000 0.000000 0.000000 0.059476 0.000000 0.000000
# 5 0.000000 0.000000 0.000000 0.000000 0.038837 0.000000
# 6 0.000000 0.000000 0.000000 0.000000 0.000000 0.039357
#
#
# Mechanical properties :
#
#
# Convention : Reuss Voigt Hill
#
# Bulk Modulus (GPa) = 47.45179 51.53906 49.49542
# Shear Modulus (GPa) = 24.52998 26.40994 25.46996
#
# Velocity S-wave (km/s) = 3.40432 3.53236 3.46893
# Velocity P-wave (km/s) = 6.15398 6.40209 6.27926
#
# Compressibility (1/GPa) = 0.02107402
#
# Stress axis : x y z
#
# Youngs Moduli (GPa) = 73.23669 59.65714 103.20702
#
# Poissons Ratio (x) = 0.19286 0.35572
# Poissons Ratio (y) = 0.23676 0.29276
# Poissons Ratio (z) = 0.25242 0.16923
#
# Static dielectric constant tensor:
#      x y z
#    x 3.903230 0.000000 0.000000 
#    y 0.000000 3.742570 0.000000 
#    z 0.000000 0.000000 3.968850 
# 
# 
# High freq. dielectric constant tensor:
#      x y z
#    x 1.834580 0.000000 0.000000 
#    y 0.000000 1.817350 0.000000 
#    z 0.000000 0.000000 1.827200 
# 
# From -- ./inp_files/8732.got.cif
#   From: 2010.03.12/outbox.cif.g09.slc.cpg/sg51_5_cif.got.tgz:8732.got - 2010.04.16 13:43:02.
