data_PCOD8213305
_publ_section_title
;
Structure prediction by ZEFSAII (Michael W. Deem and Ramdas Pophale) SiO2 
 PCOD8213305
Probable space group: P M M A
;
_chemical_formula_sum "Si O2"
_cell_formula_units_Z 48
_cell_length_a 9.307790
_cell_length_b 9.794468
_cell_length_c 30.199820
_cell_angle_alpha 90.000000
_cell_angle_beta 90.000000
_cell_angle_gamma 90.000000
_cell_volume 2753.162100
_symmetry_space_group_name_H-M "P M M A"
_symmetry_group_IT_number 51
_symmetry_cell_setting 'orthorhombic'
loop_
_space_group_symop_operation_xyz
x,y,z
1/2-x,-y,z
1/2+x,-y,-z
-x,y,-z
-x,-y,-z
1/2+x,y,-z
1/2-x,y,z
x,-y,z
loop_
_atom_site_type_symbol
_atom_site_label
_atom_site_fract_x
_atom_site_fract_y
_atom_site_fract_z
Si Si1 0.082639 0.152866 0.713578
Si Si2 0.920954 0.348392 0.878371
Si Si3 0.914878 0.841805 0.388485
Si Si4 0.582363 0.658072 0.544419
Si Si5 0.418081 0.157357 0.043681
Si Si6 0.414615 0.340282 0.220002
O O1 0.250000 0.164380 0.723379
O O2 0.050448 0.187247 0.662646
O O3 0.003491 0.260231 0.743929
O O4 0.028438 0.000000 0.724523
O O5 0.750000 0.349995 0.877940
O O6 0.978347 0.500000 0.890090
O O7 0.979266 0.242731 0.914823
O O8 0.973378 0.304840 0.829326
O O9 0.750000 0.803021 0.399282
O O10 0.022697 0.748497 0.415857
O O11 0.942262 0.000000 0.400050
O O12 0.500000 0.700612 0.500000
O O13 0.750000 0.688914 0.537695
O O14 0.554727 0.500000 0.556003
O O15 0.250000 0.183250 0.036194
O O16 0.451823 0.000000 0.053790
O O17 0.500000 0.207680 0.000000
O O18 0.250000 0.295153 0.224403
O O19 0.432492 0.500000 0.229263
#
# Coordination Sequence:
#
# PCOD8213305 Si02
#       6
#     8   8   8   8   8   8
#     4   9  19  35  52  72 100 132 165 201 242 289
#     4   8  15  29  47  66  90 120 153 190 231 276
#     4   9  19  36  55  74  99 132 168 204 243 289
#     4  10  21  36  54  77 104 133 166 204 245 290
#     4   9  17  29  45  65  89 117 150 188 230 277
#     4   9  18  32  50  73  99 126 160 202 244 288
#
# _framework density 17.434498999999999
#
# number of rings (size 3 to 8) (size 9 to 14) (size 15 to 20)
#    0.000    3.000    0.000    2.500    0.000    4.667 
#    0.000    7.500    0.000    3.000    0.000    0.000 
#    0.000    0.000    0.000    0.000    0.000    0.000 
#
# Total GULP energy -595133.331493 kJ/mol
# GULP energy per Si atom -12398.611073 kJ/mol
# Density = 1.739482 g / cm^3
# Si number density = 17.434499 Si / 1000 Ang^3
#
#
#
# Elastic Constant Matrix: (Units=GPa)
#
#
# Indices 1 2 3 4 5 6 
#
# 1 62.0938 43.9810 60.5133 0.0000 0.0000 0.0000
# 2 43.9810 76.8895 76.0856 0.0000 0.0000 0.0000
# 3 60.5133 76.0856 128.5615 0.0000 0.0000 0.0000
# 4 0.0000 0.0000 0.0000 40.7314 0.0000 0.0000
# 5 0.0000 0.0000 0.0000 0.0000 31.9995 0.0000
# 6 0.0000 0.0000 0.0000 0.0000 0.0000 29.2179
#
#
#
# Elastic Compliance Matrix: (Units=1/GPa)
#
#
# Indices 1 2 3 4 5 6 
#
# 1 0.031729 -0.008134 -0.010121 0.000000 0.000000 0.000000
# 2 -0.008134 0.033472 -0.015981 0.000000 0.000000 0.000000
# 3 -0.010121 -0.015981 0.022000 0.000000 0.000000 0.000000
# 4 0.000000 0.000000 0.000000 0.024551 0.000000 0.000000
# 5 0.000000 0.000000 0.000000 0.000000 0.031250 0.000000
# 6 0.000000 0.000000 0.000000 0.000000 0.000000 0.034226
#
#
# Mechanical properties :
#
#
# Convention : Reuss Voigt Hill
#
# Bulk Modulus (GPa) = 53.39101 69.85608 61.62355
# Shear Modulus (GPa) = 19.84567 26.18742 23.01654
#
# Velocity S-wave (km/s) = 3.37753 3.87983 3.63736
# Velocity P-wave (km/s) = 6.77499 7.76051 7.28443
#
# Compressibility (1/GPa) = 0.01872974
#
# Stress axis : x y z
#
# Youngs Moduli (GPa) = 31.51649 29.87547 45.45448
#
# Poissons Ratio (x) = 0.24302 0.46004
# Poissons Ratio (y) = 0.25636 0.72640
# Poissons Ratio (z) = 0.31897 0.47744
#
# Static dielectric constant tensor:
#      x y z
#    x 2.992640 0.000000 0.000000 
#    y 0.000000 3.276610 0.000000 
#    z 0.000000 0.000000 3.337290 
# 
# 
# High freq. dielectric constant tensor:
#      x y z
#    x 1.654620 0.000000 0.000000 
#    y 0.000000 1.674290 0.000000 
#    z 0.000000 0.000000 1.680600 
# 
# From -- ./inp_files/37046.got.cif
#   From: 2010.03.12/outbox.cif.g09.slc.cpg/sg51_19_cif.got.tgz:37046.got - 2010.04.16 13:43:02.
