data_PCOD8213821
_publ_section_title
;
Structure prediction by ZEFSAII (Michael W. Deem and Ramdas Pophale) SiO2 
 PCOD8213821
Probable space group: P M M A
;
_chemical_formula_sum "Si O2"
_cell_formula_units_Z 48
_cell_length_a 18.027033
_cell_length_b 13.905630
_cell_length_c 9.357606
_cell_angle_alpha 90.000000
_cell_angle_beta 90.000000
_cell_angle_gamma 90.000000
_cell_volume 2345.738947
_symmetry_space_group_name_H-M "P M M A"
_symmetry_group_IT_number 51
_symmetry_cell_setting 'orthorhombic'
loop_
_space_group_symop_operation_xyz
x,y,z
1/2-x,-y,z
1/2+x,-y,-z
-x,y,-z
-x,-y,-z
1/2+x,y,-z
1/2-x,y,z
x,-y,z
loop_
_atom_site_type_symbol
_atom_site_label
_atom_site_fract_x
_atom_site_fract_y
_atom_site_fract_z
Si Si1 0.914306 0.392832 0.011449
Si Si2 0.930214 0.777886 0.596650
Si Si3 0.935405 0.111482 0.885323
Si Si4 0.666352 0.111882 0.386474
Si Si5 0.836407 0.391646 0.707325
Si Si6 0.162734 0.786948 0.899790
O O1 0.907375 0.500000 0.076714
O O2 0.873959 0.386457 0.860778
O O3 0.874130 0.318087 0.115206
O O4 0.000000 0.362821 0.000000
O O5 0.954789 0.823467 0.747793
O O6 0.883384 0.860551 0.520154
O O7 0.879772 0.682466 0.606470
O O8 0.000000 0.749136 0.500000
O O9 0.923349 0.000000 0.842423
O O10 0.861710 0.154707 0.958594
O O11 0.000000 0.123622 0.000000
O O12 0.750000 0.145273 0.418375
O O13 0.636085 0.158189 0.241177
O O14 0.660708 0.000000 0.360905
O O15 0.750000 0.362265 0.719488
O O16 0.844086 0.500000 0.645134
O O17 0.250000 0.775441 0.908426
#
# Coordination Sequence:
#
# PCOD8213821 Si02
#       6
#     8   8   8   8   8   8
#     4  10  21  37  63  96 128 161 204 260 318 375
#     4  12  25  39  64  94 125 167 212 262 321 391
#     4  11  24  41  62  89 124 162 212 270 318 373
#     4  10  23  42  61  87 129 172 208 255 316 378
#     4  10  22  42  66  92 126 168 213 264 321 379
#     4  11  22  38  64  93 123 164 213 262 316 372
#
# _framework density 20.462634999999999
#
# number of rings (size 3 to 8) (size 9 to 14) (size 15 to 20)
#    0.000    1.333    1.667    3.500    2.333    5.667 
#    0.000    0.833    0.000    1.000    0.000    0.000 
#    0.000    0.000    0.000    0.000    0.000    0.000 
#
# Total GULP energy -595308.613864 kJ/mol
# GULP energy per Si atom -12402.262789 kJ/mol
# Density = 2.041606 g / cm^3
# Si number density = 20.462635 Si / 1000 Ang^3
#
#
#
# Elastic Constant Matrix: (Units=GPa)
#
#
# Indices 1 2 3 4 5 6 
#
# 1 127.5825 59.9633 53.7776 0.0000 0.0000 0.0000
# 2 59.9633 111.1880 41.4572 0.0000 0.0000 0.0000
# 3 53.7776 41.4572 97.7570 0.0000 0.0000 0.0000
# 4 0.0000 0.0000 0.0000 37.8804 0.0000 0.0000
# 5 0.0000 0.0000 0.0000 0.0000 37.1972 0.0000
# 6 0.0000 0.0000 0.0000 0.0000 0.0000 33.0036
#
#
#
# Elastic Compliance Matrix: (Units=1/GPa)
#
#
# Indices 1 2 3 4 5 6 
#
# 1 0.012012 -0.004768 -0.004586 0.000000 0.000000 0.000000
# 2 -0.004768 0.012576 -0.002710 0.000000 0.000000 0.000000
# 3 -0.004586 -0.002710 0.013902 0.000000 0.000000 0.000000
# 4 0.000000 0.000000 0.000000 0.026399 0.000000 0.000000
# 5 0.000000 0.000000 0.000000 0.000000 0.026884 0.000000
# 6 0.000000 0.000000 0.000000 0.000000 0.000000 0.030300
#
#
# Mechanical properties :
#
#
# Convention : Reuss Voigt Hill
#
# Bulk Modulus (GPa) = 69.63339 71.88039 70.75689
# Shear Modulus (GPa) = 33.11537 33.70486 33.41012
#
# Velocity S-wave (km/s) = 4.02722 4.06290 4.04510
# Velocity P-wave (km/s) = 7.46512 7.56396 7.51470
#
# Compressibility (1/GPa) = 0.01436093
#
# Stress axis : x y z
#
# Youngs Moduli (GPa) = 83.24912 79.51822 71.93437
#
# Poissons Ratio (x) = 0.37916 0.32989
# Poissons Ratio (y) = 0.39695 0.19495
# Poissons Ratio (z) = 0.38178 0.21550
#
# Static dielectric constant tensor:
#      x y z
#    x 3.671490 0.000000 0.000000 
#    y 0.000000 4.071240 0.000000 
#    z 0.000000 0.000000 3.737540 
# 
# 
# High freq. dielectric constant tensor:
#      x y z
#    x 1.813870 0.000000 0.000000 
#    y 0.000000 1.816310 0.000000 
#    z 0.000000 0.000000 1.784220 
# 
# From -- ./inp_files/9571.got.cif
#   From: 2010.03.12/outbox.cif.g09.slc.cpg/sg51_5_cif.got.tgz:9571.got - 2010.04.16 13:43:02.
