data_PCOD8213655
_publ_section_title
;
Structure prediction by ZEFSAII (Michael W. Deem and Ramdas Pophale) SiO2 
 PCOD8213655
Probable space group: P M M A
;
_chemical_formula_sum "Si O2"
_cell_formula_units_Z 48
_cell_length_a 9.153915
_cell_length_b 8.945124
_cell_length_c 30.671894
_cell_angle_alpha 90.000000
_cell_angle_beta 90.000000
_cell_angle_gamma 90.000000
_cell_volume 2511.503775
_symmetry_space_group_name_H-M "P M M A"
_symmetry_group_IT_number 51
_symmetry_cell_setting 'orthorhombic'
loop_
_space_group_symop_operation_xyz
x,y,z
1/2-x,-y,z
1/2+x,-y,-z
-x,y,-z
-x,-y,-z
1/2+x,y,-z
1/2-x,y,z
x,-y,z
loop_
_atom_site_type_symbol
_atom_site_label
_atom_site_fract_x
_atom_site_fract_y
_atom_site_fract_z
Si Si1 0.420761 0.827452 0.543950
Si Si2 0.078633 0.827187 0.131233
Si Si3 0.078631 0.327175 0.789880
Si Si4 0.920560 0.328988 0.956896
Si Si5 0.417539 0.824312 0.288819
Si Si6 0.083173 0.324629 0.378428
O O1 0.500000 0.774670 0.500000
O O2 0.250000 0.798861 0.537949
O O3 0.478783 0.727954 0.583166
O O4 0.456304 0.000000 0.554035
O O5 0.250000 0.800409 0.138487
O O6 0.029834 0.772832 0.083484
O O7 0.992993 0.729767 0.165950
O O8 0.036798 0.000000 0.136784
O O9 0.250000 0.300130 0.793067
O O10 0.038860 0.500000 0.783404
O O11 0.018491 0.235557 0.749296
O O12 0.750000 0.314321 0.965506
O O13 0.965734 0.500000 0.946973
O O14 0.000000 0.268394 0.000000
O O15 0.250000 0.780932 0.278654
O O16 0.469796 0.752571 0.334050
O O17 0.438246 0.000000 0.292558
O O18 0.250000 0.278860 0.389253
O O19 0.066593 0.500000 0.372161
#
# Coordination Sequence:
#
# PCOD8213655 Si02
#       6
#     8   8   8   8   8   8
#     4  10  21  37  58  83 111 146 187 230 277 327
#     4  10  21  37  57  81 109 143 184 226 270 324
#     4  11  24  39  56  81 112 145 182 225 273 324
#     4   9  18  33  53  77 106 141 180 222 268 319
#     4  10  21  38  61  86 111 143 183 225 271 325
#     4  10  21  37  58  84 113 146 184 225 271 324
#
# _framework density 19.112054000000001
#
# number of rings (size 3 to 8) (size 9 to 14) (size 15 to 20)
#    0.000    2.000    0.000    3.000    0.000    9.333 
#    0.000    1.667    0.000    0.000    0.000    0.000 
#    0.000    0.000    0.000    0.000    0.000    0.000 
#
# Total GULP energy -595463.134225 kJ/mol
# GULP energy per Si atom -12405.481963 kJ/mol
# Density = 1.906855 g / cm^3
# Si number density = 19.112054 Si / 1000 Ang^3
#
#
#
# Elastic Constant Matrix: (Units=GPa)
#
#
# Indices 1 2 3 4 5 6 
#
# 1 65.9513 35.1239 55.6792 0.0000 0.0000 0.0000
# 2 35.1239 66.5205 43.7073 0.0000 0.0000 0.0000
# 3 55.6792 43.7073 138.0972 0.0000 0.0000 0.0000
# 4 0.0000 0.0000 0.0000 39.1063 0.0000 0.0000
# 5 0.0000 0.0000 0.0000 0.0000 34.8834 0.0000
# 6 0.0000 0.0000 0.0000 0.0000 0.0000 28.2671
#
#
#
# Elastic Compliance Matrix: (Units=1/GPa)
#
#
# Indices 1 2 3 4 5 6 
#
# 1 0.026533 -0.008814 -0.007908 0.000000 0.000000 0.000000
# 2 -0.008814 0.021908 -0.003380 0.000000 0.000000 0.000000
# 3 -0.007908 -0.003380 0.011500 0.000000 0.000000 0.000000
# 4 0.000000 0.000000 0.000000 0.025571 0.000000 0.000000
# 5 0.000000 0.000000 0.000000 0.000000 0.028667 0.000000
# 6 0.000000 0.000000 0.000000 0.000000 0.000000 0.035377
#
#
# Mechanical properties :
#
#
# Convention : Reuss Voigt Hill
#
# Bulk Modulus (GPa) = 50.66861 59.95441 55.31151
# Shear Modulus (GPa) = 25.46615 29.52193 27.49404
#
# Velocity S-wave (km/s) = 3.65425 3.93450 3.79696
# Velocity P-wave (km/s) = 6.66136 7.21654 6.94450
#
# Compressibility (1/GPa) = 0.01973608
#
# Stress axis : x y z
#
# Youngs Moduli (GPa) = 37.68838 45.64609 86.95929
#
# Poissons Ratio (x) = 0.40232 0.68771
# Poissons Ratio (y) = 0.33218 0.29393
# Poissons Ratio (z) = 0.29806 0.15429
#
# Static dielectric constant tensor:
#      x y z
#    x 3.475200 0.000000 0.000000 
#    y 0.000000 3.561600 0.000000 
#    z 0.000000 0.000000 3.670680 
# 
# 
# High freq. dielectric constant tensor:
#      x y z
#    x 1.738970 0.000000 0.000000 
#    y 0.000000 1.749830 0.000000 
#    z 0.000000 0.000000 1.756870 
# 
# From -- ./inp_files/37004.got.cif
#   From: 2010.03.12/outbox.cif.g09.slc.cpg/sg51_19_cif.got.tgz:37004.got - 2010.04.16 13:43:02.
