data_PCOD8213673
_publ_section_title
;
Structure prediction by ZEFSAII (Michael W. Deem and Ramdas Pophale) SiO2 
 PCOD8213673
Probable space group: P M M A
;
_chemical_formula_sum "Si O2"
_cell_formula_units_Z 64
_cell_length_a 8.855790
_cell_length_b 15.212912
_cell_length_c 24.940314
_cell_angle_alpha 90.000000
_cell_angle_beta 90.000000
_cell_angle_gamma 90.000000
_cell_volume 3360.017811
_symmetry_space_group_name_H-M "P M M A"
_symmetry_group_IT_number 51
_symmetry_cell_setting 'orthorhombic'
loop_
_space_group_symop_operation_xyz
x,y,z
1/2-x,-y,z
1/2+x,-y,-z
-x,y,-z
-x,-y,-z
1/2+x,y,-z
1/2-x,y,z
x,-y,z
loop_
_atom_site_type_symbol
_atom_site_label
_atom_site_fract_x
_atom_site_fract_y
_atom_site_fract_z
Si Si1 0.920812 0.307449 0.735834
Si Si2 0.571973 0.264106 0.444469
Si Si3 0.073957 0.866253 0.712702
Si Si4 0.423306 0.598167 0.367980
Si Si5 0.076401 0.715572 0.143768
Si Si6 0.076262 0.095174 0.178924
Si Si7 0.923104 0.902441 0.604033
Si Si8 0.927182 0.400551 0.055257
O O1 0.750000 0.269221 0.732146
O O2 0.938937 0.391000 0.696727
O O3 0.954764 0.328706 0.798063
O O4 0.039161 0.236913 0.714066
O O5 0.500000 0.296228 0.500000
O O6 0.750000 0.263410 0.450294
O O7 0.526158 0.331968 0.398280
O O8 0.518444 0.165800 0.430987
O O9 0.250000 0.882248 0.703412
O O10 0.023569 0.910591 0.767930
O O11 0.983999 0.909623 0.664247
O O12 0.250000 0.612761 0.385425
O O13 0.477356 0.500000 0.382425
O O14 0.250000 0.703977 0.126615
O O15 0.029840 0.819679 0.143532
O O16 0.972694 0.665337 0.102113
O O17 0.250000 0.108667 0.196044
O O18 0.055021 0.000000 0.148852
O O19 0.750000 0.870252 0.604911
O O20 0.936621 0.000000 0.578365
O O21 0.750000 0.396914 0.047922
O O22 0.981437 0.500000 0.068789
O O23 0.000000 0.367667 0.000000
#
# Coordination Sequence:
#
# PCOD8213673 Si02
#       8
#     8   8   8   8   8   8   8   8
#     4   9  18  34  56  81 116 155 189 224 273 334
#     4  12  26  44  65  86 111 145 184 234 287 340
#     4  11  20  30  50  81 115 149 186 230 277 326
#     4  10  21  39  64  90 116 149 189 232 278 334
#     4   9  18  32  54  85 116 150 190 232 277 330
#     4   9  18  33  52  76 111 155 196 231 272 327
#     4  11  23  39  60  84 112 147 185 228 279 338
#     4  10  21  37  57  81 110 147 190 238 289 338
#
# _framework density 19.047518
#
# number of rings (size 3 to 8) (size 9 to 14) (size 15 to 20)
#    0.000    1.875    1.250    4.125    0.000    6.750 
#    0.000    1.250    0.000    0.375    0.000    0.000 
#    0.000    0.000    0.000    0.000    0.000    0.000 
#
# Total GULP energy -793417.369779 kJ/mol
# GULP energy per Si atom -12397.146403 kJ/mol
# Density = 1.900417 g / cm^3
# Si number density = 19.047518 Si / 1000 Ang^3
#
#
#
# Elastic Constant Matrix: (Units=GPa)
#
#
# Indices 1 2 3 4 5 6 
#
# 1 100.7506 41.6495 38.7253 0.0000 0.0000 0.0000
# 2 41.6495 108.1972 52.8078 0.0000 0.0000 0.0000
# 3 38.7253 52.8078 98.5596 0.0000 0.0000 0.0000
# 4 0.0000 0.0000 0.0000 12.4347 0.0000 0.0000
# 5 0.0000 0.0000 0.0000 0.0000 31.5907 0.0000
# 6 0.0000 0.0000 0.0000 0.0000 0.0000 20.3864
#
#
#
# Elastic Compliance Matrix: (Units=1/GPa)
#
#
# Indices 1 2 3 4 5 6 
#
# 1 0.012489 -0.003267 -0.003157 0.000000 0.000000 0.000000
# 2 -0.003267 0.013370 -0.005880 0.000000 0.000000 0.000000
# 3 -0.003157 -0.005880 0.014537 0.000000 0.000000 0.000000
# 4 0.000000 0.000000 0.000000 0.080420 0.000000 0.000000
# 5 0.000000 0.000000 0.000000 0.000000 0.031655 0.000000
# 6 0.000000 0.000000 0.000000 0.000000 0.000000 0.049052
#
#
# Mechanical properties :
#
#
# Convention : Reuss Voigt Hill
#
# Bulk Modulus (GPa) = 63.33586 63.76363 63.54974
# Shear Modulus (GPa) = 21.60824 24.50403 23.05613
#
# Velocity S-wave (km/s) = 3.37180 3.59063 3.48293
# Velocity P-wave (km/s) = 6.96293 7.12312 7.04348
#
# Compressibility (1/GPa) = 0.01578884
#
# Stress axis : x y z
#
# Youngs Moduli (GPa) = 80.06783 74.79595 68.79051
#
# Poissons Ratio (x) = 0.24435 0.21716
# Poissons Ratio (y) = 0.26157 0.40448
# Poissons Ratio (z) = 0.25276 0.43979
#
# Static dielectric constant tensor:
#      x y z
#    x 3.417380 0.000000 0.000000 
#    y 0.000000 3.574690 0.000000 
#    z 0.000000 0.000000 3.307170 
# 
# 
# High freq. dielectric constant tensor:
#      x y z
#    x 1.738990 0.000000 0.000000 
#    y 0.000000 1.743630 0.000000 
#    z 0.000000 0.000000 1.717510 
# 
# From -- ./inp_files/34949.got.cif
#   From: 2010.03.12/outbox.cif.g09.slc.cpg/sg51_18_cif.got.tgz:34949.got - 2010.04.16 13:43:02.
