data_PCOD8213098
_publ_section_title
;
Structure prediction by ZEFSAII (Michael W. Deem and Ramdas Pophale) SiO2 
 PCOD8213098
Probable space group: P M M A
;
_chemical_formula_sum "Si O2"
_cell_formula_units_Z 64
_cell_length_a 9.222581
_cell_length_b 14.537570
_cell_length_c 24.931361
_cell_angle_alpha 90.000000
_cell_angle_beta 90.000000
_cell_angle_gamma 90.000000
_cell_volume 3342.645222
_symmetry_space_group_name_H-M "P M M A"
_symmetry_group_IT_number 51
_symmetry_cell_setting 'orthorhombic'
loop_
_space_group_symop_operation_xyz
x,y,z
1/2-x,-y,z
1/2+x,-y,-z
-x,y,-z
-x,-y,-z
1/2+x,y,-z
1/2-x,y,z
x,-y,z
loop_
_atom_site_type_symbol
_atom_site_label
_atom_site_fract_x
_atom_site_fract_y
_atom_site_fract_z
Si Si1 0.085959 0.102955 0.923151
Si Si2 0.582814 0.253918 0.360827
Si Si3 0.588892 0.897153 0.203441
Si Si4 0.080783 0.894360 0.554127
Si Si5 0.421004 0.735763 0.250846
Si Si6 0.922168 0.604368 0.843669
Si Si7 0.422388 0.717023 0.051974
Si Si8 0.916171 0.602872 0.450359
O O1 0.250000 0.128766 0.941248
O O2 0.075427 0.104419 0.859746
O O3 0.972023 0.176412 0.945815
O O4 0.045694 0.000000 0.943682
O O5 0.750000 0.240933 0.344303
O O6 0.528508 0.165072 0.394645
O O7 0.489810 0.274920 0.308781
O O8 0.556286 0.343200 0.396223
O O9 0.750000 0.863236 0.220817
O O10 0.464866 0.834555 0.228191
O O11 0.563507 0.000000 0.225372
O O12 0.250000 0.876490 0.543767
O O13 0.000000 0.863257 0.500000
O O14 0.046189 0.000000 0.567868
O O15 0.250000 0.731353 0.256487
O O16 0.477151 0.656090 0.210117
O O17 0.750000 0.602253 0.844302
O O18 0.984256 0.500000 0.844494
O O19 0.976707 0.660440 0.895927
O O20 0.250000 0.712632 0.045805
O O21 0.500000 0.671670 0.000000
O O22 0.750000 0.604334 0.466979
O O23 0.974320 0.500000 0.440367
O O24 0.000000 0.649440 0.500000
#
# Coordination Sequence:
#
# PCOD8213098 Si02
#       8
#     8   8   8   8   8   8   8   8
#     4   9  18  34  57  84 114 148 183 219 264 321
#     4  10  21  35  51  75 109 145 178 219 272 329
#     4   9  18  34  57  81 108 144 179 215 265 323
#     4   9  18  33  53  76 104 141 183 223 266 317
#     4  11  22  36  56  83 110 142 186 232 275 322
#     4   9  20  40  61  80 108 145 183 228 285 340
#     4  11  22  37  59  86 115 148 184 230 281 330
#     4   9  18  33  53  76 103 135 173 220 274 329
#
# _framework density 19.146512999999999
#
# number of rings (size 3 to 8) (size 9 to 14) (size 15 to 20)
#    0.000    2.375    1.250    1.875    0.000    3.000 
#    0.000    2.500    0.000    5.250    0.000    0.000 
#    0.000    0.000    0.000    0.000    0.000    0.000 
#
# Total GULP energy -793442.035276 kJ/mol
# GULP energy per Si atom -12397.531801 kJ/mol
# Density = 1.910294 g / cm^3
# Si number density = 19.146513 Si / 1000 Ang^3
#
#
#
# Elastic Constant Matrix: (Units=GPa)
#
#
# Indices 1 2 3 4 5 6 
#
# 1 67.6884 40.5829 57.8212 0.0000 0.0000 0.0000
# 2 40.5829 108.1695 62.2781 0.0000 0.0000 0.0000
# 3 57.8212 62.2781 140.6078 0.0000 0.0000 0.0000
# 4 0.0000 0.0000 0.0000 19.9315 0.0000 0.0000
# 5 0.0000 0.0000 0.0000 0.0000 36.0345 0.0000
# 6 0.0000 0.0000 0.0000 0.0000 0.0000 7.8818
#
#
#
# Elastic Compliance Matrix: (Units=1/GPa)
#
#
# Indices 1 2 3 4 5 6 
#
# 1 0.024314 -0.004517 -0.007997 0.000000 0.000000 0.000000
# 2 -0.004517 0.013249 -0.004010 0.000000 0.000000 0.000000
# 3 -0.007997 -0.004010 0.012177 0.000000 0.000000 0.000000
# 4 0.000000 0.000000 0.000000 0.050172 0.000000 0.000000
# 5 0.000000 0.000000 0.000000 0.000000 0.027751 0.000000
# 6 0.000000 0.000000 0.000000 0.000000 0.000000 0.126875
#
#
# Mechanical properties :
#
#
# Convention : Reuss Voigt Hill
#
# Bulk Modulus (GPa) = 59.92104 70.87000 65.39552
# Shear Modulus (GPa) = 17.05606 23.15513 20.10559
#
# Velocity S-wave (km/s) = 2.98790 3.48137 3.24403
# Velocity P-wave (km/s) = 6.57779 7.29759 6.94702
#
# Compressibility (1/GPa) = 0.01668863
#
# Stress axis : x y z
#
# Youngs Moduli (GPa) = 41.12907 75.47993 82.12192
#
# Poissons Ratio (x) = 0.34098 0.65677
# Poissons Ratio (y) = 0.18580 0.32934
# Poissons Ratio (z) = 0.32893 0.30270
#
# Static dielectric constant tensor:
#      x y z
#    x 3.325710 0.000000 0.000000 
#    y 0.000000 4.271300 0.000000 
#    z 0.000000 0.000000 3.620600 
# 
# 
# High freq. dielectric constant tensor:
#      x y z
#    x 1.727040 0.000000 0.000000 
#    y 0.000000 1.748000 0.000000 
#    z 0.000000 0.000000 1.748230 
# 
# From -- ./inp_files/35011.got.cif
#   From: 2010.03.12/outbox.cif.g09.slc.cpg/sg51_18_cif.got.tgz:35011.got - 2010.04.16 13:43:02.
