data_PCOD8213370
_publ_section_title
;
Structure prediction by ZEFSAII (Michael W. Deem and Ramdas Pophale) SiO2 
 PCOD8213370
Probable space group: P M M A
;
_chemical_formula_sum "Si O2"
_cell_formula_units_Z 36
_cell_length_a 8.928347
_cell_length_b 7.840521
_cell_length_c 24.509724
_cell_angle_alpha 90.000000
_cell_angle_beta 90.000000
_cell_angle_gamma 90.000000
_cell_volume 1715.751566
_symmetry_space_group_name_H-M "P M M A"
_symmetry_group_IT_number 51
_symmetry_cell_setting 'orthorhombic'
loop_
_space_group_symop_operation_xyz
x,y,z
1/2-x,-y,z
1/2+x,-y,-z
-x,y,-z
-x,-y,-z
1/2+x,y,-z
1/2-x,y,z
x,-y,z
loop_
_atom_site_type_symbol
_atom_site_label
_atom_site_fract_x
_atom_site_fract_y
_atom_site_fract_z
Si Si1 0.076221 0.193281 0.623006
Si Si2 0.919823 0.701561 0.053300
Si Si3 0.428453 0.500000 0.440935
Si Si4 0.420827 0.803880 0.830166
Si Si5 0.918845 0.694288 0.726009
O O1 0.250000 0.245465 0.619714
O O2 0.979224 0.326733 0.588668
O O3 0.023612 0.196848 0.685877
O O4 0.052444 0.000000 0.600854
O O5 0.750000 0.762429 0.048917
O O6 0.937436 0.500000 0.054839
O O7 0.989169 0.775957 0.109298
O O8 0.000000 0.778628 0.000000
O O9 0.250000 0.500000 0.444725
O O10 0.500000 0.500000 0.500000
O O11 0.250000 0.735113 0.828674
O O12 0.519049 0.699718 0.787299
O O13 0.428537 0.000000 0.813648
O O14 0.750000 0.767409 0.724757
O O15 0.919878 0.500000 0.705415
#
# Coordination Sequence:
#
# PCOD8213370 Si02
#       5
#     8   8   4   8   8
#     4  11  24  43  69 100 134 175 221 269 323 382
#     4   9  18  33  52  73 100 138 185 237 295 359
#     4  12  26  46  72 102 138 180 223 270 321 374
#     4  10  21  36  54  79 111 149 194 243 299 367
#     4  11  23  38  59  89 123 161 204 255 314 373
#
# _framework density 20.982060000000001
#
# number of rings (size 3 to 8) (size 9 to 14) (size 15 to 20)
#    0.000    1.556    1.111    3.667    0.000    8.889 
#    0.000    2.222    0.000    0.000    0.000    0.000 
#    0.000    0.000    0.000    0.000    0.000    0.000 
#
# Total GULP energy -446481.518840 kJ/mol
# GULP energy per Si atom -12402.264412 kJ/mol
# Density = 2.093430 g / cm^3
# Si number density = 20.982060 Si / 1000 Ang^3
#
#
#
# Elastic Constant Matrix: (Units=GPa)
#
#
# Indices 1 2 3 4 5 6 
#
# 1 131.9977 45.3738 61.6022 0.0000 0.0000 0.0000
# 2 45.3738 75.9099 39.8243 0.0000 0.0000 0.0000
# 3 61.6022 39.8243 138.3991 0.0000 0.0000 0.0000
# 4 0.0000 0.0000 0.0000 20.7730 0.0000 0.0000
# 5 0.0000 0.0000 0.0000 0.0000 41.5245 0.0000
# 6 0.0000 0.0000 0.0000 0.0000 0.0000 21.8055
#
#
#
# Elastic Compliance Matrix: (Units=1/GPa)
#
#
# Indices 1 2 3 4 5 6 
#
# 1 0.010785 -0.004627 -0.003469 0.000000 0.000000 0.000000
# 2 -0.004627 0.017501 -0.002976 0.000000 0.000000 0.000000
# 3 -0.003469 -0.002976 0.009626 0.000000 0.000000 0.000000
# 4 0.000000 0.000000 0.000000 0.048139 0.000000 0.000000
# 5 0.000000 0.000000 0.000000 0.000000 0.024082 0.000000
# 6 0.000000 0.000000 0.000000 0.000000 0.000000 0.045860
#
#
# Mechanical properties :
#
#
# Convention : Reuss Voigt Hill
#
# Bulk Modulus (GPa) = 63.42255 71.10081 67.26168
# Shear Modulus (GPa) = 27.26368 30.12103 28.69235
#
# Velocity S-wave (km/s) = 3.60860 3.79299 3.70194
# Velocity P-wave (km/s) = 6.90328 7.28988 7.09922
#
# Compressibility (1/GPa) = 0.01576726
#
# Stress axis : x y z
#
# Youngs Moduli (GPa) = 92.71794 57.14113 103.88369
#
# Poissons Ratio (x) = 0.26437 0.36040
# Poissons Ratio (y) = 0.42898 0.30920
# Poissons Ratio (z) = 0.32167 0.17008
#
# Static dielectric constant tensor:
#      x y z
#    x 3.873870 0.000000 0.000000 
#    y 0.000000 3.665710 0.000000 
#    z 0.000000 0.000000 3.916550 
# 
# 
# High freq. dielectric constant tensor:
#      x y z
#    x 1.816100 0.000000 0.000000 
#    y 0.000000 1.822350 0.000000 
#    z 0.000000 0.000000 1.828830 
# 
# From -- ./inp_files/34304.got.cif
#   From: 2010.03.12/outbox.cif.g09.slc.cpg/sg51_18_cif.got.tgz:34304.got - 2010.04.16 13:43:02.
