data_PCOD8213928
_publ_section_title
;
Structure prediction by ZEFSAII (Michael W. Deem and Ramdas Pophale) SiO2 
 PCOD8213928
Probable space group: P M M A
;
_chemical_formula_sum "Si O2"
_cell_formula_units_Z 40
_cell_length_a 8.961361
_cell_length_b 25.752903
_cell_length_c 9.259006
_cell_angle_alpha 90.000000
_cell_angle_beta 90.000000
_cell_angle_gamma 90.000000
_cell_volume 2136.803225
_symmetry_space_group_name_H-M "P M M A"
_symmetry_group_IT_number 51
_symmetry_cell_setting 'orthorhombic'
loop_
_space_group_symop_operation_xyz
x,y,z
1/2-x,-y,z
1/2+x,-y,-z
-x,y,-z
-x,-y,-z
1/2+x,y,-z
1/2-x,y,z
x,-y,z
loop_
_atom_site_type_symbol
_atom_site_label
_atom_site_fract_x
_atom_site_fract_y
_atom_site_fract_z
Si Si1 0.573776 0.167142 0.844354
Si Si2 0.574351 0.359694 0.847711
Si Si3 0.075876 0.945199 0.153100
Si Si4 0.922687 0.439099 0.351773
Si Si5 0.075569 0.261261 0.346924
O O1 0.750000 0.173965 0.865918
O O2 0.532348 0.110146 0.773859
O O3 0.511742 0.210550 0.735362
O O4 0.500000 0.174684 0.000000
O O5 0.750000 0.368002 0.867404
O O6 0.502945 0.411526 0.781625
O O7 0.535593 0.311667 0.745368
O O8 0.500000 0.347736 0.000000
O O9 0.250000 0.944461 0.123882
O O10 0.033261 0.000000 0.236829
O O11 0.000000 0.946721 0.000000
O O12 0.750000 0.422875 0.359330
O O13 0.942734 0.500000 0.326463
O O14 0.000000 0.421134 0.500000
O O15 0.250000 0.255593 0.372418
O O16 0.000000 0.266908 0.500000
#
# Coordination Sequence:
#
# PCOD8213928 Si02
#       5
#     8   8   8   8   8
#     4   9  17  30  48  72 100 128 163 206 251 299
#     4  11  23  38  57  81 108 138 174 216 262 310
#     4   8  13  22  39  64  93 124 157 196 243 293
#     4  10  21  38  60  85 113 145 179 214 254 302
#     4  10  22  37  53  74 100 133 171 210 254 306
#
# _framework density 18.719552
#
# number of rings (size 3 to 8) (size 9 to 14) (size 15 to 20)
#    0.000    2.400    0.000    2.400    0.000    5.600 
#    0.000    0.000    0.000    0.600    0.000    0.000 
#    0.000    0.000    0.000    0.000    0.000    0.000 
#
# Total GULP energy -495672.464495 kJ/mol
# GULP energy per Si atom -12391.811612 kJ/mol
# Density = 1.867695 g / cm^3
# Si number density = 18.719552 Si / 1000 Ang^3
#
#
#
# Elastic Constant Matrix: (Units=GPa)
#
#
# Indices 1 2 3 4 5 6 
#
# 1 67.5522 53.6905 52.7759 0.0000 0.0000 0.0000
# 2 53.6905 118.5324 63.0107 0.0000 0.0000 0.0000
# 3 52.7759 63.0107 118.5198 0.0000 0.0000 0.0000
# 4 0.0000 0.0000 0.0000 16.2665 0.0000 0.0000
# 5 0.0000 0.0000 0.0000 0.0000 30.4664 0.0000
# 6 0.0000 0.0000 0.0000 0.0000 0.0000 6.7108
#
#
#
# Elastic Compliance Matrix: (Units=1/GPa)
#
#
# Indices 1 2 3 4 5 6 
#
# 1 0.027529 -0.008298 -0.007847 0.000000 0.000000 0.000000
# 2 -0.008298 0.014262 -0.003887 0.000000 0.000000 0.000000
# 3 -0.007847 -0.003887 0.013998 0.000000 0.000000 0.000000
# 4 0.000000 0.000000 0.000000 0.061476 0.000000 0.000000
# 5 0.000000 0.000000 0.000000 0.000000 0.032823 0.000000
# 6 0.000000 0.000000 0.000000 0.000000 0.000000 0.149014
#
#
# Mechanical properties :
#
#
# Convention : Reuss Voigt Hill
#
# Bulk Modulus (GPa) = 63.59416 71.50649 67.55032
# Shear Modulus (GPa) = 14.51768 19.69723 17.10746
#
# Velocity S-wave (km/s) = 2.78787 3.24733 3.02633
# Velocity P-wave (km/s) = 6.66399 7.23477 6.95524
#
# Compressibility (1/GPa) = 0.01572471
#
# Stress axis : x y z
#
# Youngs Moduli (GPa) = 36.32489 70.11821 71.43898
#
# Poissons Ratio (x) = 0.58187 0.56056
# Poissons Ratio (y) = 0.30144 0.27768
# Poissons Ratio (z) = 0.28503 0.27254
#
# Static dielectric constant tensor:
#      x y z
#    x 3.459020 0.000000 0.000000 
#    y 0.000000 4.139770 0.000000 
#    z 0.000000 0.000000 3.200260 
# 
# 
# High freq. dielectric constant tensor:
#      x y z
#    x 1.728300 0.000000 0.000000 
#    y 0.000000 1.756830 0.000000 
#    z 0.000000 0.000000 1.692880 
# 
# From -- ./inp_files/5196.got.cif
#   From: 2010.03.12/outbox.cif.g09.slc.cpg/sg51_3_cif.got.tgz:5196.got - 2010.04.16 13:43:02.
