data_PCOD8213123
_publ_section_title
;
Structure prediction by ZEFSAII (Michael W. Deem and Ramdas Pophale) SiO2 
 PCOD8213123
Probable space group: P M M A
;
_chemical_formula_sum "Si O2"
_cell_formula_units_Z 56
_cell_length_a 8.931844
_cell_length_b 14.451311
_cell_length_c 20.990624
_cell_angle_alpha 90.000000
_cell_angle_beta 90.000000
_cell_angle_gamma 90.000000
_cell_volume 2709.403740
_symmetry_space_group_name_H-M "P M M A"
_symmetry_group_IT_number 51
_symmetry_cell_setting 'orthorhombic'
loop_
_space_group_symop_operation_xyz
x,y,z
1/2-x,-y,z
1/2+x,-y,-z
-x,y,-z
-x,-y,-z
1/2+x,y,-z
1/2-x,y,z
x,-y,z
loop_
_atom_site_type_symbol
_atom_site_label
_atom_site_fract_x
_atom_site_fract_y
_atom_site_fract_z
Si Si1 0.583206 0.109575 0.744209
Si Si2 0.426042 0.893387 0.616766
Si Si3 0.422470 0.390491 0.674340
Si Si4 0.922458 0.103527 0.130324
Si Si5 0.922742 0.283681 0.064190
Si Si6 0.071888 0.396884 0.816080
Si Si7 0.927115 0.277819 0.563617
O O1 0.750000 0.150661 0.734024
O O2 0.475293 0.140175 0.687029
O O3 0.515565 0.144662 0.810624
O O4 0.589527 0.000000 0.747152
O O5 0.250000 0.878730 0.609554
O O6 0.513431 0.827902 0.567830
O O7 0.471913 0.000000 0.603824
O O8 0.250000 0.361660 0.663039
O O9 0.441819 0.500000 0.665611
O O10 0.477022 0.361268 0.745704
O O11 0.525934 0.337997 0.624279
O O12 0.750000 0.103301 0.151887
O O13 0.947927 0.173055 0.071437
O O14 0.973687 0.000000 0.110047
O O15 0.750000 0.309509 0.057814
O O16 0.991616 0.333314 0.126812
O O17 0.000000 0.319177 0.000000
O O18 0.250000 0.397946 0.816950
O O19 0.009182 0.500000 0.827461
O O20 0.750000 0.277785 0.557147
O O21 0.000000 0.321962 0.500000
#
# Coordination Sequence:
#
# PCOD8213123 Si02
#       7
#     8   8   8   8   8   8   8
#     4   9  17  30  50  79 111 142 183 237 293 343
#     4  10  21  38  60  85 117 159 203 246 293 348
#     4   9  19  39  67  94 119 152 196 246 300 361
#     4   9  18  32  49  72 105 147 193 237 284 341
#     4  10  21  35  52  78 110 149 191 236 287 345
#     4   8  16  34  60  86 111 143 184 230 286 349
#     4  12  26  42  61  89 124 162 201 246 298 355
#
# _framework density 20.668755000000001
#
# number of rings (size 3 to 8) (size 9 to 14) (size 15 to 20)
#    0.000    2.429    0.000    3.000    2.000    4.571 
#    0.000    0.714    0.000    0.857    0.000    0.000 
#    0.000    0.000    0.000    0.000    0.000    0.000 
#
# Total GULP energy -694258.564262 kJ/mol
# GULP energy per Si atom -12397.474362 kJ/mol
# Density = 2.062171 g / cm^3
# Si number density = 20.668755 Si / 1000 Ang^3
#
#
#
# Elastic Constant Matrix: (Units=GPa)
#
#
# Indices 1 2 3 4 5 6 
#
# 1 96.5888 30.1092 53.2277 0.0000 0.0000 0.0000
# 2 30.1092 70.7343 57.4374 0.0000 0.0000 0.0000
# 3 53.2277 57.4374 151.9293 0.0000 0.0000 0.0000
# 4 0.0000 0.0000 0.0000 23.8343 0.0000 0.0000
# 5 0.0000 0.0000 0.0000 0.0000 35.5331 0.0000
# 6 0.0000 0.0000 0.0000 0.0000 0.0000 20.8998
#
#
#
# Elastic Compliance Matrix: (Units=1/GPa)
#
#
# Indices 1 2 3 4 5 6 
#
# 1 0.013174 -0.002684 -0.003601 0.000000 0.000000 0.000000
# 2 -0.002684 0.020947 -0.006979 0.000000 0.000000 0.000000
# 3 -0.003601 -0.006979 0.010482 0.000000 0.000000 0.000000
# 4 0.000000 0.000000 0.000000 0.041956 0.000000 0.000000
# 5 0.000000 0.000000 0.000000 0.000000 0.028143 0.000000
# 6 0.000000 0.000000 0.000000 0.000000 0.000000 0.047847
#
#
# Mechanical properties :
#
#
# Convention : Reuss Voigt Hill
#
# Bulk Modulus (GPa) = 55.32232 66.75568 61.03900
# Shear Modulus (GPa) = 25.62773 27.95198 26.78985
#
# Velocity S-wave (km/s) = 3.52508 3.68146 3.60412
# Velocity P-wave (km/s) = 6.58730 7.10203 6.84950
#
# Compressibility (1/GPa) = 0.01807589
#
# Stress axis : x y z
#
# Youngs Moduli (GPa) = 75.90631 47.74037 95.40290
#
# Poissons Ratio (x) = 0.12813 0.34353
# Poissons Ratio (y) = 0.20372 0.66579
# Poissons Ratio (z) = 0.27333 0.33316
#
# Static dielectric constant tensor:
#      x y z
#    x 3.566420 0.000000 0.000000 
#    y 0.000000 3.784910 0.000000 
#    z 0.000000 0.000000 3.792220 
# 
# 
# High freq. dielectric constant tensor:
#      x y z
#    x 1.785380 0.000000 0.000000 
#    y 0.000000 1.804680 0.000000 
#    z 0.000000 0.000000 1.807700 
# 
# From -- ./inp_files/31952.got.cif
#   From: 2010.03.12/outbox.cif.g09.slc.cpg/sg51_16_cif.got.tgz:31952.got - 2010.04.16 13:43:02.
