data_PCOD8213804
_publ_section_title
;
Structure prediction by ZEFSAII (Michael W. Deem and Ramdas Pophale) SiO2 
 PCOD8213804
Probable space group: P M M A
;
_chemical_formula_sum "Si O2"
_cell_formula_units_Z 48
_cell_length_a 9.775794
_cell_length_b 8.887542
_cell_length_c 28.897583
_cell_angle_alpha 90.000000
_cell_angle_beta 90.000000
_cell_angle_gamma 90.000000
_cell_volume 2510.702339
_symmetry_space_group_name_H-M "P M M A"
_symmetry_group_IT_number 51
_symmetry_cell_setting 'orthorhombic'
loop_
_space_group_symop_operation_xyz
x,y,z
1/2-x,-y,z
1/2+x,-y,-z
-x,y,-z
-x,-y,-z
1/2+x,y,-z
1/2-x,y,z
x,-y,z
loop_
_atom_site_type_symbol
_atom_site_label
_atom_site_fract_x
_atom_site_fract_y
_atom_site_fract_z
Si Si1 0.459912 0.325301 0.899620
Si Si2 0.407473 0.323025 0.272026
Si Si3 0.250000 0.822215 0.964970
Si Si4 0.406689 0.322707 0.457918
Si Si5 0.750000 0.329782 0.939312
Si Si6 0.094912 0.173100 0.803247
Si Si7 0.587493 0.830683 0.635067
O O1 0.419266 0.500000 0.895555
O O2 0.384998 0.251864 0.943376
O O3 0.621037 0.303559 0.906238
O O4 0.411913 0.239356 0.854322
O O5 0.250000 0.275251 0.264255
O O6 0.422735 0.500000 0.275772
O O7 0.494263 0.265168 0.229249
O O8 0.467398 0.253211 0.319357
O O9 0.250000 0.000000 0.956348
O O10 0.250000 0.789271 0.019390
O O11 0.500000 0.264564 0.500000
O O12 0.250000 0.273511 0.467363
O O13 0.418005 0.500000 0.451761
O O14 0.466677 0.249461 0.411232
O O15 0.750000 0.500000 0.959704
O O16 0.250000 0.188412 0.784882
O O17 0.048384 0.000000 0.804162
O O18 0.750000 0.824363 0.634875
O O19 0.531413 0.000000 0.636004
#
# Coordination Sequence:
#
# PCOD8213804 Si02
#       7
#     8   8   4   8   4   8   8
#     4  11  23  41  64  87 116 153 191 233 280 335
#     4  10  21  37  60  87 113 145 189 235 280 336
#     4  12  24  40  62  90 120 154 192 230 279 338
#     4   9  17  30  49  73 103 140 182 226 273 328
#     4  10  24  42  62  90 118 148 192 238 279 328
#     4  11  24  41  60  85 117 150 186 230 284 342
#     4   9  17  31  52  78 108 142 182 229 281 331
#
# _framework density 19.118155999999999
#
# number of rings (size 3 to 8) (size 9 to 14) (size 15 to 20)
#    0.000    1.833    0.833    3.250    1.167    7.667 
#    0.000    0.833    0.000    3.000    0.000    0.000 
#    0.000    0.000    0.000    0.000    0.000    0.000 
#
# Total GULP energy -595377.984327 kJ/mol
# GULP energy per Si atom -12403.708007 kJ/mol
# Density = 1.907464 g / cm^3
# Si number density = 19.118156 Si / 1000 Ang^3
#
#
#
# Elastic Constant Matrix: (Units=GPa)
#
#
# Indices 1 2 3 4 5 6 
#
# 1 76.0322 24.6284 21.6150 0.0000 0.0000 0.0000
# 2 24.6284 60.0399 17.3975 0.0000 0.0000 0.0000
# 3 21.6150 17.3975 91.7915 0.0000 0.0000 0.0000
# 4 0.0000 0.0000 0.0000 22.8774 0.0000 0.0000
# 5 0.0000 0.0000 0.0000 0.0000 30.6126 0.0000
# 6 0.0000 0.0000 0.0000 0.0000 0.0000 21.9573
#
#
#
# Elastic Compliance Matrix: (Units=1/GPa)
#
#
# Indices 1 2 3 4 5 6 
#
# 1 0.015745 -0.005697 -0.002628 0.000000 0.000000 0.000000
# 2 -0.005697 0.019685 -0.002389 0.000000 0.000000 0.000000
# 3 -0.002628 -0.002389 0.011966 0.000000 0.000000 0.000000
# 4 0.000000 0.000000 0.000000 0.043711 0.000000 0.000000
# 5 0.000000 0.000000 0.000000 0.000000 0.032666 0.000000
# 6 0.000000 0.000000 0.000000 0.000000 0.000000 0.045543
#
#
# Mechanical properties :
#
#
# Convention : Reuss Voigt Hill
#
# Bulk Modulus (GPa) = 38.51030 39.46061 38.98545
# Shear Modulus (GPa) = 25.07520 26.03765 25.55642
#
# Velocity S-wave (km/s) = 3.62552 3.69444 3.66014
# Velocity P-wave (km/s) = 6.14108 6.23568 6.18856
#
# Compressibility (1/GPa) = 0.02596708
#
# Stress axis : x y z
#
# Youngs Moduli (GPa) = 63.51318 50.80036 83.57072
#
# Poissons Ratio (x) = 0.28941 0.21961
# Poissons Ratio (y) = 0.36184 0.19968
# Poissons Ratio (z) = 0.16690 0.12138
#
# Static dielectric constant tensor:
#      x y z
#    x 3.472000 0.000000 0.000000 
#    y 0.000000 3.598630 0.000000 
#    z 0.000000 0.000000 3.553820 
# 
# 
# High freq. dielectric constant tensor:
#      x y z
#    x 1.728760 0.000000 0.000000 
#    y 0.000000 1.753710 0.000000 
#    z 0.000000 0.000000 1.749660 
# 
# From -- ./inp_files/37230.got.cif
#   From: 2010.03.12/outbox.cif.g09.slc.cpg/sg51_19_cif.got.tgz:37230.got - 2010.04.16 13:43:02.
