data_PCOD8213537
_publ_section_title
;
Structure prediction by ZEFSAII (Michael W. Deem and Ramdas Pophale) SiO2 
 PCOD8213537
Probable space group: P M M A
;
_chemical_formula_sum "Si O2"
_cell_formula_units_Z 56
_cell_length_a 14.698142
_cell_length_b 8.957211
_cell_length_c 21.583351
_cell_angle_alpha 90.000000
_cell_angle_beta 90.000000
_cell_angle_gamma 90.000000
_cell_volume 2841.542245
_symmetry_space_group_name_H-M "P M M A"
_symmetry_group_IT_number 51
_symmetry_cell_setting 'orthorhombic'
loop_
_space_group_symop_operation_xyz
x,y,z
1/2-x,-y,z
1/2+x,-y,-z
-x,y,-z
-x,-y,-z
1/2+x,y,-z
1/2-x,y,z
x,-y,z
loop_
_atom_site_type_symbol
_atom_site_label
_atom_site_fract_x
_atom_site_fract_y
_atom_site_fract_z
Si Si1 0.492992 0.824001 0.346217
Si Si2 0.645706 0.827357 0.547134
Si Si3 0.858011 0.169818 0.881953
Si Si4 0.142469 0.665358 0.997475
Si Si5 0.479326 0.323014 0.216317
Si Si6 0.649160 0.322412 0.138598
Si Si7 0.355498 0.673997 0.579327
O O1 0.415582 0.778537 0.395280
O O2 0.462996 0.752955 0.281919
O O3 0.589573 0.758407 0.367303
O O4 0.501531 0.000000 0.338601
O O5 0.750000 0.793663 0.564964
O O6 0.614329 0.732563 0.487949
O O7 0.631062 0.000000 0.529963
O O8 0.750000 0.183553 0.877846
O O9 0.894684 0.226956 0.948610
O O10 0.898486 0.272757 0.828353
O O11 0.890403 0.000000 0.873054
O O12 0.250000 0.652776 0.001344
O O13 0.099911 0.500000 0.007176
O O14 0.116964 0.732230 0.929796
O O15 0.476885 0.500000 0.223834
O O16 0.576490 0.267293 0.189150
O O17 0.750000 0.259344 0.155463
O O18 0.653591 0.500000 0.136361
O O19 0.250000 0.709048 0.591210
O O20 0.377189 0.500000 0.583250
#
# Coordination Sequence:
#
# PCOD8213537 Si02
#       7
#     8   8   8   8   8   8   8
#     4  11  23  38  56  80 113 151 187 223 269 326
#     4   9  19  37  60  84 110 142 179 220 271 329
#     4  10  21  37  55  76 107 144 180 224 277 329
#     4   8  14  29  55  81 102 130 173 223 274 328
#     4  11  23  37  55  80 109 145 188 228 269 322
#     4   8  16  33  56  80 106 137 175 222 275 329
#     4  10  21  37  59  87 115 143 179 225 273 318
#
# _framework density 19.707606999999999
#
# number of rings (size 3 to 8) (size 9 to 14) (size 15 to 20)
#    0.000    2.429    0.000    3.000    0.000    6.286 
#    0.000    7.143    0.000    3.000    0.000    0.000 
#    0.000    0.000    0.000    0.000    0.000    0.000 
#
# Total GULP energy -694438.315456 kJ/mol
# GULP energy per Si atom -12400.684205 kJ/mol
# Density = 1.966275 g / cm^3
# Si number density = 19.707607 Si / 1000 Ang^3
#
#
#
# Elastic Constant Matrix: (Units=GPa)
#
#
# Indices 1 2 3 4 5 6 
#
# 1 42.9829 14.9642 5.8368 0.0000 0.0000 0.0000
# 2 14.9642 62.3807 17.7670 0.0000 0.0000 0.0000
# 3 5.8368 17.7670 67.6262 0.0000 0.0000 0.0000
# 4 0.0000 0.0000 0.0000 66.8360 0.0000 0.0000
# 5 0.0000 0.0000 0.0000 0.0000 27.8727 0.0000
# 6 0.0000 0.0000 0.0000 0.0000 0.0000 24.6211
#
#
#
# Elastic Compliance Matrix: (Units=1/GPa)
#
#
# Indices 1 2 3 4 5 6 
#
# 1 0.025411 -0.005913 -0.000640 0.000000 0.000000 0.000000
# 2 -0.005913 0.018703 -0.004403 0.000000 0.000000 0.000000
# 3 -0.000640 -0.004403 0.015999 0.000000 0.000000 0.000000
# 4 0.000000 0.000000 0.000000 0.014962 0.000000 0.000000
# 5 0.000000 0.000000 0.000000 0.000000 0.035877 0.000000
# 6 0.000000 0.000000 0.000000 0.000000 0.000000 0.040616
#
#
# Mechanical properties :
#
#
# Convention : Reuss Voigt Hill
#
# Bulk Modulus (GPa) = 26.17781 27.79175 26.98478
# Shear Modulus (GPa) = 26.85072 32.82738 29.83905
#
# Velocity S-wave (km/s) = 3.69515 4.08575 3.89535
# Velocity P-wave (km/s) = 5.61404 6.03245 5.82700
#
# Compressibility (1/GPa) = 0.03820029
#
# Stress axis : x y z
#
# Youngs Moduli (GPa) = 39.35352 53.46644 62.50290
#
# Poissons Ratio (x) = 0.31617 0.03998
# Poissons Ratio (y) = 0.23272 0.27523
# Poissons Ratio (z) = 0.02517 0.23543
#
# Static dielectric constant tensor:
#      x y z
#    x 3.650490 0.000000 0.000000 
#    y 0.000000 3.563870 0.000000 
#    z 0.000000 0.000000 3.663860 
# 
# 
# High freq. dielectric constant tensor:
#      x y z
#    x 1.770250 0.000000 0.000000 
#    y 0.000000 1.755230 0.000000 
#    z 0.000000 0.000000 1.768260 
# 
# From -- ./inp_files/33393.got.cif
#   From: 2010.03.12/outbox.cif.g09.slc.cpg/sg51_17_cif.got.tgz:33393.got - 2010.04.16 13:43:02.
