data_PCOD8213012
_publ_section_title
;
Structure prediction by ZEFSAII (Michael W. Deem and Ramdas Pophale) SiO2 
 PCOD8213012
Probable space group: P M M A
;
_chemical_formula_sum "Si O2"
_cell_formula_units_Z 48
_cell_length_a 15.596198
_cell_length_b 18.549962
_cell_length_c 9.117119
_cell_angle_alpha 90.000000
_cell_angle_beta 90.000000
_cell_angle_gamma 90.000000
_cell_volume 2637.663489
_symmetry_space_group_name_H-M "P M M A"
_symmetry_group_IT_number 51
_symmetry_cell_setting 'orthorhombic'
loop_
_space_group_symop_operation_xyz
x,y,z
1/2-x,-y,z
1/2+x,-y,-z
-x,y,-z
-x,-y,-z
1/2+x,y,-z
1/2-x,y,z
x,-y,z
loop_
_atom_site_type_symbol
_atom_site_label
_atom_site_fract_x
_atom_site_fract_y
_atom_site_fract_z
Si Si1 0.652098 0.416597 0.328049
Si Si2 0.993573 0.830900 0.829641
Si Si3 0.652710 0.583522 0.669182
Si Si4 0.082823 0.079589 0.603392
Si Si5 0.000592 0.337579 0.170501
Si Si6 0.345043 0.082768 0.313570
O O1 0.750000 0.396729 0.284943
O O2 0.634074 0.500000 0.292280
O O3 0.636363 0.401341 0.498680
O O4 0.586759 0.368334 0.237318
O O5 0.073005 0.866207 0.740227
O O6 0.996374 0.746741 0.797520
O O7 0.903980 0.863143 0.776256
O O8 0.000000 0.849247 0.000000
O O9 0.750000 0.605700 0.711702
O O10 0.637613 0.500000 0.704769
O O11 0.586114 0.629126 0.762021
O O12 0.157655 0.101586 0.488838
O O13 0.000000 0.081439 0.500000
O O14 0.098464 0.000000 0.669696
O O15 0.000000 0.355734 0.000000
O O16 0.250000 0.092169 0.250166
O O17 0.377712 0.000000 0.293855
#
# Coordination Sequence:
#
# PCOD8213012 Si02
#       6
#     8   8   8   8   8   8
#     4   9  19  37  59  80 102 132 174 223 269 312
#     4  10  21  35  49  72 107 143 174 205 250 308
#     4   9  19  36  57  79 101 130 173 222 267 312
#     4   8  15  30  52  74  95 124 164 206 247 295
#     4  11  23  35  49  76 112 144 175 212 259 313
#     4   9  18  34  56  80 103 129 169 220 264 303
#
# _framework density 18.197924
#
# number of rings (size 3 to 8) (size 9 to 14) (size 15 to 20)
#    0.000    2.667    0.000    3.500    0.000    9.333 
#    0.000    7.500    0.000    2.000    0.000    0.000 
#    0.000    0.000    0.000    0.000    0.000    0.000 
#
# Total GULP energy -594978.060104 kJ/mol
# GULP energy per Si atom -12395.376252 kJ/mol
# Density = 1.815651 g / cm^3
# Si number density = 18.197924 Si / 1000 Ang^3
#
#
#
# Elastic Constant Matrix: (Units=GPa)
#
#
# Indices 1 2 3 4 5 6 
#
# 1 115.2287 68.6840 65.4723 0.0000 0.0000 0.0000
# 2 68.6840 111.5801 88.2179 0.0000 0.0000 0.0000
# 3 65.4723 88.2179 115.5941 0.0000 0.0000 0.0000
# 4 0.0000 0.0000 0.0000 35.5461 0.0000 0.0000
# 5 0.0000 0.0000 0.0000 0.0000 13.5333 0.0000
# 6 0.0000 0.0000 0.0000 0.0000 0.0000 12.9749
#
#
#
# Elastic Compliance Matrix: (Units=1/GPa)
#
#
# Indices 1 2 3 4 5 6 
#
# 1 0.014239 -0.006022 -0.003469 0.000000 0.000000 0.000000
# 2 -0.006022 0.025143 -0.015778 0.000000 0.000000 0.000000
# 3 -0.003469 -0.015778 0.022657 0.000000 0.000000 0.000000
# 4 0.000000 0.000000 0.000000 0.028132 0.000000 0.000000
# 5 0.000000 0.000000 0.000000 0.000000 0.073892 0.000000
# 6 0.000000 0.000000 0.000000 0.000000 0.000000 0.077072
#
#
# Mechanical properties :
#
#
# Convention : Reuss Voigt Hill
#
# Bulk Modulus (GPa) = 86.94551 87.46124 87.20338
# Shear Modulus (GPa) = 16.92005 20.41279 18.66642
#
# Velocity S-wave (km/s) = 3.05254 3.35283 3.20620
# Velocity P-wave (km/s) = 7.76566 7.94695 7.85683
#
# Compressibility (1/GPa) = 0.01150146
#
# Stress axis : x y z
#
# Youngs Moduli (GPa) = 70.22884 39.77173 44.13695
#
# Poissons Ratio (x) = 0.23952 0.15311
# Poissons Ratio (y) = 0.42295 0.69638
# Poissons Ratio (z) = 0.24362 0.62750
#
# Static dielectric constant tensor:
#      x y z
#    x 3.611210 0.000000 0.000000 
#    y 0.000000 3.305590 0.000000 
#    z 0.000000 0.000000 3.381870 
# 
# 
# High freq. dielectric constant tensor:
#      x y z
#    x 1.705590 0.000000 0.000000 
#    y 0.000000 1.701150 0.000000 
#    z 0.000000 0.000000 1.698400 
# 
# From -- ./inp_files/8224.got.cif
#   From: 2010.03.12/outbox.cif.g09.slc.cpg/sg51_5_cif.got.tgz:8224.got - 2010.04.16 13:43:02.
