data_PCOD8213606
_publ_section_title
;
Structure prediction by ZEFSAII (Michael W. Deem and Ramdas Pophale) SiO2 
 PCOD8213606
Probable space group: P M M A
;
_chemical_formula_sum "Si O2"
_cell_formula_units_Z 64
_cell_length_a 16.725544
_cell_length_b 20.253433
_cell_length_c 9.831142
_cell_angle_alpha 90.000000
_cell_angle_beta 90.000000
_cell_angle_gamma 90.000000
_cell_volume 3330.296254
_symmetry_space_group_name_H-M "P M M A"
_symmetry_group_IT_number 51
_symmetry_cell_setting 'orthorhombic'
loop_
_space_group_symop_operation_xyz
x,y,z
1/2-x,-y,z
1/2+x,-y,-z
-x,y,-z
-x,-y,-z
1/2+x,y,-z
1/2-x,y,z
x,-y,z
loop_
_atom_site_type_symbol
_atom_site_label
_atom_site_fract_x
_atom_site_fract_y
_atom_site_fract_z
Si Si1 0.844523 0.312430 0.302149
Si Si2 0.155315 0.690983 0.011495
Si Si3 0.345005 0.426854 0.505205
Si Si4 0.657890 0.925851 0.746198
Si Si5 0.941728 0.185158 0.881616
Si Si6 0.841998 0.075882 0.431469
Si Si7 0.052642 0.807754 0.633109
Si Si8 0.844986 0.426383 0.799274
O O1 0.750000 0.306549 0.316915
O O2 0.878520 0.376027 0.382948
O O3 0.880816 0.248741 0.375445
O O4 0.870055 0.318378 0.145001
O O5 0.250000 0.699351 0.027594
O O6 0.114860 0.755622 0.072108
O O7 0.122477 0.627212 0.093298
O O8 0.250000 0.426928 0.508879
O O9 0.377107 0.500000 0.542177
O O10 0.373914 0.407135 0.353127
O O11 0.750000 0.921301 0.786474
O O12 0.610747 0.877736 0.844324
O O13 0.645880 0.905688 0.589372
O O14 0.626044 0.000000 0.769141
O O15 0.994675 0.208981 0.756452
O O16 0.000000 0.161783 0.000000
O O17 0.750000 0.087916 0.388577
O O18 0.900985 0.122583 0.345193
O O19 0.865695 0.000000 0.403655
O O20 0.000000 0.809669 0.500000
O O21 0.750000 0.426660 0.803802
O O22 0.876269 0.500000 0.837801
#
# Coordination Sequence:
#
# PCOD8213606 Si02
#       8
#     8   8   8   8   8   8   8   8
#     4  10  21  37  56  81 114 149 189 236 283 333
#     4  10  21  37  57  80 111 153 194 231 277 336
#     4   8  15  29  52  83 113 140 180 237 288 328
#     4   9  19  38  63  88 113 145 188 233 279 337
#     4  12  24  40  56  80 120 155 187 231 281 332
#     4   9  19  38  63  89 115 143 183 235 285 336
#     4  12  24  38  57  85 115 151 191 232 278 335
#     4   8  15  29  52  83 112 140 183 235 282 332
#
# _framework density 19.217510000000001
#
# number of rings (size 3 to 8) (size 9 to 14) (size 15 to 20)
#    0.000    2.250    2.500    2.250    1.750    1.500 
#    0.000    2.500    0.000    3.000    0.000    0.000 
#    0.000    0.000    0.000    0.000    0.000    0.000 
#
# Total GULP energy -793516.732368 kJ/mol
# GULP energy per Si atom -12398.698943 kJ/mol
# Density = 1.917377 g / cm^3
# Si number density = 19.217510 Si / 1000 Ang^3
#
#
#
# Elastic Constant Matrix: (Units=GPa)
#
#
# Indices 1 2 3 4 5 6 
#
# 1 45.0625 42.5331 34.2218 0.0000 0.0000 0.0000
# 2 42.5331 136.0864 45.9157 0.0000 0.0000 0.0000
# 3 34.2218 45.9157 60.6679 0.0000 0.0000 0.0000
# 4 0.0000 0.0000 0.0000 32.0901 0.0000 0.0000
# 5 0.0000 0.0000 0.0000 0.0000 3.5935 0.0000
# 6 0.0000 0.0000 0.0000 0.0000 0.0000 0.6199
#
#
#
# Elastic Compliance Matrix: (Units=1/GPa)
#
#
# Indices 1 2 3 4 5 6 
#
# 1 0.043424 -0.007127 -0.019101 0.000000 0.000000 0.000000
# 2 -0.007127 0.011038 -0.004334 0.000000 0.000000 0.000000
# 3 -0.019101 -0.004334 0.030537 0.000000 0.000000 0.000000
# 4 0.000000 0.000000 0.000000 0.031162 0.000000 0.000000
# 5 0.000000 0.000000 0.000000 0.000000 0.278284 0.000000
# 6 0.000000 0.000000 0.000000 0.000000 0.000000 1.613115
#
#
# Mechanical properties :
#
#
# Convention : Reuss Voigt Hill
#
# Bulk Modulus (GPa) = 41.88223 54.12865 48.00544
# Shear Modulus (GPa) = 2.40773 15.20378 8.80575
#
# Velocity S-wave (km/s) = 1.12054 2.81578 2.14292
# Velocity P-wave (km/s) = 4.84925 6.22888 5.58185
#
# Compressibility (1/GPa) = 0.02387647
#
# Stress axis : x y z
#
# Youngs Moduli (GPa) = 23.02851 90.59566 32.74685
#
# Poissons Ratio (x) = 0.64572 0.62549
# Poissons Ratio (y) = 0.16414 0.14191
# Poissons Ratio (z) = 0.43986 0.39260
#
# Static dielectric constant tensor:
#      x y z
#    x 3.318230 0.000000 0.000000 
#    y 0.000000 3.704980 0.000000 
#    z 0.000000 0.000000 3.543950 
# 
# 
# High freq. dielectric constant tensor:
#      x y z
#    x 1.730210 0.000000 0.000000 
#    y 0.000000 1.756670 0.000000 
#    z 0.000000 0.000000 1.741220 
# 
# From -- ./inp_files/9994.got.cif
#   From: 2010.03.12/outbox.cif.g09.slc.cpg/sg51_5_cif.got.tgz:9994.got - 2010.04.16 13:43:02.
