data_PCOD8213115
_publ_section_title
;
Structure prediction by ZEFSAII (Michael W. Deem and Ramdas Pophale) SiO2 
 PCOD8213115
Probable space group: P M M A
;
_chemical_formula_sum "Si O2"
_cell_formula_units_Z 48
_cell_length_a 7.891922
_cell_length_b 9.732347
_cell_length_c 34.326790
_cell_angle_alpha 90.000000
_cell_angle_beta 90.000000
_cell_angle_gamma 90.000000
_cell_volume 2636.535130
_symmetry_space_group_name_H-M "P M M A"
_symmetry_group_IT_number 51
_symmetry_cell_setting 'orthorhombic'
loop_
_space_group_symop_operation_xyz
x,y,z
1/2-x,-y,z
1/2+x,-y,-z
-x,y,-z
-x,-y,-z
1/2+x,y,-z
1/2-x,y,z
x,-y,z
loop_
_atom_site_type_symbol
_atom_site_label
_atom_site_fract_x
_atom_site_fract_y
_atom_site_fract_z
Si Si1 0.556398 0.652979 0.107198
Si Si2 0.750000 0.837780 0.318358
Si Si3 0.445067 0.838971 0.263715
Si Si4 0.948040 0.655192 0.809122
Si Si5 0.558901 0.163503 0.542125
Si Si6 0.056539 0.850345 0.040770
Si Si7 0.750000 0.835927 0.405518
O O1 0.750000 0.648053 0.095159
O O2 0.475576 0.500000 0.104328
O O3 0.537336 0.707096 0.151403
O O4 0.467019 0.753078 0.077434
O O5 0.576477 0.790502 0.297043
O O6 0.750000 0.775241 0.361793
O O7 0.750000 0.000000 0.321303
O O8 0.250000 0.804722 0.276100
O O9 0.500669 0.757135 0.225314
O O10 0.464599 0.000000 0.254751
O O11 0.750000 0.661218 0.816729
O O12 0.006280 0.500000 0.798373
O O13 0.500000 0.218368 0.500000
O O14 0.750000 0.217305 0.551768
O O15 0.421475 0.218219 0.573443
O O16 0.560095 0.000000 0.541972
O O17 0.250000 0.881134 0.036914
O O18 0.964590 0.000000 0.046513
O O19 0.000000 0.780021 0.000000
O O20 0.750000 0.000000 0.405934
#
# Coordination Sequence:
#
# PCOD8213115 Si02
#       7
#     8   4   8   8   8   8   4
#     4  10  21  35  52  77 105 130 160 199 242 292
#     4   9  18  30  43  61  87 119 161 205 247 293
#     4   9  18  32  49  68  93 125 162 201 241 293
#     4   9  18  33  52  74  99 125 156 198 246 290
#     4   9  14  20  31  47  70 101 141 191 241 284
#     4  10  21  37  56  76 100 132 168 203 240 285
#     4   9  16  24  34  51  75 107 147 195 243 285
#
# _framework density 18.205712999999999
#
# number of rings (size 3 to 8) (size 9 to 14) (size 15 to 20)
#    0.000    2.667    0.833    1.000    1.167    3.667 
#    0.000    5.000    0.000    0.000    0.000    0.000 
#    0.000    0.000    0.000    0.000    0.000    3.333 
#
# Total GULP energy -594891.711624 kJ/mol
# GULP energy per Si atom -12393.577326 kJ/mol
# Density = 1.816428 g / cm^3
# Si number density = 18.205713 Si / 1000 Ang^3
#
#
#
# Elastic Constant Matrix: (Units=GPa)
#
#
# Indices 1 2 3 4 5 6 
#
# 1 111.6922 25.3666 67.3592 0.0000 0.0000 0.0000
# 2 25.3666 40.8486 49.4771 0.0000 0.0000 0.0000
# 3 67.3592 49.4771 154.3486 0.0000 0.0000 0.0000
# 4 0.0000 0.0000 0.0000 -1.7566 0.0000 0.0000
# 5 0.0000 0.0000 0.0000 0.0000 35.4356 0.0000
# 6 0.0000 0.0000 0.0000 0.0000 0.0000 12.9575
#
#
#
# Elastic Compliance Matrix: (Units=1/GPa)
#
#
# Indices 1 2 3 4 5 6 
#
# 1 0.012236 -0.001848 -0.004747 0.000000 0.000000 0.000000
# 2 -0.001848 0.040297 -0.012111 0.000000 0.000000 0.000000
# 3 -0.004747 -0.012111 0.012433 0.000000 0.000000 0.000000
# 4 0.000000 0.000000 0.000000 -0.569288 0.000000 0.000000
# 5 0.000000 0.000000 0.000000 0.000000 0.028220 0.000000
# 6 0.000000 0.000000 0.000000 0.000000 0.000000 0.077176
#
#
# Mechanical properties :
#
#
# Convention : Reuss Voigt Hill
#
# Bulk Modulus (GPa) = 36.29346 65.69947 50.99646
# Shear Modulus (GPa) = -14.19133 20.30641 3.05754
#
# Velocity S-wave (km/s) = -2.79498 3.34336 1.29734
# Velocity P-wave (km/s) = 3.09235 7.14631 5.50601
#
# Compressibility (1/GPa) = 0.02755318
#
# Stress axis : x y z
#
# Youngs Moduli (GPa) = 81.72599 24.81545 80.43175
#
# Poissons Ratio (x) = 0.04586 0.38185
# Poissons Ratio (y) = 0.15104 0.97411
# Poissons Ratio (z) = 0.38799 0.30054
#
# Static dielectric constant tensor:
#      x y z
#    x 3.542540 0.000000 0.000000 
#    y 0.000000 3.079850 0.000000 
#    z 0.000000 0.000000 3.694940 
# 
# 
# High freq. dielectric constant tensor:
#      x y z
#    x 1.718900 0.000000 0.000000 
#    y 0.000000 1.655380 0.000000 
#    z 0.000000 0.000000 1.703490 
# 
# From -- ./inp_files/37114.got.cif
#   From: 2010.03.12/outbox.cif.g09.slc.cpg/sg51_19_cif.got.tgz:37114.got - 2010.04.16 13:43:02.
