data_PCOD8213403
_publ_section_title
;
Structure prediction by ZEFSAII (Michael W. Deem and Ramdas Pophale) SiO2 
 PCOD8213403
Probable space group: P M M A
;
_chemical_formula_sum "Si O2"
_cell_formula_units_Z 52
_cell_length_a 8.942159
_cell_length_b 10.452588
_cell_length_c 29.715746
_cell_angle_alpha 90.000000
_cell_angle_beta 90.000000
_cell_angle_gamma 90.000000
_cell_volume 2777.492263
_symmetry_space_group_name_H-M "P M M A"
_symmetry_group_IT_number 51
_symmetry_cell_setting 'orthorhombic'
loop_
_space_group_symop_operation_xyz
x,y,z
1/2-x,-y,z
1/2+x,-y,-z
-x,y,-z
-x,-y,-z
1/2+x,y,-z
1/2-x,y,z
x,-y,z
loop_
_atom_site_type_symbol
_atom_site_label
_atom_site_fract_x
_atom_site_fract_y
_atom_site_fract_z
Si Si1 0.081435 0.847345 0.044598
Si Si2 0.926987 0.853041 0.775363
Si Si3 0.082898 0.848739 0.867347
Si Si4 0.084266 0.146830 0.456890
Si Si5 0.574550 0.352342 0.289573
Si Si6 0.425362 0.707810 0.608420
Si Si7 0.074617 0.500000 0.452250
O O1 0.250000 0.794851 0.044844
O O2 0.997079 0.791846 0.088402
O O3 0.080511 0.000000 0.045213
O O4 0.000000 0.795407 0.000000
O O5 0.750000 0.844816 0.777066
O O6 0.989640 0.809693 0.823562
O O7 0.987058 0.750635 0.739950
O O8 0.977044 0.000000 0.763649
O O9 0.250000 0.791278 0.863693
O O10 0.090691 0.000000 0.871914
O O11 0.250000 0.209673 0.451685
O O12 0.000000 0.210799 0.500000
O O13 0.983661 0.156262 0.410592
O O14 0.106664 0.000000 0.467410
O O15 0.750000 0.333173 0.281351
O O16 0.528768 0.500000 0.278766
O O17 0.529861 0.319224 0.340443
O O18 0.250000 0.685861 0.601890
O O19 0.521910 0.621446 0.575476
O O20 0.250000 0.500000 0.458137
O O21 0.000000 0.500000 0.500000
#
# Coordination Sequence:
#
# PCOD8213403 Si02
#       7
#     8   8   8   8   8   8   4
#     4   9  15  22  34  56  90 132 176 221 271 328
#     4  10  21  36  55  81 111 143 183 230 278 330
#     4   9  16  27  44  66  95 134 179 225 274 327
#     4  10  21  37  56  80 110 142 176 212 253 305
#     4  10  22  41  61  81 109 143 181 225 274 328
#     4  11  22  39  59  80 107 136 171 212 258 310
#     4  12  24  38  58  82 108 136 168 204 249 302
#
# _framework density 18.721923
#
# number of rings (size 3 to 8) (size 9 to 14) (size 15 to 20)
#    0.000    2.000    0.769    3.462    0.000    7.692 
#    0.000    3.077    0.000    0.000    0.000    0.000 
#    0.000    0.615    0.000    2.308    0.000    5.077 
#
# Total GULP energy -644495.622998 kJ/mol
# GULP energy per Si atom -12394.146596 kJ/mol
# Density = 1.867931 g / cm^3
# Si number density = 18.721923 Si / 1000 Ang^3
#
#
#
# Elastic Constant Matrix: (Units=GPa)
#
#
# Indices 1 2 3 4 5 6 
#
# 1 137.1569 40.2536 90.2849 0.0000 0.0000 0.0000
# 2 40.2536 57.9471 52.3030 0.0000 0.0000 0.0000
# 3 90.2849 52.3030 165.4239 0.0000 0.0000 0.0000
# 4 0.0000 0.0000 0.0000 11.4324 0.0000 0.0000
# 5 0.0000 0.0000 0.0000 0.0000 40.3029 0.0000
# 6 0.0000 0.0000 0.0000 0.0000 0.0000 27.9633
#
#
#
# Elastic Compliance Matrix: (Units=1/GPa)
#
#
# Indices 1 2 3 4 5 6 
#
# 1 0.011824 -0.003343 -0.005396 0.000000 0.000000 0.000000
# 2 -0.003343 0.025094 -0.006109 0.000000 0.000000 0.000000
# 3 -0.005396 -0.006109 0.010922 0.000000 0.000000 0.000000
# 4 0.000000 0.000000 0.000000 0.087471 0.000000 0.000000
# 5 0.000000 0.000000 0.000000 0.000000 0.024812 0.000000
# 6 0.000000 0.000000 0.000000 0.000000 0.000000 0.035761
#
#
# Mechanical properties :
#
#
# Convention : Reuss Voigt Hill
#
# Bulk Modulus (GPa) = 55.12021 80.69009 67.90515
# Shear Modulus (GPa) = 21.58618 27.78547 24.68582
#
# Velocity S-wave (km/s) = 3.39925 3.85660 3.63513
# Velocity P-wave (km/s) = 6.70164 7.93876 7.34629
#
# Compressibility (1/GPa) = 0.01814217
#
# Stress axis : x y z
#
# Youngs Moduli (GPa) = 84.57120 39.85043 91.55800
#
# Poissons Ratio (x) = 0.13322 0.49409
# Poissons Ratio (y) = 0.28273 0.55937
# Poissons Ratio (z) = 0.45639 0.24347
#
# Static dielectric constant tensor:
#      x y z
#    x 3.658440 0.000000 0.000000 
#    y 0.000000 3.321880 0.000000 
#    z 0.000000 0.000000 3.575760 
# 
# 
# High freq. dielectric constant tensor:
#      x y z
#    x 1.744700 0.000000 0.000000 
#    y 0.000000 1.686490 0.000000 
#    z 0.000000 0.000000 1.732150 
# 
# From -- ./inp_files/36199.got.cif
#   From: 2010.03.12/outbox.cif.g09.slc.cpg/sg51_19_cif.got.tgz:36199.got - 2010.04.16 13:43:02.
