data_PCOD8213422
_publ_section_title
;
Structure prediction by ZEFSAII (Michael W. Deem and Ramdas Pophale) SiO2 
 PCOD8213422
Probable space group: P M M A
;
_chemical_formula_sum "Si O2"
_cell_formula_units_Z 56
_cell_length_a 20.576532
_cell_length_b 8.780085
_cell_length_c 14.461430
_cell_angle_alpha 90.000000
_cell_angle_beta 90.000000
_cell_angle_gamma 90.000000
_cell_volume 2612.655451
_symmetry_space_group_name_H-M "P M M A"
_symmetry_group_IT_number 51
_symmetry_cell_setting 'orthorhombic'
loop_
_space_group_symop_operation_xyz
x,y,z
1/2-x,-y,z
1/2+x,-y,-z
-x,y,-z
-x,-y,-z
1/2+x,y,-z
1/2-x,y,z
x,-y,z
loop_
_atom_site_type_symbol
_atom_site_label
_atom_site_fract_x
_atom_site_fract_y
_atom_site_fract_z
Si Si1 0.323629 0.321053 0.845787
Si Si2 0.137769 0.179011 0.657040
Si Si3 0.554840 0.822566 0.759220
Si Si4 0.676750 0.322524 0.729912
Si Si5 0.545241 0.179546 0.083728
Si Si6 0.324193 0.834335 0.457335
Si Si7 0.489548 0.677253 0.605148
O O1 0.250000 0.283422 0.883594
O O2 0.335301 0.500000 0.845208
O O3 0.325735 0.261204 0.740709
O O4 0.381923 0.250239 0.908867
O O5 0.160684 0.241054 0.557093
O O6 0.062233 0.219009 0.659351
O O7 0.149796 0.000000 0.668738
O O8 0.626417 0.770591 0.796357
O O9 0.496395 0.776918 0.826559
O O10 0.552284 0.721457 0.664866
O O11 0.554856 0.000000 0.738327
O O12 0.750000 0.271262 0.755421
O O13 0.667716 0.500000 0.746725
O O14 0.659593 0.284070 0.623194
O O15 0.555504 0.000000 0.072944
O O16 0.500000 0.241647 0.000000
O O17 0.250000 0.874460 0.455226
O O18 0.360657 0.000000 0.445351
O O19 0.500000 0.730668 0.500000
O O20 0.471480 0.500000 0.609904
#
# Coordination Sequence:
#
# PCOD8213422 Si02
#       7
#     8   8   8   8   8   8   8
#     4  11  24  41  64  96 131 166 206 255 316 384
#     4  11  21  34  54  83 119 163 212 260 312 368
#     4  11  22  38  62  89 117 155 202 254 308 367
#     4  10  21  36  55  81 116 160 206 254 309 365
#     4  10  23  45  71  98 125 159 205 257 319 385
#     4   9  18  32  50  75 111 157 207 255 303 358
#     4  11  23  36  53  82 123 167 209 256 309 366
#
# _framework density 21.434132000000002
#
# number of rings (size 3 to 8) (size 9 to 14) (size 15 to 20)
#    0.000    1.571    1.429    3.429    0.000    8.000 
#    0.000    2.143    0.000    4.286    0.000    0.000 
#    0.000    0.000    0.000    0.000    0.000    0.000 
#
# Total GULP energy -693820.276657 kJ/mol
# GULP energy per Si atom -12389.647797 kJ/mol
# Density = 2.138535 g / cm^3
# Si number density = 21.434132 Si / 1000 Ang^3
#
#
#
# Elastic Constant Matrix: (Units=GPa)
#
#
# Indices 1 2 3 4 5 6 
#
# 1 149.2117 53.1386 53.9455 0.0000 0.0000 0.0000
# 2 53.1386 63.4938 23.2834 0.0000 0.0000 0.0000
# 3 53.9455 23.2834 46.5128 0.0000 0.0000 0.0000
# 4 0.0000 0.0000 0.0000 19.6859 0.0000 0.0000
# 5 0.0000 0.0000 0.0000 0.0000 29.1488 0.0000
# 6 0.0000 0.0000 0.0000 0.0000 0.0000 36.3400
#
#
#
# Elastic Compliance Matrix: (Units=1/GPa)
#
#
# Indices 1 2 3 4 5 6 
#
# 1 0.013611 -0.006862 -0.012351 0.000000 0.000000 0.000000
# 2 -0.006862 0.022750 -0.003430 0.000000 0.000000 0.000000
# 3 -0.012351 -0.003430 0.037541 0.000000 0.000000 0.000000
# 4 0.000000 0.000000 0.000000 0.050798 0.000000 0.000000
# 5 0.000000 0.000000 0.000000 0.000000 0.034307 0.000000
# 6 0.000000 0.000000 0.000000 0.000000 0.000000 0.027518
#
#
# Mechanical properties :
#
#
# Convention : Reuss Voigt Hill
#
# Bulk Modulus (GPa) = 34.94469 57.77257 46.35863
# Shear Modulus (GPa) = 20.71687 25.62498 23.17093
#
# Velocity S-wave (km/s) = 3.11229 3.46138 3.29147
# Velocity P-wave (km/s) = 5.40868 6.55644 6.01002
#
# Compressibility (1/GPa) = 0.02861665
#
# Stress axis : x y z
#
# Youngs Moduli (GPa) = 73.46996 43.95573 26.63750
#
# Poissons Ratio (x) = 0.30163 0.32900
# Poissons Ratio (y) = 0.50415 0.09136
# Poissons Ratio (z) = 0.90743 0.15076
#
# Static dielectric constant tensor:
#      x y z
#    x 4.301690 0.000000 0.000000 
#    y 0.000000 3.660570 0.000000 
#    z 0.000000 0.000000 3.778890 
# 
# 
# High freq. dielectric constant tensor:
#      x y z
#    x 1.867010 0.000000 0.000000 
#    y 0.000000 1.834440 0.000000 
#    z 0.000000 0.000000 1.809110 
# 
# From -- ./inp_files/25764.got.cif
#   From: 2010.03.12/outbox.cif.g09.slc.cpg/sg51_13_cif.got.tgz:25764.got - 2010.04.16 13:43:02.
