data_PCOD8213244
_publ_section_title
;
Structure prediction by ZEFSAII (Michael W. Deem and Ramdas Pophale) SiO2 
 PCOD8213244
Probable space group: P M M A
;
_chemical_formula_sum "Si O2"
_cell_formula_units_Z 48
_cell_length_a 9.130410
_cell_length_b 9.403859
_cell_length_c 30.824598
_cell_angle_alpha 90.000000
_cell_angle_beta 90.000000
_cell_angle_gamma 90.000000
_cell_volume 2646.633529
_symmetry_space_group_name_H-M "P M M A"
_symmetry_group_IT_number 51
_symmetry_cell_setting 'orthorhombic'
loop_
_space_group_symop_operation_xyz
x,y,z
1/2-x,-y,z
1/2+x,-y,-z
-x,y,-z
-x,-y,-z
1/2+x,y,-z
1/2-x,y,z
x,-y,z
loop_
_atom_site_type_symbol
_atom_site_label
_atom_site_fract_x
_atom_site_fract_y
_atom_site_fract_z
Si Si1 0.912117 0.168786 0.876570
Si Si2 0.080498 0.833586 0.220391
Si Si3 0.920342 0.834363 0.455841
Si Si4 0.580827 0.334527 0.293485
Si Si5 0.586279 0.830257 0.041703
Si Si6 0.919394 0.332862 0.619335
O O1 0.750000 0.230591 0.884837
O O2 0.965998 0.211485 0.828454
O O3 0.017415 0.231004 0.913785
O O4 0.905863 0.000000 0.879646
O O5 0.250000 0.793629 0.228834
O O6 0.974374 0.749507 0.251925
O O7 0.055732 0.000000 0.227899
O O8 0.750000 0.795022 0.459957
O O9 0.000000 0.789517 0.500000
O O10 0.991889 0.746439 0.417551
O O11 0.943534 0.000000 0.445922
O O12 0.750000 0.297962 0.302443
O O13 0.557749 0.500000 0.284065
O O14 0.486659 0.285642 0.334811
O O15 0.750000 0.771431 0.038616
O O16 0.583072 0.000000 0.042101
O O17 0.500000 0.771455 0.000000
O O18 0.750000 0.286911 0.618133
O O19 0.938695 0.500000 0.611875
#
# Coordination Sequence:
#
# PCOD8213244 Si02
#       6
#     8   8   8   8   8   8
#     4   8  14  25  39  56  82 114 148 189 235 282
#     4   9  18  32  50  72  97 127 163 202 246 296
#     4  10  21  37  57  81 109 140 172 206 246 291
#     4  10  21  36  53  74 101 132 166 206 250 294
#     4   9  15  21  31  49  75 110 150 188 229 279
#     4  10  21  37  57  79 102 132 170 209 250 295
#
# _framework density 18.136247000000001
#
# number of rings (size 3 to 8) (size 9 to 14) (size 15 to 20)
#    0.000    2.667    0.000    3.000    0.000    7.000 
#    0.000    1.667    0.000    0.000    0.000    0.000 
#    0.000    0.667    0.000    2.167    0.000    4.833 
#
# Total GULP energy -595167.737111 kJ/mol
# GULP energy per Si atom -12399.327856 kJ/mol
# Density = 1.809497 g / cm^3
# Si number density = 18.136247 Si / 1000 Ang^3
#
#
#
# Elastic Constant Matrix: (Units=GPa)
#
#
# Indices 1 2 3 4 5 6 
#
# 1 144.4285 35.4915 91.9914 0.0000 0.0000 0.0000
# 2 35.4915 26.9682 41.6276 0.0000 0.0000 0.0000
# 3 91.9914 41.6276 161.8430 0.0000 0.0000 0.0000
# 4 0.0000 0.0000 0.0000 -57.2206 0.0000 0.0000
# 5 0.0000 0.0000 0.0000 0.0000 42.9976 0.0000
# 6 0.0000 0.0000 0.0000 0.0000 0.0000 23.2181
#
#
#
# Elastic Compliance Matrix: (Units=1/GPa)
#
#
# Indices 1 2 3 4 5 6 
#
# 1 0.011971 -0.008709 -0.004564 0.000000 0.000000 0.000000
# 2 -0.008709 0.067833 -0.012497 0.000000 0.000000 0.000000
# 3 -0.004564 -0.012497 0.011987 0.000000 0.000000 0.000000
# 4 0.000000 0.000000 0.000000 -0.017476 0.000000 0.000000
# 5 0.000000 0.000000 0.000000 0.000000 0.023257 0.000000
# 6 0.000000 0.000000 0.000000 0.000000 0.000000 0.043070
#
#
# Mechanical properties :
#
#
# Convention : Reuss Voigt Hill
#
# Bulk Modulus (GPa) = 24.84455 74.60675 49.72565
# Shear Modulus (GPa) = 24.31911 12.74096 18.53004
#
# Velocity S-wave (km/s) = 3.66582 2.65337 3.19989
# Velocity P-wave (km/s) = 5.62550 7.11430 6.41325
#
# Compressibility (1/GPa) = 0.04025028
#
# Stress axis : x y z
#
# Youngs Moduli (GPa) = 83.53376 14.74220 83.42047
#
# Poissons Ratio (x) = 0.12840 0.38076
# Poissons Ratio (y) = 0.72753 1.04249
# Poissons Ratio (z) = 0.38127 0.18423
#
# Static dielectric constant tensor:
#      x y z
#    x 3.725840 0.000000 0.000000 
#    y 0.000000 2.902710 0.000000 
#    z 0.000000 0.000000 3.565810 
# 
# 
# High freq. dielectric constant tensor:
#      x y z
#    x 1.714300 0.000000 0.000000 
#    y 0.000000 1.653750 0.000000 
#    z 0.000000 0.000000 1.719050 
# 
# From -- ./inp_files/36984.got.cif
#   From: 2010.03.12/outbox.cif.g09.slc.cpg/sg51_19_cif.got.tgz:36984.got - 2010.04.16 13:43:02.
