data_PCOD8213413
_publ_section_title
;
Structure prediction by ZEFSAII (Michael W. Deem and Ramdas Pophale) SiO2 
 PCOD8213413
Probable space group: P M M A
;
_chemical_formula_sum "Si O2"
_cell_formula_units_Z 64
_cell_length_a 9.186624
_cell_length_b 18.558745
_cell_length_c 19.450911
_cell_angle_alpha 90.000000
_cell_angle_beta 90.000000
_cell_angle_gamma 90.000000
_cell_volume 3316.228846
_symmetry_space_group_name_H-M "P M M A"
_symmetry_group_IT_number 51
_symmetry_cell_setting 'orthorhombic'
loop_
_space_group_symop_operation_xyz
x,y,z
1/2-x,-y,z
1/2+x,-y,-z
-x,y,-z
-x,-y,-z
1/2+x,y,-z
1/2-x,y,z
x,-y,z
loop_
_atom_site_type_symbol
_atom_site_label
_atom_site_fract_x
_atom_site_fract_y
_atom_site_fract_z
Si Si1 0.589517 0.084862 0.436799
Si Si2 0.417729 0.692928 0.428201
Si Si3 0.084371 0.419410 0.938315
Si Si4 0.916598 0.829094 0.661485
Si Si5 0.420981 0.915612 0.928957
Si Si6 0.419336 0.583563 0.314689
Si Si7 0.079399 0.813462 0.178395
Si Si8 0.080884 0.331868 0.803870
O O1 0.500000 0.119324 0.500000
O O2 0.750000 0.118787 0.438858
O O3 0.511712 0.104911 0.366160
O O4 0.597041 0.000000 0.443543
O O5 0.500000 0.696564 0.500000
O O6 0.250000 0.703394 0.446042
O O7 0.469151 0.754963 0.374585
O O8 0.445180 0.616030 0.390937
O O9 0.250000 0.416705 0.960640
O O10 0.022894 0.500000 0.932481
O O11 0.059615 0.388021 0.863997
O O12 0.000000 0.378153 0.000000
O O13 0.750000 0.844270 0.643520
O O14 0.943635 0.830676 0.742022
O O15 0.250000 0.895636 0.933895
O O16 0.497011 0.872603 0.867238
O O17 0.442323 0.000000 0.913590
O O18 0.500000 0.894068 0.000000
O O19 0.250000 0.591308 0.293921
O O20 0.469041 0.500000 0.314215
O O21 0.513445 0.631822 0.263318
O O22 0.250000 0.811306 0.158613
O O23 0.005939 0.736558 0.167787
O O24 0.250000 0.312715 0.789949
#
# Coordination Sequence:
#
# PCOD8213413 Si02
#       8
#     8   8   8   8   8   8   8   8
#     4  10  21  36  55  81 113 148 189 235 284 344
#     4  10  21  38  57  83 114 148 194 242 297 359
#     4   9  19  35  54  79 111 146 186 232 281 338
#     4  10  21  38  58  81 114 153 194 242 292 351
#     4  10  22  42  67  95 127 163 205 251 299 352
#     4  10  21  39  61  83 113 154 197 244 303 369
#     4  11  23  40  62  88 121 158 199 244 293 351
#     4  11  22  37  58  85 119 154 194 247 300 353
#
# _framework density 19.299029999999998
#
# number of rings (size 3 to 8) (size 9 to 14) (size 15 to 20)
#    0.000    1.875    1.250    2.250    0.000    7.500 
#    0.000    5.000    0.000    0.000    0.000    0.000 
#    0.000    0.000    0.000    0.000    0.000    0.000 
#
# Total GULP energy -793501.108969 kJ/mol
# GULP energy per Si atom -12398.454828 kJ/mol
# Density = 1.925510 g / cm^3
# Si number density = 19.299030 Si / 1000 Ang^3
#
#
#
# Elastic Constant Matrix: (Units=GPa)
#
#
# Indices 1 2 3 4 5 6 
#
# 1 111.7877 52.9569 74.6776 0.0000 0.0000 0.0000
# 2 52.9569 70.8316 51.7974 0.0000 0.0000 0.0000
# 3 74.6776 51.7974 120.0512 0.0000 0.0000 0.0000
# 4 0.0000 0.0000 0.0000 9.5972 0.0000 0.0000
# 5 0.0000 0.0000 0.0000 0.0000 36.3898 0.0000
# 6 0.0000 0.0000 0.0000 0.0000 0.0000 29.8125
#
#
#
# Elastic Compliance Matrix: (Units=1/GPa)
#
#
# Indices 1 2 3 4 5 6 
#
# 1 0.017710 -0.007575 -0.007748 0.000000 0.000000 0.000000
# 2 -0.007575 0.023865 -0.005585 0.000000 0.000000 0.000000
# 3 -0.007748 -0.005585 0.015559 0.000000 0.000000 0.000000
# 4 0.000000 0.000000 0.000000 0.104197 0.000000 0.000000
# 5 0.000000 0.000000 0.000000 0.000000 0.027480 0.000000
# 6 0.000000 0.000000 0.000000 0.000000 0.000000 0.033543
#
#
# Mechanical properties :
#
#
# Convention : Reuss Voigt Hill
#
# Bulk Modulus (GPa) = 65.28044 73.50380 69.39212
# Shear Modulus (GPa) = 18.56823 23.37582 20.97203
#
# Velocity S-wave (km/s) = 3.10519 3.48407 3.30007
# Velocity P-wave (km/s) = 6.83780 7.37255 7.11020
#
# Compressibility (1/GPa) = 0.01531852
#
# Stress axis : x y z
#
# Youngs Moduli (GPa) = 56.46555 41.90156 64.26997
#
# Poissons Ratio (x) = 0.31739 0.49798
# Poissons Ratio (y) = 0.42771 0.35896
# Poissons Ratio (z) = 0.43751 0.23403
#
# Static dielectric constant tensor:
#      x y z
#    x 3.721110 0.000000 0.000000 
#    y 0.000000 3.697930 0.000000 
#    z 0.000000 0.000000 3.546920 
# 
# 
# High freq. dielectric constant tensor:
#      x y z
#    x 1.758790 0.000000 0.000000 
#    y 0.000000 1.747910 0.000000 
#    z 0.000000 0.000000 1.757570 
# 
# From -- ./inp_files/32446.got.cif
#   From: 2010.03.12/outbox.cif.g09.slc.cpg/sg51_17_cif.got.tgz:32446.got - 2010.04.16 13:43:02.
