data_PCOD8213514
_publ_section_title
;
Structure prediction by ZEFSAII (Michael W. Deem and Ramdas Pophale) SiO2 
 PCOD8213514
Probable space group: P M M A
;
_chemical_formula_sum "Si O2"
_cell_formula_units_Z 64
_cell_length_a 18.930626
_cell_length_b 9.322886
_cell_length_c 21.379056
_cell_angle_alpha 90.000000
_cell_angle_beta 90.000000
_cell_angle_gamma 90.000000
_cell_volume 3773.148291
_symmetry_space_group_name_H-M "P M M A"
_symmetry_group_IT_number 51
_symmetry_cell_setting 'orthorhombic'
loop_
_space_group_symop_operation_xyz
x,y,z
1/2-x,-y,z
1/2+x,-y,-z
-x,y,-z
-x,-y,-z
1/2+x,y,-z
1/2-x,y,z
x,-y,z
loop_
_atom_site_type_symbol
_atom_site_label
_atom_site_fract_x
_atom_site_fract_y
_atom_site_fract_z
Si Si1 0.610307 0.160802 0.769331
Si Si2 0.079920 0.330901 0.483636
Si Si3 0.172310 0.835695 0.103794
Si Si4 0.464484 0.331988 0.063549
Si Si5 0.667512 0.167017 0.413819
Si Si6 0.922063 0.839038 0.638149
Si Si7 0.520848 0.666267 0.193595
Si Si8 0.425975 0.164261 0.699433
O O1 0.672294 0.177018 0.820095
O O2 0.633430 0.177702 0.696432
O O3 0.555421 0.286205 0.782763
O O4 0.575577 0.000000 0.776045
O O5 0.091136 0.500000 0.485087
O O6 0.133069 0.259872 0.531914
O O7 0.098707 0.273663 0.414785
O O8 0.000000 0.286829 0.500000
O O9 0.250000 0.782025 0.081889
O O10 0.110759 0.744672 0.071923
O O11 0.160775 0.000000 0.083617
O O12 0.447736 0.500000 0.060790
O O13 0.520738 0.298182 0.119217
O O14 0.500000 0.275988 0.000000
O O15 0.750000 0.199069 0.412820
O O16 0.635966 0.215540 0.346986
O O17 0.650539 0.000000 0.426217
O O18 0.000117 0.806781 0.664580
O O19 0.918707 0.000000 0.610007
O O20 0.532333 0.500000 0.206396
O O21 0.579609 0.749464 0.234746
O O22 0.415983 0.000000 0.717569
#
# Coordination Sequence:
#
# PCOD8213514 Si02
#       8
#     8   8   8   8   8   8   8   8
#     4   8  15  28  44  66  95 125 154 191 239 284
#     4  11  22  33  48  72 100 130 164 204 251 300
#     4   9  17  30  49  73 101 131 165 206 250 297
#     4   9  18  32  49  72 103 137 173 208 241 283
#     4  10  21  37  55  72  92 124 165 207 253 304
#     4   9  16  28  48  70  92 122 161 203 239 282
#     4   9  16  26  45  71  95 120 154 196 236 279
#     4   9  17  30  49  72  95 119 152 198 246 292
#
# _framework density 16.961963000000001
#
# number of rings (size 3 to 8) (size 9 to 14) (size 15 to 20)
#    0.000    2.750    1.250    1.500    0.000    4.250 
#    0.000    0.625    0.000    3.000    0.000    3.500 
#    0.000    0.000    0.000    0.000    0.000    0.000 
#
# Total GULP energy -793035.555287 kJ/mol
# GULP energy per Si atom -12391.180551 kJ/mol
# Density = 1.692336 g / cm^3
# Si number density = 16.961963 Si / 1000 Ang^3
#
#
#
# Elastic Constant Matrix: (Units=GPa)
#
#
# Indices 1 2 3 4 5 6 
#
# 1 77.6112 36.7919 55.2930 0.0000 0.0000 0.0000
# 2 36.7919 64.1057 62.0672 0.0000 0.0000 0.0000
# 3 55.2930 62.0672 138.7777 0.0000 0.0000 0.0000
# 4 0.0000 0.0000 0.0000 26.8596 0.0000 0.0000
# 5 0.0000 0.0000 0.0000 0.0000 19.3538 0.0000
# 6 0.0000 0.0000 0.0000 0.0000 0.0000 16.1194
#
#
#
# Elastic Compliance Matrix: (Units=1/GPa)
#
#
# Indices 1 2 3 4 5 6 
#
# 1 0.019388 -0.006434 -0.004847 0.000000 0.000000 0.000000
# 2 -0.006434 0.029648 -0.010696 0.000000 0.000000 0.000000
# 3 -0.004847 -0.010696 0.013921 0.000000 0.000000 0.000000
# 4 0.000000 0.000000 0.000000 0.037231 0.000000 0.000000
# 5 0.000000 0.000000 0.000000 0.000000 0.051670 0.000000
# 6 0.000000 0.000000 0.000000 0.000000 0.000000 0.062037
#
#
# Mechanical properties :
#
#
# Convention : Reuss Voigt Hill
#
# Bulk Modulus (GPa) = 52.62690 65.42209 59.02450
# Shear Modulus (GPa) = 18.92620 20.88939 19.90779
#
# Velocity S-wave (km/s) = 3.34399 3.51314 3.42961
# Velocity P-wave (km/s) = 6.78258 7.42360 7.11032
#
# Compressibility (1/GPa) = 0.01900169
#
# Stress axis : x y z
#
# Youngs Moduli (GPa) = 51.57763 33.72876 71.83497
#
# Poissons Ratio (x) = 0.21703 0.34819
# Poissons Ratio (y) = 0.33188 0.76837
# Poissons Ratio (z) = 0.25000 0.36077
#
# Static dielectric constant tensor:
#      x y z
#    x 2.929560 0.000000 0.000000 
#    y 0.000000 3.155500 0.000000 
#    z 0.000000 0.000000 3.444410 
# 
# 
# High freq. dielectric constant tensor:
#      x y z
#    x 1.614290 0.000000 0.000000 
#    y 0.000000 1.654380 0.000000 
#    z 0.000000 0.000000 1.657070 
# 
# From -- ./inp_files/34130.got.cif
#   From: 2010.03.12/outbox.cif.g09.slc.cpg/sg51_18_cif.got.tgz:34130.got - 2010.04.16 13:43:02.
