data_PCOD8213400
_publ_section_title
;
Structure prediction by ZEFSAII (Michael W. Deem and Ramdas Pophale) SiO2 
 PCOD8213400
Probable space group: P M M A
;
_chemical_formula_sum "Si O2"
_cell_formula_units_Z 64
_cell_length_a 31.021036
_cell_length_b 8.990602
_cell_length_c 12.022429
_cell_angle_alpha 90.000000
_cell_angle_beta 90.000000
_cell_angle_gamma 90.000000
_cell_volume 3353.028858
_symmetry_space_group_name_H-M "P M M A"
_symmetry_group_IT_number 51
_symmetry_cell_setting 'orthorhombic'
loop_
_space_group_symop_operation_xyz
x,y,z
1/2-x,-y,z
1/2+x,-y,-z
-x,y,-z
-x,-y,-z
1/2+x,y,-z
1/2-x,y,z
x,-y,z
loop_
_atom_site_type_symbol
_atom_site_label
_atom_site_fract_x
_atom_site_fract_y
_atom_site_fract_z
Si Si1 0.444945 0.826135 0.256041
Si Si2 0.202716 0.324717 0.244188
Si Si3 0.398557 0.167648 0.864465
Si Si4 0.866030 0.169285 0.898435
Si Si5 0.984943 0.672848 0.121864
Si Si6 0.376309 0.829296 0.618252
Si Si7 0.200122 0.325480 0.493640
Si Si8 0.549969 0.323443 0.516233
O O1 0.411008 0.787095 0.159544
O O2 0.490986 0.768583 0.214889
O O3 0.432018 0.739481 0.367655
O O4 0.447655 0.000000 0.282544
O O5 0.250000 0.259088 0.218485
O O6 0.204420 0.500000 0.240898
O O7 0.171180 0.270431 0.149441
O O8 0.188493 0.275277 0.367931
O O9 0.435038 0.292035 0.865662
O O10 0.371762 0.183889 0.751363
O O11 0.418082 0.000000 0.875251
O O12 0.367798 0.198532 0.969750
O O13 0.854591 0.000000 0.870340
O O14 0.993728 0.500000 0.144926
O O15 0.000000 0.721557 0.000000
O O16 0.331904 0.762969 0.572992
O O17 0.419443 0.743036 0.579604
O O18 0.380669 0.000000 0.579959
O O19 0.250000 0.286176 0.521092
O O20 0.192079 0.500000 0.510086
O O21 0.500000 0.274871 0.500000
O O22 0.554583 0.500000 0.514611
#
# Coordination Sequence:
#
# PCOD8213400 Si02
#       8
#     8   8   8   8   8   8   8   8
#     4  11  22  36  58  83 110 144 186 233 280 333
#     4   9  19  36  58  84 112 141 174 218 275 334
#     4  10  22  40  57  77 112 154 192 232 277 332
#     4  10  21  36  55  81 109 141 181 222 271 325
#     4  11  22  35  54  82 112 146 191 235 279 331
#     4  11  23  38  59  85 114 152 196 240 290 345
#     4   9  19  38  63  88 115 149 187 232 291 352
#     4  11  24  40  57  80 115 153 191 238 290 344
#
# _framework density 19.087219999999999
#
# number of rings (size 3 to 8) (size 9 to 14) (size 15 to 20)
#    0.000    1.750    1.250    3.750    0.000    9.000 
#    0.000    1.875    0.000    3.750    0.000    0.000 
#    0.000    0.000    0.000    0.000    0.000    0.000 
#
# Total GULP energy -793754.360936 kJ/mol
# GULP energy per Si atom -12402.411890 kJ/mol
# Density = 1.904378 g / cm^3
# Si number density = 19.087220 Si / 1000 Ang^3
#
#
#
# Elastic Constant Matrix: (Units=GPa)
#
#
# Indices 1 2 3 4 5 6 
#
# 1 102.3768 44.6352 52.8319 0.0000 0.0000 0.0000
# 2 44.6352 70.5070 45.5774 0.0000 0.0000 0.0000
# 3 52.8319 45.5774 127.1149 0.0000 0.0000 0.0000
# 4 0.0000 0.0000 0.0000 27.8831 0.0000 0.0000
# 5 0.0000 0.0000 0.0000 0.0000 27.6729 0.0000
# 6 0.0000 0.0000 0.0000 0.0000 0.0000 25.4008
#
#
#
# Elastic Compliance Matrix: (Units=1/GPa)
#
#
# Indices 1 2 3 4 5 6 
#
# 1 0.014656 -0.006952 -0.003599 0.000000 0.000000 0.000000
# 2 -0.006952 0.021759 -0.004913 0.000000 0.000000 0.000000
# 3 -0.003599 -0.004913 0.011124 0.000000 0.000000 0.000000
# 4 0.000000 0.000000 0.000000 0.035864 0.000000 0.000000
# 5 0.000000 0.000000 0.000000 0.000000 0.036136 0.000000
# 6 0.000000 0.000000 0.000000 0.000000 0.000000 0.039369
#
#
# Mechanical properties :
#
#
# Convention : Reuss Voigt Hill
#
# Bulk Modulus (GPa) = 60.19313 65.12087 62.65700
# Shear Modulus (GPa) = 25.59212 26.65497 26.12354
#
# Velocity S-wave (km/s) = 3.66566 3.74101 3.70353
# Velocity P-wave (km/s) = 7.03707 7.26992 7.15445
#
# Compressibility (1/GPa) = 0.01661319
#
# Stress axis : x y z
#
# Youngs Moduli (GPa) = 68.23196 45.95697 89.89522
#
# Poissons Ratio (x) = 0.31948 0.32351
# Poissons Ratio (y) = 0.47433 0.44162
# Poissons Ratio (z) = 0.24555 0.22577
#
# Static dielectric constant tensor:
#      x y z
#    x 3.385960 0.000000 0.000000 
#    y 0.000000 3.448330 0.000000 
#    z 0.000000 0.000000 3.610800 
# 
# 
# High freq. dielectric constant tensor:
#      x y z
#    x 1.732390 0.000000 0.000000 
#    y 0.000000 1.744250 0.000000 
#    z 0.000000 0.000000 1.748940 
# 
# From -- ./inp_files/19567.got.cif
#   From: 2010.03.12/outbox.cif.g09.slc.cpg/sg51_10_cif.got.tgz:19567.got - 2010.04.16 13:43:02.
