data_PCOD8213269
_publ_section_title
;
Structure prediction by ZEFSAII (Michael W. Deem and Ramdas Pophale) SiO2 
 PCOD8213269
Probable space group: P M M A
;
_chemical_formula_sum "Si O2"
_cell_formula_units_Z 56
_cell_length_a 18.749703
_cell_length_b 9.013066
_cell_length_c 17.933108
_cell_angle_alpha 90.000000
_cell_angle_beta 90.000000
_cell_angle_gamma 90.000000
_cell_volume 3030.557358
_symmetry_space_group_name_H-M "P M M A"
_symmetry_group_IT_number 51
_symmetry_cell_setting 'orthorhombic'
loop_
_space_group_symop_operation_xyz
x,y,z
1/2-x,-y,z
1/2+x,-y,-z
-x,y,-z
-x,-y,-z
1/2+x,y,-z
1/2-x,y,z
x,-y,z
loop_
_atom_site_type_symbol
_atom_site_label
_atom_site_fract_x
_atom_site_fract_y
_atom_site_fract_z
Si Si1 0.167432 0.827321 0.473346
Si Si2 0.833268 0.328092 0.084538
Si Si3 0.334899 0.828549 0.312361
Si Si4 0.574605 0.824436 0.965117
Si Si5 0.668402 0.823319 0.366000
Si Si6 0.571783 0.326816 0.807563
Si Si7 0.588301 0.672650 0.233129
O O1 0.250000 0.791800 0.477499
O O2 0.138092 0.765640 0.393954
O O3 0.137193 0.767137 0.552809
O O4 0.153107 0.000000 0.469047
O O5 0.750000 0.299846 0.094331
O O6 0.851303 0.500000 0.070029
O O7 0.871802 0.270536 0.159143
O O8 0.860606 0.233704 0.015059
O O9 0.250000 0.815236 0.306834
O O10 0.368982 0.724719 0.250481
O O11 0.357981 0.000000 0.300546
O O12 0.584086 0.760210 0.883409
O O13 0.578282 0.000000 0.960767
O O14 0.500000 0.769093 0.000000
O O15 0.750000 0.769041 0.353465
O O16 0.617240 0.759184 0.303830
O O17 0.666116 0.000000 0.363079
O O18 0.580560 0.500000 0.824128
O O19 0.494663 0.289895 0.774057
O O20 0.603296 0.500000 0.245338
#
# Coordination Sequence:
#
# PCOD8213269 Si02
#       7
#     8   8   8   8   8   8   8
#     4   7  12  27  51  77 105 139 178 221 272 322
#     4  10  21  38  60  83 109 144 183 222 266 319
#     4   9  18  35  59  83 108 139 179 230 279 321
#     4  11  23  39  60  83 107 138 178 224 272 321
#     4   9  17  30  52  81 109 140 182 228 270 317
#     4  11  23  38  58  80 108 146 183 219 265 323
#     4  10  21  36  53  76 110 149 183 217 263 318
#
# _framework density 18.478449999999999
#
# number of rings (size 3 to 8) (size 9 to 14) (size 15 to 20)
#    0.000    2.429    1.429    3.000    0.000    4.286 
#    0.000    1.429    0.000    6.857    0.000    0.000 
#    0.000    0.000    0.000    0.000    0.000    0.000 
#
# Total GULP energy -694067.994121 kJ/mol
# GULP energy per Si atom -12394.071324 kJ/mol
# Density = 1.843639 g / cm^3
# Si number density = 18.478450 Si / 1000 Ang^3
#
#
#
# Elastic Constant Matrix: (Units=GPa)
#
#
# Indices 1 2 3 4 5 6 
#
# 1 56.0831 25.7389 36.9090 0.0000 0.0000 0.0000
# 2 25.7389 44.0473 38.5260 0.0000 0.0000 0.0000
# 3 36.9090 38.5260 152.9117 0.0000 0.0000 0.0000
# 4 0.0000 0.0000 0.0000 -10.1629 0.0000 0.0000
# 5 0.0000 0.0000 0.0000 0.0000 20.5034 0.0000
# 6 0.0000 0.0000 0.0000 0.0000 0.0000 26.5042
#
#
#
# Elastic Compliance Matrix: (Units=1/GPa)
#
#
# Indices 1 2 3 4 5 6 
#
# 1 0.025443 -0.012180 -0.003072 0.000000 0.000000 0.000000
# 2 -0.012180 0.034951 -0.005866 0.000000 0.000000 0.000000
# 3 -0.003072 -0.005866 0.008759 0.000000 0.000000 0.000000
# 4 0.000000 0.000000 0.000000 -0.098397 0.000000 0.000000
# 5 0.000000 0.000000 0.000000 0.000000 0.048772 0.000000
# 6 0.000000 0.000000 0.000000 0.000000 0.000000 0.037730
#
#
# Mechanical properties :
#
#
# Convention : Reuss Voigt Hill
#
# Bulk Modulus (GPa) = 37.15263 50.59888 43.87576
# Shear Modulus (GPa) = 46.09696 17.49347 31.79522
#
# Velocity S-wave (km/s) = 5.00005 3.08018 4.15259
# Velocity P-wave (km/s) = 7.31325 6.33183 6.84016
#
# Compressibility (1/GPa) = 0.02691599
#
# Stress axis : x y z
#
# Youngs Moduli (GPa) = 39.30410 28.61163 114.16506
#
# Poissons Ratio (x) = 0.34849 0.35077
# Poissons Ratio (y) = 0.47872 0.66968
# Poissons Ratio (z) = 0.12076 0.16783
#
# Static dielectric constant tensor:
#      x y z
#    x 3.255430 0.000000 0.000000 
#    y 0.000000 3.185470 0.000000 
#    z 0.000000 0.000000 3.781110 
# 
# 
# High freq. dielectric constant tensor:
#      x y z
#    x 1.699490 0.000000 0.000000 
#    y 0.000000 1.696330 0.000000 
#    z 0.000000 0.000000 1.741050 
# 
# From -- ./inp_files/25675.got.cif
#   From: 2010.03.12/outbox.cif.g09.slc.cpg/sg51_13_cif.got.tgz:25675.got - 2010.04.16 13:43:02.
