data_PCOD8213647
_publ_section_title
;
Structure prediction by ZEFSAII (Michael W. Deem and Ramdas Pophale) SiO2 
 PCOD8213647
Probable space group: P M M A
;
_chemical_formula_sum "Si O2"
_cell_formula_units_Z 48
_cell_length_a 17.640141
_cell_length_b 9.287246
_cell_length_c 15.309062
_cell_angle_alpha 90.000000
_cell_angle_beta 90.000000
_cell_angle_gamma 90.000000
_cell_volume 2508.058045
_symmetry_space_group_name_H-M "P M M A"
_symmetry_group_IT_number 51
_symmetry_cell_setting 'orthorhombic'
loop_
_space_group_symop_operation_xyz
x,y,z
1/2-x,-y,z
1/2+x,-y,-z
-x,y,-z
-x,-y,-z
1/2+x,y,-z
1/2-x,y,z
x,-y,z
loop_
_atom_site_type_symbol
_atom_site_label
_atom_site_fract_x
_atom_site_fract_y
_atom_site_fract_z
Si Si1 0.597853 0.166312 0.665318
Si Si2 0.661795 0.166901 0.184961
Si Si3 0.337058 0.333168 0.490708
Si Si4 0.162212 0.833699 0.149980
Si Si5 0.421838 0.167031 0.640561
Si Si6 0.340215 0.662614 0.982898
O O1 0.649764 0.263176 0.603606
O O2 0.614580 0.209787 0.764945
O O3 0.510617 0.196159 0.645351
O O4 0.619381 0.000000 0.649410
O O5 0.750000 0.197966 0.201745
O O6 0.616736 0.219141 0.270002
O O7 0.629603 0.256184 0.103058
O O8 0.646746 0.000000 0.164899
O O9 0.250000 0.311180 0.518059
O O10 0.358853 0.500000 0.485582
O O11 0.390158 0.258217 0.561121
O O12 0.250000 0.798855 0.168343
O O13 0.150987 0.000000 0.125238
O O14 0.129325 0.741098 0.069655
O O15 0.403387 0.000000 0.623048
O O16 0.250000 0.668647 0.983003
O O17 0.370918 0.500000 0.981849
#
# Coordination Sequence:
#
# PCOD8213647 Si02
#       6
#     8   8   8   8   8   8
#     4  10  21  37  57  81 108 139 176 218 265 316
#     4   9  17  31  52  76 102 135 175 217 261 309
#     4  11  24  39  56  80 108 139 176 217 262 314
#     4   9  17  31  52  76 102 135 175 217 261 309
#     4  10  21  37  57  81 108 139 176 218 265 316
#     4   9  17  29  48  75 104 134 172 219 264 305
#
# _framework density 19.138311000000002
#
# number of rings (size 3 to 8) (size 9 to 14) (size 15 to 20)
#    0.000    2.333    0.000    2.500    0.000    8.667 
#    0.000    4.167    0.000    5.000    0.000    0.000 
#    0.000    0.000    0.000    0.000    0.000    0.000 
#
# Total GULP energy -595384.913781 kJ/mol
# GULP energy per Si atom -12403.852370 kJ/mol
# Density = 1.909475 g / cm^3
# Si number density = 19.138311 Si / 1000 Ang^3
#
#
#
# Elastic Constant Matrix: (Units=GPa)
#
#
# Indices 1 2 3 4 5 6 
#
# 1 38.3966 25.0053 20.8694 0.0000 0.0000 0.0000
# 2 25.0053 88.6789 59.8217 0.0000 0.0000 0.0000
# 3 20.8694 59.8217 120.5203 0.0000 0.0000 0.0000
# 4 0.0000 0.0000 0.0000 7.1872 0.0000 0.0000
# 5 0.0000 0.0000 0.0000 0.0000 131.4563 0.0000
# 6 0.0000 0.0000 0.0000 0.0000 0.0000 16.9200
#
#
#
# Elastic Compliance Matrix: (Units=1/GPa)
#
#
# Indices 1 2 3 4 5 6 
#
# 1 0.032107 -0.007972 -0.001602 0.000000 0.000000 0.000000
# 2 -0.007972 0.018933 -0.008017 0.000000 0.000000 0.000000
# 3 -0.001602 -0.008017 0.012554 0.000000 0.000000 0.000000
# 4 0.000000 0.000000 0.000000 0.139135 0.000000 0.000000
# 5 0.000000 0.000000 0.000000 0.000000 0.007607 0.000000
# 6 0.000000 0.000000 0.000000 0.000000 0.000000 0.059102
#
#
# Mechanical properties :
#
#
# Convention : Reuss Voigt Hill
#
# Bulk Modulus (GPa) = 35.19866 50.99873 43.09870
# Shear Modulus (GPa) = 15.91891 40.57266 28.24578
#
# Velocity S-wave (km/s) = 2.88719 4.60931 3.84588
# Velocity P-wave (km/s) = 5.43564 7.41842 6.50304
#
# Compressibility (1/GPa) = 0.02841017
#
# Stress axis : x y z
#
# Youngs Moduli (GPa) = 31.14600 52.81821 79.65453
#
# Poissons Ratio (x) = 0.42108 0.12764
# Poissons Ratio (y) = 0.24831 0.63860
# Poissons Ratio (z) = 0.04991 0.42345
#
# Static dielectric constant tensor:
#      x y z
#    x 3.293070 0.000000 0.000000 
#    y 0.000000 3.517030 0.000000 
#    z 0.000000 0.000000 3.648660 
# 
# 
# High freq. dielectric constant tensor:
#      x y z
#    x 1.725250 0.000000 0.000000 
#    y 0.000000 1.739210 0.000000 
#    z 0.000000 0.000000 1.758680 
# 
# From -- ./inp_files/12979.got.cif
#   From: 2010.03.12/outbox.cif.g09.slc.cpg/sg51_7_cif.got.tgz:12979.got - 2010.04.16 13:43:02.
