data_PCOD8213128
_publ_section_title
;
Structure prediction by ZEFSAII (Michael W. Deem and Ramdas Pophale) SiO2 
 PCOD8213128
Probable space group: P M M A
;
_chemical_formula_sum "Si O2"
_cell_formula_units_Z 44
_cell_length_a 9.465438
_cell_length_b 7.851461
_cell_length_c 29.633460
_cell_angle_alpha 90.000000
_cell_angle_beta 90.000000
_cell_angle_gamma 90.000000
_cell_volume 2202.285176
_symmetry_space_group_name_H-M "P M M A"
_symmetry_group_IT_number 51
_symmetry_cell_setting 'orthorhombic'
loop_
_space_group_symop_operation_xyz
x,y,z
1/2-x,-y,z
1/2+x,-y,-z
-x,y,-z
-x,-y,-z
1/2+x,y,-z
1/2-x,y,z
x,-y,z
loop_
_atom_site_type_symbol
_atom_site_label
_atom_site_fract_x
_atom_site_fract_y
_atom_site_fract_z
Si Si1 0.914121 0.302538 0.112167
Si Si2 0.909541 0.200592 0.379258
Si Si3 0.407822 0.201086 0.722512
Si Si4 0.594102 0.303769 0.539577
Si Si5 0.414303 0.000000 0.954390
Si Si6 0.905425 0.696505 0.803857
O O1 0.750000 0.286370 0.124661
O O2 0.950766 0.500000 0.099211
O O3 0.999155 0.231960 0.155518
O O4 0.954350 0.173939 0.071955
O O5 0.750000 0.258441 0.391305
O O6 0.946802 0.257386 0.328313
O O7 0.019532 0.289317 0.412199
O O8 0.923683 0.000000 0.384448
O O9 0.250000 0.266580 0.734542
O O10 0.521034 0.280799 0.755813
O O11 0.412689 0.000000 0.726845
O O12 0.500000 0.216057 0.500000
O O13 0.750000 0.217393 0.541031
O O14 0.613376 0.500000 0.527563
O O15 0.250000 0.000000 0.966312
O O16 0.500000 0.000000 0.000000
O O17 0.750000 0.784694 0.803605
O O18 0.885286 0.500000 0.813220
#
# Coordination Sequence:
#
# PCOD8213128 Si02
#       6
#     8   8   8   8   4   8
#     4   9  19  37  58  80 111 150 190 233 279 331
#     4   9  19  36  55  76 103 135 173 215 260 314
#     4   9  19  35  54  76 104 140 179 217 260 315
#     4  10  21  36  54  76 101 131 169 213 262 316
#     4  10  22  38  58  86 114 146 190 234 281 340
#     4  10  21  35  52  79 112 143 179 224 273 323
#
# _framework density 19.979247999999998
#
# number of rings (size 3 to 8) (size 9 to 14) (size 15 to 20)
#    0.000    2.545    0.000    2.182    1.273    5.818 
#    0.000    5.455    0.000    0.000    0.000    0.000 
#    0.000    0.000    0.000    0.000    0.000    0.000 
#
# Total GULP energy -545446.652953 kJ/mol
# GULP energy per Si atom -12396.514840 kJ/mol
# Density = 1.993377 g / cm^3
# Si number density = 19.979248 Si / 1000 Ang^3
#
#
#
# Elastic Constant Matrix: (Units=GPa)
#
#
# Indices 1 2 3 4 5 6 
#
# 1 148.8793 28.6327 99.1503 0.0000 0.0000 0.0000
# 2 28.6327 48.2162 32.3051 0.0000 0.0000 0.0000
# 3 99.1503 32.3051 154.8113 0.0000 0.0000 0.0000
# 4 0.0000 0.0000 0.0000 43.8393 0.0000 0.0000
# 5 0.0000 0.0000 0.0000 0.0000 41.2958 0.0000
# 6 0.0000 0.0000 0.0000 0.0000 0.0000 18.7606
#
#
#
# Elastic Compliance Matrix: (Units=1/GPa)
#
#
# Indices 1 2 3 4 5 6 
#
# 1 0.011925 -0.002284 -0.007161 0.000000 0.000000 0.000000
# 2 -0.002284 0.024548 -0.003660 0.000000 0.000000 0.000000
# 3 -0.007161 -0.003660 0.011810 0.000000 0.000000 0.000000
# 4 0.000000 0.000000 0.000000 0.022811 0.000000 0.000000
# 5 0.000000 0.000000 0.000000 0.000000 0.024216 0.000000
# 6 0.000000 0.000000 0.000000 0.000000 0.000000 0.053303
#
#
# Mechanical properties :
#
#
# Convention : Reuss Voigt Hill
#
# Bulk Modulus (GPa) = 45.30298 74.67589 59.98943
# Shear Modulus (GPa) = 27.44546 33.56706 30.50626
#
# Velocity S-wave (km/s) = 3.71036 4.10334 3.91179
# Velocity P-wave (km/s) = 6.40937 7.74001 7.10590
#
# Compressibility (1/GPa) = 0.02207360
#
# Stress axis : x y z
#
# Youngs Moduli (GPa) = 83.85653 40.73605 84.67716
#
# Poissons Ratio (x) = 0.09303 0.60637
# Poissons Ratio (y) = 0.19150 0.30992
# Poissons Ratio (z) = 0.60050 0.14909
#
# Static dielectric constant tensor:
#      x y z
#    x 4.089950 0.000000 0.000000 
#    y 0.000000 3.507330 0.000000 
#    z 0.000000 0.000000 3.692260 
# 
# 
# High freq. dielectric constant tensor:
#      x y z
#    x 1.782670 0.000000 0.000000 
#    y 0.000000 1.766640 0.000000 
#    z 0.000000 0.000000 1.777050 
# 
# From -- ./inp_files/36776.got.cif
#   From: 2010.03.12/outbox.cif.g09.slc.cpg/sg51_19_cif.got.tgz:36776.got - 2010.04.16 13:43:02.
