data_PCOD8213476
_publ_section_title
;
Structure prediction by ZEFSAII (Michael W. Deem and Ramdas Pophale) SiO2 
 PCOD8213476
Probable space group: P M M A
;
_chemical_formula_sum "Si O2"
_cell_formula_units_Z 48
_cell_length_a 8.987659
_cell_length_b 16.205765
_cell_length_c 18.340065
_cell_angle_alpha 90.000000
_cell_angle_beta 90.000000
_cell_angle_gamma 90.000000
_cell_volume 2671.265124
_symmetry_space_group_name_H-M "P M M A"
_symmetry_group_IT_number 51
_symmetry_cell_setting 'orthorhombic'
loop_
_space_group_symop_operation_xyz
x,y,z
1/2-x,-y,z
1/2+x,-y,-z
-x,y,-z
-x,-y,-z
1/2+x,y,-z
1/2-x,y,z
x,-y,z
loop_
_atom_site_type_symbol
_atom_site_label
_atom_site_fract_x
_atom_site_fract_y
_atom_site_fract_z
Si Si1 0.921027 0.270767 0.707686
Si Si2 0.575994 0.842885 0.575591
Si Si3 0.427265 0.000000 0.648449
Si Si4 0.923655 0.674970 0.924431
Si Si5 0.075602 0.000000 0.816292
Si Si6 0.921163 0.162288 0.842505
Si Si7 0.578377 0.594935 0.210568
O O1 0.750000 0.294679 0.722623
O O2 0.946395 0.236866 0.626719
O O3 0.969633 0.200067 0.764728
O O4 0.019771 0.352049 0.720635
O O5 0.500000 0.818879 0.500000
O O6 0.750000 0.863753 0.565522
O O7 0.493586 0.920796 0.609220
O O8 0.478602 0.000000 0.732456
O O9 0.250000 0.000000 0.640367
O O10 0.750000 0.656565 0.930660
O O11 0.954101 0.770792 0.905323
O O12 0.988420 0.616174 0.862225
O O13 0.000000 0.652044 0.000000
O O14 0.016385 0.919242 0.857856
O O15 0.250000 0.000000 0.822192
O O16 0.750000 0.135899 0.841177
O O17 0.750000 0.615882 0.196584
O O18 0.553866 0.500000 0.230919
#
# Coordination Sequence:
#
# PCOD8213476 Si02
#       7
#     8   8   4   8   4   8   8
#     4   9  19  35  55  77 103 139 178 217 264 315
#     4  11  22  36  53  76 108 145 182 222 269 317
#     4  11  22  34  49  76 109 143 182 224 269 312
#     4  10  21  37  57  81 108 142 176 213 263 315
#     4  11  21  30  49  78 103 133 179 226 264 303
#     4   9  18  34  53  73 100 136 178 218 263 312
#     4  10  21  36  57  85 112 138 170 212 261 313
#
# _framework density 17.969014000000001
#
# number of rings (size 3 to 8) (size 9 to 14) (size 15 to 20)
#    0.000    2.000    1.667    3.250    0.000    7.000 
#    0.000    0.417    0.000    0.500    0.000    0.000 
#    0.000    0.000    0.000    0.000    0.000    0.000 
#
# Total GULP energy -595342.019535 kJ/mol
# GULP energy per Si atom -12402.958740 kJ/mol
# Density = 1.792812 g / cm^3
# Si number density = 17.969014 Si / 1000 Ang^3
#
#
#
# Elastic Constant Matrix: (Units=GPa)
#
#
# Indices 1 2 3 4 5 6 
#
# 1 101.8434 56.0138 37.6810 0.0000 0.0000 0.0000
# 2 56.0138 103.2430 25.9633 0.0000 0.0000 0.0000
# 3 37.6810 25.9633 65.9636 0.0000 0.0000 0.0000
# 4 0.0000 0.0000 0.0000 18.6614 0.0000 0.0000
# 5 0.0000 0.0000 0.0000 0.0000 30.9095 0.0000
# 6 0.0000 0.0000 0.0000 0.0000 0.0000 32.0301
#
#
#
# Elastic Compliance Matrix: (Units=1/GPa)
#
#
# Indices 1 2 3 4 5 6 
#
# 1 0.016107 -0.007131 -0.006394 0.000000 0.000000 0.000000
# 2 -0.007131 0.013907 -0.001400 0.000000 0.000000 0.000000
# 3 -0.006394 -0.001400 0.019364 0.000000 0.000000 0.000000
# 4 0.000000 0.000000 0.000000 0.053586 0.000000 0.000000
# 5 0.000000 0.000000 0.000000 0.000000 0.032353 0.000000
# 6 0.000000 0.000000 0.000000 0.000000 0.000000 0.031221
#
#
# Mechanical properties :
#
#
# Convention : Reuss Voigt Hill
#
# Bulk Modulus (GPa) = 51.21183 56.70735 53.95959
# Shear Modulus (GPa) = 24.64323 26.41301 25.52812
#
# Velocity S-wave (km/s) = 3.70730 3.83811 3.77327
# Velocity P-wave (km/s) = 6.84744 7.16020 7.00556
#
# Compressibility (1/GPa) = 0.01952674
#
# Stress axis : x y z
#
# Youngs Moduli (GPa) = 62.08665 71.90785 51.64314
#
# Poissons Ratio (x) = 0.51274 0.33021
# Poissons Ratio (y) = 0.44271 0.07232
# Poissons Ratio (z) = 0.39699 0.10070
#
# Static dielectric constant tensor:
#      x y z
#    x 3.418840 0.000000 0.000000 
#    y 0.000000 3.225760 0.000000 
#    z 0.000000 0.000000 3.323120 
# 
# 
# High freq. dielectric constant tensor:
#      x y z
#    x 1.708100 0.000000 0.000000 
#    y 0.000000 1.688100 0.000000 
#    z 0.000000 0.000000 1.680290 
# 
# From -- ./inp_files/27643.got.cif
#   From: 2010.03.12/outbox.cif.g09.slc.cpg/sg51_14_cif.got.tgz:27643.got - 2010.04.16 13:43:02.
