data_PCOD8213434
_publ_section_title
;
Structure prediction by ZEFSAII (Michael W. Deem and Ramdas Pophale) SiO2 
 PCOD8213434
Probable space group: P M M A
;
_chemical_formula_sum "Si O2"
_cell_formula_units_Z 64
_cell_length_a 13.811679
_cell_length_b 9.127645
_cell_length_c 25.403658
_cell_angle_alpha 90.000000
_cell_angle_beta 90.000000
_cell_angle_gamma 90.000000
_cell_volume 3202.590967
_symmetry_space_group_name_H-M "P M M A"
_symmetry_group_IT_number 51
_symmetry_cell_setting 'orthorhombic'
loop_
_space_group_symop_operation_xyz
x,y,z
1/2-x,-y,z
1/2+x,-y,-z
-x,y,-z
-x,-y,-z
1/2+x,y,-z
1/2-x,y,z
x,-y,z
loop_
_atom_site_type_symbol
_atom_site_label
_atom_site_fract_x
_atom_site_fract_y
_atom_site_fract_z
Si Si1 0.858198 0.168935 0.874608
Si Si2 0.359616 0.165115 0.518321
Si Si3 0.964870 0.170848 0.374192
Si Si4 0.134791 0.664854 0.909307
Si Si5 0.860875 0.329132 0.587439
Si Si6 0.543448 0.830310 0.184768
Si Si7 0.637684 0.328593 0.281168
Si Si8 0.861396 0.330684 0.974916
O O1 0.750000 0.229620 0.861145
O O2 0.907967 0.245581 0.925493
O O3 0.928655 0.195140 0.824772
O O4 0.852635 0.000000 0.888978
O O5 0.250000 0.182214 0.538151
O O6 0.427586 0.201287 0.567149
O O7 0.383212 0.276541 0.471724
O O8 0.378783 0.000000 0.497412
O O9 0.071636 0.242821 0.370995
O O10 0.891679 0.247753 0.334443
O O11 0.970739 0.000000 0.360229
O O12 0.250000 0.667968 0.913112
O O13 0.101633 0.500000 0.893131
O O14 0.101140 0.783179 0.867202
O O15 0.091535 0.703803 0.967668
O O16 0.750000 0.294444 0.602556
O O17 0.884140 0.500000 0.590850
O O18 0.573851 0.732526 0.233757
O O19 0.566863 0.000000 0.196408
O O20 0.750000 0.297200 0.269255
O O21 0.617225 0.500000 0.287450
O O22 0.750000 0.281790 0.976651
O O23 0.873187 0.500000 0.962172
#
# Coordination Sequence:
#
# PCOD8213434 Si02
#       8
#     8   8   8   8   8   8   8   8
#     4   9  19  36  55  76 106 141 176 218 268 321
#     4   9  18  33  54  83 119 156 193 234 283 339
#     4  11  22  37  60  87 115 151 194 238 285 336
#     4   9  18  33  52  76 109 145 178 216 267 327
#     4  10  21  36  55  83 121 161 198 237 280 328
#     4  11  23  37  56  81 106 138 182 229 276 326
#     4  11  25  44  64  85 111 143 179 224 279 336
#     4   8  15  29  50  76 105 139 178 217 261 318
#
# _framework density 19.983819
#
# number of rings (size 3 to 8) (size 9 to 14) (size 15 to 20)
#    0.000    2.250    0.000    3.375    0.000    8.500 
#    0.000    5.625    0.000    2.250    0.000    0.000 
#    0.000    0.000    0.000    0.000    0.000    0.000 
#
# Total GULP energy -793553.891426 kJ/mol
# GULP energy per Si atom -12399.279554 kJ/mol
# Density = 1.993834 g / cm^3
# Si number density = 19.983819 Si / 1000 Ang^3
#
#
#
# Elastic Constant Matrix: (Units=GPa)
#
#
# Indices 1 2 3 4 5 6 
#
# 1 72.6605 43.5112 29.8733 0.0000 0.0000 0.0000
# 2 43.5112 99.7016 41.1350 0.0000 0.0000 0.0000
# 3 29.8733 41.1350 42.8064 0.0000 0.0000 0.0000
# 4 0.0000 0.0000 0.0000 35.9191 0.0000 0.0000
# 5 0.0000 0.0000 0.0000 0.0000 30.7363 0.0000
# 6 0.0000 0.0000 0.0000 0.0000 0.0000 26.4756
#
#
#
# Elastic Compliance Matrix: (Units=1/GPa)
#
#
# Indices 1 2 3 4 5 6 
#
# 1 0.020760 -0.005107 -0.009579 0.000000 0.000000 0.000000
# 2 -0.005107 0.017875 -0.013613 0.000000 0.000000 0.000000
# 3 -0.009579 -0.013613 0.043128 0.000000 0.000000 0.000000
# 4 0.000000 0.000000 0.000000 0.027840 0.000000 0.000000
# 5 0.000000 0.000000 0.000000 0.000000 0.032535 0.000000
# 6 0.000000 0.000000 0.000000 0.000000 0.000000 0.037771
#
#
# Mechanical properties :
#
#
# Convention : Reuss Voigt Hill
#
# Bulk Modulus (GPa) = 39.74128 49.35639 44.54884
# Shear Modulus (GPa) = 20.41680 25.33614 22.87647
#
# Velocity S-wave (km/s) = 3.19982 3.56453 3.38709
# Velocity P-wave (km/s) = 5.79497 6.45701 6.13493
#
# Compressibility (1/GPa) = 0.02516275
#
# Stress axis : x y z
#
# Youngs Moduli (GPa) = 48.17052 55.94266 23.18687
#
# Poissons Ratio (x) = 0.28573 0.22212
# Poissons Ratio (y) = 0.24603 0.31565
# Poissons Ratio (z) = 0.46145 0.76156
#
# Static dielectric constant tensor:
#      x y z
#    x 3.849870 0.000000 0.000000 
#    y 0.000000 3.645520 0.000000 
#    z 0.000000 0.000000 3.540910 
# 
# 
# High freq. dielectric constant tensor:
#      x y z
#    x 1.791970 0.000000 0.000000 
#    y 0.000000 1.779340 0.000000 
#    z 0.000000 0.000000 1.761010 
# 
# From -- ./inp_files/35877.got.cif
#   From: 2010.03.12/outbox.cif.g09.slc.cpg/sg51_18_cif.got.tgz:35877.got - 2010.04.16 13:43:02.
