data_PCOD8213137
_publ_section_title
;
Structure prediction by ZEFSAII (Michael W. Deem and Ramdas Pophale) SiO2 
 PCOD8213137
Probable space group: P M M A
;
_chemical_formula_sum "Si O2"
_cell_formula_units_Z 64
_cell_length_a 14.712286
_cell_length_b 9.240284
_cell_length_c 23.896085
_cell_angle_alpha 90.000000
_cell_angle_beta 90.000000
_cell_angle_gamma 90.000000
_cell_volume 3248.570025
_symmetry_space_group_name_H-M "P M M A"
_symmetry_group_IT_number 51
_symmetry_cell_setting 'orthorhombic'
loop_
_space_group_symop_operation_xyz
x,y,z
1/2-x,-y,z
1/2+x,-y,-z
-x,y,-z
-x,-y,-z
1/2+x,y,-z
1/2-x,y,z
x,-y,z
loop_
_atom_site_type_symbol
_atom_site_label
_atom_site_fract_x
_atom_site_fract_y
_atom_site_fract_z
Si Si1 0.356693 0.667399 0.196059
Si Si2 0.356971 0.836330 0.878159
Si Si3 0.646992 0.841083 0.909346
Si Si4 0.476301 0.667019 0.300360
Si Si5 0.520324 0.828715 0.586177
Si Si6 0.147185 0.828515 0.514271
Si Si7 0.852512 0.334455 0.231098
Si Si8 0.601870 0.341449 0.014897
O O1 0.250000 0.693549 0.205729
O O2 0.378046 0.500000 0.184119
O O3 0.397525 0.753351 0.142358
O O4 0.409644 0.720974 0.251080
O O5 0.250000 0.831281 0.886826
O O6 0.384760 0.766825 0.819350
O O7 0.393902 0.000000 0.880099
O O8 0.400979 0.744761 0.927388
O O9 0.750000 0.865119 0.891740
O O10 0.648266 0.753483 0.967056
O O11 0.600130 0.000000 0.916617
O O12 0.457527 0.500000 0.314015
O O13 0.455511 0.758569 0.355003
O O14 0.581079 0.693219 0.283089
O O15 0.600166 0.779445 0.543761
O O16 0.420483 0.776863 0.564183
O O17 0.520334 0.000000 0.592937
O O18 0.250000 0.762770 0.520178
O O19 0.153697 0.000000 0.515525
O O20 0.750000 0.296629 0.250487
O O21 0.859504 0.500000 0.210279
O O22 0.650411 0.500000 0.020566
O O23 0.500000 0.371545 0.000000
#
# Coordination Sequence:
#
# PCOD8213137 Si02
#       8
#     8   8   8   8   8   8   8   8
#     4   9  19  36  55  74 101 140 180 216 260 318
#     4  10  21  37  56  78 103 130 166 218 274 322
#     4  10  21  37  56  78 103 130 166 218 274 322
#     4  10  21  35  53  77 109 144 177 218 264 312
#     4   9  18  32  52  80 107 137 181 220 257 307
#     4   8  15  31  54  78 108 144 178 216 260 306
#     4   9  19  36  55  74 101 140 180 216 260 318
#     4  11  24  37  52  76 104 135 172 211 258 326
#
# _framework density 19.700973999999999
#
# number of rings (size 3 to 8) (size 9 to 14) (size 15 to 20)
#    0.000    2.500    0.000    2.250    1.750    6.000 
#    0.000    1.250    0.000    0.750    0.000    0.000 
#    0.000    0.000    0.000    0.000    0.000    0.000 
#
# Total GULP energy -793362.272904 kJ/mol
# GULP energy per Si atom -12396.285514 kJ/mol
# Density = 1.965613 g / cm^3
# Si number density = 19.700974 Si / 1000 Ang^3
#
#
#
# Elastic Constant Matrix: (Units=GPa)
#
#
# Indices 1 2 3 4 5 6 
#
# 1 57.0788 5.2743 2.2528 0.0000 0.0000 0.0000
# 2 5.2743 90.2203 37.5246 0.0000 0.0000 0.0000
# 3 2.2528 37.5246 82.1072 0.0000 0.0000 0.0000
# 4 0.0000 0.0000 0.0000 34.5125 0.0000 0.0000
# 5 0.0000 0.0000 0.0000 0.0000 25.8604 0.0000
# 6 0.0000 0.0000 0.0000 0.0000 0.0000 36.0779
#
#
#
# Elastic Compliance Matrix: (Units=1/GPa)
#
#
# Indices 1 2 3 4 5 6 
#
# 1 0.017615 -0.001023 -0.000016 0.000000 0.000000 0.000000
# 2 -0.001023 0.013745 -0.006254 0.000000 0.000000 0.000000
# 3 -0.000016 -0.006254 0.015038 0.000000 0.000000 0.000000
# 4 0.000000 0.000000 0.000000 0.028975 0.000000 0.000000
# 5 0.000000 0.000000 0.000000 0.000000 0.038669 0.000000
# 6 0.000000 0.000000 0.000000 0.000000 0.000000 0.027718
#
#
# Mechanical properties :
#
#
# Convention : Reuss Voigt Hill
#
# Bulk Modulus (GPa) = 31.43438 35.50106 33.46772
# Shear Modulus (GPa) = 29.94941 31.58048 30.76495
#
# Velocity S-wave (km/s) = 3.90320 4.00808 3.95599
# Velocity P-wave (km/s) = 6.02526 6.28321 6.15558
#
# Compressibility (1/GPa) = 0.03181230
#
# Stress axis : x y z
#
# Youngs Moduli (GPa) = 56.77042 72.75485 66.49988
#
# Poissons Ratio (x) = 0.07445 0.00104
# Poissons Ratio (y) = 0.05809 0.41586
# Poissons Ratio (z) = 0.00089 0.45498
#
# Static dielectric constant tensor:
#      x y z
#    x 3.774600 0.000000 0.000000 
#    y 0.000000 3.635960 0.000000 
#    z 0.000000 0.000000 3.491030 
# 
# 
# High freq. dielectric constant tensor:
#      x y z
#    x 1.772430 0.000000 0.000000 
#    y 0.000000 1.755660 0.000000 
#    z 0.000000 0.000000 1.758080 
# 
# From -- ./inp_files/35779.got.cif
#   From: 2010.03.12/outbox.cif.g09.slc.cpg/sg51_18_cif.got.tgz:35779.got - 2010.04.16 13:43:02.
