data_PCOD8213994
_publ_section_title
;
Structure prediction by ZEFSAII (Michael W. Deem and Ramdas Pophale) SiO2 
 PCOD8213994
Probable space group: P M M A
;
_chemical_formula_sum "Si O2"
_cell_formula_units_Z 40
_cell_length_a 9.065421
_cell_length_b 8.924888
_cell_length_c 25.744013
_cell_angle_alpha 90.000000
_cell_angle_beta 90.000000
_cell_angle_gamma 90.000000
_cell_volume 2082.893182
_symmetry_space_group_name_H-M "P M M A"
_symmetry_group_IT_number 51
_symmetry_cell_setting 'orthorhombic'
loop_
_space_group_symop_operation_xyz
x,y,z
1/2-x,-y,z
1/2+x,-y,-z
-x,y,-z
-x,-y,-z
1/2+x,y,-z
1/2-x,y,z
x,-y,z
loop_
_atom_site_type_symbol
_atom_site_label
_atom_site_fract_x
_atom_site_fract_y
_atom_site_fract_z
Si Si1 0.580406 0.822613 0.163601
Si Si2 0.577667 0.672989 0.553341
Si Si3 0.580604 0.676534 0.743059
Si Si4 0.080315 0.175712 0.647753
Si Si5 0.079292 0.828748 0.951293
O O1 0.750000 0.784934 0.177782
O O2 0.469972 0.739012 0.201691
O O3 0.543087 0.760895 0.105566
O O4 0.555382 0.000000 0.167277
O O5 0.500000 0.719331 0.500000
O O6 0.750000 0.705194 0.547524
O O7 0.546419 0.500000 0.567163
O O8 0.513287 0.775493 0.598269
O O9 0.750000 0.722441 0.733112
O O10 0.560690 0.500000 0.742717
O O11 0.478935 0.744190 0.698672
O O12 0.250000 0.221565 0.639128
O O13 0.062381 0.000000 0.656064
O O14 0.250000 0.816451 0.962797
O O15 0.025844 0.000000 0.949441
O O16 0.000000 0.745568 0.000000
#
# Coordination Sequence:
#
# PCOD8213994 Si02
#       5
#     8   8   8   8   8
#     4   9  18  33  53  78 107 138 175 219 265 316
#     4  10  21  38  61  88 117 150 187 224 264 313
#     4  11  24  39  55  78 107 139 178 223 270 322
#     4  11  24  40  59  84 112 143 181 224 270 320
#     4   8  14  25  43  70 103 135 168 209 257 310
#
# _framework density 19.204058
#
# number of rings (size 3 to 8) (size 9 to 14) (size 15 to 20)
#    0.000    2.200    0.000    4.200    0.000   10.800 
#    0.000    2.000    0.000    0.600    0.000    0.000 
#    0.000    0.000    0.000    0.000    0.000    0.000 
#
# Total GULP energy -495970.185097 kJ/mol
# GULP energy per Si atom -12399.254627 kJ/mol
# Density = 1.916035 g / cm^3
# Si number density = 19.204058 Si / 1000 Ang^3
#
#
#
# Elastic Constant Matrix: (Units=GPa)
#
#
# Indices 1 2 3 4 5 6 
#
# 1 76.6443 33.5327 46.6964 0.0000 0.0000 0.0000
# 2 33.5327 48.9228 32.5426 0.0000 0.0000 0.0000
# 3 46.6964 32.5426 126.8778 0.0000 0.0000 0.0000
# 4 0.0000 0.0000 0.0000 42.1819 0.0000 0.0000
# 5 0.0000 0.0000 0.0000 0.0000 43.7944 0.0000
# 6 0.0000 0.0000 0.0000 0.0000 0.0000 27.4066
#
#
#
# Elastic Compliance Matrix: (Units=1/GPa)
#
#
# Indices 1 2 3 4 5 6 
#
# 1 0.020830 -0.011066 -0.004828 0.000000 0.000000 0.000000
# 2 -0.011066 0.030524 -0.003756 0.000000 0.000000 0.000000
# 3 -0.004828 -0.003756 0.010622 0.000000 0.000000 0.000000
# 4 0.000000 0.000000 0.000000 0.023707 0.000000 0.000000
# 5 0.000000 0.000000 0.000000 0.000000 0.022834 0.000000
# 6 0.000000 0.000000 0.000000 0.000000 0.000000 0.036488
#
#
# Mechanical properties :
#
#
# Convention : Reuss Voigt Hill
#
# Bulk Modulus (GPa) = 44.10061 53.10981 48.60521
# Shear Modulus (GPa) = 26.06018 31.98814 29.02416
#
# Velocity S-wave (km/s) = 3.68776 4.08572 3.89183
# Velocity P-wave (km/s) = 6.41458 7.06916 6.74981
#
# Compressibility (1/GPa) = 0.02267542
#
# Stress axis : x y z
#
# Youngs Moduli (GPa) = 48.00684 32.76137 94.14422
#
# Poissons Ratio (x) = 0.36254 0.45454
# Poissons Ratio (y) = 0.53124 0.35363
# Poissons Ratio (z) = 0.23179 0.12306
#
# Static dielectric constant tensor:
#      x y z
#    x 3.582770 0.000000 0.000000 
#    y 0.000000 3.267870 0.000000 
#    z 0.000000 0.000000 4.112750 
# 
# 
# High freq. dielectric constant tensor:
#      x y z
#    x 1.754030 0.000000 0.000000 
#    y 0.000000 1.718580 0.000000 
#    z 0.000000 0.000000 1.768760 
# 
# From -- ./inp_files/34305.got.cif
#   From: 2010.03.12/outbox.cif.g09.slc.cpg/sg51_18_cif.got.tgz:34305.got - 2010.04.16 13:43:02.
