data_PCOD8213287
_publ_section_title
;
Structure prediction by ZEFSAII (Michael W. Deem and Ramdas Pophale) SiO2 
 PCOD8213287
Probable space group: P M M A
;
_chemical_formula_sum "Si O2"
_cell_formula_units_Z 48
_cell_length_a 18.185293
_cell_length_b 9.222856
_cell_length_c 15.998758
_cell_angle_alpha 90.000000
_cell_angle_beta 90.000000
_cell_angle_gamma 90.000000
_cell_volume 2683.317110
_symmetry_space_group_name_H-M "P M M A"
_symmetry_group_IT_number 51
_symmetry_cell_setting 'orthorhombic'
loop_
_space_group_symop_operation_xyz
x,y,z
1/2-x,-y,z
1/2+x,-y,-z
-x,y,-z
-x,-y,-z
1/2+x,y,-z
1/2-x,y,z
x,-y,z
loop_
_atom_site_type_symbol
_atom_site_label
_atom_site_fract_x
_atom_site_fract_y
_atom_site_fract_z
Si Si1 0.663896 0.665353 0.165363
Si Si2 0.047971 0.166732 0.735058
Si Si3 0.032032 0.331739 0.408568
Si Si4 0.598209 0.164153 0.830984
Si Si5 0.167662 0.329044 0.023064
Si Si6 0.165756 0.830085 0.342000
O O1 0.750000 0.679471 0.182609
O O2 0.637938 0.500000 0.179290
O O3 0.623592 0.769409 0.230325
O O4 0.645287 0.715405 0.070923
O O5 0.024417 0.254665 0.653548
O O6 0.986703 0.181824 0.806720
O O7 0.059646 0.000000 0.709366
O O8 0.038978 0.500000 0.384573
O O9 0.113028 0.259723 0.403720
O O10 0.000000 0.309495 0.500000
O O11 0.611103 0.260870 0.912046
O O12 0.649167 0.215493 0.753658
O O13 0.617771 0.000000 0.854769
O O14 0.250000 0.272866 0.042633
O O15 0.164534 0.500000 0.032411
O O16 0.250000 0.793515 0.364017
O O17 0.147980 0.000000 0.353330
#
# Coordination Sequence:
#
# PCOD8213287 Si02
#       6
#     8   8   8   8   8   8
#     4   9  19  36  54  72  99 134 172 216 259 296
#     4  10  21  36  54  76 101 131 168 208 254 308
#     4  10  21  37  57  80 105 134 168 207 254 307
#     4   9  18  31  47  71 103 135 166 204 249 296
#     4   9  18  31  47  70 100 135 174 212 251 295
#     4   9  18  33  53  78 108 139 170 207 253 303
#
# _framework density 17.888306
#
# number of rings (size 3 to 8) (size 9 to 14) (size 15 to 20)
#    0.000    2.667    0.000    3.500    0.000    7.667 
#    0.000    5.833    0.000    1.000    0.000    0.000 
#    0.000    0.000    0.000    0.000    0.000    0.000 
#
# Total GULP energy -595248.746048 kJ/mol
# GULP energy per Si atom -12401.015543 kJ/mol
# Density = 1.784759 g / cm^3
# Si number density = 17.888306 Si / 1000 Ang^3
#
#
#
# Elastic Constant Matrix: (Units=GPa)
#
#
# Indices 1 2 3 4 5 6 
#
# 1 83.2719 52.3896 53.4740 0.0000 0.0000 0.0000
# 2 52.3896 91.8169 59.4057 0.0000 0.0000 0.0000
# 3 53.4740 59.4057 87.8598 0.0000 0.0000 0.0000
# 4 0.0000 0.0000 0.0000 4.5641 0.0000 0.0000
# 5 0.0000 0.0000 0.0000 0.0000 22.3756 0.0000
# 6 0.0000 0.0000 0.0000 0.0000 0.0000 33.3908
#
#
#
# Elastic Compliance Matrix: (Units=1/GPa)
#
#
# Indices 1 2 3 4 5 6 
#
# 1 0.021918 -0.006889 -0.008682 0.000000 0.000000 0.000000
# 2 -0.006889 0.021526 -0.010362 0.000000 0.000000 0.000000
# 3 -0.008682 -0.010362 0.023672 0.000000 0.000000 0.000000
# 4 0.000000 0.000000 0.000000 0.219099 0.000000 0.000000
# 5 0.000000 0.000000 0.000000 0.000000 0.044692 0.000000
# 6 0.000000 0.000000 0.000000 0.000000 0.000000 0.029948
#
#
# Mechanical properties :
#
#
# Convention : Reuss Voigt Hill
#
# Bulk Modulus (GPa) = 65.57174 65.94300 65.75737
# Shear Modulus (GPa) = 11.96729 18.57807 15.27268
#
# Velocity S-wave (km/s) = 2.58931 3.22616 2.92512
# Velocity P-wave (km/s) = 6.75834 7.12891 6.94609
#
# Compressibility (1/GPa) = 0.01525047
#
# Stress axis : x y z
#
# Youngs Moduli (GPa) = 45.62395 46.45509 42.24366
#
# Poissons Ratio (x) = 0.32002 0.36677
# Poissons Ratio (y) = 0.31430 0.43773
# Poissons Ratio (z) = 0.39612 0.48137
#
# Static dielectric constant tensor:
#      x y z
#    x 3.275380 0.000000 0.000000 
#    y 0.000000 3.317890 0.000000 
#    z 0.000000 0.000000 3.125860 
# 
# 
# High freq. dielectric constant tensor:
#      x y z
#    x 1.689950 0.000000 0.000000 
#    y 0.000000 1.694370 0.000000 
#    z 0.000000 0.000000 1.679150 
# 
# From -- ./inp_files/24808.got.cif
#   From: 2010.03.12/outbox.cif.g09.slc.cpg/sg51_13_cif.got.tgz:24808.got - 2010.04.16 13:43:02.
