data_PCOD8213290
_publ_section_title
;
Structure prediction by ZEFSAII (Michael W. Deem and Ramdas Pophale) SiO2 
 PCOD8213290
Probable space group: P M M A
;
_chemical_formula_sum "Si O2"
_cell_formula_units_Z 40
_cell_length_a 14.379122
_cell_length_b 9.083071
_cell_length_c 16.480096
_cell_angle_alpha 90.000000
_cell_angle_beta 90.000000
_cell_angle_gamma 90.000000
_cell_volume 2152.409076
_symmetry_space_group_name_H-M "P M M A"
_symmetry_group_IT_number 51
_symmetry_cell_setting 'orthorhombic'
loop_
_space_group_symop_operation_xyz
x,y,z
1/2-x,-y,z
1/2+x,-y,-z
-x,y,-z
-x,-y,-z
1/2+x,y,-z
1/2-x,y,z
x,-y,z
loop_
_atom_site_type_symbol
_atom_site_label
_atom_site_fract_x
_atom_site_fract_y
_atom_site_fract_z
Si Si1 0.004199 0.326814 0.797033
Si Si2 0.356697 0.330009 0.938739
Si Si3 0.646476 0.174209 0.515793
Si Si4 0.983073 0.174198 0.370426
Si Si5 0.641215 0.170218 0.899112
O O1 0.989668 0.500000 0.789362
O O2 0.084598 0.284741 0.860496
O O3 0.035142 0.261629 0.711517
O O4 0.908218 0.253162 0.825205
O O5 0.250000 0.293979 0.918220
O O6 0.371092 0.500000 0.961859
O O7 0.392295 0.236520 0.015226
O O8 0.750000 0.244070 0.523319
O O9 0.582406 0.223373 0.591490
O O10 0.598945 0.222938 0.431538
O O11 0.652934 0.000000 0.516364
O O12 0.981256 0.000000 0.353949
O O13 0.750000 0.196121 0.886817
O O14 0.613899 0.000000 0.897046
#
# Coordination Sequence:
#
# PCOD8213290 Si02
#       5
#     8   8   8   8   8
#     4  11  22  34  51  76 107 140 170 206 254 304
#     4   9  19  36  54  72 100 139 177 210 251 304
#     4   8  15  31  54  75  97 128 164 205 255 304
#     4   9  18  32  51  76 101 127 166 210 249 298
#     4  10  21  36  54  76 101 132 173 218 259 299
#
# _framework density 18.583828
#
# number of rings (size 3 to 8) (size 9 to 14) (size 15 to 20)
#    0.000    2.600    0.000    3.000    0.000    6.800 
#    0.000    4.000    0.000    1.200    0.000    0.000 
#    0.000    0.000    0.000    0.000    0.000    0.000 
#
# Total GULP energy -496039.283766 kJ/mol
# GULP energy per Si atom -12400.982094 kJ/mol
# Density = 1.854153 g / cm^3
# Si number density = 18.583828 Si / 1000 Ang^3
#
#
#
# Elastic Constant Matrix: (Units=GPa)
#
#
# Indices 1 2 3 4 5 6 
#
# 1 75.0310 13.5580 10.7036 0.0000 0.0000 0.0000
# 2 13.5580 55.6614 23.3210 0.0000 0.0000 0.0000
# 3 10.7036 23.3210 75.1963 0.0000 0.0000 0.0000
# 4 0.0000 0.0000 0.0000 -4.5181 0.0000 0.0000
# 5 0.0000 0.0000 0.0000 0.0000 19.9954 0.0000
# 6 0.0000 0.0000 0.0000 0.0000 0.0000 19.4659
#
#
#
# Elastic Compliance Matrix: (Units=1/GPa)
#
#
# Indices 1 2 3 4 5 6 
#
# 1 0.014017 -0.002963 -0.001076 0.000000 0.000000 0.000000
# 2 -0.002963 0.021275 -0.006176 0.000000 0.000000 0.000000
# 3 -0.001076 -0.006176 0.015367 0.000000 0.000000 0.000000
# 4 0.000000 0.000000 0.000000 -0.221332 0.000000 0.000000
# 5 0.000000 0.000000 0.000000 0.000000 0.050011 0.000000
# 6 0.000000 0.000000 0.000000 0.000000 0.000000 0.051372
#
#
# Mechanical properties :
#
#
# Convention : Reuss Voigt Hill
#
# Bulk Modulus (GPa) = 33.08235 33.45044 33.26639
# Shear Modulus (GPa) = -128.92561 17.54239 -55.69161
#
# Velocity S-wave (km/s) = -8.33821 3.07573 -5.48022
# Velocity P-wave (km/s) = 8.65221 5.53645 4.70151
#
# Compressibility (1/GPa) = 0.03022760
#
# Stress axis : x y z
#
# Youngs Moduli (GPa) = 71.34290 47.00272 65.07356
#
# Poissons Ratio (x) = 0.13928 0.07003
# Poissons Ratio (y) = 0.21141 0.40192
# Poissons Ratio (z) = 0.07678 0.29031
#
# Static dielectric constant tensor:
#      x y z
#    x 3.789360 0.000000 0.000000 
#    y 0.000000 3.210150 0.000000 
#    z 0.000000 0.000000 3.358360 
# 
# 
# High freq. dielectric constant tensor:
#      x y z
#    x 1.729720 0.000000 0.000000 
#    y 0.000000 1.700560 0.000000 
#    z 0.000000 0.000000 1.719880 
# 
# From -- ./inp_files/23674.got.cif
#   From: 2010.03.12/outbox.cif.g09.slc.cpg/sg51_12_cif.got.tgz:23674.got - 2010.04.16 13:43:02.
