data_PCOD8213470
_publ_section_title
;
Structure prediction by ZEFSAII (Michael W. Deem and Ramdas Pophale) SiO2 
 PCOD8213470
Probable space group: P M M A
;
_chemical_formula_sum "Si O2"
_cell_formula_units_Z 48
_cell_length_a 30.889810
_cell_length_b 9.220267
_cell_length_c 8.868458
_cell_angle_alpha 90.000000
_cell_angle_beta 90.000000
_cell_angle_gamma 90.000000
_cell_volume 2525.845883
_symmetry_space_group_name_H-M "P M M A"
_symmetry_group_IT_number 51
_symmetry_cell_setting 'orthorhombic'
loop_
_space_group_symop_operation_xyz
x,y,z
1/2-x,-y,z
1/2+x,-y,-z
-x,y,-z
-x,-y,-z
1/2+x,y,-z
1/2-x,y,z
x,-y,z
loop_
_atom_site_type_symbol
_atom_site_label
_atom_site_fract_x
_atom_site_fract_y
_atom_site_fract_z
Si Si1 0.919458 0.328682 0.163046
Si Si2 0.334179 0.329576 0.657847
Si Si3 0.250000 0.830053 0.156600
Si Si4 0.416785 0.832661 0.149227
Si Si5 0.750000 0.670828 0.158952
Si Si6 0.665926 0.830320 0.657141
Si Si7 0.004459 0.833232 0.673505
O O1 0.923726 0.500000 0.151722
O O2 0.875820 0.280970 0.247156
O O3 0.960065 0.268872 0.253542
O O4 0.918940 0.265768 0.996604
O O5 0.333476 0.500000 0.628548
O O6 0.291984 0.278469 0.748770
O O7 0.335152 0.252559 0.498694
O O8 0.291825 0.782695 0.250994
O O9 0.250000 0.000000 0.121595
O O10 0.250000 0.747081 0.000718
O O11 0.375665 0.784455 0.246566
O O12 0.458943 0.803919 0.248065
O O13 0.413284 0.000000 0.099428
O O14 0.750000 0.500000 0.130645
O O15 0.665954 0.000000 0.621186
O O16 0.000000 0.790203 0.500000
O O17 0.019048 0.000000 0.692337
#
# Coordination Sequence:
#
# PCOD8213470 Si02
#       7
#     8   8   4   8   4   8   8
#     4  11  23  37  55  82 113 143 179 226 276 321
#     4  10  22  38  56  81 111 144 184 225 267 322
#     4  10  21  36  56  86 116 140 177 228 276 320
#     4  10  21  37  57  81 109 144 185 223 265 325
#     4  10  21  38  58  80 110 150 189 220 262 326
#     4  10  21  37  58  84 112 143 181 226 275 324
#     4  10  21  38  59  81 107 143 185 225 268 323
#
# _framework density 19.003536
#
# number of rings (size 3 to 8) (size 9 to 14) (size 15 to 20)
#    0.000    1.833    0.000    3.500    0.000    7.667 
#    0.000    0.000    0.000    0.000    0.000    0.000 
#    0.000    0.000    0.000    0.000    0.000    0.000 
#
# Total GULP energy -595474.494506 kJ/mol
# GULP energy per Si atom -12405.718636 kJ/mol
# Density = 1.896028 g / cm^3
# Si number density = 19.003536 Si / 1000 Ang^3
#
#
#
# Elastic Constant Matrix: (Units=GPa)
#
#
# Indices 1 2 3 4 5 6 
#
# 1 172.6456 55.4904 91.0367 0.0000 0.0000 0.0000
# 2 55.4904 56.0769 68.4449 0.0000 0.0000 0.0000
# 3 91.0367 68.4449 182.5655 0.0000 0.0000 0.0000
# 4 0.0000 0.0000 0.0000 55.5867 0.0000 0.0000
# 5 0.0000 0.0000 0.0000 0.0000 32.4872 0.0000
# 6 0.0000 0.0000 0.0000 0.0000 0.0000 28.8019
#
#
#
# Elastic Compliance Matrix: (Units=1/GPa)
#
#
# Indices 1 2 3 4 5 6 
#
# 1 0.008909 -0.006256 -0.002097 0.000000 0.000000 0.000000
# 2 -0.006256 0.037270 -0.010853 0.000000 0.000000 0.000000
# 3 -0.002097 -0.010853 0.010592 0.000000 0.000000 0.000000
# 4 0.000000 0.000000 0.000000 0.017990 0.000000 0.000000
# 5 0.000000 0.000000 0.000000 0.000000 0.030781 0.000000
# 6 0.000000 0.000000 0.000000 0.000000 0.000000 0.034720
#
#
# Mechanical properties :
#
#
# Convention : Reuss Voigt Hill
#
# Bulk Modulus (GPa) = 54.47055 93.47021 73.97038
# Shear Modulus (GPa) = 27.05712 36.46290 31.76001
#
# Velocity S-wave (km/s) = 3.77741 4.38510 4.09255
# Velocity P-wave (km/s) = 6.91019 8.65628 7.83205
#
# Compressibility (1/GPa) = 0.01835854
#
# Stress axis : x y z
#
# Youngs Moduli (GPa) = 112.24961 26.83100 94.41076
#
# Poissons Ratio (x) = 0.16786 0.19797
# Poissons Ratio (y) = 0.70226 1.02466
# Poissons Ratio (z) = 0.23537 0.29120
#
# Static dielectric constant tensor:
#      x y z
#    x 3.749490 0.000000 0.000000 
#    y 0.000000 3.407290 0.000000 
#    z 0.000000 0.000000 3.491780 
# 
# 
# High freq. dielectric constant tensor:
#      x y z
#    x 1.761670 0.000000 0.000000 
#    y 0.000000 1.732260 0.000000 
#    z 0.000000 0.000000 1.754620 
# 
# From -- ./inp_files/12912.got.cif
#   From: 2010.03.12/outbox.cif.g09.slc.cpg/sg51_7_cif.got.tgz:12912.got - 2010.04.16 13:43:02.
