data_PCOD8213250
_publ_section_title
;
Structure prediction by ZEFSAII (Michael W. Deem and Ramdas Pophale) SiO2 
 PCOD8213250
Probable space group: P M M A
;
_chemical_formula_sum "Si O2"
_cell_formula_units_Z 56
_cell_length_a 14.809897
_cell_length_b 9.334652
_cell_length_c 21.318124
_cell_angle_alpha 90.000000
_cell_angle_beta 90.000000
_cell_angle_gamma 90.000000
_cell_volume 2947.129055
_symmetry_space_group_name_H-M "P M M A"
_symmetry_group_IT_number 51
_symmetry_cell_setting 'orthorhombic'
loop_
_space_group_symop_operation_xyz
x,y,z
1/2-x,-y,z
1/2+x,-y,-z
-x,y,-z
-x,-y,-z
1/2+x,y,-z
1/2-x,y,z
x,-y,z
loop_
_atom_site_type_symbol
_atom_site_label
_atom_site_fract_x
_atom_site_fract_y
_atom_site_fract_z
Si Si1 0.499349 0.833615 0.788710
Si Si2 0.646661 0.334187 0.418044
Si Si3 0.350470 0.169924 0.115811
Si Si4 0.355120 0.663368 0.438116
Si Si5 0.357065 0.841280 0.977897
Si Si6 0.144354 0.333230 0.858591
Si Si7 0.008037 0.165846 0.355670
O O1 0.580921 0.772665 0.831526
O O2 0.408790 0.744270 0.802566
O O3 0.528122 0.809413 0.717272
O O4 0.479543 0.000000 0.802758
O O5 0.750000 0.291368 0.405863
O O6 0.630693 0.500000 0.402039
O O7 0.619787 0.303804 0.489948
O O8 0.586334 0.238951 0.372754
O O9 0.250000 0.235173 0.127659
O O10 0.343317 0.000000 0.119238
O O11 0.388538 0.213525 0.046715
O O12 0.250000 0.690226 0.426318
O O13 0.381234 0.500000 0.422066
O O14 0.409374 0.768613 0.393765
O O15 0.250000 0.851024 0.979532
O O16 0.389921 0.731938 0.924678
O O17 0.396951 0.000000 0.963269
O O18 0.250000 0.304187 0.847731
O O19 0.121573 0.500000 0.858592
O O20 0.000711 0.000000 0.372861
#
# Coordination Sequence:
#
# PCOD8213250 Si02
#       7
#     8   8   8   8   8   8   8
#     4  10  22  37  52  74 105 142 179 211 249 303
#     4   9  19  37  60  82 104 137 180 220 260 310
#     4   8  15  31  55  78  99 129 172 215 252 301
#     4   9  19  37  60  83 106 137 178 218 257 308
#     4   8  14  28  53  79  98 123 164 213 263 310
#     4  10  21  36  53  74 102 135 171 215 265 312
#     4  11  23  35  51  80 114 144 174 215 268 315
#
# _framework density 19.001543999999999
#
# number of rings (size 3 to 8) (size 9 to 14) (size 15 to 20)
#    0.000    2.714    0.000    3.000    0.000    6.571 
#    0.000    9.286    0.000    1.286    0.000    0.000 
#    0.000    0.000    0.000    0.000    0.000    0.000 
#
# Total GULP energy -694385.481771 kJ/mol
# GULP energy per Si atom -12399.740746 kJ/mol
# Density = 1.895830 g / cm^3
# Si number density = 19.001544 Si / 1000 Ang^3
#
#
#
# Elastic Constant Matrix: (Units=GPa)
#
#
# Indices 1 2 3 4 5 6 
#
# 1 57.1535 31.2781 21.9664 0.0000 0.0000 0.0000
# 2 31.2781 76.3120 37.7660 0.0000 0.0000 0.0000
# 3 21.9664 37.7660 68.5540 0.0000 0.0000 0.0000
# 4 0.0000 0.0000 0.0000 1.1289 0.0000 0.0000
# 5 0.0000 0.0000 0.0000 0.0000 19.9568 0.0000
# 6 0.0000 0.0000 0.0000 0.0000 0.0000 22.0136
#
#
#
# Elastic Compliance Matrix: (Units=1/GPa)
#
#
# Indices 1 2 3 4 5 6 
#
# 1 0.022994 -0.007944 -0.002991 0.000000 0.000000 0.000000
# 2 -0.007944 0.020760 -0.008891 0.000000 0.000000 0.000000
# 3 -0.002991 -0.008891 0.020444 0.000000 0.000000 0.000000
# 4 0.000000 0.000000 0.000000 0.885852 0.000000 0.000000
# 5 0.000000 0.000000 0.000000 0.000000 0.050108 0.000000
# 6 0.000000 0.000000 0.000000 0.000000 0.000000 0.045426
#
#
# Mechanical properties :
#
#
# Convention : Reuss Voigt Hill
#
# Bulk Modulus (GPa) = 40.74257 42.67118 41.70687
# Shear Modulus (GPa) = 4.57281 16.02046 10.29663
#
# Velocity S-wave (km/s) = 1.55299 2.90679 2.33037
# Velocity P-wave (km/s) = 4.97031 5.81131 5.40719
#
# Compressibility (1/GPa) = 0.02454436
#
# Stress axis : x y z
#
# Youngs Moduli (GPa) = 43.48948 48.16869 48.91476
#
# Poissons Ratio (x) = 0.38266 0.14633
# Poissons Ratio (y) = 0.34549 0.43491
# Poissons Ratio (z) = 0.13010 0.42828
#
# Static dielectric constant tensor:
#      x y z
#    x 3.516370 0.000000 0.000000 
#    y 0.000000 3.300140 0.000000 
#    z 0.000000 0.000000 3.531480 
# 
# 
# High freq. dielectric constant tensor:
#      x y z
#    x 1.742220 0.000000 0.000000 
#    y 0.000000 1.716490 0.000000 
#    z 0.000000 0.000000 1.737640 
# 
# From -- ./inp_files/33346.got.cif
#   From: 2010.03.12/outbox.cif.g09.slc.cpg/sg51_17_cif.got.tgz:33346.got - 2010.04.16 13:43:02.
