data_PCOD8213304
_publ_section_title
;
Structure prediction by ZEFSAII (Michael W. Deem and Ramdas Pophale) SiO2 
 PCOD8213304
Probable space group: P M M A
;
_chemical_formula_sum "Si O2"
_cell_formula_units_Z 40
_cell_length_a 9.424068
_cell_length_b 9.703828
_cell_length_c 25.133816
_cell_angle_alpha 90.000000
_cell_angle_beta 90.000000
_cell_angle_gamma 90.000000
_cell_volume 2298.475784
_symmetry_space_group_name_H-M "P M M A"
_symmetry_group_IT_number 51
_symmetry_cell_setting 'orthorhombic'
loop_
_space_group_symop_operation_xyz
x,y,z
1/2-x,-y,z
1/2+x,-y,-z
-x,y,-z
-x,-y,-z
1/2+x,y,-z
1/2-x,y,z
x,-y,z
loop_
_atom_site_type_symbol
_atom_site_label
_atom_site_fract_x
_atom_site_fract_y
_atom_site_fract_z
Si Si1 0.588979 0.841332 0.256084
Si Si2 0.407021 0.336007 0.452322
Si Si3 0.087695 0.159371 0.867278
Si Si4 0.415255 0.339682 0.052729
Si Si5 0.918467 0.344351 0.664946
O O1 0.750000 0.799736 0.269653
O O2 0.557303 0.813289 0.194460
O O3 0.483259 0.752329 0.290718
O O4 0.562180 0.000000 0.269829
O O5 0.500000 0.272055 0.500000
O O6 0.250000 0.274198 0.459155
O O7 0.401136 0.500000 0.456427
O O8 0.468765 0.296198 0.394112
O O9 0.250000 0.199681 0.881317
O O10 0.977466 0.252815 0.898845
O O11 0.061112 0.000000 0.881619
O O12 0.250000 0.303845 0.044705
O O13 0.437264 0.500000 0.065931
O O14 0.500000 0.297063 0.000000
O O15 0.750000 0.335424 0.668023
O O16 0.969789 0.500000 0.675940
#
# Coordination Sequence:
#
# PCOD8213304 Si02
#       5
#     8   8   8   8   8
#     4   9  19  35  52  71  97 129 165 203 242 286
#     4   8  14  25  41  63  92 123 154 192 238 285
#     4   9  19  36  55  74  98 129 165 204 244 286
#     4  10  21  36  54  77 104 133 164 198 239 287
#     4   9  18  31  47  71 101 128 158 199 244 291
#
# _framework density 17.402837000000002
#
# number of rings (size 3 to 8) (size 9 to 14) (size 15 to 20)
#    0.000    3.000    0.000    3.000    0.000    5.200 
#    0.000    8.000    0.000    0.600    0.000    0.000 
#    0.000    0.000    0.000    0.000    0.000    0.000 
#
# Total GULP energy -495895.249893 kJ/mol
# GULP energy per Si atom -12397.381247 kJ/mol
# Density = 1.736323 g / cm^3
# Si number density = 17.402837 Si / 1000 Ang^3
#
#
#
# Elastic Constant Matrix: (Units=GPa)
#
#
# Indices 1 2 3 4 5 6 
#
# 1 83.4086 41.4970 60.7142 0.0000 0.0000 0.0000
# 2 41.4970 55.4178 54.3396 0.0000 0.0000 0.0000
# 3 60.7142 54.3396 106.2364 0.0000 0.0000 0.0000
# 4 0.0000 0.0000 0.0000 -42.0362 0.0000 0.0000
# 5 0.0000 0.0000 0.0000 0.0000 39.6859 0.0000
# 6 0.0000 0.0000 0.0000 0.0000 0.0000 30.6085
#
#
#
# Elastic Compliance Matrix: (Units=1/GPa)
#
#
# Indices 1 2 3 4 5 6 
#
# 1 0.022340 -0.008445 -0.008448 0.000000 0.000000 0.000000
# 2 -0.008445 0.039393 -0.015324 0.000000 0.000000 0.000000
# 3 -0.008448 -0.015324 0.022079 0.000000 0.000000 0.000000
# 4 0.000000 0.000000 0.000000 -0.023789 0.000000 0.000000
# 5 0.000000 0.000000 0.000000 0.000000 0.025198 0.000000
# 6 0.000000 0.000000 0.000000 0.000000 0.000000 0.032671
#
#
# Mechanical properties :
#
#
# Convention : Reuss Voigt Hill
#
# Bulk Modulus (GPa) = 51.59915 62.01829 56.80872
# Shear Modulus (GPa) = 26.48536 11.55245 19.01891
#
# Velocity S-wave (km/s) = 3.90538 2.57928 3.30943
# Velocity P-wave (km/s) = 7.07462 6.67716 6.87876
#
# Compressibility (1/GPa) = 0.01938017
#
# Stress axis : x y z
#
# Youngs Moduli (GPa) = 44.76331 25.38490 45.29220
#
# Poissons Ratio (x) = 0.21437 0.38262
# Poissons Ratio (y) = 0.37801 0.69404
# Poissons Ratio (z) = 0.37815 0.38899
#
# Static dielectric constant tensor:
#      x y z
#    x 3.282310 0.000000 0.000000 
#    y 0.000000 2.982220 0.000000 
#    z 0.000000 0.000000 3.329240 
# 
# 
# High freq. dielectric constant tensor:
#      x y z
#    x 1.672360 0.000000 0.000000 
#    y 0.000000 1.646750 0.000000 
#    z 0.000000 0.000000 1.681190 
# 
# From -- ./inp_files/28811.got.cif
#   From: 2010.03.12/outbox.cif.g09.slc.cpg/sg51_15_cif.got.tgz:28811.got - 2010.04.16 13:43:02.
