data_PCOD8213264
_publ_section_title
;
Structure prediction by ZEFSAII (Michael W. Deem and Ramdas Pophale) SiO2 
 PCOD8213264
Probable space group: P M M A
;
_chemical_formula_sum "Si O2"
_cell_formula_units_Z 44
_cell_length_a 9.216637
_cell_length_b 7.843962
_cell_length_c 29.726540
_cell_angle_alpha 90.000000
_cell_angle_beta 90.000000
_cell_angle_gamma 90.000000
_cell_volume 2149.078735
_symmetry_space_group_name_H-M "P M M A"
_symmetry_group_IT_number 51
_symmetry_cell_setting 'orthorhombic'
loop_
_space_group_symop_operation_xyz
x,y,z
1/2-x,-y,z
1/2+x,-y,-z
-x,y,-z
-x,-y,-z
1/2+x,y,-z
1/2-x,y,z
x,-y,z
loop_
_atom_site_type_symbol
_atom_site_label
_atom_site_fract_x
_atom_site_fract_y
_atom_site_fract_z
Si Si1 0.575111 0.000000 0.452011
Si Si2 0.591147 0.195706 0.959510
Si Si3 0.918400 0.693492 0.596887
Si Si4 0.584940 0.798761 0.219874
Si Si5 0.085736 0.304244 0.876545
Si Si6 0.417126 0.194235 0.305442
O O1 0.500000 0.000000 0.500000
O O2 0.523398 0.827560 0.427382
O O3 0.750000 0.000000 0.455500
O O4 0.750000 0.283938 0.956484
O O5 0.511456 0.204457 0.911859
O O6 0.612984 0.000000 0.972059
O O7 0.500000 0.284343 0.000000
O O8 0.750000 0.743650 0.587785
O O9 0.949518 0.500000 0.579881
O O10 0.951013 0.697616 0.650054
O O11 0.750000 0.740627 0.225578
O O12 0.521528 0.721363 0.173617
O O13 0.501121 0.724783 0.263094
O O14 0.565949 0.000000 0.217596
O O15 0.250000 0.231095 0.878220
O O16 0.082654 0.500000 0.890227
O O17 0.250000 0.202116 0.292507
O O18 0.466955 0.000000 0.314792
#
# Coordination Sequence:
#
# PCOD8213264 Si02
#       6
#     4   8   8   8   8   8
#     4  12  26  44  68  94 128 168 210 262 315 372
#     4  10  21  37  58  81 102 129 170 220 273 333
#     4  10  21  40  66  94 127 167 211 259 312 371
#     4   9  18  32  51  76 108 149 193 234 279 332
#     4  10  21  36  53  75 107 146 183 223 274 330
#     4   9  17  32  55  83 117 155 196 242 293 350
#
# _framework density 20.473889
#
# number of rings (size 3 to 8) (size 9 to 14) (size 15 to 20)
#    0.000    2.182    0.909    1.909    0.000    5.455 
#    0.000    1.818    0.000    0.000    0.000    0.000 
#    0.000    0.000    0.000    0.000    0.000    0.000 
#
# Total GULP energy -545529.055663 kJ/mol
# GULP energy per Si atom -12398.387629 kJ/mol
# Density = 2.042729 g / cm^3
# Si number density = 20.473889 Si / 1000 Ang^3
#
#
#
# Elastic Constant Matrix: (Units=GPa)
#
#
# Indices 1 2 3 4 5 6 
#
# 1 121.5852 36.3459 78.2858 0.0000 0.0000 0.0000
# 2 36.3459 66.2086 32.0242 0.0000 0.0000 0.0000
# 3 78.2858 32.0242 139.7631 0.0000 0.0000 0.0000
# 4 0.0000 0.0000 0.0000 3.7233 0.0000 0.0000
# 5 0.0000 0.0000 0.0000 0.0000 41.8698 0.0000
# 6 0.0000 0.0000 0.0000 0.0000 0.0000 15.1942
#
#
#
# Elastic Compliance Matrix: (Units=1/GPa)
#
#
# Indices 1 2 3 4 5 6 
#
# 1 0.013893 -0.004344 -0.006787 0.000000 0.000000 0.000000
# 2 -0.004344 0.018345 -0.001770 0.000000 0.000000 0.000000
# 3 -0.006787 -0.001770 0.011362 0.000000 0.000000 0.000000
# 4 0.000000 0.000000 0.000000 0.268577 0.000000 0.000000
# 5 0.000000 0.000000 0.000000 0.000000 0.023884 0.000000
# 6 0.000000 0.000000 0.000000 0.000000 0.000000 0.065814
#
#
# Mechanical properties :
#
#
# Convention : Reuss Voigt Hill
#
# Bulk Modulus (GPa) = 56.18576 68.98544 62.58560
# Shear Modulus (GPa) = 11.53114 24.21753 17.87434
#
# Velocity S-wave (km/s) = 2.37578 3.44299 2.95791
# Velocity P-wave (km/s) = 5.91845 7.04081 6.50389
#
# Compressibility (1/GPa) = 0.01779810
#
# Stress axis : x y z
#
# Youngs Moduli (GPa) = 71.97879 54.51166 88.01354
#
# Poissons Ratio (x) = 0.23681 0.59731
# Poissons Ratio (y) = 0.31269 0.15579
# Poissons Ratio (z) = 0.48849 0.09649
#
# Static dielectric constant tensor:
#      x y z
#    x 3.839050 0.000000 0.000000 
#    y 0.000000 3.573420 0.000000 
#    z 0.000000 0.000000 3.771930 
# 
# 
# High freq. dielectric constant tensor:
#      x y z
#    x 1.789950 0.000000 0.000000 
#    y 0.000000 1.788430 0.000000 
#    z 0.000000 0.000000 1.806910 
# 
# From -- ./inp_files/36820.got.cif
#   From: 2010.03.12/outbox.cif.g09.slc.cpg/sg51_19_cif.got.tgz:36820.got - 2010.04.16 13:43:02.
