data_PCOD8213760
_publ_section_title
;
Structure prediction by ZEFSAII (Michael W. Deem and Ramdas Pophale) SiO2 
 PCOD8213760
Probable space group: P M M A
;
_chemical_formula_sum "Si O2"
_cell_formula_units_Z 48
_cell_length_a 9.287630
_cell_length_b 27.729552
_cell_length_c 9.546327
_cell_angle_alpha 90.000000
_cell_angle_beta 90.000000
_cell_angle_gamma 90.000000
_cell_volume 2458.578421
_symmetry_space_group_name_H-M "P M M A"
_symmetry_group_IT_number 51
_symmetry_cell_setting 'orthorhombic'
loop_
_space_group_symop_operation_xyz
x,y,z
1/2-x,-y,z
1/2+x,-y,-z
-x,y,-z
-x,-y,-z
1/2+x,y,-z
1/2-x,y,z
x,-y,z
loop_
_atom_site_type_symbol
_atom_site_label
_atom_site_fract_x
_atom_site_fract_y
_atom_site_fract_z
Si Si1 0.917961 0.204438 0.639933
Si Si2 0.013838 0.093480 0.338141
Si Si3 0.250000 0.053605 0.145978
Si Si4 0.250000 0.058596 0.831073
Si Si5 0.583687 0.730624 0.143940
Si Si6 0.916177 0.555404 0.642958
Si Si7 0.583571 0.622031 0.144426
O O1 0.750000 0.218945 0.630143
O O2 0.930362 0.147883 0.668094
O O3 0.000000 0.219426 0.500000
O O4 0.997638 0.232899 0.760269
O O5 0.117456 0.061080 0.246653
O O6 0.000000 0.076153 0.500000
O O7 0.871222 0.085643 0.253992
O O8 0.250000 0.000000 0.090492
O O9 0.250000 0.079163 0.992081
O O10 0.250000 0.000000 0.815282
O O11 0.750000 0.747133 0.125831
O O12 0.577870 0.676381 0.205430
O O13 0.500000 0.732139 0.000000
O O14 0.750000 0.572211 0.627080
O O15 0.922821 0.500000 0.691259
O O16 0.000000 0.563322 0.500000
O O17 0.999533 0.586753 0.754676
O O18 0.750000 0.605668 0.125519
O O19 0.500000 0.619239 0.000000
#
# Coordination Sequence:
#
# PCOD8213760 Si02
#       7
#     8   8   4   4   8   8   8
#     4  11  24  42  64  90 121 158 200 251 307 361
#     4  11  24  41  64  91 122 161 205 250 305 367
#     4  11  23  43  63  89 127 159 201 253 302 363
#     4  11  25  41  63  93 125 163 201 251 308 365
#     4  10  22  40  63  91 123 159 202 250 301 362
#     4  10  21  37  58  85 118 158 204 254 307 365
#     4  10  21  38  60  87 120 159 202 251 304 359
#
# _framework density 19.523478000000001
#
# number of rings (size 3 to 8) (size 9 to 14) (size 15 to 20)
#    0.000    1.500    0.833    3.500    4.667    8.667 
#    0.000    0.000    0.000    0.000    0.000    0.000 
#    0.000    0.000    0.000    0.000    0.000    0.000 
#
# Total GULP energy -594843.072266 kJ/mol
# GULP energy per Si atom -12392.564006 kJ/mol
# Density = 1.947904 g / cm^3
# Si number density = 19.523478 Si / 1000 Ang^3
#
#
#
# Elastic Constant Matrix: (Units=GPa)
#
#
# Indices 1 2 3 4 5 6 
#
# 1 176.3215 18.8246 53.9062 0.0000 0.0000 0.0000
# 2 18.8246 30.6838 30.1420 0.0000 0.0000 0.0000
# 3 53.9062 30.1420 120.7667 0.0000 0.0000 0.0000
# 4 0.0000 0.0000 0.0000 37.0591 0.0000 0.0000
# 5 0.0000 0.0000 0.0000 0.0000 159.8559 0.0000
# 6 0.0000 0.0000 0.0000 0.0000 0.0000 -11.2334
#
#
#
# Elastic Compliance Matrix: (Units=1/GPa)
#
#
# Indices 1 2 3 4 5 6 
#
# 1 0.006622 -0.001535 -0.002573 0.000000 0.000000 0.000000
# 2 -0.001535 0.043533 -0.010180 0.000000 0.000000 0.000000
# 3 -0.002573 -0.010180 0.011970 0.000000 0.000000 0.000000
# 4 0.000000 0.000000 0.000000 0.026984 0.000000 0.000000
# 5 0.000000 0.000000 0.000000 0.000000 0.006256 0.000000
# 6 0.000000 0.000000 0.000000 0.000000 0.000000 -0.089020
#
#
# Mechanical properties :
#
#
# Convention : Reuss Voigt Hill
#
# Bulk Modulus (GPa) = 29.80781 59.27973 44.54377
# Shear Modulus (GPa) = 108.45496 52.12960 80.29228
#
# Velocity S-wave (km/s) = 7.46134 5.17290 6.41991
# Velocity P-wave (km/s) = 9.46201 8.13067 8.82149
#
# Compressibility (1/GPa) = 0.03354825
#
# Stress axis : x y z
#
# Youngs Moduli (GPa) = 151.01439 22.97130 83.54556
#
# Poissons Ratio (x) = 0.03527 0.21493
# Poissons Ratio (y) = 0.23187 0.85048
# Poissons Ratio (z) = 0.38849 0.23385
#
# Static dielectric constant tensor:
#      x y z
#    x 3.737990 0.000000 0.000000 
#    y 0.000000 3.632110 0.000000 
#    z 0.000000 0.000000 3.482750 
# 
# 
# High freq. dielectric constant tensor:
#      x y z
#    x 1.788600 0.000000 0.000000 
#    y 0.000000 1.756240 0.000000 
#    z 0.000000 0.000000 1.769480 
# 
# From -- ./inp_files/6246.got.cif
#   From: 2010.03.12/outbox.cif.g09.slc.cpg/sg51_4_cif.got.tgz:6246.got - 2010.04.16 13:43:02.
