data_PCOD8213285
_publ_section_title
;
Structure prediction by ZEFSAII (Michael W. Deem and Ramdas Pophale) SiO2 
 PCOD8213285
Probable space group: P M M A
;
_chemical_formula_sum "Si O2"
_cell_formula_units_Z 56
_cell_length_a 19.505868
_cell_length_b 8.754814
_cell_length_c 17.830623
_cell_angle_alpha 90.000000
_cell_angle_beta 90.000000
_cell_angle_gamma 90.000000
_cell_volume 3044.939880
_symmetry_space_group_name_H-M "P M M A"
_symmetry_group_IT_number 51
_symmetry_cell_setting 'orthorhombic'
loop_
_space_group_symop_operation_xyz
x,y,z
1/2-x,-y,z
1/2+x,-y,-z
-x,y,-z
-x,-y,-z
1/2+x,y,-z
1/2-x,y,z
x,-y,z
loop_
_atom_site_type_symbol
_atom_site_label
_atom_site_fract_x
_atom_site_fract_y
_atom_site_fract_z
Si Si1 0.923084 0.820323 0.628005
Si Si2 0.172951 0.318461 0.080703
Si Si3 0.423172 0.675760 0.788065
Si Si4 0.672684 0.681883 0.084736
Si Si5 0.329145 0.679668 0.493232
Si Si6 0.579002 0.322979 0.787339
Si Si7 0.432669 0.318977 0.622298
O O1 0.859338 0.765945 0.578207
O O2 0.906269 0.770618 0.712397
O O3 0.994109 0.749012 0.597121
O O4 0.929963 0.000000 0.623494
O O5 0.250000 0.263727 0.097873
O O6 0.168543 0.500000 0.081340
O O7 0.124356 0.252051 0.145640
O O8 0.150329 0.258785 0.998067
O O9 0.401696 0.500000 0.783410
O O10 0.375461 0.756036 0.850858
O O11 0.501097 0.696290 0.814004
O O12 0.412754 0.746271 0.704803
O O13 0.750000 0.733777 0.102104
O O14 0.666872 0.500000 0.085021
O O15 0.250000 0.727397 0.505175
O O16 0.336060 0.500000 0.479544
O O17 0.372421 0.730321 0.566248
O O18 0.596324 0.500000 0.771125
O O19 0.443035 0.500000 0.625525
#
# Coordination Sequence:
#
# PCOD8213285 Si02
#       7
#     8   8   8   8   8   8   8
#     4  11  22  35  52  73  98 129 165 204 247 292
#     4   8  14  24  39  62  92 124 155 188 232 286
#     4   8  14  24  40  64  92 121 151 186 229 275
#     4   8  13  21  35  61  97 127 149 183 235 286
#     4  10  21  36  54  76 101 129 161 198 241 289
#     4   9  17  30  47  67  92 122 159 200 239 282
#     4   9  18  34  54  75 100 130 164 198 236 289
#
# _framework density 18.391168
#
# number of rings (size 3 to 8) (size 9 to 14) (size 15 to 20)
#    0.000    3.000    0.000    3.429    0.000    4.286 
#    0.000    7.143    0.000    0.000    0.000    8.000 
#    0.000    4.571    0.000    0.000    0.000    0.000 
#
# Total GULP energy -694133.816308 kJ/mol
# GULP energy per Si atom -12395.246720 kJ/mol
# Density = 1.834931 g / cm^3
# Si number density = 18.391168 Si / 1000 Ang^3
#
#
#
# Elastic Constant Matrix: (Units=GPa)
#
#
# Indices 1 2 3 4 5 6 
#
# 1 117.5736 24.8646 84.7163 0.0000 0.0000 0.0000
# 2 24.8646 28.4900 23.5950 0.0000 0.0000 0.0000
# 3 84.7163 23.5950 125.8753 0.0000 0.0000 0.0000
# 4 0.0000 0.0000 0.0000 3.0503 0.0000 0.0000
# 5 0.0000 0.0000 0.0000 0.0000 39.9881 0.0000
# 6 0.0000 0.0000 0.0000 0.0000 0.0000 5.2050
#
#
#
# Elastic Compliance Matrix: (Units=1/GPa)
#
#
# Indices 1 2 3 4 5 6 
#
# 1 0.017481 -0.006526 -0.010542 0.000000 0.000000 0.000000
# 2 -0.006526 0.043987 -0.003853 0.000000 0.000000 0.000000
# 3 -0.010542 -0.003853 0.015762 0.000000 0.000000 0.000000
# 4 0.000000 0.000000 0.000000 0.327841 0.000000 0.000000
# 5 0.000000 0.000000 0.000000 0.000000 0.025007 0.000000
# 6 0.000000 0.000000 0.000000 0.000000 0.000000 0.192123
#
#
# Mechanical properties :
#
#
# Convention : Reuss Voigt Hill
#
# Bulk Modulus (GPa) = 28.25865 59.81008 44.03436
# Shear Modulus (GPa) = 7.39820 18.89953 13.14887
#
# Velocity S-wave (km/s) = 2.00784 3.20916 2.67677
# Velocity P-wave (km/s) = 4.55784 6.80612 5.79212
#
# Compressibility (1/GPa) = 0.03538740
#
# Stress axis : x y z
#
# Youngs Moduli (GPa) = 57.20386 22.73417 63.44565
#
# Poissons Ratio (x) = 0.14837 0.66884
# Poissons Ratio (y) = 0.37332 0.24446
# Poissons Ratio (z) = 0.60304 0.08760
#
# Static dielectric constant tensor:
#      x y z
#    x 3.494170 0.000000 0.000000 
#    y 0.000000 2.824650 0.000000 
#    z 0.000000 0.000000 3.836270 
# 
# 
# High freq. dielectric constant tensor:
#      x y z
#    x 1.711850 0.000000 0.000000 
#    y 0.000000 1.654550 0.000000 
#    z 0.000000 0.000000 1.727680 
# 
# From -- ./inp_files/30489.got.cif
#   From: 2010.03.12/outbox.cif.g09.slc.cpg/sg51_16_cif.got.tgz:30489.got - 2010.04.16 13:43:02.
