data_PCOD8213412
_publ_section_title
;
Structure prediction by ZEFSAII (Michael W. Deem and Ramdas Pophale) SiO2 
 PCOD8213412
Probable space group: P M M A
;
_chemical_formula_sum "Si O2"
_cell_formula_units_Z 64
_cell_length_a 20.920284
_cell_length_b 8.990737
_cell_length_c 16.648408
_cell_angle_alpha 90.000000
_cell_angle_beta 90.000000
_cell_angle_gamma 90.000000
_cell_volume 3131.378607
_symmetry_space_group_name_H-M "P M M A"
_symmetry_group_IT_number 51
_symmetry_cell_setting 'orthorhombic'
loop_
_space_group_symop_operation_xyz
x,y,z
1/2-x,-y,z
1/2+x,-y,-z
-x,y,-z
-x,-y,-z
1/2+x,y,-z
1/2-x,y,z
x,-y,z
loop_
_atom_site_type_symbol
_atom_site_label
_atom_site_fract_x
_atom_site_fract_y
_atom_site_fract_z
Si Si1 0.925320 0.176363 0.505527
Si Si2 0.823023 0.326044 0.389159
Si Si3 0.900668 0.165480 0.921747
Si Si4 0.997331 0.175237 0.205587
Si Si5 0.180472 0.669524 0.957639
Si Si6 0.580593 0.673623 0.669756
Si Si7 0.631243 0.667945 0.213414
Si Si8 0.822599 0.834366 0.770962
O O1 0.878966 0.238320 0.435781
O O2 0.900688 0.246330 0.587595
O O3 0.000000 0.224371 0.500000
O O4 0.918426 0.000000 0.505683
O O5 0.750000 0.277229 0.412990
O O6 0.831912 0.500000 0.407499
O O7 0.831468 0.291291 0.294736
O O8 0.961107 0.231807 0.871459
O O9 0.838573 0.168397 0.865037
O O10 0.918495 0.000000 0.950243
O O11 0.881123 0.253798 0.001531
O O12 0.018507 0.254380 0.288496
O O13 0.924263 0.214926 0.194079
O O14 0.008241 0.000000 0.216298
O O15 0.250000 0.735899 0.983425
O O16 0.176577 0.500000 0.985115
O O17 0.178710 0.683278 0.861314
O O18 0.569032 0.500000 0.655664
O O19 0.640351 0.702860 0.727151
O O20 0.603321 0.500000 0.218977
O O21 0.750000 0.796137 0.757722
O O22 0.840155 0.000000 0.737359
#
# Coordination Sequence:
#
# PCOD8213412 Si02
#       8
#     8   8   8   8   8   8   8   8
#     4  11  24  41  62  88 118 152 192 240 292 347
#     4  10  22  41  64  89 119 156 198 245 298 356
#     4   9  19  35  54  78 110 148 188 231 280 334
#     4  10  21  38  58  82 115 151 189 235 288 343
#     4  10  21  36  55  81 113 148 187 234 287 342
#     4  11  22  36  57  84 113 145 183 226 276 337
#     4  10  21  38  60  84 112 148 190 237 290 346
#     4   9  18  34  55  78 109 149 187 225 274 330
#
# _framework density 20.438282999999998
#
# number of rings (size 3 to 8) (size 9 to 14) (size 15 to 20)
#    0.000    2.000    0.000    4.125    0.000   10.250 
#    0.000    2.500    0.000    2.250    0.000    0.000 
#    0.000    0.000    0.000    0.000    0.000    0.000 
#
# Total GULP energy -793289.665107 kJ/mol
# GULP energy per Si atom -12395.151017 kJ/mol
# Density = 2.039176 g / cm^3
# Si number density = 20.438283 Si / 1000 Ang^3
#
#
#
# Elastic Constant Matrix: (Units=GPa)
#
#
# Indices 1 2 3 4 5 6 
#
# 1 109.0580 43.3553 26.2778 0.0000 0.0000 0.0000
# 2 43.3553 68.4645 28.5470 0.0000 0.0000 0.0000
# 3 26.2778 28.5470 87.4688 0.0000 0.0000 0.0000
# 4 0.0000 0.0000 0.0000 25.4246 0.0000 0.0000
# 5 0.0000 0.0000 0.0000 0.0000 23.0889 0.0000
# 6 0.0000 0.0000 0.0000 0.0000 0.0000 29.3315
#
#
#
# Elastic Compliance Matrix: (Units=1/GPa)
#
#
# Indices 1 2 3 4 5 6 
#
# 1 0.012390 -0.007285 -0.001345 0.000000 0.000000 0.000000
# 2 -0.007285 0.021190 -0.004727 0.000000 0.000000 0.000000
# 3 -0.001345 -0.004727 0.013379 0.000000 0.000000 0.000000
# 4 0.000000 0.000000 0.000000 0.039332 0.000000 0.000000
# 5 0.000000 0.000000 0.000000 0.000000 0.043311 0.000000
# 6 0.000000 0.000000 0.000000 0.000000 0.000000 0.034093
#
#
# Mechanical properties :
#
#
# Convention : Reuss Voigt Hill
#
# Bulk Modulus (GPa) = 49.39322 51.26127 50.32725
# Shear Modulus (GPa) = 25.36044 26.68976 26.02510
#
# Velocity S-wave (km/s) = 3.52636 3.61760 3.57228
# Velocity P-wave (km/s) = 6.38747 6.52571 6.45696
#
# Compressibility (1/GPa) = 0.02024569
#
# Stress axis : x y z
#
# Youngs Moduli (GPa) = 80.71333 47.19101 74.74179
#
# Poissons Ratio (x) = 0.34379 0.10049
# Poissons Ratio (y) = 0.58800 0.35332
# Poissons Ratio (z) = 0.10852 0.22308
#
# Static dielectric constant tensor:
#      x y z
#    x 3.697550 0.000000 0.000000 
#    y 0.000000 3.590800 0.000000 
#    z 0.000000 0.000000 3.660760 
# 
# 
# High freq. dielectric constant tensor:
#      x y z
#    x 1.802110 0.000000 0.000000 
#    y 0.000000 1.787340 0.000000 
#    z 0.000000 0.000000 1.798870 
# 
# From -- ./inp_files/26326.got.cif
#   From: 2010.03.12/outbox.cif.g09.slc.cpg/sg51_14_cif.got.tgz:26326.got - 2010.04.16 13:43:02.
