data_PCOD8213460
_publ_section_title
;
Structure prediction by ZEFSAII (Michael W. Deem and Ramdas Pophale) SiO2 
 PCOD8213460
Probable space group: P M M A
;
_chemical_formula_sum "Si O2"
_cell_formula_units_Z 48
_cell_length_a 18.685573
_cell_length_b 9.029981
_cell_length_c 13.383699
_cell_angle_alpha 90.000000
_cell_angle_beta 90.000000
_cell_angle_gamma 90.000000
_cell_volume 2258.236473
_symmetry_space_group_name_H-M "P M M A"
_symmetry_group_IT_number 51
_symmetry_cell_setting 'orthorhombic'
loop_
_space_group_symop_operation_xyz
x,y,z
1/2-x,-y,z
1/2+x,-y,-z
-x,y,-z
-x,-y,-z
1/2+x,y,-z
1/2-x,y,z
x,-y,z
loop_
_atom_site_type_symbol
_atom_site_label
_atom_site_fract_x
_atom_site_fract_y
_atom_site_fract_z
Si Si1 0.167006 0.171189 0.001524
Si Si2 0.833163 0.333081 0.800635
Si Si3 0.331864 0.830129 0.575629
Si Si4 0.465780 0.828749 0.699837
Si Si5 0.045577 0.674233 0.902899
Si Si6 0.413049 0.326478 0.400451
O O1 0.250000 0.203468 0.983871
O O2 0.142891 0.224562 0.111060
O O3 0.147651 0.000000 0.990252
O O4 0.125382 0.263041 0.917393
O O5 0.750000 0.319215 0.777048
O O6 0.853661 0.500000 0.833893
O O7 0.873212 0.285609 0.701517
O O8 0.250000 0.784173 0.601447
O O9 0.381553 0.808931 0.673717
O O10 0.362390 0.728060 0.488536
O O11 0.335178 0.000000 0.539437
O O12 0.486367 0.745295 0.802334
O O13 0.510635 0.757472 0.607372
O O14 0.486406 0.000000 0.710987
O O15 0.047040 0.500000 0.887606
O O16 0.000000 0.721479 0.000000
O O17 0.427076 0.500000 0.414262
#
# Coordination Sequence:
#
# PCOD8213460 Si02
#       6
#     8   8   8   8   8   8
#     4  10  21  36  56  84 116 152 197 246 296 355
#     4   9  18  33  53  80 116 155 194 240 294 348
#     4  10  23  43  64  87 118 156 197 242 293 349
#     4  11  24  41  62  88 119 156 198 246 299 354
#     4  11  24  41  61  87 119 156 199 247 300 357
#     4  11  22  37  60  90 122 156 196 243 295 354
#
# _framework density 21.255524000000001
#
# number of rings (size 3 to 8) (size 9 to 14) (size 15 to 20)
#    0.000    1.667    0.000    4.000    0.000   12.667 
#    0.000    3.333    0.000    0.000    0.000    0.000 
#    0.000    0.000    0.000    0.000    0.000    0.000 
#
# Total GULP energy -595365.819512 kJ/mol
# GULP energy per Si atom -12403.454573 kJ/mol
# Density = 2.120715 g / cm^3
# Si number density = 21.255524 Si / 1000 Ang^3
#
#
#
# Elastic Constant Matrix: (Units=GPa)
#
#
# Indices 1 2 3 4 5 6 
#
# 1 83.6545 45.5551 34.2861 0.0000 0.0000 0.0000
# 2 45.5551 110.1523 49.1768 0.0000 0.0000 0.0000
# 3 34.2861 49.1768 77.8888 0.0000 0.0000 0.0000
# 4 0.0000 0.0000 0.0000 37.2690 0.0000 0.0000
# 5 0.0000 0.0000 0.0000 0.0000 34.5372 0.0000
# 6 0.0000 0.0000 0.0000 0.0000 0.0000 29.4725
#
#
#
# Elastic Compliance Matrix: (Units=1/GPa)
#
#
# Indices 1 2 3 4 5 6 
#
# 1 0.016304 -0.004928 -0.004066 0.000000 0.000000 0.000000
# 2 -0.004928 0.014131 -0.006753 0.000000 0.000000 0.000000
# 3 -0.004066 -0.006753 0.018892 0.000000 0.000000 0.000000
# 4 0.000000 0.000000 0.000000 0.026832 0.000000 0.000000
# 5 0.000000 0.000000 0.000000 0.000000 0.028954 0.000000
# 6 0.000000 0.000000 0.000000 0.000000 0.000000 0.033930
#
#
# Mechanical properties :
#
#
# Convention : Reuss Voigt Hill
#
# Bulk Modulus (GPa) = 56.07073 58.85905 57.46489
# Shear Modulus (GPa) = 28.33189 29.76757 29.04973
#
# Velocity S-wave (km/s) = 3.65488 3.74634 3.70089
# Velocity P-wave (km/s) = 6.65188 6.81650 6.73469
#
# Compressibility (1/GPa) = 0.01783462
#
# Stress axis : x y z
#
# Youngs Moduli (GPa) = 61.33631 70.76665 52.93239
#
# Poissons Ratio (x) = 0.34870 0.21520
# Poissons Ratio (y) = 0.30223 0.35744
# Poissons Ratio (z) = 0.24937 0.47788
#
# Static dielectric constant tensor:
#      x y z
#    x 4.080900 0.000000 0.000000 
#    y 0.000000 3.812900 0.000000 
#    z 0.000000 0.000000 3.726390 
# 
# 
# High freq. dielectric constant tensor:
#      x y z
#    x 1.848330 0.000000 0.000000 
#    y 0.000000 1.835050 0.000000 
#    z 0.000000 0.000000 1.828170 
# 
# From -- ./inp_files/24818.got.cif
#   From: 2010.03.12/outbox.cif.g09.slc.cpg/sg51_13_cif.got.tgz:24818.got - 2010.04.16 13:43:02.
