data_PCOD8213125
_publ_section_title
;
Structure prediction by ZEFSAII (Michael W. Deem and Ramdas Pophale) SiO2 
 PCOD8213125
Probable space group: P M M A
;
_chemical_formula_sum "Si O2"
_cell_formula_units_Z 48
_cell_length_a 18.628247
_cell_length_b 9.133355
_cell_length_c 15.144569
_cell_angle_alpha 90.000000
_cell_angle_beta 90.000000
_cell_angle_gamma 90.000000
_cell_volume 2576.672631
_symmetry_space_group_name_H-M "P M M A"
_symmetry_group_IT_number 51
_symmetry_cell_setting 'orthorhombic'
loop_
_space_group_symop_operation_xyz
x,y,z
1/2-x,-y,z
1/2+x,-y,-z
-x,y,-z
-x,-y,-z
1/2+x,y,-z
1/2-x,y,z
x,-y,z
loop_
_atom_site_type_symbol
_atom_site_label
_atom_site_fract_x
_atom_site_fract_y
_atom_site_fract_z
Si Si1 0.831331 0.669016 0.848367
Si Si2 0.918551 0.827054 0.994562
Si Si3 0.833036 0.667773 0.644691
Si Si4 0.666861 0.169364 0.164856
Si Si5 0.915907 0.170444 0.497739
Si Si6 0.833017 0.328063 0.342839
O O1 0.750000 0.721066 0.865972
O O2 0.839697 0.500000 0.873787
O O3 0.884760 0.763215 0.906353
O O4 0.851592 0.694600 0.746658
O O5 0.912881 0.000000 0.987627
O O6 0.877241 0.770567 0.081325
O O7 0.000000 0.772486 0.000000
O O8 0.750000 0.703069 0.625311
O O9 0.849333 0.500000 0.618047
O O10 0.882421 0.776626 0.589578
O O11 0.750000 0.194059 0.142824
O O12 0.642667 0.261742 0.249472
O O13 0.649729 0.000000 0.184332
O O14 0.881396 0.259009 0.418041
O O15 0.000000 0.202811 0.500000
O O16 0.899186 0.000000 0.484728
O O17 0.750000 0.290265 0.362346
O O18 0.846499 0.500000 0.340235
#
# Coordination Sequence:
#
# PCOD8213125 Si02
#       6
#     8   8   8   8   8   8
#     4   9  19  36  57  80 106 137 175 221 268 312
#     4  10  21  35  52  78 112 146 178 216 263 314
#     4   9  19  37  59  82 108 138 175 220 267 314
#     4   9  18  34  55  77 104 140 179 219 263 310
#     4  11  24  38  53  78 111 144 177 215 261 314
#     4  10  21  37  58  82 105 134 176 223 268 315
#
# _framework density 18.628677
#
# number of rings (size 3 to 8) (size 9 to 14) (size 15 to 20)
#    0.000    2.333    0.000    3.000    0.000    8.667 
#    0.000    8.333    0.000    0.000    0.000    0.000 
#    0.000    0.000    0.000    0.000    0.000    0.000 
#
# Total GULP energy -595376.673772 kJ/mol
# GULP energy per Si atom -12403.680704 kJ/mol
# Density = 1.858628 g / cm^3
# Si number density = 18.628677 Si / 1000 Ang^3
#
#
#
# Elastic Constant Matrix: (Units=GPa)
#
#
# Indices 1 2 3 4 5 6 
#
# 1 100.0798 46.7806 70.2574 0.0000 0.0000 0.0000
# 2 46.7806 64.0546 52.3681 0.0000 0.0000 0.0000
# 3 70.2574 52.3681 122.9726 0.0000 0.0000 0.0000
# 4 0.0000 0.0000 0.0000 37.7417 0.0000 0.0000
# 5 0.0000 0.0000 0.0000 0.0000 3.0097 0.0000
# 6 0.0000 0.0000 0.0000 0.0000 0.0000 27.0283
#
#
#
# Elastic Compliance Matrix: (Units=1/GPa)
#
#
# Indices 1 2 3 4 5 6 
#
# 1 0.018821 -0.007601 -0.007516 0.000000 0.000000 0.000000
# 2 -0.007601 0.027019 -0.007164 0.000000 0.000000 0.000000
# 3 -0.007516 -0.007164 0.015477 0.000000 0.000000 0.000000
# 4 0.000000 0.000000 0.000000 0.026496 0.000000 0.000000
# 5 0.000000 0.000000 0.000000 0.000000 0.332258 0.000000
# 6 0.000000 0.000000 0.000000 0.000000 0.000000 0.036998
#
#
# Mechanical properties :
#
#
# Convention : Reuss Voigt Hill
#
# Bulk Modulus (GPa) = 59.68009 69.54659 64.61334
# Shear Modulus (GPa) = 9.85771 21.40267 15.63019
#
# Velocity S-wave (km/s) = 2.30286 3.39323 2.89976
# Velocity P-wave (km/s) = 6.25916 7.26403 6.78024
#
# Compressibility (1/GPa) = 0.01675601
#
# Stress axis : x y z
#
# Youngs Moduli (GPa) = 53.13075 37.01043 64.61231
#
# Poissons Ratio (x) = 0.28131 0.48565
# Poissons Ratio (y) = 0.40383 0.46287
# Poissons Ratio (z) = 0.39935 0.26513
#
# Static dielectric constant tensor:
#      x y z
#    x 3.457210 0.000000 0.000000 
#    y 0.000000 3.371970 0.000000 
#    z 0.000000 0.000000 3.485500 
# 
# 
# High freq. dielectric constant tensor:
#      x y z
#    x 1.720440 0.000000 0.000000 
#    y 0.000000 1.720870 0.000000 
#    z 0.000000 0.000000 1.735230 
# 
# From -- ./inp_files/24735.got.cif
#   From: 2010.03.12/outbox.cif.g09.slc.cpg/sg51_13_cif.got.tgz:24735.got - 2010.04.16 13:43:02.
