data_PCOD8213716
_publ_section_title
;
Structure prediction by ZEFSAII (Michael W. Deem and Ramdas Pophale) SiO2 
 PCOD8213716
Probable space group: P M M A
;
_chemical_formula_sum "Si O2"
_cell_formula_units_Z 40
_cell_length_a 18.246434
_cell_length_b 8.616082
_cell_length_c 12.643967
_cell_angle_alpha 90.000000
_cell_angle_beta 90.000000
_cell_angle_gamma 90.000000
_cell_volume 1987.793095
_symmetry_space_group_name_H-M "P M M A"
_symmetry_group_IT_number 51
_symmetry_cell_setting 'orthorhombic'
loop_
_space_group_symop_operation_xyz
x,y,z
1/2-x,-y,z
1/2+x,-y,-z
-x,y,-z
-x,-y,-z
1/2+x,y,-z
1/2-x,y,z
x,-y,z
loop_
_atom_site_type_symbol
_atom_site_label
_atom_site_fract_x
_atom_site_fract_y
_atom_site_fract_z
Si Si1 0.914681 0.680208 0.991228
Si Si2 0.080570 0.681007 0.392293
Si Si3 0.834812 0.320276 0.204784
Si Si4 0.665854 0.820443 0.795687
Si Si5 0.926330 0.819340 0.384491
O O1 0.899638 0.500000 0.966333
O O2 0.881550 0.782067 0.898140
O O3 0.877224 0.732027 0.099993
O O4 0.000000 0.716865 0.000000
O O5 0.082424 0.500000 0.417624
O O6 0.139839 0.719744 0.303582
O O7 0.100759 0.772529 0.498933
O O8 0.999680 0.727097 0.351830
O O9 0.750000 0.284670 0.186530
O O10 0.849430 0.500000 0.230235
O O11 0.862300 0.219070 0.302713
O O12 0.750000 0.778517 0.819265
O O13 0.655508 0.000000 0.767235
O O14 0.944718 0.000000 0.382374
#
# Coordination Sequence:
#
# PCOD8213716 Si02
#       5
#     8   8   8   8   8
#     4  10  21  38  62  89 116 151 196 242 287 342
#     4  11  22  39  63  87 115 153 197 239 285 347
#     4  10  21  37  57  84 120 159 198 239 286 345
#     4  11  24  40  59  87 122 155 191 240 296 350
#     4  11  22  38  61  88 119 152 192 243 295 344
#
# _framework density 20.122820000000001
#
# number of rings (size 3 to 8) (size 9 to 14) (size 15 to 20)
#    0.000    1.400    0.000    7.200    0.000    6.400 
#    0.000    0.000    0.000    0.000    0.000    0.000 
#    0.000    0.000    0.000    0.000    0.000    0.000 
#
# Total GULP energy -496306.301621 kJ/mol
# GULP energy per Si atom -12407.657541 kJ/mol
# Density = 2.007702 g / cm^3
# Si number density = 20.122820 Si / 1000 Ang^3
#
#
#
# Elastic Constant Matrix: (Units=GPa)
#
#
# Indices 1 2 3 4 5 6 
#
# 1 109.7270 30.1021 62.8688 0.0000 0.0000 0.0000
# 2 30.1021 74.1941 26.0954 0.0000 0.0000 0.0000
# 3 62.8688 26.0954 113.8163 0.0000 0.0000 0.0000
# 4 0.0000 0.0000 0.0000 32.4883 0.0000 0.0000
# 5 0.0000 0.0000 0.0000 0.0000 17.8580 0.0000
# 6 0.0000 0.0000 0.0000 0.0000 0.0000 58.8591
#
#
#
# Elastic Compliance Matrix: (Units=1/GPa)
#
#
# Indices 1 2 3 4 5 6 
#
# 1 0.014007 -0.003221 -0.006999 0.000000 0.000000 0.000000
# 2 -0.003221 0.015401 -0.001752 0.000000 0.000000 0.000000
# 3 -0.006999 -0.001752 0.013053 0.000000 0.000000 0.000000
# 4 0.000000 0.000000 0.000000 0.030780 0.000000 0.000000
# 5 0.000000 0.000000 0.000000 0.000000 0.055997 0.000000
# 6 0.000000 0.000000 0.000000 0.000000 0.000000 0.016990
#
#
# Mechanical properties :
#
#
# Convention : Reuss Voigt Hill
#
# Bulk Modulus (GPa) = 54.00003 59.54110 56.77057
# Shear Modulus (GPa) = 28.35345 33.75251 31.05298
#
# Velocity S-wave (km/s) = 3.75776 4.09996 3.93258
# Velocity P-wave (km/s) = 6.76174 7.21567 6.99239
#
# Compressibility (1/GPa) = 0.01851851
#
# Stress axis : x y z
#
# Youngs Moduli (GPa) = 71.39212 64.92967 76.60788
#
# Poissons Ratio (x) = 0.20917 0.53614
# Poissons Ratio (y) = 0.22999 0.13419
# Poissons Ratio (z) = 0.49964 0.11374
#
# Static dielectric constant tensor:
#      x y z
#    x 3.643500 0.000000 0.000000 
#    y 0.000000 3.687080 0.000000 
#    z 0.000000 0.000000 3.700510 
# 
# 
# High freq. dielectric constant tensor:
#      x y z
#    x 1.789040 0.000000 0.000000 
#    y 0.000000 1.787850 0.000000 
#    z 0.000000 0.000000 1.796320 
# 
# From -- ./inp_files/17079.got.cif
#   From: 2010.03.12/outbox.cif.g09.slc.cpg/sg51_9_cif.got.tgz:17079.got - 2010.04.16 13:43:02.
