data_PCOD8213002
_publ_section_title
;
Structure prediction by ZEFSAII (Michael W. Deem and Ramdas Pophale) SiO2 
 PCOD8213002
Probable space group: P M M A
;
_chemical_formula_sum "Si O2"
_cell_formula_units_Z 48
_cell_length_a 13.960285
_cell_length_b 9.268281
_cell_length_c 20.621167
_cell_angle_alpha 90.000000
_cell_angle_beta 90.000000
_cell_angle_gamma 90.000000
_cell_volume 2668.128343
_symmetry_space_group_name_H-M "P M M A"
_symmetry_group_IT_number 51
_symmetry_cell_setting 'orthorhombic'
loop_
_space_group_symop_operation_xyz
x,y,z
1/2-x,-y,z
1/2+x,-y,-z
-x,y,-z
-x,-y,-z
1/2+x,y,-z
1/2-x,y,z
x,-y,z
loop_
_atom_site_type_symbol
_atom_site_label
_atom_site_fract_x
_atom_site_fract_y
_atom_site_fract_z
Si Si1 0.555757 0.169339 0.354817
Si Si2 0.144046 0.329065 0.030348
Si Si3 0.860523 0.169844 0.217317
Si Si4 0.543405 0.329130 0.100065
Si Si5 0.147535 0.163974 0.402626
Si Si6 0.892671 0.660223 0.476654
O O1 0.596621 0.218974 0.286024
O O2 0.442464 0.212719 0.358396
O O3 0.615722 0.253175 0.409408
O O4 0.571775 0.000000 0.365663
O O5 0.250000 0.264770 0.045861
O O6 0.147897 0.500000 0.029522
O O7 0.066318 0.281028 0.084254
O O8 0.110745 0.277705 0.959178
O O9 0.750000 0.217990 0.212794
O O10 0.923254 0.249501 0.164041
O O11 0.871400 0.000000 0.207131
O O12 0.550444 0.500000 0.110672
O O13 0.250000 0.177059 0.364355
O O14 0.163173 0.256999 0.467245
O O15 0.128739 0.000000 0.424881
O O16 0.849402 0.500000 0.466820
O O17 0.000000 0.650089 0.500000
#
# Coordination Sequence:
#
# PCOD8213002 Si02
#       6
#     8   8   8   8   8   8
#     4   9  18  33  49  65  90 124 160 194 229 278
#     4   8  14  27  49  76 103 128 156 193 235 276
#     4  10  21  35  49  67  95 129 160 195 242 286
#     4   9  17  30  51  76  98 125 162 198 230 273
#     4   9  17  30  49  69  88 117 157 195 233 281
#     4   9  17  29  46  69  95 119 146 188 238 279
#
# _framework density 17.990141000000001
#
# number of rings (size 3 to 8) (size 9 to 14) (size 15 to 20)
#    0.000    3.000    0.000    2.000    0.000    4.667 
#    0.000    4.167    0.000    2.500    0.000    0.000 
#    0.000    0.000    0.000    0.000    0.000    0.000 
#
# Total GULP energy -594825.062709 kJ/mol
# GULP energy per Si atom -12392.188806 kJ/mol
# Density = 1.794919 g / cm^3
# Si number density = 17.990141 Si / 1000 Ang^3
#
#
#
# Elastic Constant Matrix: (Units=GPa)
#
#
# Indices 1 2 3 4 5 6 
#
# 1 134.8439 24.3474 58.4807 0.0000 0.0000 0.0000
# 2 24.3474 45.6498 39.3344 0.0000 0.0000 0.0000
# 3 58.4807 39.3344 124.1275 0.0000 0.0000 0.0000
# 4 0.0000 0.0000 0.0000 25.5668 0.0000 0.0000
# 5 0.0000 0.0000 0.0000 0.0000 20.4136 0.0000
# 6 0.0000 0.0000 0.0000 0.0000 0.0000 12.8245
#
#
#
# Elastic Compliance Matrix: (Units=1/GPa)
#
#
# Indices 1 2 3 4 5 6 
#
# 1 0.009410 -0.001649 -0.003911 0.000000 0.000000 0.000000
# 2 -0.001649 0.030423 -0.008864 0.000000 0.000000 0.000000
# 3 -0.003911 -0.008864 0.012707 0.000000 0.000000 0.000000
# 4 0.000000 0.000000 0.000000 0.039113 0.000000 0.000000
# 5 0.000000 0.000000 0.000000 0.000000 0.048987 0.000000
# 6 0.000000 0.000000 0.000000 0.000000 0.000000 0.077976
#
#
# Mechanical properties :
#
#
# Convention : Reuss Voigt Hill
#
# Bulk Modulus (GPa) = 42.20608 60.99401 51.60005
# Shear Modulus (GPa) = 19.58015 23.92489 21.75252
#
# Velocity S-wave (km/s) = 3.30264 3.65072 3.48103
# Velocity P-wave (km/s) = 6.16886 7.19361 6.70086
#
# Compressibility (1/GPa) = 0.02369327
#
# Stress axis : x y z
#
# Youngs Moduli (GPa) = 106.27243 32.86999 78.69376
#
# Poissons Ratio (x) = 0.05420 0.30775
# Poissons Ratio (y) = 0.17525 0.69752
# Poissons Ratio (z) = 0.41560 0.29135
#
# Static dielectric constant tensor:
#      x y z
#    x 3.719760 0.000000 0.000000 
#    y 0.000000 3.239260 0.000000 
#    z 0.000000 0.000000 3.142230 
# 
# 
# High freq. dielectric constant tensor:
#      x y z
#    x 1.713100 0.000000 0.000000 
#    y 0.000000 1.674900 0.000000 
#    z 0.000000 0.000000 1.672240 
# 
# From -- ./inp_files/29427.got.cif
#   From: 2010.03.12/outbox.cif.g09.slc.cpg/sg51_15_cif.got.tgz:29427.got - 2010.04.16 13:43:02.
