data_PCOD8213985
_publ_section_title
;
Structure prediction by ZEFSAII (Michael W. Deem and Ramdas Pophale) SiO2 
 PCOD8213985
Probable space group: P M M A
;
_chemical_formula_sum "Si O2"
_cell_formula_units_Z 48
_cell_length_a 14.182723
_cell_length_b 16.979913
_cell_length_c 9.385566
_cell_angle_alpha 90.000000
_cell_angle_beta 90.000000
_cell_angle_gamma 90.000000
_cell_volume 2260.245169
_symmetry_space_group_name_H-M "P M M A"
_symmetry_group_IT_number 51
_symmetry_cell_setting 'orthorhombic'
loop_
_space_group_symop_operation_xyz
x,y,z
1/2-x,-y,z
1/2+x,-y,-z
-x,y,-z
-x,-y,-z
1/2+x,y,-z
1/2-x,y,z
x,-y,z
loop_
_atom_site_type_symbol
_atom_site_label
_atom_site_fract_x
_atom_site_fract_y
_atom_site_fract_z
Si Si1 0.140108 0.858653 0.007414
Si Si2 0.355992 0.153372 0.325367
Si Si3 0.479370 0.694632 0.344324
Si Si4 0.139330 0.301754 0.877914
Si Si5 0.357290 0.000000 0.833389
Si Si6 0.890350 0.000000 0.496562
Si Si7 0.860435 0.589793 0.866015
O O1 0.250000 0.856689 0.978861
O O2 0.102041 0.772294 0.969911
O O3 0.092662 0.922723 0.901257
O O4 0.115429 0.879321 0.169971
O O5 0.250000 0.189717 0.321515
O O6 0.430713 0.220058 0.368973
O O7 0.353413 0.079355 0.431083
O O8 0.500000 0.658771 0.500000
O O9 0.580552 0.698326 0.267245
O O10 0.410800 0.637586 0.258515
O O11 0.250000 0.298116 0.837654
O O12 0.115874 0.377040 0.976499
O O13 0.356971 0.000000 0.664831
O O14 0.250000 0.000000 0.888639
O O15 0.000000 0.000000 0.500000
O O16 0.750000 0.598010 0.836424
O O17 0.894829 0.500000 0.862026
#
# Coordination Sequence:
#
# PCOD8213985 Si02
#       7
#     8   8   8   8   4   4   8
#     4   9  19  37  63  89 116 156 219 272 319 377
#     4  11  23  43  66  88 126 176 224 274 330 392
#     4  12  26  40  63 101 139 176 216 265 327 403
#     4  10  22  42  66  97 131 171 219 272 328 386
#     4  10  21  38  61  86 115 160 210 268 325 372
#     4  12  27  42  54  88 132 171 222 271 331 402
#     4  10  22  45  75 102 130 168 219 274 327 391
#
# _framework density 21.236633000000001
#
# number of rings (size 3 to 8) (size 9 to 14) (size 15 to 20)
#    0.000    1.500    1.667    2.750    4.667    4.333 
#    0.000    0.833    0.000    2.000    0.000    0.000 
#    0.000    0.000    0.000    0.000    0.000    0.000 
#
# Total GULP energy -595159.371349 kJ/mol
# GULP energy per Si atom -12399.153570 kJ/mol
# Density = 2.118830 g / cm^3
# Si number density = 21.236633 Si / 1000 Ang^3
#
#
#
# Elastic Constant Matrix: (Units=GPa)
#
#
# Indices 1 2 3 4 5 6 
#
# 1 85.2896 27.1537 36.1566 0.0000 0.0000 0.0000
# 2 27.1537 131.6864 49.4091 0.0000 0.0000 0.0000
# 3 36.1566 49.4091 153.8518 0.0000 0.0000 0.0000
# 4 0.0000 0.0000 0.0000 12.2795 0.0000 0.0000
# 5 0.0000 0.0000 0.0000 0.0000 32.0401 0.0000
# 6 0.0000 0.0000 0.0000 0.0000 0.0000 21.5974
#
#
#
# Elastic Compliance Matrix: (Units=1/GPa)
#
#
# Indices 1 2 3 4 5 6 
#
# 1 0.013386 -0.001796 -0.002569 0.000000 0.000000 0.000000
# 2 -0.001796 0.008875 -0.002428 0.000000 0.000000 0.000000
# 3 -0.002569 -0.002428 0.007883 0.000000 0.000000 0.000000
# 4 0.000000 0.000000 0.000000 0.081436 0.000000 0.000000
# 5 0.000000 0.000000 0.000000 0.000000 0.031211 0.000000
# 6 0.000000 0.000000 0.000000 0.000000 0.000000 0.046302
#
#
# Mechanical properties :
#
#
# Convention : Reuss Voigt Hill
#
# Bulk Modulus (GPa) = 60.39519 66.25181 63.32350
# Shear Modulus (GPa) = 24.01547 30.39063 27.20305
#
# Velocity S-wave (km/s) = 3.36646 3.78702 3.58292
# Velocity P-wave (km/s) = 6.60391 7.09836 6.85559
#
# Compressibility (1/GPa) = 0.01655761
#
# Stress axis : x y z
#
# Youngs Moduli (GPa) = 74.70682 112.67320 126.85115
#
# Poissons Ratio (x) = 0.20239 0.32587
# Poissons Ratio (y) = 0.13419 0.30801
# Poissons Ratio (z) = 0.19191 0.27358
#
# Static dielectric constant tensor:
#      x y z
#    x 3.909730 0.000000 0.000000 
#    y 0.000000 3.822990 0.000000 
#    z 0.000000 0.000000 3.686600 
# 
# 
# High freq. dielectric constant tensor:
#      x y z
#    x 1.842740 0.000000 0.000000 
#    y 0.000000 1.828140 0.000000 
#    z 0.000000 0.000000 1.829850 
# 
# From -- ./inp_files/8360.got.cif
#   From: 2010.03.12/outbox.cif.g09.slc.cpg/sg51_5_cif.got.tgz:8360.got - 2010.04.16 13:43:02.
