data_PCOD8213407
_publ_section_title
;
Structure prediction by ZEFSAII (Michael W. Deem and Ramdas Pophale) SiO2 
 PCOD8213407
Probable space group: P M M A
;
_chemical_formula_sum "Si O2"
_cell_formula_units_Z 64
_cell_length_a 14.611139
_cell_length_b 9.192212
_cell_length_c 24.224519
_cell_angle_alpha 90.000000
_cell_angle_beta 90.000000
_cell_angle_gamma 90.000000
_cell_volume 3253.563346
_symmetry_space_group_name_H-M "P M M A"
_symmetry_group_IT_number 51
_symmetry_cell_setting 'orthorhombic'
loop_
_space_group_symop_operation_xyz
x,y,z
1/2-x,-y,z
1/2+x,-y,-z
-x,y,-z
-x,-y,-z
1/2+x,y,-z
1/2-x,y,z
x,-y,z
loop_
_atom_site_type_symbol
_atom_site_label
_atom_site_fract_x
_atom_site_fract_y
_atom_site_fract_z
Si Si1 0.855839 0.829772 0.632215
Si Si2 0.357773 0.667237 0.139880
Si Si3 0.857439 0.830774 0.362124
Si Si4 0.504582 0.668440 0.435104
Si Si5 0.645577 0.831742 0.146876
Si Si6 0.489993 0.830417 0.062381
Si Si7 0.141319 0.160484 0.244841
Si Si8 0.141243 0.335966 0.746008
O O1 0.750000 0.789339 0.624444
O O2 0.911597 0.732026 0.589927
O O3 0.890686 0.790839 0.694167
O O4 0.872396 0.000000 0.620436
O O5 0.250000 0.692877 0.133777
O O6 0.384933 0.500000 0.138182
O O7 0.405283 0.747314 0.089213
O O8 0.394746 0.729428 0.198285
O O9 0.750000 0.806618 0.370625
O O10 0.894103 0.756139 0.306104
O O11 0.907646 0.756360 0.413438
O O12 0.883158 0.000000 0.359295
O O13 0.500000 0.690501 0.500000
O O14 0.514569 0.500000 0.418748
O O15 0.750000 0.788520 0.132441
O O16 0.584740 0.795710 0.093598
O O17 0.605962 0.739160 0.197973
O O18 0.639287 0.000000 0.163914
O O19 0.466064 0.000000 0.064102
O O20 0.500000 0.774337 0.000000
O O21 0.250000 0.154677 0.245572
O O22 0.102770 0.000000 0.230544
O O23 0.250000 0.334752 0.746202
O O24 0.102878 0.500000 0.742548
#
# Coordination Sequence:
#
# PCOD8213407 Si02
#       8
#     8   8   8   8   8   8   8   8
#     4   9  19  37  61  87 114 145 183 229 278 326
#     4  10  21  36  55  81 112 145 179 218 268 323
#     4  10  21  38  61  86 111 143 183 228 278 328
#     4  11  25  41  56  79 112 150 191 231 273 326
#     4   9  18  34  55  79 109 142 177 222 273 324
#     4  10  22  38  56  79 105 140 188 232 270 317
#     4   8  15  31  56  84 111 139 174 218 269 324
#     4   9  17  31  54  84 114 142 175 217 269 331
#
# _framework density 19.670742000000001
#
# number of rings (size 3 to 8) (size 9 to 14) (size 15 to 20)
#    0.000    2.500    0.000    2.250    0.000    7.500 
#    0.000    6.250    0.000    1.500    0.000    0.000 
#    0.000    0.000    0.000    0.000    0.000    0.000 
#
# Total GULP energy -793703.596090 kJ/mol
# GULP energy per Si atom -12401.618689 kJ/mol
# Density = 1.962597 g / cm^3
# Si number density = 19.670742 Si / 1000 Ang^3
#
#
#
# Elastic Constant Matrix: (Units=GPa)
#
#
# Indices 1 2 3 4 5 6 
#
# 1 69.3521 52.6873 52.4429 0.0000 0.0000 0.0000
# 2 52.6873 127.6006 87.1665 0.0000 0.0000 0.0000
# 3 52.4429 87.1665 151.9480 0.0000 0.0000 0.0000
# 4 0.0000 0.0000 0.0000 12.6090 0.0000 0.0000
# 5 0.0000 0.0000 0.0000 0.0000 18.6396 0.0000
# 6 0.0000 0.0000 0.0000 0.0000 0.0000 26.7488
#
#
#
# Elastic Compliance Matrix: (Units=1/GPa)
#
#
# Indices 1 2 3 4 5 6 
#
# 1 0.022387 -0.006521 -0.003986 0.000000 0.000000 0.000000
# 2 -0.006521 0.014787 -0.006232 0.000000 0.000000 0.000000
# 3 -0.003986 -0.006232 0.011532 0.000000 0.000000 0.000000
# 4 0.000000 0.000000 0.000000 0.079309 0.000000 0.000000
# 5 0.000000 0.000000 0.000000 0.000000 0.053649 0.000000
# 6 0.000000 0.000000 0.000000 0.000000 0.000000 0.037385
#
#
# Mechanical properties :
#
#
# Convention : Reuss Voigt Hill
#
# Bulk Modulus (GPa) = 65.66729 81.49932 73.58330
# Shear Modulus (GPa) = 19.40980 22.03976 20.72478
#
# Velocity S-wave (km/s) = 3.14464 3.35092 3.24942
# Velocity P-wave (km/s) = 6.82940 7.51620 7.18102
#
# Compressibility (1/GPa) = 0.01522828
#
# Stress axis : x y z
#
# Youngs Moduli (GPa) = 44.66820 67.62846 86.71674
#
# Poissons Ratio (x) = 0.44101 0.34563
# Poissons Ratio (y) = 0.29129 0.54041
# Poissons Ratio (z) = 0.17804 0.42145
#
# Static dielectric constant tensor:
#      x y z
#    x 3.678050 0.000000 0.000000 
#    y 0.000000 3.666300 0.000000 
#    z 0.000000 0.000000 3.564120 
# 
# 
# High freq. dielectric constant tensor:
#      x y z
#    x 1.763920 0.000000 0.000000 
#    y 0.000000 1.766870 0.000000 
#    z 0.000000 0.000000 1.764120 
# 
# From -- ./inp_files/35755.got.cif
#   From: 2010.03.12/outbox.cif.g09.slc.cpg/sg51_18_cif.got.tgz:35755.got - 2010.04.16 13:43:02.
