data_PCOD8213618
_publ_section_title
;
Structure prediction by ZEFSAII (Michael W. Deem and Ramdas Pophale) SiO2 
 PCOD8213618
Probable space group: P M M A
;
_chemical_formula_sum "Si O2"
_cell_formula_units_Z 48
_cell_length_a 9.711249
_cell_length_b 9.237602
_cell_length_c 28.997801
_cell_angle_alpha 90.000000
_cell_angle_beta 90.000000
_cell_angle_gamma 90.000000
_cell_volume 2601.353673
_symmetry_space_group_name_H-M "P M M A"
_symmetry_group_IT_number 51
_symmetry_cell_setting 'orthorhombic'
loop_
_space_group_symop_operation_xyz
x,y,z
1/2-x,-y,z
1/2+x,-y,-z
-x,y,-z
-x,-y,-z
1/2+x,y,-z
1/2-x,y,z
x,-y,z
loop_
_atom_site_type_symbol
_atom_site_label
_atom_site_fract_x
_atom_site_fract_y
_atom_site_fract_z
Si Si1 0.906724 0.666986 0.298976
Si Si2 0.403385 0.172369 0.124082
Si Si3 0.409814 0.166029 0.227097
Si Si4 0.250000 0.662226 0.444343
Si Si5 0.750000 0.827870 0.462720
Si Si6 0.406982 0.827480 0.957669
Si Si7 0.461622 0.333428 0.598402
O O1 0.750000 0.692851 0.283786
O O2 0.948208 0.500000 0.297910
O O3 0.928887 0.726422 0.350682
O O4 0.003500 0.746843 0.263591
O O5 0.250000 0.227871 0.109887
O O6 0.440445 0.226104 0.175571
O O7 0.518966 0.230843 0.088777
O O8 0.400361 0.000000 0.123617
O O9 0.250000 0.184977 0.238960
O O10 0.454998 0.000000 0.230425
O O11 0.250000 0.500000 0.466179
O O12 0.250000 0.780475 0.484255
O O13 0.377797 0.683781 0.410611
O O14 0.885141 0.765229 0.438643
O O15 0.750000 0.000000 0.459969
O O16 0.250000 0.767053 0.960556
O O17 0.402625 0.000000 0.958113
O O18 0.500000 0.770413 0.000000
O O19 0.411879 0.500000 0.593360
#
# Coordination Sequence:
#
# PCOD8213618 Si02
#       7
#     8   8   8   4   4   8   8
#     4  10  21  37  57  79 104 134 173 220 261 301
#     4   8  14  26  41  58  87 125 162 202 251 307
#     4   9  19  34  52  76 105 137 171 210 262 322
#     4  10  22  38  62  86 104 138 182 218 257 308
#     4  12  24  38  58  84 116 146 172 208 261 312
#     4   9  15  21  32  53  82 120 167 213 255 298
#     4  10  21  40  61  81 106 139 179 218 257 307
#
# _framework density 18.451931999999999
#
# number of rings (size 3 to 8) (size 9 to 14) (size 15 to 20)
#    0.000    2.500    0.833    2.750    1.167    6.667 
#    0.000    1.667    0.000    0.000    0.000    0.000 
#    0.000    0.667    0.000    2.167    0.000    4.833 
#
# Total GULP energy -595125.385791 kJ/mol
# GULP energy per Si atom -12398.445537 kJ/mol
# Density = 1.840993 g / cm^3
# Si number density = 18.451932 Si / 1000 Ang^3
#
#
#
# Elastic Constant Matrix: (Units=GPa)
#
#
# Indices 1 2 3 4 5 6 
#
# 1 111.4312 28.4633 52.4572 0.0000 0.0000 0.0000
# 2 28.4633 45.8097 29.4259 0.0000 0.0000 0.0000
# 3 52.4572 29.4259 112.0718 0.0000 0.0000 0.0000
# 4 0.0000 0.0000 0.0000 -94.2703 0.0000 0.0000
# 5 0.0000 0.0000 0.0000 0.0000 39.2956 0.0000
# 6 0.0000 0.0000 0.0000 0.0000 0.0000 21.7134
#
#
#
# Elastic Compliance Matrix: (Units=1/GPa)
#
#
# Indices 1 2 3 4 5 6 
#
# 1 0.012314 -0.004750 -0.004516 0.000000 0.000000 0.000000
# 2 -0.004750 0.028090 -0.005152 0.000000 0.000000 0.000000
# 3 -0.004516 -0.005152 0.012390 0.000000 0.000000 0.000000
# 4 0.000000 0.000000 0.000000 -0.010608 0.000000 0.000000
# 5 0.000000 0.000000 0.000000 0.000000 0.025448 0.000000
# 6 0.000000 0.000000 0.000000 0.000000 0.000000 0.046054
#
#
# Mechanical properties :
#
#
# Convention : Reuss Voigt Hill
#
# Bulk Modulus (GPa) = 41.74234 54.44506 48.09370
# Shear Modulus (GPa) = 33.22026 3.94549 18.58288
#
# Velocity S-wave (km/s) = 4.24768 1.46386 3.17692
# Velocity P-wave (km/s) = 6.83581 5.69453 6.29111
#
# Compressibility (1/GPa) = 0.02395649
#
# Stress axis : x y z
#
# Youngs Moduli (GPa) = 81.21127 35.59968 80.71248
#
# Poissons Ratio (x) = 0.16909 0.36454
# Poissons Ratio (y) = 0.38573 0.41585
# Poissons Ratio (z) = 0.36679 0.18342
#
# Static dielectric constant tensor:
#      x y z
#    x 3.568420 0.000000 0.000000 
#    y 0.000000 2.949450 0.000000 
#    z 0.000000 0.000000 3.580290 
# 
# 
# High freq. dielectric constant tensor:
#      x y z
#    x 1.728800 0.000000 0.000000 
#    y 0.000000 1.663070 0.000000 
#    z 0.000000 0.000000 1.725350 
# 
# From -- ./inp_files/37136.got.cif
#   From: 2010.03.12/outbox.cif.g09.slc.cpg/sg51_19_cif.got.tgz:37136.got - 2010.04.16 13:43:02.
