data_PCOD8213902
_publ_section_title
;
Structure prediction by ZEFSAII (Michael W. Deem and Ramdas Pophale) SiO2 
 PCOD8213902
Probable space group: P M M A
;
_chemical_formula_sum "Si O2"
_cell_formula_units_Z 56
_cell_length_a 8.523270
_cell_length_b 14.705465
_cell_length_c 23.509282
_cell_angle_alpha 90.000000
_cell_angle_beta 90.000000
_cell_angle_gamma 90.000000
_cell_volume 2946.621637
_symmetry_space_group_name_H-M "P M M A"
_symmetry_group_IT_number 51
_symmetry_cell_setting 'orthorhombic'
loop_
_space_group_symop_operation_xyz
x,y,z
1/2-x,-y,z
1/2+x,-y,-z
-x,y,-z
-x,-y,-z
1/2+x,y,-z
1/2-x,y,z
x,-y,z
loop_
_atom_site_type_symbol
_atom_site_label
_atom_site_fract_x
_atom_site_fract_y
_atom_site_fract_z
Si Si1 0.433957 0.500000 0.064212
Si Si2 0.933196 0.647083 0.148338
Si Si3 0.434459 0.604216 0.723953
Si Si4 0.935179 0.102498 0.437420
Si Si5 0.435887 0.236471 0.345248
Si Si6 0.436649 0.000000 0.938085
Si Si7 0.565047 0.839557 0.866713
Si Si8 0.935380 0.902401 0.744399
O O1 0.250000 0.500000 0.057168
O O2 0.484646 0.413400 0.100782
O O3 0.500000 0.500000 0.000000
O O4 0.750000 0.624100 0.147876
O O5 0.999486 0.631357 0.212875
O O6 0.966725 0.748157 0.127549
O O7 0.250000 0.618912 0.723059
O O8 0.481204 0.500000 0.711987
O O9 0.505968 0.662429 0.671296
O O10 0.750000 0.110001 0.438292
O O11 0.000000 0.116925 0.500000
O O12 0.000987 0.188307 0.401982
O O13 0.985387 0.000000 0.415559
O O14 0.250000 0.238648 0.349099
O O15 0.507436 0.175358 0.294621
O O16 0.510775 0.091617 0.914179
O O17 0.250000 0.000000 0.932259
O O18 0.500000 0.000000 0.000000
O O19 0.750000 0.818994 0.870436
O O20 0.514724 0.886560 0.808435
O O21 0.750000 0.901330 0.737753
O O22 0.003091 0.000000 0.724910
#
# Coordination Sequence:
#
# PCOD8213902 Si02
#       8
#     4   8   8   8   8   4   8   8
#     4  12  26  44  66  90 116 150 193 244 303 370
#     4  11  22  40  63  90 121 153 192 243 301 362
#     4  10  21  38  59  85 120 160 198 244 300 358
#     4  10  21  38  60  88 124 168 211 253 297 350
#     4  11  21  34  57  90 123 158 201 248 296 353
#     4  12  26  44  62  84 110 152 199 246 297 356
#     4  11  21  38  61  87 116 152 192 239 292 352
#     4   9  17  30  51  81 116 151 186 229 284 340
#
# _framework density 19.004814
#
# number of rings (size 3 to 8) (size 9 to 14) (size 15 to 20)
#    0.000    1.429    2.857    3.429    0.000    2.857 
#    0.000    2.857    0.000    0.429    0.000    0.000 
#    0.000    0.000    0.000    0.000    0.000    0.000 
#
# Total GULP energy -694087.071516 kJ/mol
# GULP energy per Si atom -12394.411991 kJ/mol
# Density = 1.896156 g / cm^3
# Si number density = 19.004814 Si / 1000 Ang^3
#
#
#
# Elastic Constant Matrix: (Units=GPa)
#
#
# Indices 1 2 3 4 5 6 
#
# 1 74.8006 34.9872 37.1095 0.0000 0.0000 0.0000
# 2 34.9872 151.0852 65.3774 0.0000 0.0000 0.0000
# 3 37.1095 65.3774 117.1859 0.0000 0.0000 0.0000
# 4 0.0000 0.0000 0.0000 59.5182 0.0000 0.0000
# 5 0.0000 0.0000 0.0000 0.0000 28.4932 0.0000
# 6 0.0000 0.0000 0.0000 0.0000 0.0000 29.8882
#
#
#
# Elastic Compliance Matrix: (Units=1/GPa)
#
#
# Indices 1 2 3 4 5 6 
#
# 1 0.016322 -0.002034 -0.004034 0.000000 0.000000 0.000000
# 2 -0.002034 0.008979 -0.004365 0.000000 0.000000 0.000000
# 3 -0.004034 -0.004365 0.012246 0.000000 0.000000 0.000000
# 4 0.000000 0.000000 0.000000 0.016802 0.000000 0.000000
# 5 0.000000 0.000000 0.000000 0.000000 0.035096 0.000000
# 6 0.000000 0.000000 0.000000 0.000000 0.000000 0.033458
#
#
# Mechanical properties :
#
#
# Convention : Reuss Voigt Hill
#
# Bulk Modulus (GPa) = 59.95038 68.66889 64.30963
# Shear Modulus (GPa) = 33.48338 37.28641 35.38490
#
# Velocity S-wave (km/s) = 4.20198 4.43419 4.31964
# Velocity P-wave (km/s) = 7.42667 7.90107 7.66754
#
# Compressibility (1/GPa) = 0.01668046
#
# Stress axis : x y z
#
# Youngs Moduli (GPa) = 61.26878 111.37540 81.65918
#
# Poissons Ratio (x) = 0.22655 0.32939
# Poissons Ratio (y) = 0.12463 0.35644
# Poissons Ratio (z) = 0.24714 0.48615
#
# Static dielectric constant tensor:
#      x y z
#    x 3.416170 0.000000 0.000000 
#    y 0.000000 2.070560 0.000000 
#    z 0.000000 0.000000 3.496530 
# 
# 
# High freq. dielectric constant tensor:
#      x y z
#    x 1.735370 0.000000 0.000000 
#    y 0.000000 1.749350 0.000000 
#    z 0.000000 0.000000 1.730700 
# 
# From -- ./inp_files/32144.got.cif
#   From: 2010.03.12/outbox.cif.g09.slc.cpg/sg51_17_cif.got.tgz:32144.got - 2010.04.16 13:43:02.
