data_PCOD8213557
_publ_section_title
;
Structure prediction by ZEFSAII (Michael W. Deem and Ramdas Pophale) SiO2 
 PCOD8213557
Probable space group: P M M A
;
_chemical_formula_sum "Si O2"
_cell_formula_units_Z 48
_cell_length_a 8.996535
_cell_length_b 9.341500
_cell_length_c 31.043364
_cell_angle_alpha 90.000000
_cell_angle_beta 90.000000
_cell_angle_gamma 90.000000
_cell_volume 2608.919442
_symmetry_space_group_name_H-M "P M M A"
_symmetry_group_IT_number 51
_symmetry_cell_setting 'orthorhombic'
loop_
_space_group_symop_operation_xyz
x,y,z
1/2-x,-y,z
1/2+x,-y,-z
-x,y,-z
-x,-y,-z
1/2+x,y,-z
1/2-x,y,z
x,-y,z
loop_
_atom_site_type_symbol
_atom_site_label
_atom_site_fract_x
_atom_site_fract_y
_atom_site_fract_z
Si Si1 0.580287 0.166870 0.715388
Si Si2 0.585541 0.329161 0.540876
Si Si3 0.075917 0.835506 0.955068
Si Si4 0.427456 0.659684 0.365783
Si Si5 0.576521 0.331768 0.879019
Si Si6 0.076575 0.166967 0.802752
O O1 0.750000 0.215467 0.724718
O O2 0.513926 0.241180 0.672772
O O3 0.478072 0.211575 0.755414
O O4 0.572132 0.000000 0.706554
O O5 0.500000 0.263255 0.500000
O O6 0.750000 0.265195 0.537697
O O7 0.589084 0.500000 0.538499
O O8 0.513502 0.285680 0.587316
O O9 0.250000 0.806028 0.959308
O O10 0.009021 0.732154 0.919523
O O11 0.044119 0.000000 0.942073
O O12 0.000000 0.796725 0.000000
O O13 0.250000 0.660876 0.367899
O O14 0.486161 0.500000 0.356495
O O15 0.750000 0.297019 0.883614
O O16 0.545496 0.500000 0.876902
O O17 0.515910 0.260376 0.835938
O O18 0.250000 0.202157 0.807398
O O19 0.044593 0.000000 0.811684
#
# Coordination Sequence:
#
# PCOD8213557 Si02
#       6
#     8   8   8   8   8   8
#     4   9  17  30  49  71  93 121 159 200 241 289
#     4   8  13  22  37  57  81 110 145 185 228 275
#     4  10  21  38  61  87 113 144 182 220 258 302
#     4   8  14  25  42  64  89 117 150 190 236 284
#     4  11  24  39  56  81 111 142 176 215 260 306
#     4  10  21  37  56  77 102 134 171 210 254 305
#
# _framework density 18.398422
#
# number of rings (size 3 to 8) (size 9 to 14) (size 15 to 20)
#    0.000    2.667    0.000    3.000    0.000    6.333 
#    0.000    2.500    0.000    1.500    0.000    0.000 
#    0.000    0.000    0.000    0.000    0.000    0.000 
#
# Total GULP energy -595063.408450 kJ/mol
# GULP energy per Si atom -12397.154343 kJ/mol
# Density = 1.835655 g / cm^3
# Si number density = 18.398422 Si / 1000 Ang^3
#
#
#
# Elastic Constant Matrix: (Units=GPa)
#
#
# Indices 1 2 3 4 5 6 
#
# 1 72.5095 36.7353 55.1104 0.0000 0.0000 0.0000
# 2 36.7353 59.1621 64.0809 0.0000 0.0000 0.0000
# 3 55.1104 64.0809 163.4684 0.0000 0.0000 0.0000
# 4 0.0000 0.0000 0.0000 31.1589 0.0000 0.0000
# 5 0.0000 0.0000 0.0000 0.0000 33.2893 0.0000
# 6 0.0000 0.0000 0.0000 0.0000 0.0000 20.5704
#
#
#
# Elastic Compliance Matrix: (Units=1/GPa)
#
#
# Indices 1 2 3 4 5 6 
#
# 1 0.021185 -0.009417 -0.003451 0.000000 0.000000 0.000000
# 2 -0.009417 0.033561 -0.009982 0.000000 0.000000 0.000000
# 3 -0.003451 -0.009982 0.011194 0.000000 0.000000 0.000000
# 4 0.000000 0.000000 0.000000 0.032094 0.000000 0.000000
# 5 0.000000 0.000000 0.000000 0.000000 0.030040 0.000000
# 6 0.000000 0.000000 0.000000 0.000000 0.000000 0.048614
#
#
# Mechanical properties :
#
#
# Convention : Reuss Voigt Hill
#
# Bulk Modulus (GPa) = 49.40283 67.44368 58.42325
# Shear Modulus (GPa) = 21.82157 26.28462 24.05309
#
# Velocity S-wave (km/s) = 3.44765 3.78383 3.61965
# Velocity P-wave (km/s) = 6.53899 7.47173 7.02086
#
# Compressibility (1/GPa) = 0.02024176
#
# Stress axis : x y z
#
# Youngs Moduli (GPa) = 47.20412 29.79630 89.33675
#
# Poissons Ratio (x) = 0.28058 0.30827
# Poissons Ratio (y) = 0.44450 0.89173
# Poissons Ratio (z) = 0.16288 0.29742
#
# Static dielectric constant tensor:
#      x y z
#    x 3.351410 0.000000 0.000000 
#    y 0.000000 3.223610 0.000000 
#    z 0.000000 0.000000 3.838820 
# 
# 
# High freq. dielectric constant tensor:
#      x y z
#    x 1.698790 0.000000 0.000000 
#    y 0.000000 1.687440 0.000000 
#    z 0.000000 0.000000 1.734020 
# 
# From -- ./inp_files/37052.got.cif
#   From: 2010.03.12/outbox.cif.g09.slc.cpg/sg51_19_cif.got.tgz:37052.got - 2010.04.16 13:43:02.
