data_PCOD8213843
_publ_section_title
;
Structure prediction by ZEFSAII (Michael W. Deem and Ramdas Pophale) SiO2 
 PCOD8213843
Probable space group: P M M A
;
_chemical_formula_sum "Si O2"
_cell_formula_units_Z 44
_cell_length_a 8.793479
_cell_length_b 28.313207
_cell_length_c 9.860849
_cell_angle_alpha 90.000000
_cell_angle_beta 90.000000
_cell_angle_gamma 90.000000
_cell_volume 2455.071266
_symmetry_space_group_name_H-M "P M M A"
_symmetry_group_IT_number 51
_symmetry_cell_setting 'orthorhombic'
loop_
_space_group_symop_operation_xyz
x,y,z
1/2-x,-y,z
1/2+x,-y,-z
-x,y,-z
-x,-y,-z
1/2+x,y,-z
1/2-x,y,z
x,-y,z
loop_
_atom_site_type_symbol
_atom_site_label
_atom_site_fract_x
_atom_site_fract_y
_atom_site_fract_z
Si Si1 0.929779 0.102093 0.148019
Si Si2 0.930156 0.376424 0.649403
Si Si3 0.074507 0.444470 0.859393
Si Si4 0.426801 0.000000 0.855828
Si Si5 0.572324 0.716399 0.353480
Si Si6 0.427486 0.179670 0.646562
O O1 0.750000 0.108236 0.133015
O O2 0.997228 0.141452 0.249479
O O3 0.972388 0.050163 0.213616
O O4 0.000000 0.109132 0.000000
O O5 0.750000 0.376696 0.640113
O O6 0.000000 0.381160 0.500000
O O7 0.985929 0.420338 0.736832
O O8 0.988179 0.327405 0.721051
O O9 0.250000 0.429088 0.859258
O O10 0.055309 0.500000 0.838300
O O11 0.000000 0.427953 0.000000
O O12 0.250000 0.000000 0.881124
O O13 0.500000 0.000000 0.000000
O O14 0.500000 0.719649 0.500000
O O15 0.750000 0.704587 0.363040
O O16 0.543137 0.768090 0.287917
O O17 0.500000 0.173003 0.500000
O O18 0.250000 0.171154 0.625760
#
# Coordination Sequence:
#
# PCOD8213843 Si02
#       6
#     8   8   8   4   8   8
#     4   9  17  30  47  69  93 121 157 197 240 285
#     4  11  21  34  54  79 105 133 168 210 251 292
#     4  10  21  38  58  79 105 137 170 204 246 297
#     4   8  14  26  45  64  88 120 154 192 235 284
#     4   9  16  29  48  69  95 127 162 201 243 290
#     4   9  18  31  48  69  95 126 160 197 240 290
#
# _framework density 17.922086
#
# number of rings (size 3 to 8) (size 9 to 14) (size 15 to 20)
#    0.000    2.545    0.000    3.818    0.000    2.909 
#    0.000    1.364    0.000    2.182    0.000    0.000 
#    0.000    0.000    0.000    0.000    0.000    0.000 
#
# Total GULP energy -545131.481679 kJ/mol
# GULP energy per Si atom -12389.351856 kJ/mol
# Density = 1.788130 g / cm^3
# Si number density = 17.922086 Si / 1000 Ang^3
#
#
#
# Elastic Constant Matrix: (Units=GPa)
#
#
# Indices 1 2 3 4 5 6 
#
# 1 99.8223 54.4001 38.7106 0.0000 0.0000 0.0000
# 2 54.4001 114.5909 59.4404 0.0000 0.0000 0.0000
# 3 38.7106 59.4404 77.0470 0.0000 0.0000 0.0000
# 4 0.0000 0.0000 0.0000 23.2991 0.0000 0.0000
# 5 0.0000 0.0000 0.0000 0.0000 24.9392 0.0000
# 6 0.0000 0.0000 0.0000 0.0000 0.0000 14.7710
#
#
#
# Elastic Compliance Matrix: (Units=1/GPa)
#
#
# Indices 1 2 3 4 5 6 
#
# 1 0.013964 -0.004985 -0.003170 0.000000 0.000000 0.000000
# 2 -0.004985 0.016328 -0.010093 0.000000 0.000000 0.000000
# 3 -0.003170 -0.010093 0.022358 0.000000 0.000000 0.000000
# 4 0.000000 0.000000 0.000000 0.042920 0.000000 0.000000
# 5 0.000000 0.000000 0.000000 0.000000 0.040098 0.000000
# 6 0.000000 0.000000 0.000000 0.000000 0.000000 0.067700
#
#
# Mechanical properties :
#
#
# Convention : Reuss Voigt Hill
#
# Bulk Modulus (GPa) = 61.89911 66.28469 64.09190
# Shear Modulus (GPa) = 20.38757 21.86247 21.12502
#
# Velocity S-wave (km/s) = 3.37644 3.49644 3.43697
# Velocity P-wave (km/s) = 7.05786 7.30516 7.18257
#
# Compressibility (1/GPa) = 0.01615532
#
# Stress axis : x y z
#
# Youngs Moduli (GPa) = 71.61469 61.24374 44.72645
#
# Poissons Ratio (x) = 0.30527 0.14179
# Poissons Ratio (y) = 0.35697 0.45140
# Poissons Ratio (z) = 0.22704 0.61811
#
# Static dielectric constant tensor:
#      x y z
#    x 3.417610 0.000000 0.000000 
#    y 0.000000 4.334350 0.000000 
#    z 0.000000 0.000000 3.003560 
# 
# 
# High freq. dielectric constant tensor:
#      x y z
#    x 1.701430 0.000000 0.000000 
#    y 0.000000 1.718080 0.000000 
#    z 0.000000 0.000000 1.650850 
# 
# From -- ./inp_files/5729.got.cif
#   From: 2010.03.12/outbox.cif.g09.slc.cpg/sg51_3_cif.got.tgz:5729.got - 2010.04.16 13:43:02.
