data_PCOD8213775
_publ_section_title
;
Structure prediction by ZEFSAII (Michael W. Deem and Ramdas Pophale) SiO2 
 PCOD8213775
Probable space group: P M M A
;
_chemical_formula_sum "Si O2"
_cell_formula_units_Z 48
_cell_length_a 19.985659
_cell_length_b 7.577495
_cell_length_c 15.323943
_cell_angle_alpha 90.000000
_cell_angle_beta 90.000000
_cell_angle_gamma 90.000000
_cell_volume 2320.676794
_symmetry_space_group_name_H-M "P M M A"
_symmetry_group_IT_number 51
_symmetry_cell_setting 'orthorhombic'
loop_
_space_group_symop_operation_xyz
x,y,z
1/2-x,-y,z
1/2+x,-y,-z
-x,y,-z
-x,-y,-z
1/2+x,y,-z
1/2-x,y,z
x,-y,z
loop_
_atom_site_type_symbol
_atom_site_label
_atom_site_fract_x
_atom_site_fract_y
_atom_site_fract_z
Si Si1 0.944631 0.697415 0.062804
Si Si2 0.874765 0.199615 0.768609
Si Si3 0.824937 0.205044 0.952671
Si Si4 0.172617 0.500000 0.540198
Si Si5 0.822133 0.500000 0.661253
Si Si6 0.521781 0.291869 0.246312
Si Si7 0.937953 0.799319 0.436425
O O1 0.972243 0.500000 0.076944
O O2 0.872776 0.691802 0.017704
O O3 0.933886 0.769765 0.162120
O O4 0.000000 0.795220 0.000000
O O5 0.860285 0.322314 0.686250
O O6 0.951786 0.221656 0.789743
O O7 0.855101 0.000000 0.743784
O O8 0.834119 0.266725 0.852952
O O9 0.750000 0.246954 0.982634
O O10 0.843079 0.000000 0.959174
O O11 0.250000 0.500000 0.582799
O O12 0.186399 0.500000 0.439935
O O13 0.127682 0.673452 0.561331
O O14 0.750000 0.500000 0.707334
O O15 0.524035 0.500000 0.266144
O O16 0.539467 0.193882 0.335668
O O17 0.000000 0.735749 0.500000
O O18 0.918007 0.000000 0.463476
#
# Coordination Sequence:
#
# PCOD8213775 Si02
#       7
#     8   8   8   4   4   8   8
#     4  10  21  37  58  89 121 158 208 255 303 368
#     4  11  22  37  59  92 128 162 205 256 315 382
#     4  10  22  38  56  82 122 168 209 255 310 371
#     4  11  25  45  67  94 132 176 217 267 331 395
#     4  11  24  39  61  89 123 170 207 248 317 381
#     4  11  21  38  65  92 123 162 208 262 322 382
#     4  11  24  43  70 102 131 166 217 277 334 388
#
# _framework density 20.683620999999999
#
# number of rings (size 3 to 8) (size 9 to 14) (size 15 to 20)
#    0.000    1.333    3.333    2.250    1.167    5.333 
#    0.000    2.500    0.000    0.000    0.000    0.000 
#    0.000    0.000    0.000    0.000    0.000    0.000 
#
# Total GULP energy -594730.717218 kJ/mol
# GULP energy per Si atom -12390.223275 kJ/mol
# Density = 2.063654 g / cm^3
# Si number density = 20.683621 Si / 1000 Ang^3
#
#
#
# Elastic Constant Matrix: (Units=GPa)
#
#
# Indices 1 2 3 4 5 6 
#
# 1 112.8970 28.4235 24.0722 0.0000 0.0000 0.0000
# 2 28.4235 84.3770 18.8026 0.0000 0.0000 0.0000
# 3 24.0722 18.8026 101.3935 0.0000 0.0000 0.0000
# 4 0.0000 0.0000 0.0000 23.5167 0.0000 0.0000
# 5 0.0000 0.0000 0.0000 0.0000 26.5896 0.0000
# 6 0.0000 0.0000 0.0000 0.0000 0.0000 35.8961
#
#
#
# Elastic Compliance Matrix: (Units=1/GPa)
#
#
# Indices 1 2 3 4 5 6 
#
# 1 0.009991 -0.002959 -0.001823 0.000000 0.000000 0.000000
# 2 -0.002959 0.013239 -0.001752 0.000000 0.000000 0.000000
# 3 -0.001823 -0.001752 0.010620 0.000000 0.000000 0.000000
# 4 0.000000 0.000000 0.000000 0.042523 0.000000 0.000000
# 5 0.000000 0.000000 0.000000 0.000000 0.037609 0.000000
# 6 0.000000 0.000000 0.000000 0.000000 0.000000 0.027858
#
#
# Mechanical properties :
#
#
# Convention : Reuss Voigt Hill
#
# Bulk Modulus (GPa) = 48.12204 49.02933 48.57569
# Shear Modulus (GPa) = 30.89506 32.35840 31.62673
#
# Velocity S-wave (km/s) = 3.86903 3.95960 3.91458
# Velocity P-wave (km/s) = 6.57841 6.68285 6.63083
#
# Compressibility (1/GPa) = 0.02078050
#
# Stress axis : x y z
#
# Youngs Moduli (GPa) = 100.08512 75.53424 94.15819
#
# Poissons Ratio (x) = 0.22354 0.17168
# Poissons Ratio (y) = 0.29620 0.16501
# Poissons Ratio (z) = 0.18249 0.13237
#
# Static dielectric constant tensor:
#      x y z
#    x 3.809130 0.000000 0.000000 
#    y 0.000000 3.984130 0.000000 
#    z 0.000000 0.000000 3.745400 
# 
# 
# High freq. dielectric constant tensor:
#      x y z
#    x 1.796350 0.000000 0.000000 
#    y 0.000000 1.808370 0.000000 
#    z 0.000000 0.000000 1.810690 
# 
# From -- ./inp_files/24907.got.cif
#   From: 2010.03.12/outbox.cif.g09.slc.cpg/sg51_13_cif.got.tgz:24907.got - 2010.04.16 13:43:02.
