data_PCOD8213978
_publ_section_title
;
Structure prediction by ZEFSAII (Michael W. Deem and Ramdas Pophale) SiO2 
 PCOD8213978
Probable space group: P M M A
;
_chemical_formula_sum "Si O2"
_cell_formula_units_Z 40
_cell_length_a 14.813870
_cell_length_b 9.169783
_cell_length_c 15.059657
_cell_angle_alpha 90.000000
_cell_angle_beta 90.000000
_cell_angle_gamma 90.000000
_cell_volume 2045.703405
_symmetry_space_group_name_H-M "P M M A"
_symmetry_group_IT_number 51
_symmetry_cell_setting 'orthorhombic'
loop_
_space_group_symop_operation_xyz
x,y,z
1/2-x,-y,z
1/2+x,-y,-z
-x,y,-z
-x,-y,-z
1/2+x,y,-z
1/2-x,y,z
x,-y,z
loop_
_atom_site_type_symbol
_atom_site_label
_atom_site_fract_x
_atom_site_fract_y
_atom_site_fract_z
Si Si1 0.113080 0.831657 0.338118
Si Si2 0.750000 0.328406 0.337985
Si Si3 0.750000 0.672253 0.995724
Si Si4 0.077650 0.166842 0.731931
Si Si5 0.750000 0.328224 0.542582
Si Si6 0.250000 0.165424 0.185942
Si Si7 0.920002 0.166981 0.064597
O O1 0.158879 0.735087 0.414196
O O2 0.161309 0.804311 0.244142
O O3 0.008242 0.788232 0.328347
O O4 0.124487 0.000000 0.365872
O O5 0.750000 0.500000 0.325822
O O6 0.838656 0.268035 0.290725
O O7 0.750000 0.281908 0.440365
O O8 0.750000 0.500000 0.997456
O O9 0.750000 0.723867 0.894629
O O10 0.663877 0.729258 0.048213
O O11 0.048552 0.186110 0.834126
O O12 0.105301 0.000000 0.713053
O O13 0.750000 0.500000 0.556266
O O14 0.250000 0.000000 0.149372
O O15 0.892387 0.000000 0.044148
O O16 0.000000 0.217242 0.000000
#
# Coordination Sequence:
#
# PCOD8213978 Si02
#       7
#     8   4   4   8   4   4   8
#     4   9  19  37  62  88 111 138 181 237 287 329
#     4  11  25  41  56  79 117 158 189 223 272 333
#     4  12  24  34  50  81 118 151 186 231 280 329
#     4  10  21  38  61  86 109 142 189 236 281 328
#     4  10  22  39  58  84 116 150 184 218 271 342
#     4   9  17  34  58  82 111 147 185 226 279 338
#     4  10  21  39  61  82 109 148 192 234 277 330
#
# _framework density 19.553175
#
# number of rings (size 3 to 8) (size 9 to 14) (size 15 to 20)
#    0.000    2.000    0.000    3.900    0.000   11.600 
#    0.000    6.000    0.000    0.000    0.000    0.000 
#    0.000    0.000    0.000    0.000    0.000    0.000 
#
# Total GULP energy -496147.646200 kJ/mol
# GULP energy per Si atom -12403.691155 kJ/mol
# Density = 1.950867 g / cm^3
# Si number density = 19.553175 Si / 1000 Ang^3
#
#
#
# Elastic Constant Matrix: (Units=GPa)
#
#
# Indices 1 2 3 4 5 6 
#
# 1 135.3182 49.9314 43.5284 0.0000 0.0000 0.0000
# 2 49.9314 84.6157 39.7569 0.0000 0.0000 0.0000
# 3 43.5284 39.7569 93.4417 0.0000 0.0000 0.0000
# 4 0.0000 0.0000 0.0000 30.8096 0.0000 0.0000
# 5 0.0000 0.0000 0.0000 0.0000 10.9675 0.0000
# 6 0.0000 0.0000 0.0000 0.0000 0.0000 548.4871
#
#
#
# Elastic Compliance Matrix: (Units=1/GPa)
#
#
# Indices 1 2 3 4 5 6 
#
# 1 0.009954 -0.004618 -0.002672 0.000000 0.000000 0.000000
# 2 -0.004618 0.016914 -0.005045 0.000000 0.000000 0.000000
# 3 -0.002672 -0.005045 0.014093 0.000000 0.000000 0.000000
# 4 0.000000 0.000000 0.000000 0.032457 0.000000 0.000000
# 5 0.000000 0.000000 0.000000 0.000000 0.091178 0.000000
# 6 0.000000 0.000000 0.000000 0.000000 0.000000 0.001823
#
#
# Mechanical properties :
#
#
# Convention : Reuss Voigt Hill
#
# Bulk Modulus (GPa) = 61.38641 64.42324 62.90482
# Shear Modulus (GPa) = 25.44284 130.06345 77.75314
#
# Velocity S-wave (km/s) = 3.61115 8.16469 6.31279
# Velocity P-wave (km/s) = 6.98927 11.04093 9.23992
#
# Compressibility (1/GPa) = 0.01629025
#
# Stress axis : x y z
#
# Youngs Moduli (GPa) = 100.46713 59.12355 70.95722
#
# Poissons Ratio (x) = 0.27304 0.18958
# Poissons Ratio (y) = 0.46398 0.35798
# Poissons Ratio (z) = 0.26843 0.29828
#
# Static dielectric constant tensor:
#      x y z
#    x 3.868640 0.000000 0.000000 
#    y 0.000000 3.441260 0.000000 
#    z 0.000000 0.000000 3.557210 
# 
# 
# High freq. dielectric constant tensor:
#      x y z
#    x 1.771070 0.000000 0.000000 
#    y 0.000000 1.749920 0.000000 
#    z 0.000000 0.000000 1.765390 
# 
# From -- ./inp_files/23857.got.cif
#   From: 2010.03.12/outbox.cif.g09.slc.cpg/sg51_12_cif.got.tgz:23857.got - 2010.04.16 13:43:02.
