data_PCOD8213168
_publ_section_title
;
Structure prediction by ZEFSAII (Michael W. Deem and Ramdas Pophale) SiO2 
 PCOD8213168
Probable space group: P M M A
;
_chemical_formula_sum "Si O2"
_cell_formula_units_Z 64
_cell_length_a 13.944566
_cell_length_b 23.883508
_cell_length_c 9.660875
_cell_angle_alpha 90.000000
_cell_angle_beta 90.000000
_cell_angle_gamma 90.000000
_cell_volume 3217.507598
_symmetry_space_group_name_H-M "P M M A"
_symmetry_group_IT_number 51
_symmetry_cell_setting 'orthorhombic'
loop_
_space_group_symop_operation_xyz
x,y,z
1/2-x,-y,z
1/2+x,-y,-z
-x,y,-z
-x,-y,-z
1/2+x,y,-z
1/2-x,y,z
x,-y,z
loop_
_atom_site_type_symbol
_atom_site_label
_atom_site_fract_x
_atom_site_fract_y
_atom_site_fract_z
Si Si1 0.359040 0.440652 0.491966
Si Si2 0.863137 0.260101 0.630129
Si Si3 0.978889 0.671415 0.851406
Si Si4 0.640631 0.563854 0.832336
Si Si5 0.984457 0.064770 0.842964
Si Si6 0.636031 0.331838 0.367774
Si Si7 0.359278 0.064008 0.620205
Si Si8 0.136589 0.866824 0.358397
O O1 0.250000 0.443507 0.540820
O O2 0.409532 0.500000 0.530022
O O3 0.363159 0.428951 0.331037
O O4 0.407439 0.390185 0.573923
O O5 0.750000 0.264098 0.646205
O O6 0.904209 0.294094 0.759669
O O7 0.893284 0.284889 0.480462
O O8 0.900921 0.196681 0.636434
O O9 0.935063 0.609690 0.888023
O O10 0.081886 0.674700 0.776279
O O11 0.000000 0.700031 0.000000
O O12 0.750000 0.575771 0.884018
O O13 0.611445 0.500000 0.875383
O O14 0.901280 0.102583 0.778376
O O15 0.082492 0.075568 0.759798
O O16 0.952704 0.000000 0.836255
O O17 0.000000 0.084223 0.000000
O O18 0.750000 0.331723 0.341577
O O19 0.250000 0.079713 0.654907
O O20 0.400725 0.101640 0.495902
O O21 0.369316 0.000000 0.570944
O O22 0.250000 0.869543 0.351931
#
# Coordination Sequence:
#
# PCOD8213168 Si02
#       8
#     8   8   8   8   8   8   8   8
#     4   8  14  28  54  83 105 132 175 225 274 321
#     4  10  22  42  63  81 107 144 191 240 286 333
#     4  12  25  37  56  85 117 149 186 226 282 344
#     4   9  18  35  59  84 112 148 186 226 277 335
#     4  10  21  35  54  84 122 159 190 224 272 332
#     4  10  21  38  58  82 111 144 187 237 282 332
#     4   9  18  34  56  83 115 150 189 234 282 328
#     4  10  21  37  60  86 109 143 190 241 287 330
#
# _framework density 19.891172999999998
#
# number of rings (size 3 to 8) (size 9 to 14) (size 15 to 20)
#    0.000    2.250    1.250    2.250    0.000    6.500 
#    0.000    2.500    0.000    4.500    0.000    0.000 
#    0.000    0.000    0.000    0.000    0.000    0.000 
#
# Total GULP energy -793328.693627 kJ/mol
# GULP energy per Si atom -12395.760838 kJ/mol
# Density = 1.984590 g / cm^3
# Si number density = 19.891173 Si / 1000 Ang^3
#
#
#
# Elastic Constant Matrix: (Units=GPa)
#
#
# Indices 1 2 3 4 5 6 
#
# 1 62.5927 36.6603 37.1744 0.0000 0.0000 0.0000
# 2 36.6603 112.5012 57.7564 0.0000 0.0000 0.0000
# 3 37.1744 57.7564 130.4974 0.0000 0.0000 0.0000
# 4 0.0000 0.0000 0.0000 3.3725 0.0000 0.0000
# 5 0.0000 0.0000 0.0000 0.0000 23.3375 0.0000
# 6 0.0000 0.0000 0.0000 0.0000 0.0000 22.4835
#
#
#
# Elastic Compliance Matrix: (Units=1/GPa)
#
#
# Indices 1 2 3 4 5 6 
#
# 1 0.021139 -0.004913 -0.003847 0.000000 0.000000 0.000000
# 2 -0.004913 0.012644 -0.004197 0.000000 0.000000 0.000000
# 3 -0.003847 -0.004197 0.010616 0.000000 0.000000 0.000000
# 4 0.000000 0.000000 0.000000 0.296519 0.000000 0.000000
# 5 0.000000 0.000000 0.000000 0.000000 0.042849 0.000000
# 6 0.000000 0.000000 0.000000 0.000000 0.000000 0.044477
#
#
# Mechanical properties :
#
#
# Convention : Reuss Voigt Hill
#
# Bulk Modulus (GPa) = 54.09703 63.19704 58.64703
# Shear Modulus (GPa) = 10.86197 21.43871 16.15034
#
# Velocity S-wave (km/s) = 2.33935 3.28655 2.85254
# Velocity P-wave (km/s) = 5.87812 6.80016 6.35588
#
# Compressibility (1/GPa) = 0.01848530
#
# Stress axis : x y z
#
# Youngs Moduli (GPa) = 47.30609 79.08675 94.19512
#
# Poissons Ratio (x) = 0.38858 0.36239
# Poissons Ratio (y) = 0.23243 0.39530
# Poissons Ratio (z) = 0.18200 0.33189
#
# Static dielectric constant tensor:
#      x y z
#    x 3.616990 0.000000 0.000000 
#    y 0.000000 3.910190 0.000000 
#    z 0.000000 0.000000 3.386650 
# 
# 
# High freq. dielectric constant tensor:
#      x y z
#    x 1.781960 0.000000 0.000000 
#    y 0.000000 1.775810 0.000000 
#    z 0.000000 0.000000 1.753670 
# 
# From -- ./inp_files/8672.got.cif
#   From: 2010.03.12/outbox.cif.g09.slc.cpg/sg51_5_cif.got.tgz:8672.got - 2010.04.16 13:43:02.
