data_PCOD8213565
_publ_section_title
;
Structure prediction by ZEFSAII (Michael W. Deem and Ramdas Pophale) SiO2 
 PCOD8213565
Probable space group: P M M A
;
_chemical_formula_sum "Si O2"
_cell_formula_units_Z 64
_cell_length_a 9.173815
_cell_length_b 23.666794
_cell_length_c 15.457810
_cell_angle_alpha 90.000000
_cell_angle_beta 90.000000
_cell_angle_gamma 90.000000
_cell_volume 3356.119169
_symmetry_space_group_name_H-M "P M M A"
_symmetry_group_IT_number 51
_symmetry_cell_setting 'orthorhombic'
loop_
_space_group_symop_operation_xyz
x,y,z
1/2-x,-y,z
1/2+x,-y,-z
-x,y,-z
-x,-y,-z
1/2+x,y,-z
1/2-x,y,z
x,-y,z
loop_
_atom_site_type_symbol
_atom_site_label
_atom_site_fract_x
_atom_site_fract_y
_atom_site_fract_z
Si Si1 0.419768 0.858711 0.757296
Si Si2 0.593467 0.263032 0.574740
Si Si3 0.422155 0.565798 0.409407
Si Si4 0.088041 0.131176 0.419342
Si Si5 0.920462 0.064839 0.086395
Si Si6 0.418459 0.609789 0.758458
Si Si7 0.912469 0.565880 0.919012
Si Si8 0.588023 0.733444 0.261547
O O1 0.250000 0.870406 0.740292
O O2 0.503338 0.876953 0.670630
O O3 0.479330 0.897272 0.834839
O O4 0.448320 0.793031 0.785719
O O5 0.500000 0.292301 0.500000
O O6 0.750000 0.292369 0.571315
O O7 0.605808 0.196624 0.559152
O O8 0.527414 0.277302 0.665395
O O9 0.500000 0.581261 0.500000
O O10 0.250000 0.580511 0.414055
O O11 0.444949 0.500000 0.387825
O O12 0.500067 0.601597 0.333247
O O13 0.250000 0.103785 0.412416
O O14 0.000000 0.102967 0.500000
O O15 0.750000 0.073924 0.071935
O O16 0.958800 0.000000 0.107574
O O17 0.000000 0.085450 0.000000
O O18 0.250000 0.590110 0.749442
O O19 0.499509 0.573788 0.830694
O O20 0.422563 0.675544 0.793004
O O21 0.750000 0.593169 0.912887
O O22 0.894807 0.500000 0.935706
O O23 0.000000 0.593250 0.000000
O O24 0.750000 0.739669 0.302065
#
# Coordination Sequence:
#
# PCOD8213565 Si02
#       8
#     8   8   8   8   8   8   8   8
#     4   9  17  32  52  72 101 138 172 210 255 301
#     4   9  16  26  42  63  89 124 166 210 250 287
#     4  10  21  37  56  78 105 139 180 224 270 319
#     4   9  16  26  43  69  98 129 168 208 246 291
#     4   9  18  33  55  82 107 132 166 210 259 308
#     4  11  22  35  53  77 106 139 174 212 256 308
#     4  10  21  38  60  83 103 125 159 205 256 307
#     4   9  19  33  47  67  98 136 173 206 246 300
#
# _framework density 19.069644
#
# number of rings (size 3 to 8) (size 9 to 14) (size 15 to 20)
#    0.000    2.500    0.000    2.250    0.000    8.000 
#    0.000    0.625    0.000    1.875    0.000    0.000 
#    0.000    0.000    0.000    0.000    0.000    0.000 
#
# Total GULP energy -793096.778253 kJ/mol
# GULP energy per Si atom -12392.137160 kJ/mol
# Density = 1.902624 g / cm^3
# Si number density = 19.069644 Si / 1000 Ang^3
#
#
#
# Elastic Constant Matrix: (Units=GPa)
#
#
# Indices 1 2 3 4 5 6 
#
# 1 126.3386 28.8414 62.2757 0.0000 0.0000 0.0000
# 2 28.8414 64.4494 42.5630 0.0000 0.0000 0.0000
# 3 62.2757 42.5630 119.4809 0.0000 0.0000 0.0000
# 4 0.0000 0.0000 0.0000 -26.4132 0.0000 0.0000
# 5 0.0000 0.0000 0.0000 0.0000 32.5237 0.0000
# 6 0.0000 0.0000 0.0000 0.0000 0.0000 13.1421
#
#
#
# Elastic Compliance Matrix: (Units=1/GPa)
#
#
# Indices 1 2 3 4 5 6 
#
# 1 0.010755 -0.001453 -0.005088 0.000000 0.000000 0.000000
# 2 -0.001453 0.020485 -0.006540 0.000000 0.000000 0.000000
# 3 -0.005088 -0.006540 0.013352 0.000000 0.000000 0.000000
# 4 0.000000 0.000000 0.000000 -0.037860 0.000000 0.000000
# 5 0.000000 0.000000 0.000000 0.000000 0.030747 0.000000
# 6 0.000000 0.000000 0.000000 0.000000 0.000000 0.076091
#
#
# Mechanical properties :
#
#
# Convention : Reuss Voigt Hill
#
# Bulk Modulus (GPa) = 54.26111 64.18101 59.22106
# Shear Modulus (GPa) = 34.27570 15.62309 24.94940
#
# Velocity S-wave (km/s) = 4.24417 2.86539 3.62101
# Velocity P-wave (km/s) = 7.24798 6.68404 6.97172
#
# Compressibility (1/GPa) = 0.01842940
#
# Stress axis : x y z
#
# Youngs Moduli (GPa) = 92.98030 48.81502 74.89764
#
# Poissons Ratio (x) = 0.07091 0.38110
# Poissons Ratio (y) = 0.13506 0.48987
# Poissons Ratio (z) = 0.47310 0.31927
#
# Static dielectric constant tensor:
#      x y z
#    x 3.806410 0.000000 0.000000 
#    y 0.000000 3.393710 0.000000 
#    z 0.000000 0.000000 3.397680 
# 
# 
# High freq. dielectric constant tensor:
#      x y z
#    x 1.757160 0.000000 0.000000 
#    y 0.000000 1.717180 0.000000 
#    z 0.000000 0.000000 1.724410 
# 
# From -- ./inp_files/22221.got.cif
#   From: 2010.03.12/outbox.cif.g09.slc.cpg/sg51_12_cif.got.tgz:22221.got - 2010.04.16 13:43:02.
