data_PCOD8213090
_publ_section_title
;
Structure prediction by ZEFSAII (Michael W. Deem and Ramdas Pophale) SiO2 
 PCOD8213090
Probable space group: P M M A
;
_chemical_formula_sum "Si O2"
_cell_formula_units_Z 56
_cell_length_a 9.728369
_cell_length_b 14.390135
_cell_length_c 20.636000
_cell_angle_alpha 90.000000
_cell_angle_beta 90.000000
_cell_angle_gamma 90.000000
_cell_volume 2888.886122
_symmetry_space_group_name_H-M "P M M A"
_symmetry_group_IT_number 51
_symmetry_cell_setting 'orthorhombic'
loop_
_space_group_symop_operation_xyz
x,y,z
1/2-x,-y,z
1/2+x,-y,-z
-x,y,-z
-x,-y,-z
1/2+x,y,-z
1/2-x,y,z
x,-y,z
loop_
_atom_site_type_symbol
_atom_site_label
_atom_site_fract_x
_atom_site_fract_y
_atom_site_fract_z
Si Si1 0.088802 0.789357 0.940522
Si Si2 0.591247 0.108676 0.689733
Si Si3 0.401642 0.609835 0.739213
Si Si4 0.093381 0.395398 0.374822
Si Si5 0.907147 0.788241 0.559018
Si Si6 0.592138 0.891351 0.190870
Si Si7 0.912584 0.398189 0.118823
O O1 0.250000 0.802570 0.955558
O O2 0.045913 0.842881 0.875592
O O3 0.047542 0.680445 0.932870
O O4 0.000000 0.829699 0.000000
O O5 0.750000 0.129543 0.706040
O O6 0.545052 0.161075 0.624628
O O7 0.499706 0.146155 0.749615
O O8 0.564683 0.000000 0.678544
O O9 0.250000 0.654234 0.728332
O O10 0.389956 0.500000 0.734605
O O11 0.504342 0.645607 0.684214
O O12 0.462914 0.635462 0.809956
O O13 0.250000 0.395412 0.350451
O O14 0.049087 0.500000 0.396455
O O15 0.074918 0.323542 0.433920
O O16 0.750000 0.814277 0.543073
O O17 0.000000 0.823928 0.500000
O O18 0.750000 0.867248 0.206854
O O19 0.568731 0.000000 0.180638
O O20 0.750000 0.407506 0.124355
O O21 0.974707 0.500000 0.099538
#
# Coordination Sequence:
#
# PCOD8213090 Si02
#       7
#     8   8   8   8   8   8   8
#     4  10  21  35  51  75 106 140 175 213 257 304
#     4   9  19  37  59  81 105 133 167 210 260 310
#     4   8  14  26  46  71  94 122 167 214 252 295
#     4   9  18  32  48  69 102 138 168 206 255 299
#     4  10  22  37  52  76 107 139 174 211 253 303
#     4   9  19  36  57  81 106 132 168 213 258 307
#     4   8  15  29  48  70  99 134 171 212 255 299
#
# _framework density 19.384633999999998
#
# number of rings (size 3 to 8) (size 9 to 14) (size 15 to 20)
#    0.000    3.000    0.000    0.857    2.000    2.857 
#    0.000    0.714    0.000    0.857    0.000    0.000 
#    0.000    0.000    0.000    0.000    0.000    0.000 
#
# Total GULP energy -694140.892699 kJ/mol
# GULP energy per Si atom -12395.373084 kJ/mol
# Density = 1.934051 g / cm^3
# Si number density = 19.384634 Si / 1000 Ang^3
#
#
#
# Elastic Constant Matrix: (Units=GPa)
#
#
# Indices 1 2 3 4 5 6 
#
# 1 71.7357 28.7985 73.7522 0.0000 0.0000 0.0000
# 2 28.7985 52.6235 48.6353 0.0000 0.0000 0.0000
# 3 73.7522 48.6353 145.7467 0.0000 0.0000 0.0000
# 4 0.0000 0.0000 0.0000 22.3376 0.0000 0.0000
# 5 0.0000 0.0000 0.0000 0.0000 32.5387 0.0000
# 6 0.0000 0.0000 0.0000 0.0000 0.0000 17.4745
#
#
#
# Elastic Compliance Matrix: (Units=1/GPa)
#
#
# Indices 1 2 3 4 5 6 
#
# 1 0.029470 -0.003391 -0.013781 0.000000 0.000000 0.000000
# 2 -0.003391 0.027867 -0.007583 0.000000 0.000000 0.000000
# 3 -0.013781 -0.007583 0.016365 0.000000 0.000000 0.000000
# 4 0.000000 0.000000 0.000000 0.044768 0.000000 0.000000
# 5 0.000000 0.000000 0.000000 0.000000 0.030733 0.000000
# 6 0.000000 0.000000 0.000000 0.000000 0.000000 0.057226
#
#
# Mechanical properties :
#
#
# Convention : Reuss Voigt Hill
#
# Bulk Modulus (GPa) = 41.33625 63.60866 52.47246
# Shear Modulus (GPa) = 18.93914 22.39814 20.66864
#
# Velocity S-wave (km/s) = 3.12912 3.40289 3.26887
# Velocity P-wave (km/s) = 5.86734 6.95160 6.43236
#
# Compressibility (1/GPa) = 0.02419184
#
# Stress axis : x y z
#
# Youngs Moduli (GPa) = 33.93297 35.88450 61.10445
#
# Poissons Ratio (x) = 0.12168 0.84209
# Poissons Ratio (y) = 0.11506 0.46337
# Poissons Ratio (z) = 0.46763 0.27212
#
# Static dielectric constant tensor:
#      x y z
#    x 3.519730 0.000000 0.000000 
#    y 0.000000 3.682740 0.000000 
#    z 0.000000 0.000000 3.437790 
# 
# 
# High freq. dielectric constant tensor:
#      x y z
#    x 1.730990 0.000000 0.000000 
#    y 0.000000 1.759050 0.000000 
#    z 0.000000 0.000000 1.742170 
# 
# From -- ./inp_files/31974.got.cif
#   From: 2010.03.12/outbox.cif.g09.slc.cpg/sg51_16_cif.got.tgz:31974.got - 2010.04.16 13:43:02.
