data_PCOD8213263
_publ_section_title
;
Structure prediction by ZEFSAII (Michael W. Deem and Ramdas Pophale) SiO2 
 PCOD8213263
Probable space group: P M M A
;
_chemical_formula_sum "Si O2"
_cell_formula_units_Z 48
_cell_length_a 8.988070
_cell_length_b 18.485858
_cell_length_c 15.434118
_cell_angle_alpha 90.000000
_cell_angle_beta 90.000000
_cell_angle_gamma 90.000000
_cell_volume 2564.412440
_symmetry_space_group_name_H-M "P M M A"
_symmetry_group_IT_number 51
_symmetry_cell_setting 'orthorhombic'
loop_
_space_group_symop_operation_xyz
x,y,z
1/2-x,-y,z
1/2+x,-y,-z
-x,y,-z
-x,-y,-z
1/2+x,y,-z
1/2-x,y,z
x,-y,z
loop_
_atom_site_type_symbol
_atom_site_label
_atom_site_fract_x
_atom_site_fract_y
_atom_site_fract_z
Si Si1 0.575900 0.083714 0.589701
Si Si2 0.925515 0.322608 0.749957
Si Si3 0.926352 0.830958 0.255604
Si Si4 0.924589 0.917425 0.086980
Si Si5 0.075426 0.582055 0.086982
Si Si6 0.424551 0.417973 0.413087
O O1 0.500000 0.106553 0.500000
O O2 0.750000 0.100366 0.582862
O O3 0.504977 0.131340 0.664236
O O4 0.544253 0.000000 0.610705
O O5 0.750000 0.305001 0.749795
O O6 0.973757 0.368291 0.833501
O O7 0.973583 0.368300 0.666380
O O8 0.022127 0.250954 0.750211
O O9 0.750000 0.836024 0.267933
O O10 0.979221 0.870649 0.168173
O O11 0.750000 0.911138 0.073939
O O12 0.974558 0.000000 0.103611
O O13 0.000000 0.886597 0.000000
O O14 0.250000 0.585017 0.073083
O O15 0.022662 0.500000 0.106071
O O16 0.000000 0.612415 0.000000
O O17 0.500000 0.387475 0.500000
O O18 0.250000 0.415077 0.427105
O O19 0.477495 0.500000 0.394062
#
# Coordination Sequence:
#
# PCOD8213263 Si02
#       6
#     8   8   8   8   8   8
#     4  10  21  38  61  86 110 140 180 224 269 318
#     4  10  21  36  53  75 107 144 179 216 264 323
#     4  11  23  37  54  79 113 148 181 220 268 321
#     4   9  19  36  57  79 103 135 176 221 266 312
#     4   9  18  34  56  79 103 136 179 226 275 326
#     4   9  18  34  56  79 102 132 172 217 263 311
#
# _framework density 18.717738000000001
#
# number of rings (size 3 to 8) (size 9 to 14) (size 15 to 20)
#    0.000    2.333    0.000    2.000    0.000    7.667 
#    0.000    6.667    0.000    5.000    0.000    0.000 
#    0.000    0.000    0.000    0.000    0.000    0.000 
#
# Total GULP energy -595349.771445 kJ/mol
# GULP energy per Si atom -12403.120238 kJ/mol
# Density = 1.867514 g / cm^3
# Si number density = 18.717738 Si / 1000 Ang^3
#
#
#
# Elastic Constant Matrix: (Units=GPa)
#
#
# Indices 1 2 3 4 5 6 
#
# 1 55.4185 45.9457 61.1634 0.0000 0.0000 0.0000
# 2 45.9457 107.3303 94.0460 0.0000 0.0000 0.0000
# 3 61.1634 94.0460 190.6324 0.0000 0.0000 0.0000
# 4 0.0000 0.0000 0.0000 0.8338 0.0000 0.0000
# 5 0.0000 0.0000 0.0000 0.0000 37.1414 0.0000
# 6 0.0000 0.0000 0.0000 0.0000 0.0000 30.3843
#
#
#
# Elastic Compliance Matrix: (Units=1/GPa)
#
#
# Indices 1 2 3 4 5 6 
#
# 1 0.031533 -0.008162 -0.006091 0.000000 0.000000 0.000000
# 2 -0.008162 0.018524 -0.006520 0.000000 0.000000 0.000000
# 3 -0.006091 -0.006520 0.010416 0.000000 0.000000 0.000000
# 4 0.000000 0.000000 0.000000 1.199330 0.000000 0.000000
# 5 0.000000 0.000000 0.000000 0.000000 0.026924 0.000000
# 6 0.000000 0.000000 0.000000 0.000000 0.000000 0.032912
#
#
# Mechanical properties :
#
#
# Convention : Reuss Voigt Hill
#
# Bulk Modulus (GPa) = 52.82975 83.96573 68.39774
# Shear Modulus (GPa) = 3.65632 23.82030 13.73831
#
# Velocity S-wave (km/s) = 1.39916 3.57123 2.71213
# Velocity P-wave (km/s) = 5.55841 7.87154 6.81385
#
# Compressibility (1/GPa) = 0.01892873
#
# Stress axis : x y z
#
# Youngs Moduli (GPa) = 31.71240 53.98476 96.00292
#
# Poissons Ratio (x) = 0.44061 0.58474
# Poissons Ratio (y) = 0.25883 0.62592
# Poissons Ratio (z) = 0.19315 0.35197
#
# Static dielectric constant tensor:
#      x y z
#    x 3.282920 0.000000 0.000000 
#    y 0.000000 3.449260 0.000000 
#    z 0.000000 0.000000 3.628620 
# 
# 
# High freq. dielectric constant tensor:
#      x y z
#    x 1.723010 0.000000 0.000000 
#    y 0.000000 1.723190 0.000000 
#    z 0.000000 0.000000 1.742110 
# 
# From -- ./inp_files/21073.got.cif
#   From: 2010.03.12/outbox.cif.g09.slc.cpg/sg51_11_cif.got.tgz:21073.got - 2010.04.16 13:43:02.
