data_PCOD8213144
_publ_section_title
;
Structure prediction by ZEFSAII (Michael W. Deem and Ramdas Pophale) SiO2 
 PCOD8213144
Probable space group: P M M A
;
_chemical_formula_sum "Si O2"
_cell_formula_units_Z 56
_cell_length_a 17.423726
_cell_length_b 19.050744
_cell_length_c 9.114349
_cell_angle_alpha 90.000000
_cell_angle_beta 90.000000
_cell_angle_gamma 90.000000
_cell_volume 3025.370921
_symmetry_space_group_name_H-M "P M M A"
_symmetry_group_IT_number 51
_symmetry_cell_setting 'orthorhombic'
loop_
_space_group_symop_operation_xyz
x,y,z
1/2-x,-y,z
1/2+x,-y,-z
-x,y,-z
-x,-y,-z
1/2+x,y,-z
1/2-x,y,z
x,-y,z
loop_
_atom_site_type_symbol
_atom_site_label
_atom_site_fract_x
_atom_site_fract_y
_atom_site_fract_z
Si Si1 0.895507 0.422059 0.359171
Si Si2 0.074072 0.422842 0.312603
Si Si3 0.476233 0.083012 0.336501
Si Si4 0.833718 0.310713 0.847361
Si Si5 0.334432 0.707236 0.814685
Si Si6 0.068670 0.167545 0.895608
Si Si7 0.160592 0.149421 0.172163
O O1 0.867250 0.500000 0.308613
O O2 0.883647 0.414505 0.532523
O O3 0.848542 0.360296 0.284854
O O4 0.984046 0.413089 0.323560
O O5 0.093104 0.500000 0.247667
O O6 0.101541 0.362326 0.206874
O O7 0.500000 0.108825 0.500000
O O8 0.538217 0.110077 0.218480
O O9 0.390694 0.109158 0.293052
O O10 0.476624 0.000000 0.328781
O O11 0.750000 0.332844 0.786953
O O12 0.851544 0.231709 0.796624
O O13 0.835340 0.318549 0.020196
O O14 0.250000 0.737231 0.774334
O O15 0.396955 0.769112 0.797279
O O16 0.132843 0.133587 0.004374
O O17 0.000000 0.196066 0.000000
O O18 0.250000 0.127113 0.187139
#
# Coordination Sequence:
#
# PCOD8213144 Si02
#       7
#     8   8   8   8   8   8   8
#     4   9  20  35  50  71 102 140 179 224 270 318
#     4   9  19  35  51  71 101 138 184 225 264 321
#     4  10  22  39  58  85 118 149 182 223 272 327
#     4   9  19  34  52  77 107 135 173 224 272 315
#     4  10  21  35  53  79 109 137 173 223 273 320
#     4   9  19  35  59  84 109 143 184 223 268 323
#     4   9  19  37  59  83 114 149 185 230 276 326
#
# _framework density 18.510128000000002
#
# number of rings (size 3 to 8) (size 9 to 14) (size 15 to 20)
#    0.000    2.714    0.000    2.143    6.000    5.714 
#    0.000    7.143    0.000    3.000    0.000    0.000 
#    0.000    0.000    0.000    0.000    0.000    0.000 
#
# Total GULP energy -694099.382192 kJ/mol
# GULP energy per Si atom -12394.631825 kJ/mol
# Density = 1.846800 g / cm^3
# Si number density = 18.510128 Si / 1000 Ang^3
#
#
#
# Elastic Constant Matrix: (Units=GPa)
#
#
# Indices 1 2 3 4 5 6 
#
# 1 97.9329 43.6082 44.5297 0.0000 0.0000 0.0000
# 2 43.6082 69.7534 37.9783 0.0000 0.0000 0.0000
# 3 44.5297 37.9783 57.8707 0.0000 0.0000 0.0000
# 4 0.0000 0.0000 0.0000 31.0634 0.0000 0.0000
# 5 0.0000 0.0000 0.0000 0.0000 19.8667 0.0000
# 6 0.0000 0.0000 0.0000 0.0000 0.0000 17.8371
#
#
#
# Elastic Compliance Matrix: (Units=1/GPa)
#
#
# Indices 1 2 3 4 5 6 
#
# 1 0.016934 -0.005434 -0.009464 0.000000 0.000000 0.000000
# 2 -0.005434 0.024050 -0.011602 0.000000 0.000000 0.000000
# 3 -0.009464 -0.011602 0.032176 0.000000 0.000000 0.000000
# 4 0.000000 0.000000 0.000000 0.032192 0.000000 0.000000
# 5 0.000000 0.000000 0.000000 0.000000 0.050335 0.000000
# 6 0.000000 0.000000 0.000000 0.000000 0.000000 0.056063
#
#
# Mechanical properties :
#
#
# Convention : Reuss Voigt Hill
#
# Bulk Modulus (GPa) = 49.60228 53.08771 51.34499
# Shear Modulus (GPa) = 18.41814 20.38284 19.40049
#
# Velocity S-wave (km/s) = 3.15783 3.32199 3.24095
# Velocity P-wave (km/s) = 6.33651 6.59218 6.46561
#
# Compressibility (1/GPa) = 0.02016036
#
# Stress axis : x y z
#
# Youngs Moduli (GPa) = 59.05271 41.57959 31.07869
#
# Poissons Ratio (x) = 0.22594 0.29414
# Poissons Ratio (y) = 0.32088 0.36058
# Poissons Ratio (z) = 0.55889 0.48241
#
# Static dielectric constant tensor:
#      x y z
#    x 3.613380 0.000000 0.000000 
#    y 0.000000 3.312590 0.000000 
#    z 0.000000 0.000000 3.449050 
# 
# 
# High freq. dielectric constant tensor:
#      x y z
#    x 1.724820 0.000000 0.000000 
#    y 0.000000 1.710790 0.000000 
#    z 0.000000 0.000000 1.705720 
# 
# From -- ./inp_files/9979.got.cif
#   From: 2010.03.12/outbox.cif.g09.slc.cpg/sg51_5_cif.got.tgz:9979.got - 2010.04.16 13:43:02.
