data_PCOD8213418
_publ_section_title
;
Structure prediction by ZEFSAII (Michael W. Deem and Ramdas Pophale) SiO2 
 PCOD8213418
Probable space group: P M M A
;
_chemical_formula_sum "Si O2"
_cell_formula_units_Z 64
_cell_length_a 23.496106
_cell_length_b 8.824520
_cell_length_c 15.174681
_cell_angle_alpha 90.000000
_cell_angle_beta 90.000000
_cell_angle_gamma 90.000000
_cell_volume 3146.346543
_symmetry_space_group_name_H-M "P M M A"
_symmetry_group_IT_number 51
_symmetry_cell_setting 'orthorhombic'
loop_
_space_group_symop_operation_xyz
x,y,z
1/2-x,-y,z
1/2+x,-y,-z
-x,y,-z
-x,-y,-z
1/2+x,y,-z
1/2-x,y,z
x,-y,z
loop_
_atom_site_type_symbol
_atom_site_label
_atom_site_fract_x
_atom_site_fract_y
_atom_site_fract_z
Si Si1 0.883938 0.172350 0.171646
Si Si2 0.367830 0.173238 0.633009
Si Si3 0.185601 0.321049 0.981002
Si Si4 0.010280 0.179246 0.224619
Si Si5 0.120531 0.679020 0.153911
Si Si6 0.682249 0.170876 0.687790
Si Si7 0.015625 0.677423 0.597578
Si Si8 0.685100 0.666544 0.516747
O O1 0.850869 0.185854 0.264684
O O2 0.850152 0.276376 0.104477
O O3 0.949031 0.228894 0.185020
O O4 0.883343 0.000000 0.137040
O O5 0.418794 0.285247 0.610331
O O6 0.316946 0.233733 0.572280
O O7 0.384259 0.000000 0.610604
O O8 0.250000 0.252856 0.978577
O O9 0.189782 0.500000 0.984728
O O10 0.151753 0.260204 0.066148
O O11 0.058706 0.243692 0.160412
O O12 0.019781 0.241294 0.324082
O O13 0.014020 0.000000 0.229397
O O14 0.111984 0.500000 0.151955
O O15 0.160599 0.723903 0.234275
O O16 0.750000 0.169876 0.688232
O O17 0.656943 0.240520 0.597215
O O18 0.658492 0.000000 0.698296
O O19 0.003814 0.500000 0.606101
O O20 0.000000 0.737334 0.500000
O O21 0.750000 0.640627 0.540682
O O22 0.655735 0.500000 0.507050
#
# Coordination Sequence:
#
# PCOD8213418 Si02
#       8
#     8   8   8   8   8   8   8   8
#     4   9  21  41  62  86 118 156 197 246 301 356
#     4  10  21  37  57  82 115 154 194 241 295 350
#     4  10  23  42  64  91 120 154 197 247 305 364
#     4  10  22  40  60  87 122 159 202 246 300 360
#     4  11  23  39  61  88 121 157 198 247 299 360
#     4  10  21  37  57  82 114 154 198 246 301 359
#     4  10  21  36  56  83 116 154 198 244 290 345
#     4  10  21  36  55  81 114 154 199 245 295 352
#
# _framework density 20.341052999999999
#
# number of rings (size 3 to 8) (size 9 to 14) (size 15 to 20)
#    0.000    2.000    0.000    3.375    1.750    8.250 
#    0.000    5.000    0.000    0.000    0.000    0.000 
#    0.000    0.000    0.000    0.000    0.000    0.000 
#
# Total GULP energy -793529.692718 kJ/mol
# GULP energy per Si atom -12398.901449 kJ/mol
# Density = 2.029476 g / cm^3
# Si number density = 20.341053 Si / 1000 Ang^3
#
#
#
# Elastic Constant Matrix: (Units=GPa)
#
#
# Indices 1 2 3 4 5 6 
#
# 1 79.5344 31.4090 61.0247 0.0000 0.0000 0.0000
# 2 31.4090 69.3891 43.6931 0.0000 0.0000 0.0000
# 3 61.0247 43.6931 143.0534 0.0000 0.0000 0.0000
# 4 0.0000 0.0000 0.0000 30.4486 0.0000 0.0000
# 5 0.0000 0.0000 0.0000 0.0000 33.2336 0.0000
# 6 0.0000 0.0000 0.0000 0.0000 0.0000 29.4196
#
#
#
# Elastic Compliance Matrix: (Units=1/GPa)
#
#
# Indices 1 2 3 4 5 6 
#
# 1 0.019766 -0.004504 -0.007056 0.000000 0.000000 0.000000
# 2 -0.004504 0.018869 -0.003842 0.000000 0.000000 0.000000
# 3 -0.007056 -0.003842 0.011174 0.000000 0.000000 0.000000
# 4 0.000000 0.000000 0.000000 0.032842 0.000000 0.000000
# 5 0.000000 0.000000 0.000000 0.000000 0.030090 0.000000
# 6 0.000000 0.000000 0.000000 0.000000 0.000000 0.033991
#
#
# Mechanical properties :
#
#
# Convention : Reuss Voigt Hill
#
# Bulk Modulus (GPa) = 52.61769 62.69228 57.65499
# Shear Modulus (GPa) = 27.19287 29.01037 28.10162
#
# Velocity S-wave (km/s) = 3.66026 3.78060 3.72092
# Velocity P-wave (km/s) = 6.61719 7.06716 6.84587
#
# Compressibility (1/GPa) = 0.01900501
#
# Stress axis : x y z
#
# Youngs Moduli (GPa) = 50.59228 52.99585 89.49353
#
# Poissons Ratio (x) = 0.23868 0.63149
# Poissons Ratio (y) = 0.22786 0.34384
# Poissons Ratio (z) = 0.35699 0.20361
#
# Static dielectric constant tensor:
#      x y z
#    x 3.688490 0.000000 0.000000 
#    y 0.000000 3.776300 0.000000 
#    z 0.000000 0.000000 3.813960 
# 
# 
# High freq. dielectric constant tensor:
#      x y z
#    x 1.788230 0.000000 0.000000 
#    y 0.000000 1.800340 0.000000 
#    z 0.000000 0.000000 1.797790 
# 
# From -- ./inp_files/26200.got.cif
#   From: 2010.03.12/outbox.cif.g09.slc.cpg/sg51_14_cif.got.tgz:26200.got - 2010.04.16 13:43:02.
