data_PCOD8213723
_publ_section_title
;
Structure prediction by ZEFSAII (Michael W. Deem and Ramdas Pophale) SiO2 
 PCOD8213723
Probable space group: P M M A
;
_chemical_formula_sum "Si O2"
_cell_formula_units_Z 40
_cell_length_a 19.597918
_cell_length_b 11.615741
_cell_length_c 8.924949
_cell_angle_alpha 90.000000
_cell_angle_beta 90.000000
_cell_angle_gamma 90.000000
_cell_volume 2031.714121
_symmetry_space_group_name_H-M "P M M A"
_symmetry_group_IT_number 51
_symmetry_cell_setting 'orthorhombic'
loop_
_space_group_symop_operation_xyz
x,y,z
1/2-x,-y,z
1/2+x,-y,-z
-x,y,-z
-x,-y,-z
1/2+x,y,-z
1/2-x,y,z
x,-y,z
loop_
_atom_site_type_symbol
_atom_site_label
_atom_site_fract_x
_atom_site_fract_y
_atom_site_fract_z
Si Si1 0.551545 0.776421 0.884377
Si Si2 0.114265 0.000000 0.503714
Si Si3 0.827173 0.229875 0.403937
Si Si4 0.329267 0.865732 0.917479
Si Si5 0.932697 0.634949 0.585868
Si Si6 0.494702 0.000000 0.258723
O O1 0.570434 0.696247 0.745574
O O2 0.504366 0.885457 0.840279
O O3 0.500000 0.710557 0.000000
O O4 0.624050 0.815351 0.951366
O O5 0.161751 0.111454 0.506813
O O6 0.076282 0.000000 0.346755
O O7 0.060226 0.000000 0.637260
O O8 0.750000 0.269948 0.422764
O O9 0.845141 0.209000 0.230243
O O10 0.871298 0.331147 0.476261
O O11 0.250000 0.853163 0.964502
O O12 0.346703 0.000000 0.885430
O O13 0.931167 0.500000 0.615061
O O14 0.000000 0.676529 0.500000
#
# Coordination Sequence:
#
# PCOD8213723 Si02
#       6
#     8   4   8   8   8   4
#     4  12  23  37  59  92 125 160 198 248 308 372
#     4  11  19  34  57  91 127 157 197 248 302 362
#     4  11  22  39  64  91 123 162 203 249 302 365
#     4  10  21  37  57  89 130 164 193 236 302 375
#     4  11  25  45  65  86 115 159 214 265 304 349
#     4  11  21  32  57  91 129 161 196 244 306 365
#
# _framework density 19.687809999999999
#
# number of rings (size 3 to 8) (size 9 to 14) (size 15 to 20)
#    0.000    1.000    4.000    4.200    0.000    1.600 
#    0.000    1.000    0.000    1.200    0.000    0.000 
#    0.000    0.000    0.000    0.000    0.000    0.000 
#
# Total GULP energy -496111.832756 kJ/mol
# GULP energy per Si atom -12402.795819 kJ/mol
# Density = 1.964300 g / cm^3
# Si number density = 19.687810 Si / 1000 Ang^3
#
#
#
# Elastic Constant Matrix: (Units=GPa)
#
#
# Indices 1 2 3 4 5 6 
#
# 1 97.5825 35.9600 65.5217 0.0000 0.0000 0.0000
# 2 35.9600 60.6642 43.9535 0.0000 0.0000 0.0000
# 3 65.5217 43.9535 122.4770 0.0000 0.0000 0.0000
# 4 0.0000 0.0000 0.0000 11.9198 0.0000 0.0000
# 5 0.0000 0.0000 0.0000 0.0000 36.6716 0.0000
# 6 0.0000 0.0000 0.0000 0.0000 0.0000 151.7318
#
#
#
# Elastic Compliance Matrix: (Units=1/GPa)
#
#
# Indices 1 2 3 4 5 6 
#
# 1 0.016926 -0.004693 -0.007371 0.000000 0.000000 0.000000
# 2 -0.004693 0.023578 -0.005951 0.000000 0.000000 0.000000
# 3 -0.007371 -0.005951 0.014244 0.000000 0.000000 0.000000
# 4 0.000000 0.000000 0.000000 0.083894 0.000000 0.000000
# 5 0.000000 0.000000 0.000000 0.000000 0.027269 0.000000
# 6 0.000000 0.000000 0.000000 0.000000 0.000000 0.006591
#
#
# Mechanical properties :
#
#
# Convention : Reuss Voigt Hill
#
# Bulk Modulus (GPa) = 53.42373 63.51046 58.46709
# Shear Modulus (GPa) = 23.28072 49.08387 36.18230
#
# Velocity S-wave (km/s) = 3.44247 4.99852 4.29161
# Velocity P-wave (km/s) = 6.55707 8.10200 7.37013
#
# Compressibility (1/GPa) = 0.01871827
#
# Stress axis : x y z
#
# Youngs Moduli (GPa) = 59.07950 42.41331 70.20704
#
# Poissons Ratio (x) = 0.19904 0.51749
# Poissons Ratio (y) = 0.27725 0.41778
# Poissons Ratio (z) = 0.43547 0.25239
#
# Static dielectric constant tensor:
#      x y z
#    x 3.720570 0.000000 0.000000 
#    y 0.000000 3.306850 0.000000 
#    z 0.000000 0.000000 3.727250 
# 
# 
# High freq. dielectric constant tensor:
#      x y z
#    x 1.783170 0.000000 0.000000 
#    y 0.000000 1.737110 0.000000 
#    z 0.000000 0.000000 1.779060 
# 
# From -- ./inp_files/10684.got.cif
#   From: 2010.03.12/outbox.cif.g09.slc.cpg/sg51_6_cif.got.tgz:10684.got - 2010.04.16 13:43:02.
