data_PCOD8213693
_publ_section_title
;
Structure prediction by ZEFSAII (Michael W. Deem and Ramdas Pophale) SiO2 
 PCOD8213693
Probable space group: P M M A
;
_chemical_formula_sum "Si O2"
_cell_formula_units_Z 64
_cell_length_a 14.690813
_cell_length_b 9.099890
_cell_length_c 24.305195
_cell_angle_alpha 90.000000
_cell_angle_beta 90.000000
_cell_angle_gamma 90.000000
_cell_volume 3249.234703
_symmetry_space_group_name_H-M "P M M A"
_symmetry_group_IT_number 51
_symmetry_cell_setting 'orthorhombic'
loop_
_space_group_symop_operation_xyz
x,y,z
1/2-x,-y,z
1/2+x,-y,-z
-x,y,-z
-x,-y,-z
1/2+x,y,-z
1/2-x,y,z
x,-y,z
loop_
_atom_site_type_symbol
_atom_site_label
_atom_site_fract_x
_atom_site_fract_y
_atom_site_fract_z
Si Si1 0.005198 0.670657 0.564408
Si Si2 0.643211 0.170928 0.141337
Si Si3 0.358144 0.838257 0.247753
Si Si4 0.148241 0.672252 0.142478
Si Si5 0.489663 0.327412 0.936930
Si Si6 0.643599 0.171945 0.360073
Si Si7 0.144732 0.827772 0.369515
Si Si8 0.358110 0.333833 0.749630
O O1 0.017797 0.500000 0.578721
O O2 0.090604 0.759834 0.588500
O O3 0.000000 0.699177 0.500000
O O4 0.910746 0.729046 0.588463
O O5 0.750000 0.197973 0.133433
O O6 0.594532 0.238875 0.088218
O O7 0.605682 0.251468 0.196023
O O8 0.620019 0.000000 0.146729
O O9 0.250000 0.842687 0.249235
O O10 0.393364 0.731546 0.199809
O O11 0.390379 0.786020 0.308080
O O12 0.396834 0.000000 0.234868
O O13 0.250000 0.735495 0.131107
O O14 0.152666 0.500000 0.148433
O O15 0.083244 0.720137 0.092777
O O16 0.469910 0.500000 0.930161
O O17 0.500000 0.281527 0.000000
O O18 0.750000 0.202266 0.369534
O O19 0.607415 0.247509 0.304136
O O20 0.622287 0.000000 0.355598
O O21 0.250000 0.787861 0.377667
O O22 0.127805 0.000000 0.380520
O O23 0.250000 0.333302 0.750248
O O24 0.396299 0.500000 0.748979
#
# Coordination Sequence:
#
# PCOD8213693 Si02
#       8
#     8   8   8   8   8   8   8   8
#     4  11  25  41  56  79 112 150 192 234 276 329
#     4  10  21  37  57  82 113 147 183 227 278 331
#     4   8  15  30  53  81 109 136 169 210 262 324
#     4   9  18  33  53  78 107 137 172 218 269 321
#     4  10  22  38  55  77 106 144 190 234 277 328
#     4  10  21  38  61  87 114 146 185 231 283 337
#     4   9  19  37  60  84 111 143 180 226 278 331
#     4   9  17  32  57  87 116 145 179 222 275 336
#
# _framework density 19.696944999999999
#
# number of rings (size 3 to 8) (size 9 to 14) (size 15 to 20)
#    0.000    2.500    0.000    2.250    0.000    7.500 
#    0.000    7.500    0.000    1.500    0.000    0.000 
#    0.000    0.000    0.000    0.000    0.000    0.000 
#
# Total GULP energy -793644.388402 kJ/mol
# GULP energy per Si atom -12400.693569 kJ/mol
# Density = 1.965211 g / cm^3
# Si number density = 19.696945 Si / 1000 Ang^3
#
#
#
# Elastic Constant Matrix: (Units=GPa)
#
#
# Indices 1 2 3 4 5 6 
#
# 1 76.8927 51.3319 59.4398 0.0000 0.0000 0.0000
# 2 51.3319 103.5977 75.8827 0.0000 0.0000 0.0000
# 3 59.4398 75.8827 156.0109 0.0000 0.0000 0.0000
# 4 0.0000 0.0000 0.0000 36.4892 0.0000 0.0000
# 5 0.0000 0.0000 0.0000 0.0000 17.8940 0.0000
# 6 0.0000 0.0000 0.0000 0.0000 0.0000 27.4249
#
#
#
# Elastic Compliance Matrix: (Units=1/GPa)
#
#
# Indices 1 2 3 4 5 6 
#
# 1 0.021409 -0.007198 -0.004656 0.000000 0.000000 0.000000
# 2 -0.007198 0.017415 -0.005728 0.000000 0.000000 0.000000
# 3 -0.004656 -0.005728 0.010970 0.000000 0.000000 0.000000
# 4 0.000000 0.000000 0.000000 0.027405 0.000000 0.000000
# 5 0.000000 0.000000 0.000000 0.000000 0.055885 0.000000
# 6 0.000000 0.000000 0.000000 0.000000 0.000000 0.036463
#
#
# Mechanical properties :
#
#
# Convention : Reuss Voigt Hill
#
# Bulk Modulus (GPa) = 68.35127 78.86778 73.60953
# Shear Modulus (GPa) = 23.85634 26.35143 25.10388
#
# Velocity S-wave (km/s) = 3.48396 3.66162 3.57390
# Velocity P-wave (km/s) = 7.13868 7.61605 7.38122
#
# Compressibility (1/GPa) = 0.01463031
#
# Stress axis : x y z
#
# Youngs Moduli (GPa) = 46.70845 57.42204 91.15903
#
# Poissons Ratio (x) = 0.41331 0.42443
# Poissons Ratio (y) = 0.33620 0.52217
# Poissons Ratio (z) = 0.21747 0.32892
#
# Static dielectric constant tensor:
#      x y z
#    x 3.139100 0.000000 0.000000 
#    y 0.000000 3.640410 0.000000 
#    z 0.000000 0.000000 3.638280 
# 
# 
# High freq. dielectric constant tensor:
#      x y z
#    x 1.765040 0.000000 0.000000 
#    y 0.000000 1.767380 0.000000 
#    z 0.000000 0.000000 1.766450 
# 
# From -- ./inp_files/35807.got.cif
#   From: 2010.03.12/outbox.cif.g09.slc.cpg/sg51_18_cif.got.tgz:35807.got - 2010.04.16 13:43:02.
