data_PCOD8213453
_publ_section_title
;
Structure prediction by ZEFSAII (Michael W. Deem and Ramdas Pophale) SiO2 
 PCOD8213453
Probable space group: P M M A
;
_chemical_formula_sum "Si O2"
_cell_formula_units_Z 56
_cell_length_a 14.621901
_cell_length_b 9.267499
_cell_length_c 21.652261
_cell_angle_alpha 90.000000
_cell_angle_beta 90.000000
_cell_angle_gamma 90.000000
_cell_volume 2934.064390
_symmetry_space_group_name_H-M "P M M A"
_symmetry_group_IT_number 51
_symmetry_cell_setting 'orthorhombic'
loop_
_space_group_symop_operation_xyz
x,y,z
1/2-x,-y,z
1/2+x,-y,-z
-x,y,-z
-x,-y,-z
1/2+x,y,-z
1/2-x,y,z
x,-y,z
loop_
_atom_site_type_symbol
_atom_site_label
_atom_site_fract_x
_atom_site_fract_y
_atom_site_fract_z
Si Si1 0.500419 0.833759 0.351966
Si Si2 0.645543 0.833059 0.546763
Si Si3 0.858849 0.333843 0.877836
Si Si4 0.150298 0.670377 0.988773
Si Si5 0.489753 0.167728 0.210429
Si Si6 0.642635 0.332086 0.145285
Si Si7 0.356096 0.668178 0.575455
O O1 0.414767 0.789720 0.394465
O O2 0.470155 0.803760 0.282160
O O3 0.587758 0.736424 0.368217
O O4 0.528079 0.000000 0.361682
O O5 0.750000 0.796222 0.563874
O O6 0.611915 0.741168 0.488343
O O7 0.633535 0.000000 0.528993
O O8 0.750000 0.311085 0.875030
O O9 0.884454 0.500000 0.864747
O O10 0.897825 0.286098 0.946313
O O11 0.906110 0.236308 0.826781
O O12 0.250000 0.743769 0.987893
O O13 0.163453 0.500000 0.990214
O O14 0.102819 0.710464 0.923404
O O15 0.587134 0.238464 0.194211
O O16 0.494745 0.000000 0.194532
O O17 0.750000 0.296173 0.150847
O O18 0.625084 0.500000 0.158871
O O19 0.250000 0.699389 0.588517
O O20 0.377371 0.500000 0.570885
#
# Coordination Sequence:
#
# PCOD8213453 Si02
#       7
#     8   8   8   8   8   8   8
#     4  10  22  38  54  74 104 145 185 213 244 297
#     4   9  18  35  59  82 103 132 172 213 252 301
#     4   9  18  35  58  80 103 134 176 224 268 315
#     4   7  12  27  53  80 100 125 169 222 270 314
#     4  11  24  37  50  75 111 147 180 216 262 314
#     4   9  18  35  58  79 101 134 178 226 271 317
#     4  10  21  36  56  84 112 134 162 209 267 313
#
# _framework density 19.086151999999998
#
# number of rings (size 3 to 8) (size 9 to 14) (size 15 to 20)
#    0.000    2.714    0.000    3.000    0.000    6.571 
#    0.000    7.857    0.000    4.286    0.000    0.000 
#    0.000    0.000    0.000    0.000    0.000    0.000 
#
# Total GULP energy -694096.007824 kJ/mol
# GULP energy per Si atom -12394.571568 kJ/mol
# Density = 1.904271 g / cm^3
# Si number density = 19.086152 Si / 1000 Ang^3
#
#
#
# Elastic Constant Matrix: (Units=GPa)
#
#
# Indices 1 2 3 4 5 6 
#
# 1 49.5905 25.6999 14.7863 0.0000 0.0000 0.0000
# 2 25.6999 70.1465 35.6161 0.0000 0.0000 0.0000
# 3 14.7863 35.6161 76.8178 0.0000 0.0000 0.0000
# 4 0.0000 0.0000 0.0000 26.2945 0.0000 0.0000
# 5 0.0000 0.0000 0.0000 0.0000 29.6571 0.0000
# 6 0.0000 0.0000 0.0000 0.0000 0.0000 25.3621
#
#
#
# Elastic Compliance Matrix: (Units=1/GPa)
#
#
# Indices 1 2 3 4 5 6 
#
# 1 0.024923 -0.008757 -0.000737 0.000000 0.000000 0.000000
# 2 -0.008757 0.021722 -0.008386 0.000000 0.000000 0.000000
# 3 -0.000737 -0.008386 0.017048 0.000000 0.000000 0.000000
# 4 0.000000 0.000000 0.000000 0.038031 0.000000 0.000000
# 5 0.000000 0.000000 0.000000 0.000000 0.033719 0.000000
# 6 0.000000 0.000000 0.000000 0.000000 0.000000 0.039429
#
#
# Mechanical properties :
#
#
# Convention : Reuss Voigt Hill
#
# Bulk Modulus (GPa) = 35.79976 38.75104 37.27540
# Shear Modulus (GPa) = 22.73328 24.29290 23.51309
#
# Velocity S-wave (km/s) = 3.45496 3.57151 3.51372
# Velocity P-wave (km/s) = 5.89180 6.11186 6.00284
#
# Compressibility (1/GPa) = 0.02793315
#
# Stress axis : x y z
#
# Youngs Moduli (GPa) = 40.12326 46.03650 58.65900
#
# Poissons Ratio (x) = 0.40314 0.04325
# Poissons Ratio (y) = 0.35135 0.49189
# Poissons Ratio (z) = 0.02958 0.38605
#
# Static dielectric constant tensor:
#      x y z
#    x 3.409530 0.000000 0.000000 
#    y 0.000000 3.290740 0.000000 
#    z 0.000000 0.000000 3.638710 
# 
# 
# High freq. dielectric constant tensor:
#      x y z
#    x 1.741610 0.000000 0.000000 
#    y 0.000000 1.718200 0.000000 
#    z 0.000000 0.000000 1.746520 
# 
# From -- ./inp_files/33392.got.cif
#   From: 2010.03.12/outbox.cif.g09.slc.cpg/sg51_17_cif.got.tgz:33392.got - 2010.04.16 13:43:02.
