data_PCOD8213198
_publ_section_title
;
Structure prediction by ZEFSAII (Michael W. Deem and Ramdas Pophale) SiO2 
 PCOD8213198
Probable space group: P M M A
;
_chemical_formula_sum "Si O2"
_cell_formula_units_Z 48
_cell_length_a 9.433795
_cell_length_b 19.126704
_cell_length_c 15.454859
_cell_angle_alpha 90.000000
_cell_angle_beta 90.000000
_cell_angle_gamma 90.000000
_cell_volume 2788.634646
_symmetry_space_group_name_H-M "P M M A"
_symmetry_group_IT_number 51
_symmetry_cell_setting 'orthorhombic'
loop_
_space_group_symop_operation_xyz
x,y,z
1/2-x,-y,z
1/2+x,-y,-z
-x,y,-z
-x,-y,-z
1/2+x,y,-z
1/2-x,y,z
x,-y,z
loop_
_atom_site_type_symbol
_atom_site_label
_atom_site_fract_x
_atom_site_fract_y
_atom_site_fract_z
Si Si1 0.592983 0.824852 0.577078
Si Si2 0.594469 0.658949 0.576693
Si Si3 0.918190 0.181522 0.765556
Si Si4 0.412795 0.417097 0.916886
Si Si5 0.084737 0.080376 0.084835
Si Si6 0.918220 0.660125 0.771088
O O1 0.500000 0.857989 0.500000
O O2 0.750000 0.857463 0.569215
O O3 0.601778 0.741919 0.567637
O O4 0.523217 0.841743 0.671022
O O5 0.500000 0.626096 0.500000
O O6 0.750000 0.626694 0.564108
O O7 0.539290 0.639695 0.672698
O O8 0.750000 0.179778 0.757799
O O9 0.974584 0.127562 0.837092
O O10 0.964513 0.259946 0.790343
O O11 0.250000 0.390427 0.922393
O O12 0.417026 0.500000 0.912446
O O13 0.489586 0.388931 0.831873
O O14 0.500000 0.389519 0.000000
O O15 0.250000 0.094335 0.067681
O O16 0.055610 0.000000 0.109064
O O17 0.000000 0.102944 0.000000
O O18 0.750000 0.649357 0.786759
#
# Coordination Sequence:
#
# PCOD8213198 Si02
#       6
#     8   8   8   8   8   8
#     4   8  13  23  39  59  85 115 145 177 214 257
#     4   8  14  24  40  63  90 119 147 178 218 261
#     4   8  15  28  45  66  92 119 147 182 223 264
#     4  10  21  36  52  69  90 118 151 185 222 268
#     4   9  17  30  47  64  84 115 152 185 220 265
#     4   9  17  30  48  70  95 120 148 186 229 267
#
# _framework density 17.212724000000001
#
# number of rings (size 3 to 8) (size 9 to 14) (size 15 to 20)
#    0.000    3.333    0.000    2.500    0.000    2.333 
#    0.000    5.833    0.000    1.000    0.000    0.000 
#    0.000    0.000    0.000    0.000    0.000    0.000 
#
# Total GULP energy -594886.123467 kJ/mol
# GULP energy per Si atom -12393.460906 kJ/mol
# Density = 1.717355 g / cm^3
# Si number density = 17.212724 Si / 1000 Ang^3
#
#
#
# Elastic Constant Matrix: (Units=GPa)
#
#
# Indices 1 2 3 4 5 6 
#
# 1 77.2235 20.3582 66.1312 0.0000 0.0000 0.0000
# 2 20.3582 19.0666 30.5717 0.0000 0.0000 0.0000
# 3 66.1312 30.5717 147.2344 0.0000 0.0000 0.0000
# 4 0.0000 0.0000 0.0000 4.8924 0.0000 0.0000
# 5 0.0000 0.0000 0.0000 0.0000 33.9094 0.0000
# 6 0.0000 0.0000 0.0000 0.0000 0.0000 14.2154
#
#
#
# Elastic Compliance Matrix: (Units=1/GPa)
#
#
# Indices 1 2 3 4 5 6 
#
# 1 0.022692 -0.011823 -0.007737 0.000000 0.000000 0.000000
# 2 -0.011823 0.084785 -0.012294 0.000000 0.000000 0.000000
# 3 -0.007737 -0.012294 0.012820 0.000000 0.000000 0.000000
# 4 0.000000 0.000000 0.000000 0.204397 0.000000 0.000000
# 5 0.000000 0.000000 0.000000 0.000000 0.029490 0.000000
# 6 0.000000 0.000000 0.000000 0.000000 0.000000 0.070346
#
#
# Mechanical properties :
#
#
# Convention : Reuss Voigt Hill
#
# Bulk Modulus (GPa) = 17.67183 53.07186 35.37185
# Shear Modulus (GPa) = 9.85992 19.03433 14.44713
#
# Velocity S-wave (km/s) = 2.39598 3.32901 2.90026
# Velocity P-wave (km/s) = 4.23595 6.75842 5.64002
#
# Compressibility (1/GPa) = 0.05658725
#
# Stress axis : x y z
#
# Youngs Moduli (GPa) = 44.06756 11.79457 78.00331
#
# Poissons Ratio (x) = 0.13945 0.60355
# Poissons Ratio (y) = 0.52103 0.95899
# Poissons Ratio (z) = 0.34097 0.14500
#
# Static dielectric constant tensor:
#      x y z
#    x 3.285170 0.000000 0.000000 
#    y 0.000000 2.877960 0.000000 
#    z 0.000000 0.000000 3.541470 
# 
# 
# High freq. dielectric constant tensor:
#      x y z
#    x 1.647240 0.000000 0.000000 
#    y 0.000000 1.621110 0.000000 
#    z 0.000000 0.000000 1.679990 
# 
# From -- ./inp_files/21394.got.cif
#   From: 2010.03.12/outbox.cif.g09.slc.cpg/sg51_11_cif.got.tgz:21394.got - 2010.04.16 13:43:02.
