data_PCOD8213648
_publ_section_title
;
Structure prediction by ZEFSAII (Michael W. Deem and Ramdas Pophale) SiO2 
 PCOD8213648
Probable space group: P M M A
;
_chemical_formula_sum "Si O2"
_cell_formula_units_Z 48
_cell_length_a 9.109857
_cell_length_b 9.125434
_cell_length_c 30.826251
_cell_angle_alpha 90.000000
_cell_angle_beta 90.000000
_cell_angle_gamma 90.000000
_cell_volume 2562.629365
_symmetry_space_group_name_H-M "P M M A"
_symmetry_group_IT_number 51
_symmetry_cell_setting 'orthorhombic'
loop_
_space_group_symop_operation_xyz
x,y,z
1/2-x,-y,z
1/2+x,-y,-z
-x,y,-z
-x,-y,-z
1/2+x,y,-z
1/2-x,y,z
x,-y,z
loop_
_atom_site_type_symbol
_atom_site_label
_atom_site_fract_x
_atom_site_fract_y
_atom_site_fract_z
Si Si1 0.080102 0.827720 0.800403
Si Si2 0.578656 0.332733 0.286682
Si Si3 0.420737 0.328287 0.121982
Si Si4 0.421334 0.168719 0.955102
Si Si5 0.579367 0.829508 0.542646
Si Si6 0.079440 0.670229 0.372320
O O1 0.250000 0.789252 0.810264
O O2 0.031636 0.766494 0.753792
O O3 0.977585 0.752942 0.835591
O O4 0.053003 0.000000 0.801229
O O5 0.750000 0.322114 0.295599
O O6 0.530146 0.500000 0.277155
O O7 0.499103 0.269575 0.329243
O O8 0.250000 0.291671 0.115234
O O9 0.448450 0.500000 0.127707
O O10 0.510549 0.273082 0.080799
O O11 0.250000 0.203641 0.960098
O O12 0.447162 0.000000 0.941509
O O13 0.500000 0.205331 0.000000
O O14 0.500000 0.766253 0.500000
O O15 0.750000 0.794864 0.537201
O O16 0.515432 0.751020 0.585364
O O17 0.545986 0.000000 0.548077
O O18 0.250000 0.704894 0.366884
O O19 0.046080 0.500000 0.378425
#
# Coordination Sequence:
#
# PCOD8213648 Si02
#       6
#     8   8   8   8   8   8
#     4  10  21  37  57  81 108 139 177 220 266 316
#     4   9  18  33  52  74 102 135 169 207 254 307
#     4  11  24  39  56  81 112 146 184 224 267 316
#     4  10  21  38  61  87 114 146 183 223 269 319
#     4   9  18  32  48  67  93 125 160 199 245 296
#     4   9  18  32  49  70  97 128 162 202 248 298
#
# _framework density 18.730761999999999
#
# number of rings (size 3 to 8) (size 9 to 14) (size 15 to 20)
#    0.000    2.333    0.000    2.000    0.000    8.000 
#    0.000    1.667    0.000    0.000    0.000    0.000 
#    0.000    0.000    0.000    0.000    0.000    0.000 
#
# Total GULP energy -595358.158544 kJ/mol
# GULP energy per Si atom -12403.294970 kJ/mol
# Density = 1.868813 g / cm^3
# Si number density = 18.730762 Si / 1000 Ang^3
#
#
#
# Elastic Constant Matrix: (Units=GPa)
#
#
# Indices 1 2 3 4 5 6 
#
# 1 77.8447 46.3725 71.8714 0.0000 0.0000 0.0000
# 2 46.3725 74.2241 68.2843 0.0000 0.0000 0.0000
# 3 71.8714 68.2843 166.5747 0.0000 0.0000 0.0000
# 4 0.0000 0.0000 0.0000 41.1831 0.0000 0.0000
# 5 0.0000 0.0000 0.0000 0.0000 41.7819 0.0000
# 6 0.0000 0.0000 0.0000 0.0000 0.0000 25.3906
#
#
#
# Elastic Compliance Matrix: (Units=1/GPa)
#
#
# Indices 1 2 3 4 5 6 
#
# 1 0.024601 -0.008998 -0.006926 0.000000 0.000000 0.000000
# 2 -0.008998 0.024921 -0.006334 0.000000 0.000000 0.000000
# 3 -0.006926 -0.006334 0.011588 0.000000 0.000000 0.000000
# 4 0.000000 0.000000 0.000000 0.024282 0.000000 0.000000
# 5 0.000000 0.000000 0.000000 0.000000 0.023934 0.000000
# 6 0.000000 0.000000 0.000000 0.000000 0.000000 0.039385
#
#
# Mechanical properties :
#
#
# Convention : Reuss Voigt Hill
#
# Bulk Modulus (GPa) = 60.25981 76.85554 68.55768
# Shear Modulus (GPa) = 25.15645 30.47882 27.81764
#
# Velocity S-wave (km/s) = 3.66875 4.03824 3.85792
# Velocity P-wave (km/s) = 7.08433 7.92868 7.51837
#
# Compressibility (1/GPa) = 0.01659481
#
# Stress axis : x y z
#
# Youngs Moduli (GPa) = 40.64948 40.12661 86.29694
#
# Poissons Ratio (x) = 0.36106 0.59767
# Poissons Ratio (y) = 0.36576 0.54657
# Poissons Ratio (z) = 0.28153 0.25415
#
# Static dielectric constant tensor:
#      x y z
#    x 3.423020 0.000000 0.000000 
#    y 0.000000 3.420010 0.000000 
#    z 0.000000 0.000000 3.736720 
# 
# 
# High freq. dielectric constant tensor:
#      x y z
#    x 1.724450 0.000000 0.000000 
#    y 0.000000 1.723160 0.000000 
#    z 0.000000 0.000000 1.742250 
# 
# From -- ./inp_files/36982.got.cif
#   From: 2010.03.12/outbox.cif.g09.slc.cpg/sg51_19_cif.got.tgz:36982.got - 2010.04.16 13:43:02.
