data_PCOD8213575
_publ_section_title
;
Structure prediction by ZEFSAII (Michael W. Deem and Ramdas Pophale) SiO2 
 PCOD8213575
Probable space group: P M M A
;
_chemical_formula_sum "Si O2"
_cell_formula_units_Z 36
_cell_length_a 9.247558
_cell_length_b 10.323436
_cell_length_c 19.164895
_cell_angle_alpha 90.000000
_cell_angle_beta 90.000000
_cell_angle_gamma 90.000000
_cell_volume 1829.606851
_symmetry_space_group_name_H-M "P M M A"
_symmetry_group_IT_number 51
_symmetry_cell_setting 'orthorhombic'
loop_
_space_group_symop_operation_xyz
x,y,z
1/2-x,-y,z
1/2+x,-y,-z
-x,y,-z
-x,-y,-z
1/2+x,y,-z
1/2-x,y,z
x,-y,z
loop_
_atom_site_type_symbol
_atom_site_label
_atom_site_fract_x
_atom_site_fract_y
_atom_site_fract_z
Si Si1 0.590442 0.647967 0.563795
Si Si2 0.085626 0.000000 0.570298
Si Si3 0.080709 0.769547 0.673484
Si Si4 0.918194 0.353275 0.929390
Si Si5 0.082190 0.149828 0.188826
O O1 0.500000 0.714450 0.500000
O O2 0.750000 0.714342 0.568936
O O3 0.613827 0.500000 0.543916
O O4 0.506105 0.650821 0.638469
O O5 0.045626 0.878795 0.617454
O O6 0.000000 0.000000 0.500000
O O7 0.250000 0.000000 0.548350
O O8 0.250000 0.738414 0.682183
O O9 0.018175 0.811362 0.747258
O O10 0.750000 0.341881 0.945843
O O11 0.956599 0.500000 0.903658
O O12 0.965103 0.246363 0.872934
O O13 0.000000 0.318931 0.000000
O O14 0.250000 0.170672 0.208582
O O15 0.053770 0.000000 0.167278
#
# Coordination Sequence:
#
# PCOD8213575 Si02
#       5
#     8   4   8   8   8
#     4  10  21  37  56  79 108 143 186 236 289 345
#     4  10  22  36  52  76 105 140 183 232 281 330
#     4  11  22  37  55  79 111 146 188 235 285 341
#     4   9  19  37  60  86 116 149 188 234 284 343
#     4  10  21  37  57  82 115 155 194 235 287 346
#
# _framework density 19.676358
#
# number of rings (size 3 to 8) (size 9 to 14) (size 15 to 20)
#    0.000    2.000    1.111    2.000    0.000    7.111 
#    0.000    2.222    0.000    0.000    0.000    0.000 
#    0.000    0.000    0.000    0.000    0.000    0.000 
#
# Total GULP energy -446267.513826 kJ/mol
# GULP energy per Si atom -12396.319829 kJ/mol
# Density = 1.963157 g / cm^3
# Si number density = 19.676358 Si / 1000 Ang^3
#
#
#
# Elastic Constant Matrix: (Units=GPa)
#
#
# Indices 1 2 3 4 5 6 
#
# 1 124.4240 46.8997 84.4300 0.0000 0.0000 0.0000
# 2 46.8997 79.5278 69.5672 0.0000 0.0000 0.0000
# 3 84.4300 69.5672 158.5503 0.0000 0.0000 0.0000
# 4 0.0000 0.0000 0.0000 41.5144 0.0000 0.0000
# 5 0.0000 0.0000 0.0000 0.0000 41.5942 0.0000
# 6 0.0000 0.0000 0.0000 0.0000 0.0000 16.5811
#
#
#
# Elastic Compliance Matrix: (Units=1/GPa)
#
#
# Indices 1 2 3 4 5 6 
#
# 1 0.012906 -0.002595 -0.005734 0.000000 0.000000 0.000000
# 2 -0.002595 0.020928 -0.007801 0.000000 0.000000 0.000000
# 3 -0.005734 -0.007801 0.012783 0.000000 0.000000 0.000000
# 4 0.000000 0.000000 0.000000 0.024088 0.000000 0.000000
# 5 0.000000 0.000000 0.000000 0.000000 0.024042 0.000000
# 6 0.000000 0.000000 0.000000 0.000000 0.000000 0.060310
#
#
# Mechanical properties :
#
#
# Convention : Reuss Voigt Hill
#
# Bulk Modulus (GPa) = 69.64818 84.92177 77.28497
# Shear Modulus (GPa) = 26.02764 30.71161 28.36962
#
# Velocity S-wave (km/s) = 3.64096 3.95503 3.80124
# Velocity P-wave (km/s) = 7.29035 8.00683 7.65697
#
# Compressibility (1/GPa) = 0.01435788
#
# Stress axis : x y z
#
# Youngs Moduli (GPa) = 77.48243 47.78177 78.22722
#
# Poissons Ratio (x) = 0.12401 0.44855
# Poissons Ratio (y) = 0.20109 0.61023
# Poissons Ratio (z) = 0.44428 0.37273
#
# Static dielectric constant tensor:
#      x y z
#    x 3.730390 0.000000 0.000000 
#    y 0.000000 3.922330 0.000000 
#    z 0.000000 0.000000 3.460650 
# 
# 
# High freq. dielectric constant tensor:
#      x y z
#    x 1.774310 0.000000 0.000000 
#    y 0.000000 1.769210 0.000000 
#    z 0.000000 0.000000 1.758720 
# 
# From -- ./inp_files/27047.got.cif
#   From: 2010.03.12/outbox.cif.g09.slc.cpg/sg51_14_cif.got.tgz:27047.got - 2010.04.16 13:43:02.
