data_PCOD8213710
_publ_section_title
;
Structure prediction by ZEFSAII (Michael W. Deem and Ramdas Pophale) SiO2 
 PCOD8213710
Probable space group: P M M A
;
_chemical_formula_sum "Si O2"
_cell_formula_units_Z 48
_cell_length_a 9.633186
_cell_length_b 9.051332
_cell_length_c 28.582783
_cell_angle_alpha 90.000000
_cell_angle_beta 90.000000
_cell_angle_gamma 90.000000
_cell_volume 2492.223306
_symmetry_space_group_name_H-M "P M M A"
_symmetry_group_IT_number 51
_symmetry_cell_setting 'orthorhombic'
loop_
_space_group_symop_operation_xyz
x,y,z
1/2-x,-y,z
1/2+x,-y,-z
-x,y,-z
-x,-y,-z
1/2+x,y,-z
1/2-x,y,z
x,-y,z
loop_
_atom_site_type_symbol
_atom_site_label
_atom_site_fract_x
_atom_site_fract_y
_atom_site_fract_z
Si Si1 0.750000 0.832164 0.969949
Si Si2 0.591596 0.825572 0.638916
Si Si3 0.985678 0.171410 0.895910
Si Si4 0.750000 0.674081 0.067149
Si Si5 0.911400 0.673013 0.282901
Si Si6 0.094377 0.331806 0.195555
Si Si7 0.409946 0.329660 0.456436
O O1 0.615076 0.800488 0.939379
O O2 0.750000 0.000000 0.988716
O O3 0.750000 0.724973 0.013739
O O4 0.750000 0.776718 0.650662
O O5 0.484968 0.760563 0.675920
O O6 0.547508 0.766012 0.588294
O O7 0.577322 0.000000 0.638918
O O8 0.914438 0.223350 0.848335
O O9 0.119965 0.268046 0.904270
O O10 0.024610 0.000000 0.891652
O O11 0.750000 0.500000 0.067877
O O12 0.750000 0.717687 0.280226
O O13 0.930821 0.500000 0.292433
O O14 0.983896 0.718994 0.234343
O O15 0.250000 0.318705 0.216492
O O16 0.064094 0.500000 0.179565
O O17 0.500000 0.272810 0.500000
O O18 0.250000 0.306351 0.469800
O O19 0.442940 0.500000 0.444928
#
# Coordination Sequence:
#
# PCOD8213710 Si02
#       7
#     4   8   8   4   8   8   8
#     4  10  22  42  64  88 120 156 196 238 285 350
#     4  10  21  37  57  83 116 155 199 244 291 346
#     4  11  23  41  63  89 120 157 195 235 290 351
#     4  12  26  40  60  90 122 156 196 244 291 336
#     4  10  22  39  60  87 118 152 192 239 292 346
#     4  10  21  38  61  88 118 152 193 240 288 344
#     4   9  18  33  54  80 111 150 195 241 289 344
#
# _framework density 19.259910999999999
#
# number of rings (size 3 to 8) (size 9 to 14) (size 15 to 20)
#    0.000    1.833    0.833    2.750    1.167    7.000 
#    0.000    1.667    0.000    0.000    0.000    0.000 
#    0.000    0.000    0.000    0.000    0.000    0.000 
#
# Total GULP energy -595407.788926 kJ/mol
# GULP energy per Si atom -12404.328936 kJ/mol
# Density = 1.921607 g / cm^3
# Si number density = 19.259911 Si / 1000 Ang^3
#
#
#
# Elastic Constant Matrix: (Units=GPa)
#
#
# Indices 1 2 3 4 5 6 
#
# 1 119.8904 52.2602 58.4026 0.0000 0.0000 0.0000
# 2 52.2602 85.6202 51.0600 0.0000 0.0000 0.0000
# 3 58.4026 51.0600 113.7602 0.0000 0.0000 0.0000
# 4 0.0000 0.0000 0.0000 -33.6999 0.0000 0.0000
# 5 0.0000 0.0000 0.0000 0.0000 63.8906 0.0000
# 6 0.0000 0.0000 0.0000 0.0000 0.0000 26.7058
#
#
#
# Elastic Compliance Matrix: (Units=1/GPa)
#
#
# Indices 1 2 3 4 5 6 
#
# 1 0.012644 -0.005252 -0.004134 0.000000 0.000000 0.000000
# 2 -0.005252 0.018130 -0.005441 0.000000 0.000000 0.000000
# 3 -0.004134 -0.005441 0.013355 0.000000 0.000000 0.000000
# 4 0.000000 0.000000 0.000000 -0.029674 0.000000 0.000000
# 5 0.000000 0.000000 0.000000 0.000000 0.015652 0.000000
# 6 0.000000 0.000000 0.000000 0.000000 0.000000 0.037445
#
#
# Mechanical properties :
#
#
# Convention : Reuss Voigt Hill
#
# Bulk Modulus (GPa) = 69.08638 71.41291 70.24964
# Shear Modulus (GPa) = 49.00431 21.88250 35.44341
#
# Velocity S-wave (km/s) = 5.04965 3.37437 4.29449
# Velocity P-wave (km/s) = 8.36343 7.23470 7.81946
#
# Compressibility (1/GPa) = 0.01447463
#
# Stress axis : x y z
#
# Youngs Moduli (GPa) = 79.08756 55.15659 74.87953
#
# Poissons Ratio (x) = 0.28971 0.30954
# Poissons Ratio (y) = 0.41540 0.40742
# Poissons Ratio (z) = 0.32693 0.30011
#
# Static dielectric constant tensor:
#      x y z
#    x 3.668530 0.000000 0.000000 
#    y 0.000000 3.477860 0.000000 
#    z 0.000000 0.000000 3.488050 
# 
# 
# High freq. dielectric constant tensor:
#      x y z
#    x 1.759950 0.000000 0.000000 
#    y 0.000000 1.747420 0.000000 
#    z 0.000000 0.000000 1.752550 
# 
# From -- ./inp_files/37133.got.cif
#   From: 2010.03.12/outbox.cif.g09.slc.cpg/sg51_19_cif.got.tgz:37133.got - 2010.04.16 13:43:02.
