data_PCOD8213939
_publ_section_title
;
Structure prediction by ZEFSAII (Michael W. Deem and Ramdas Pophale) SiO2 
 PCOD8213939
Probable space group: P M M A
;
_chemical_formula_sum "Si O2"
_cell_formula_units_Z 64
_cell_length_a 19.252917
_cell_length_b 9.147506
_cell_length_c 20.064810
_cell_angle_alpha 90.000000
_cell_angle_beta 90.000000
_cell_angle_gamma 90.000000
_cell_volume 3533.737565
_symmetry_space_group_name_H-M "P M M A"
_symmetry_group_IT_number 51
_symmetry_cell_setting 'orthorhombic'
loop_
_space_group_symop_operation_xyz
x,y,z
1/2-x,-y,z
1/2+x,-y,-z
-x,y,-z
-x,-y,-z
1/2+x,y,-z
1/2-x,y,z
x,-y,z
loop_
_atom_site_type_symbol
_atom_site_label
_atom_site_fract_x
_atom_site_fract_y
_atom_site_fract_z
Si Si1 0.077376 0.332591 0.490271
Si Si2 0.564532 0.828995 0.293370
Si Si3 0.948925 0.331950 0.158955
Si Si4 0.169880 0.834208 0.240062
Si Si5 0.610602 0.667504 0.876689
Si Si6 0.071029 0.667916 0.338276
Si Si7 0.171250 0.829476 0.594220
Si Si8 0.073689 0.672619 0.982898
O O1 0.077730 0.500000 0.514746
O O2 0.098640 0.318002 0.413289
O O3 0.133493 0.246361 0.532641
O O4 0.000000 0.267025 0.500000
O O5 0.576202 0.768457 0.219298
O O6 0.501246 0.750870 0.330357
O O7 0.633391 0.795293 0.335994
O O8 0.548233 0.000000 0.289277
O O9 0.932839 0.500000 0.176984
O O10 0.905180 0.280210 0.092585
O O11 0.030686 0.311025 0.145055
O O12 0.250000 0.826579 0.259307
O O13 0.159169 0.773816 0.165631
O O14 0.129166 0.734307 0.291387
O O15 0.142125 0.000000 0.243685
O O16 0.632989 0.500000 0.864735
O O17 0.624118 0.711195 0.954933
O O18 0.058877 0.500000 0.317662
O O19 0.250000 0.770787 0.599708
O O20 0.169913 0.000000 0.578552
O O21 0.062736 0.500000 0.980195
O O22 0.000000 0.746847 0.000000
#
# Coordination Sequence:
#
# PCOD8213939 Si02
#       8
#     8   8   8   8   8   8   8   8
#     4  10  21  38  60  86 113 139 176 225 274 321
#     4  11  21  33  54  82 112 144 181 224 269 318
#     4   9  16  28  50  79 108 138 174 220 271 321
#     4  11  24  38  51  73 109 148 184 226 274 324
#     4   9  16  29  51  75 102 139 179 222 269 321
#     4  11  22  37  58  81 107 140 180 225 273 327
#     4  10  23  41  59  82 113 149 185 218 261 323
#     4   7  12  24  44  73 104 132 167 212 265 316
#
# _framework density 18.111135999999998
#
# number of rings (size 3 to 8) (size 9 to 14) (size 15 to 20)
#    0.000    2.250    2.500    2.625    0.000    3.500 
#    0.000    3.125    0.000    3.000    0.000    3.500 
#    0.000    0.000    0.000    0.000    0.000    0.000 
#
# Total GULP energy -793279.980086 kJ/mol
# GULP energy per Si atom -12394.999689 kJ/mol
# Density = 1.806991 g / cm^3
# Si number density = 18.111136 Si / 1000 Ang^3
#
#
#
# Elastic Constant Matrix: (Units=GPa)
#
#
# Indices 1 2 3 4 5 6 
#
# 1 89.5271 44.2141 50.8232 0.0000 0.0000 0.0000
# 2 44.2141 88.0834 60.6490 0.0000 0.0000 0.0000
# 3 50.8232 60.6490 134.8751 0.0000 0.0000 0.0000
# 4 0.0000 0.0000 0.0000 18.4054 0.0000 0.0000
# 5 0.0000 0.0000 0.0000 0.0000 17.8043 0.0000
# 6 0.0000 0.0000 0.0000 0.0000 0.0000 8.6473
#
#
#
# Elastic Compliance Matrix: (Units=1/GPa)
#
#
# Indices 1 2 3 4 5 6 
#
# 1 0.015905 -0.005587 -0.003481 0.000000 0.000000 0.000000
# 2 -0.005587 0.018407 -0.006172 0.000000 0.000000 0.000000
# 3 -0.003481 -0.006172 0.011501 0.000000 0.000000 0.000000
# 4 0.000000 0.000000 0.000000 0.054332 0.000000 0.000000
# 5 0.000000 0.000000 0.000000 0.000000 0.056166 0.000000
# 6 0.000000 0.000000 0.000000 0.000000 0.000000 0.115643
#
#
# Mechanical properties :
#
#
# Convention : Reuss Voigt Hill
#
# Bulk Modulus (GPa) = 65.21544 69.31760 67.26652
# Shear Modulus (GPa) = 16.25778 19.42466 17.84122
#
# Velocity S-wave (km/s) = 2.99936 3.27850 3.14203
# Velocity P-wave (km/s) = 6.93408 7.25865 7.09822
#
# Compressibility (1/GPa) = 0.01533379
#
# Stress axis : x y z
#
# Youngs Moduli (GPa) = 62.87291 54.32812 86.94725
#
# Poissons Ratio (x) = 0.30352 0.30267
# Poissons Ratio (y) = 0.35126 0.53661
# Poissons Ratio (z) = 0.21887 0.33530
#
# Static dielectric constant tensor:
#      x y z
#    x 3.112020 0.000000 0.000000 
#    y 0.000000 3.265190 0.000000 
#    z 0.000000 0.000000 3.706260 
# 
# 
# High freq. dielectric constant tensor:
#      x y z
#    x 1.665450 0.000000 0.000000 
#    y 0.000000 1.690240 0.000000 
#    z 0.000000 0.000000 1.722240 
# 
# From -- ./inp_files/33859.got.cif
#   From: 2010.03.12/outbox.cif.g09.slc.cpg/sg51_17_cif.got.tgz:33859.got - 2010.04.16 13:43:02.
