data_PCOD8213392
_publ_section_title
;
Structure prediction by ZEFSAII (Michael W. Deem and Ramdas Pophale) SiO2 
 PCOD8213392
Probable space group: P M M A
;
_chemical_formula_sum "Si O2"
_cell_formula_units_Z 48
_cell_length_a 7.821097
_cell_length_b 8.938255
_cell_length_c 34.643481
_cell_angle_alpha 90.000000
_cell_angle_beta 90.000000
_cell_angle_gamma 90.000000
_cell_volume 2421.820419
_symmetry_space_group_name_H-M "P M M A"
_symmetry_group_IT_number 51
_symmetry_cell_setting 'orthorhombic'
loop_
_space_group_symop_operation_xyz
x,y,z
1/2-x,-y,z
1/2+x,-y,-z
-x,y,-z
-x,-y,-z
1/2+x,y,-z
1/2-x,y,z
x,-y,z
loop_
_atom_site_type_symbol
_atom_site_label
_atom_site_fract_x
_atom_site_fract_y
_atom_site_fract_z
Si Si1 0.250000 0.821901 0.740166
Si Si2 0.946672 0.163310 0.616544
Si Si3 0.449453 0.170052 0.959540
Si Si4 0.950174 0.331715 0.458349
Si Si5 0.750000 0.177831 0.171735
Si Si6 0.950546 0.324145 0.692628
Si Si7 0.061249 0.822231 0.121355
O O1 0.250000 0.768157 0.784349
O O2 0.426018 0.758380 0.722640
O O3 0.250000 0.000000 0.735450
O O4 0.750000 0.138927 0.624560
O O5 0.014804 0.272210 0.650149
O O6 0.967577 0.231892 0.574454
O O7 0.038226 0.000000 0.618539
O O8 0.250000 0.178514 0.952313
O O9 0.537100 0.245009 0.921950
O O10 0.516191 0.000000 0.962481
O O11 0.500000 0.251743 0.000000
O O12 0.750000 0.331000 0.452424
O O13 0.024665 0.500000 0.455243
O O14 0.000000 0.263561 0.500000
O O15 0.580744 0.242981 0.150587
O O16 0.750000 0.000000 0.169928
O O17 0.750000 0.284502 0.700624
O O18 0.980740 0.500000 0.695493
O O19 0.250000 0.777715 0.136562
O O20 0.038555 0.000000 0.119050
#
# Coordination Sequence:
#
# PCOD8213392 Si02
#       7
#     4   8   8   8   4   8   8
#     4  11  23  37  59  87 117 149 189 241 295 351
#     4  10  21  37  58  84 114 147 183 229 285 340
#     4   9  14  19  28  45  71 104 152 214 268 311
#     4  10  21  36  55  79 109 149 195 237 277 329
#     4   9  18  31  43  63  93 129 169 217 273 333
#     4  10  22  41  64  88 116 151 191 236 289 352
#     4   9  15  24  37  52  77 116 162 212 266 321
#
# _framework density 19.819801999999999
#
# number of rings (size 3 to 8) (size 9 to 14) (size 15 to 20)
#    0.000    2.333    0.833    2.250    1.167    6.000 
#    0.000    1.667    0.000    0.000    0.000    0.000 
#    0.000    0.000    0.000    0.000    0.000    3.333 
#
# Total GULP energy -594928.796251 kJ/mol
# GULP energy per Si atom -12394.349922 kJ/mol
# Density = 1.977469 g / cm^3
# Si number density = 19.819802 Si / 1000 Ang^3
#
#
#
# Elastic Constant Matrix: (Units=GPa)
#
#
# Indices 1 2 3 4 5 6 
#
# 1 100.6226 30.3537 66.9142 0.0000 0.0000 0.0000
# 2 30.3537 68.2548 45.6913 0.0000 0.0000 0.0000
# 3 66.9142 45.6913 178.0904 0.0000 0.0000 0.0000
# 4 0.0000 0.0000 0.0000 1.8352 0.0000 0.0000
# 5 0.0000 0.0000 0.0000 0.0000 35.2119 0.0000
# 6 0.0000 0.0000 0.0000 0.0000 0.0000 18.0759
#
#
#
# Elastic Compliance Matrix: (Units=1/GPa)
#
#
# Indices 1 2 3 4 5 6 
#
# 1 0.013811 -0.003221 -0.004363 0.000000 0.000000 0.000000
# 2 -0.003221 0.018440 -0.003521 0.000000 0.000000 0.000000
# 3 -0.004363 -0.003521 0.008158 0.000000 0.000000 0.000000
# 4 0.000000 0.000000 0.000000 0.544886 0.000000 0.000000
# 5 0.000000 0.000000 0.000000 0.000000 0.028400 0.000000
# 6 0.000000 0.000000 0.000000 0.000000 0.000000 0.055322
#
#
# Mechanical properties :
#
#
# Convention : Reuss Voigt Hill
#
# Bulk Modulus (GPa) = 54.94701 70.32070 62.63385
# Shear Modulus (GPa) = 7.17058 24.62518 15.89788
#
# Velocity S-wave (km/s) = 1.90414 3.52867 2.83525
# Velocity P-wave (km/s) = 5.71120 7.22212 6.51064
#
# Compressibility (1/GPa) = 0.01819935
#
# Stress axis : x y z
#
# Youngs Moduli (GPa) = 72.40522 54.22861 122.58422
#
# Poissons Ratio (x) = 0.17469 0.53481
# Poissons Ratio (y) = 0.23325 0.43159
# Poissons Ratio (z) = 0.31589 0.19092
#
# Static dielectric constant tensor:
#      x y z
#    x 3.698630 0.000000 0.000000 
#    y 0.000000 3.269390 0.000000 
#    z 0.000000 0.000000 2.536840 
# 
# 
# High freq. dielectric constant tensor:
#      x y z
#    x 1.780980 0.000000 0.000000 
#    y 0.000000 1.717150 0.000000 
#    z 0.000000 0.000000 1.781810 
# 
# From -- ./inp_files/37098.got.cif
#   From: 2010.03.12/outbox.cif.g09.slc.cpg/sg51_19_cif.got.tgz:37098.got - 2010.04.16 13:43:02.
