data_PCOD8213533
_publ_section_title
;
Structure prediction by ZEFSAII (Michael W. Deem and Ramdas Pophale) SiO2 
 PCOD8213533
Probable space group: P M M A
;
_chemical_formula_sum "Si O2"
_cell_formula_units_Z 64
_cell_length_a 18.438037
_cell_length_b 8.842034
_cell_length_c 20.560846
_cell_angle_alpha 90.000000
_cell_angle_beta 90.000000
_cell_angle_gamma 90.000000
_cell_volume 3352.029584
_symmetry_space_group_name_H-M "P M M A"
_symmetry_group_IT_number 51
_symmetry_cell_setting 'orthorhombic'
loop_
_space_group_symop_operation_xyz
x,y,z
1/2-x,-y,z
1/2+x,-y,-z
-x,y,-z
-x,-y,-z
1/2+x,y,-z
1/2-x,y,z
x,-y,z
loop_
_atom_site_type_symbol
_atom_site_label
_atom_site_fract_x
_atom_site_fract_y
_atom_site_fract_z
Si Si1 0.075933 0.820883 0.925579
Si Si2 0.082260 0.178691 0.305695
Si Si3 0.418220 0.820267 0.682272
Si Si4 0.168307 0.819266 0.806385
Si Si5 0.666000 0.175880 0.443836
Si Si6 0.166928 0.677946 0.187466
Si Si7 0.087697 0.179046 0.070973
Si Si8 0.835105 0.673612 0.577692
O O1 0.128647 0.753704 0.870490
O O2 0.993838 0.767126 0.911665
O O3 0.075634 0.000000 0.923260
O O4 0.104001 0.770700 0.996684
O O5 0.116657 0.247695 0.241442
O O6 0.125711 0.225203 0.369306
O O7 0.000245 0.239155 0.312775
O O8 0.083911 0.000000 0.298267
O O9 0.373001 0.755959 0.743162
O O10 0.381688 0.761579 0.615834
O O11 0.415486 0.000000 0.683060
O O12 0.250000 0.756947 0.805572
O O13 0.167512 0.000000 0.806955
O O14 0.750000 0.203324 0.426608
O O15 0.641498 0.269934 0.506645
O O16 0.650977 0.000000 0.457877
O O17 0.250000 0.724657 0.200397
O O18 0.156876 0.500000 0.191285
O O19 0.144339 0.735477 0.116470
O O20 0.096870 0.000000 0.080450
O O21 0.750000 0.695626 0.588014
O O22 0.858268 0.500000 0.586136
#
# Coordination Sequence:
#
# PCOD8213533 Si02
#       8
#     8   8   8   8   8   8   8   8
#     4   8  15  28  48  77 109 137 169 213 259 300
#     4  11  22  36  56  78 101 132 171 215 261 312
#     4   9  18  31  49  76 106 133 166 212 258 296
#     4   9  15  24  42  70 104 137 166 202 253 306
#     4   9  17  32  55  80 106 138 174 207 243 296
#     4  11  24  39  53  73 104 138 173 218 267 312
#     4   9  17  32  54  77 104 138 174 213 257 307
#     4  10  21  37  55  76 105 137 168 208 256 303
#
# _framework density 19.092908999999999
#
# number of rings (size 3 to 8) (size 9 to 14) (size 15 to 20)
#    0.000    2.500    0.000    3.375    0.000    7.750 
#    0.000    6.250    0.000    0.000    0.000    0.000 
#    0.000    7.000    0.000    0.000    0.000    0.000 
#
# Total GULP energy -793631.292541 kJ/mol
# GULP energy per Si atom -12400.488946 kJ/mol
# Density = 1.904945 g / cm^3
# Si number density = 19.092909 Si / 1000 Ang^3
#
#
#
# Elastic Constant Matrix: (Units=GPa)
#
#
# Indices 1 2 3 4 5 6 
#
# 1 82.0887 31.4132 62.1113 0.0000 0.0000 0.0000
# 2 31.4132 37.3284 25.7330 0.0000 0.0000 0.0000
# 3 62.1113 25.7330 137.0490 0.0000 0.0000 0.0000
# 4 0.0000 0.0000 0.0000 -3.6795 0.0000 0.0000
# 5 0.0000 0.0000 0.0000 0.0000 42.9036 0.0000
# 6 0.0000 0.0000 0.0000 0.0000 0.0000 13.8139
#
#
#
# Elastic Compliance Matrix: (Units=1/GPa)
#
#
# Indices 1 2 3 4 5 6 
#
# 1 0.023846 -0.014493 -0.008086 0.000000 0.000000 0.000000
# 2 -0.014493 0.039581 -0.000864 0.000000 0.000000 0.000000
# 3 -0.008086 -0.000864 0.011123 0.000000 0.000000 0.000000
# 4 0.000000 0.000000 0.000000 -0.271775 0.000000 0.000000
# 5 0.000000 0.000000 0.000000 0.000000 0.023308 0.000000
# 6 0.000000 0.000000 0.000000 0.000000 0.000000 0.072391
#
#
# Mechanical properties :
#
#
# Convention : Reuss Voigt Hill
#
# Bulk Modulus (GPa) = 36.14634 54.99788 45.57211
# Shear Modulus (GPa) = -110.08667 19.75485 -45.16591
#
# Velocity S-wave (km/s) = -7.60155 3.22012 -4.86901
# Velocity P-wave (km/s) = 7.62049 6.53402 2.77294
#
# Compressibility (1/GPa) = 0.02766532
#
# Stress axis : x y z
#
# Youngs Moduli (GPa) = 41.93540 25.26460 89.90091
#
# Poissons Ratio (x) = 0.36617 0.72693
# Poissons Ratio (y) = 0.60778 0.07763
# Poissons Ratio (z) = 0.33909 0.02182
#
# Static dielectric constant tensor:
#      x y z
#    x 3.658760 0.000000 0.000000 
#    y 0.000000 3.086180 0.000000 
#    z 0.000000 0.000000 3.768330 
# 
# 
# High freq. dielectric constant tensor:
#      x y z
#    x 1.746000 0.000000 0.000000 
#    y 0.000000 1.699740 0.000000 
#    z 0.000000 0.000000 1.760470 
# 
# From -- ./inp_files/33766.got.cif
#   From: 2010.03.12/outbox.cif.g09.slc.cpg/sg51_17_cif.got.tgz:33766.got - 2010.04.16 13:43:02.
