data_PCOD8213529
_publ_section_title
;
Structure prediction by ZEFSAII (Michael W. Deem and Ramdas Pophale) SiO2 
 PCOD8213529
Probable space group: P M M A
;
_chemical_formula_sum "Si O2"
_cell_formula_units_Z 52
_cell_length_a 9.047634
_cell_length_b 10.647815
_cell_length_c 29.874541
_cell_angle_alpha 90.000000
_cell_angle_beta 90.000000
_cell_angle_gamma 90.000000
_cell_volume 2878.039580
_symmetry_space_group_name_H-M "P M M A"
_symmetry_group_IT_number 51
_symmetry_cell_setting 'orthorhombic'
loop_
_space_group_symop_operation_xyz
x,y,z
1/2-x,-y,z
1/2+x,-y,-z
-x,y,-z
-x,-y,-z
1/2+x,y,-z
1/2-x,y,z
x,-y,z
loop_
_atom_site_type_symbol
_atom_site_label
_atom_site_fract_x
_atom_site_fract_y
_atom_site_fract_z
Si Si1 0.084111 0.646227 0.204019
Si Si2 0.426655 0.858715 0.639983
Si Si3 0.588245 0.852129 0.458554
Si Si4 0.424722 0.714649 0.106434
Si Si5 0.913468 0.144026 0.041612
Si Si6 0.424952 0.642624 0.706257
Si Si7 0.573341 0.500000 0.048598
O O1 0.250000 0.686308 0.217490
O O2 0.076447 0.500000 0.193104
O O3 0.032107 0.714454 0.158763
O O4 0.977250 0.683458 0.244551
O O5 0.250000 0.858716 0.638933
O O6 0.486614 0.826867 0.589971
O O7 0.488104 0.748316 0.672237
O O8 0.479870 0.000000 0.654642
O O9 0.500000 0.790585 0.500000
O O10 0.750000 0.789802 0.459526
O O11 0.601899 0.000000 0.465941
O O12 0.250000 0.691877 0.100641
O O13 0.483800 0.845551 0.086201
O O14 0.519091 0.618466 0.076999
O O15 0.750000 0.206513 0.046855
O O16 0.890175 0.000000 0.030649
O O17 0.000000 0.209225 0.000000
O O18 0.250000 0.644503 0.705514
O O19 0.481449 0.500000 0.694532
O O20 0.750000 0.500000 0.044175
O O21 0.500000 0.500000 0.000000
#
# Coordination Sequence:
#
# PCOD8213529 Si02
#       7
#     8   8   8   8   8   8   4
#     4   9  18  34  52  70  95 126 156 190 237 288
#     4   8  14  26  44  66  94 126 156 192 243 293
#     4   8  13  22  38  60  86 118 155 192 232 281
#     4  11  21  36  55  75 100 128 161 197 239 289
#     4  10  21  37  55  75  99 129 165 200 236 282
#     4   9  17  29  48  72  92 116 159 205 238 280
#     4  12  24  36  52  76 106 132 156 190 239 290
#
# _framework density 18.067854000000001
#
# number of rings (size 3 to 8) (size 9 to 14) (size 15 to 20)
#    0.000    2.615    0.769    3.000    0.000    2.154 
#    0.000    1.538    0.000    4.615    0.000    0.000 
#    0.000    0.000    0.000    0.000    0.000    0.000 
#
# Total GULP energy -644256.300892 kJ/mol
# GULP energy per Si atom -12389.544248 kJ/mol
# Density = 1.802673 g / cm^3
# Si number density = 18.067854 Si / 1000 Ang^3
#
#
#
# Elastic Constant Matrix: (Units=GPa)
#
#
# Indices 1 2 3 4 5 6 
#
# 1 67.9203 24.0793 48.4371 0.0000 0.0000 0.0000
# 2 24.0793 61.9755 56.5390 0.0000 0.0000 0.0000
# 3 48.4371 56.5390 151.3660 0.0000 0.0000 0.0000
# 4 0.0000 0.0000 0.0000 25.2950 0.0000 0.0000
# 5 0.0000 0.0000 0.0000 0.0000 30.6637 0.0000
# 6 0.0000 0.0000 0.0000 0.0000 0.0000 16.0076
#
#
#
# Elastic Compliance Matrix: (Units=1/GPa)
#
#
# Indices 1 2 3 4 5 6 
#
# 1 0.019401 -0.002843 -0.005147 0.000000 0.000000 0.000000
# 2 -0.002843 0.024892 -0.008388 0.000000 0.000000 0.000000
# 3 -0.005147 -0.008388 0.011387 0.000000 0.000000 0.000000
# 4 0.000000 0.000000 0.000000 0.039533 0.000000 0.000000
# 5 0.000000 0.000000 0.000000 0.000000 0.032612 0.000000
# 6 0.000000 0.000000 0.000000 0.000000 0.000000 0.062470
#
#
# Mechanical properties :
#
#
# Convention : Reuss Voigt Hill
#
# Bulk Modulus (GPa) = 43.62059 59.93030 51.77544
# Shear Modulus (GPa) = 21.67386 24.54035 23.10710
#
# Velocity S-wave (km/s) = 3.46725 3.68942 3.58006
# Velocity P-wave (km/s) = 6.34226 7.16873 6.76812
#
# Compressibility (1/GPa) = 0.02292496
#
# Stress axis : x y z
#
# Youngs Moduli (GPa) = 51.54313 40.17306 87.82268
#
# Poissons Ratio (x) = 0.11421 0.45198
# Poissons Ratio (y) = 0.14653 0.73667
# Poissons Ratio (z) = 0.26527 0.33698
#
# Static dielectric constant tensor:
#      x y z
#    x 3.429170 0.000000 0.000000 
#    y 0.000000 3.660910 0.000000 
#    z 0.000000 0.000000 3.508110 
# 
# 
# High freq. dielectric constant tensor:
#      x y z
#    x 1.686970 0.000000 0.000000 
#    y 0.000000 1.671310 0.000000 
#    z 0.000000 0.000000 1.702440 
# 
# From -- ./inp_files/36223.got.cif
#   From: 2010.03.12/outbox.cif.g09.slc.cpg/sg51_19_cif.got.tgz:36223.got - 2010.04.16 13:43:02.
