data_PCOD8213822
_publ_section_title
;
Structure prediction by ZEFSAII (Michael W. Deem and Ramdas Pophale) SiO2 
 PCOD8213822
Probable space group: P M M A
;
_chemical_formula_sum "Si O2"
_cell_formula_units_Z 64
_cell_length_a 31.501692
_cell_length_b 8.723926
_cell_length_c 12.083388
_cell_angle_alpha 90.000000
_cell_angle_beta 90.000000
_cell_angle_gamma 90.000000
_cell_volume 3320.737718
_symmetry_space_group_name_H-M "P M M A"
_symmetry_group_IT_number 51
_symmetry_cell_setting 'orthorhombic'
loop_
_space_group_symop_operation_xyz
x,y,z
1/2-x,-y,z
1/2+x,-y,-z
-x,y,-z
-x,-y,-z
1/2+x,y,-z
1/2-x,y,z
x,-y,z
loop_
_atom_site_type_symbol
_atom_site_label
_atom_site_fract_x
_atom_site_fract_y
_atom_site_fract_z
Si Si1 0.298666 0.679708 0.506244
Si Si2 0.517638 0.179911 0.887474
Si Si3 0.048700 0.681354 0.515517
Si Si4 0.111532 0.179755 0.130938
Si Si5 0.876021 0.821063 0.621736
Si Si6 0.628503 0.318521 0.094808
Si Si7 0.939972 0.820685 0.252643
Si Si8 0.296106 0.681825 0.755901
O O1 0.250000 0.718251 0.471179
O O2 0.307380 0.500000 0.492428
O O3 0.332372 0.770856 0.434086
O O4 0.306911 0.734426 0.631618
O O5 0.563827 0.245784 0.862559
O O6 0.488195 0.216145 0.782348
O O7 0.520822 0.000000 0.906710
O O8 0.500000 0.257284 0.000000
O O9 0.048680 0.500000 0.512054
O O10 0.081042 0.740225 0.421756
O O11 0.068433 0.735246 0.632371
O O12 0.000000 0.743290 0.500000
O O13 0.131978 0.217712 0.249255
O O14 0.113186 0.000000 0.103902
O O15 0.134914 0.269668 0.032405
O O16 0.883705 0.000000 0.603459
O O17 0.623948 0.500000 0.104763
O O18 0.588240 0.239790 0.151465
O O19 0.669438 0.253992 0.159381
O O20 0.931488 0.000000 0.269210
O O21 0.250000 0.746802 0.790979
O O22 0.294975 0.500000 0.758226
#
# Coordination Sequence:
#
# PCOD8213822 Si02
#       8
#     8   8   8   8   8   8   8   8
#     4   9  18  36  63  89 114 148 188 235 294 354
#     4   9  16  31  54  75  99 141 188 226 264 316
#     4  11  24  40  57  81 117 153 189 240 296 347
#     4  10  21  38  55  75 108 149 192 231 274 333
#     4  11  23  38  59  84 114 155 197 241 293 351
#     4  11  21  33  54  84 112 139 178 228 280 331
#     4  11  21  35  58  82 109 144 186 231 276 335
#     4   8  16  33  56  80 106 137 172 215 270 330
#
# _framework density 19.272825999999998
#
# number of rings (size 3 to 8) (size 9 to 14) (size 15 to 20)
#    0.000    2.000    1.250    3.750    0.000    4.250 
#    0.000    3.125    0.000    5.250    0.000    0.000 
#    0.000    0.000    0.000    0.000    0.000    0.000 
#
# Total GULP energy -793449.680671 kJ/mol
# GULP energy per Si atom -12397.651260 kJ/mol
# Density = 1.922896 g / cm^3
# Si number density = 19.272826 Si / 1000 Ang^3
#
#
#
# Elastic Constant Matrix: (Units=GPa)
#
#
# Indices 1 2 3 4 5 6 
#
# 1 118.3365 33.3739 63.2454 0.0000 0.0000 0.0000
# 2 33.3739 58.4508 36.0221 0.0000 0.0000 0.0000
# 3 63.2454 36.0221 124.8392 0.0000 0.0000 0.0000
# 4 0.0000 0.0000 0.0000 30.3658 0.0000 0.0000
# 5 0.0000 0.0000 0.0000 0.0000 32.2137 0.0000
# 6 0.0000 0.0000 0.0000 0.0000 0.0000 23.9676
#
#
#
# Elastic Compliance Matrix: (Units=1/GPa)
#
#
# Indices 1 2 3 4 5 6 
#
# 1 0.012265 -0.003860 -0.005100 0.000000 0.000000 0.000000
# 2 -0.003860 0.022024 -0.004399 0.000000 0.000000 0.000000
# 3 -0.005100 -0.004399 0.011863 0.000000 0.000000 0.000000
# 4 0.000000 0.000000 0.000000 0.032932 0.000000 0.000000
# 5 0.000000 0.000000 0.000000 0.000000 0.031043 0.000000
# 6 0.000000 0.000000 0.000000 0.000000 0.000000 0.041723
#
#
# Mechanical properties :
#
#
# Convention : Reuss Voigt Hill
#
# Bulk Modulus (GPa) = 51.45736 62.98991 57.22364
# Shear Modulus (GPa) = 27.02048 28.57507 27.79777
#
# Velocity S-wave (km/s) = 3.74839 3.85471 3.80192
# Velocity P-wave (km/s) = 6.74472 7.25024 7.00204
#
# Compressibility (1/GPa) = 0.01943357
#
# Stress axis : x y z
#
# Youngs Moduli (GPa) = 81.53539 45.40587 84.29367
#
# Poissons Ratio (x) = 0.17527 0.42987
# Poissons Ratio (y) = 0.31472 0.37084
# Poissons Ratio (z) = 0.41580 0.19976
#
# Static dielectric constant tensor:
#      x y z
#    x 3.845920 0.000000 0.000000 
#    y 0.000000 3.245330 0.000000 
#    z 0.000000 0.000000 3.594320 
# 
# 
# High freq. dielectric constant tensor:
#      x y z
#    x 1.750270 0.000000 0.000000 
#    y 0.000000 1.728310 0.000000 
#    z 0.000000 0.000000 1.755600 
# 
# From -- ./inp_files/19626.got.cif
#   From: 2010.03.12/outbox.cif.g09.slc.cpg/sg51_10_cif.got.tgz:19626.got - 2010.04.16 13:43:02.
