data_PCOD8213713
_publ_section_title
;
Structure prediction by ZEFSAII (Michael W. Deem and Ramdas Pophale) SiO2 
 PCOD8213713
Probable space group: P M M A
;
_chemical_formula_sum "Si O2"
_cell_formula_units_Z 64
_cell_length_a 15.413286
_cell_length_b 8.855753
_cell_length_c 24.002489
_cell_angle_alpha 90.000000
_cell_angle_beta 90.000000
_cell_angle_gamma 90.000000
_cell_volume 3276.249829
_symmetry_space_group_name_H-M "P M M A"
_symmetry_group_IT_number 51
_symmetry_cell_setting 'orthorhombic'
loop_
_space_group_symop_operation_xyz
x,y,z
1/2-x,-y,z
1/2+x,-y,-z
-x,y,-z
-x,-y,-z
1/2+x,y,-z
1/2-x,y,z
x,-y,z
loop_
_atom_site_type_symbol
_atom_site_label
_atom_site_fract_x
_atom_site_fract_y
_atom_site_fract_z
Si Si1 0.650641 0.823860 0.365468
Si Si2 0.996550 0.320666 0.436886
Si Si3 0.653650 0.826603 0.861393
Si Si4 0.652650 0.327492 0.134390
Si Si5 0.096664 0.821746 0.756637
Si Si6 0.345678 0.321064 0.363503
Si Si7 0.588018 0.677427 0.756421
Si Si8 0.004679 0.821540 0.937246
O O1 0.750000 0.789051 0.380860
O O2 0.591418 0.735933 0.408978
O O3 0.631606 0.765706 0.303077
O O4 0.629190 0.000000 0.369889
O O5 0.996028 0.500000 0.434412
O O6 0.000000 0.261125 0.500000
O O7 0.081105 0.254751 0.404891
O O8 0.750000 0.809950 0.887468
O O9 0.650751 0.721030 0.806973
O O10 0.583356 0.770466 0.906309
O O11 0.635189 0.000000 0.844324
O O12 0.750000 0.314672 0.110201
O O13 0.622607 0.500000 0.140086
O O14 0.653511 0.253720 0.195427
O O15 0.588519 0.244896 0.092501
O O16 0.998319 0.772747 0.764942
O O17 0.105365 0.000000 0.762632
O O18 0.250000 0.257707 0.379637
O O19 0.345043 0.500000 0.367999
O O20 0.366932 0.271386 0.300749
O O21 0.567124 0.500000 0.756437
O O22 0.015030 0.000000 0.936968
O O23 0.000000 0.758507 0.000000
#
# Coordination Sequence:
#
# PCOD8213713 Si02
#       8
#     8   8   8   8   8   8   8   8
#     4  10  22  39  59  84 116 153 191 234 288 348
#     4  10  21  37  58  84 113 149 194 240 286 334
#     4  10  21  37  57  84 118 152 188 235 287 341
#     4  11  24  40  60  89 122 155 192 239 294 349
#     4  11  21  36  60  87 117 153 192 236 293 352
#     4   9  18  33  53  79 113 148 184 228 279 338
#     4  11  20  33  57  85 114 150 189 232 291 350
#     4  10  22  40  62  87 116 155 200 242 285 337
#
# _framework density 19.534528999999999
#
# number of rings (size 3 to 8) (size 9 to 14) (size 15 to 20)
#    0.000    1.750    2.500    1.875    0.000    4.500 
#    0.000    2.500    0.000    1.125    0.000    0.000 
#    0.000    0.000    0.000    0.000    0.000    0.000 
#
# Total GULP energy -793738.404459 kJ/mol
# GULP energy per Si atom -12402.162570 kJ/mol
# Density = 1.949007 g / cm^3
# Si number density = 19.534529 Si / 1000 Ang^3
#
#
#
# Elastic Constant Matrix: (Units=GPa)
#
#
# Indices 1 2 3 4 5 6 
#
# 1 134.2257 15.4878 65.6834 0.0000 0.0000 0.0000
# 2 15.4878 21.9386 30.1484 0.0000 0.0000 0.0000
# 3 65.6834 30.1484 161.4650 0.0000 0.0000 0.0000
# 4 0.0000 0.0000 0.0000 21.8199 0.0000 0.0000
# 5 0.0000 0.0000 0.0000 0.0000 13.7051 0.0000
# 6 0.0000 0.0000 0.0000 0.0000 0.0000 27.5958
#
#
#
# Elastic Compliance Matrix: (Units=1/GPa)
#
#
# Indices 1 2 3 4 5 6 
#
# 1 0.009357 -0.001849 -0.003461 0.000000 0.000000 0.000000
# 2 -0.001849 0.061680 -0.010764 0.000000 0.000000 0.000000
# 3 -0.003461 -0.010764 0.009611 0.000000 0.000000 0.000000
# 4 0.000000 0.000000 0.000000 0.045830 0.000000 0.000000
# 5 0.000000 0.000000 0.000000 0.000000 0.072966 0.000000
# 6 0.000000 0.000000 0.000000 0.000000 0.000000 0.036237
#
#
# Mechanical properties :
#
#
# Convention : Reuss Voigt Hill
#
# Bulk Modulus (GPa) = 20.61927 60.02984 40.32455
# Shear Modulus (GPa) = 17.60581 26.37814 21.99197
#
# Velocity S-wave (km/s) = 3.00537 3.67868 3.35893
# Velocity P-wave (km/s) = 4.75617 6.98859 5.97752
#
# Compressibility (1/GPa) = 0.04849832
#
# Stress axis : x y z
#
# Youngs Moduli (GPa) = 106.86878 16.21274 104.04543
#
# Poissons Ratio (x) = 0.02999 0.36012
# Poissons Ratio (y) = 0.19765 1.11998
# Poissons Ratio (z) = 0.36989 0.17452
#
# Static dielectric constant tensor:
#      x y z
#    x 3.727520 0.000000 0.000000 
#    y 0.000000 3.364890 0.000000 
#    z 0.000000 0.000000 3.700150 
# 
# 
# High freq. dielectric constant tensor:
#      x y z
#    x 1.776050 0.000000 0.000000 
#    y 0.000000 1.742770 0.000000 
#    z 0.000000 0.000000 1.758400 
# 
# From -- ./inp_files/35716.got.cif
#   From: 2010.03.12/outbox.cif.g09.slc.cpg/sg51_18_cif.got.tgz:35716.got - 2010.04.16 13:43:02.
