data_PCOD8213313
_publ_section_title
;
Structure prediction by ZEFSAII (Michael W. Deem and Ramdas Pophale) SiO2 
 PCOD8213313
Probable space group: P M M A
;
_chemical_formula_sum "Si O2"
_cell_formula_units_Z 48
_cell_length_a 9.033502
_cell_length_b 9.201346
_cell_length_c 30.847295
_cell_angle_alpha 90.000000
_cell_angle_beta 90.000000
_cell_angle_gamma 90.000000
_cell_volume 2564.038805
_symmetry_space_group_name_H-M "P M M A"
_symmetry_group_IT_number 51
_symmetry_cell_setting 'orthorhombic'
loop_
_space_group_symop_operation_xyz
x,y,z
1/2-x,-y,z
1/2+x,-y,-z
-x,y,-z
-x,-y,-z
1/2+x,y,-z
1/2-x,y,z
x,-y,z
loop_
_atom_site_type_symbol
_atom_site_label
_atom_site_fract_x
_atom_site_fract_y
_atom_site_fract_z
Si Si1 0.419473 0.330679 0.287919
Si Si2 0.579475 0.170469 0.363696
Si Si3 0.077704 0.670077 0.799671
Si Si4 0.913199 0.172420 0.459494
Si Si5 0.076940 0.332405 0.955092
Si Si6 0.921476 0.171367 0.877607
O O1 0.250000 0.288660 0.278027
O O2 0.437478 0.500000 0.296891
O O3 0.473423 0.249722 0.330448
O O4 0.519498 0.282438 0.247385
O O5 0.750000 0.220007 0.357834
O O6 0.521003 0.211560 0.412096
O O7 0.566326 0.000000 0.355615
O O8 0.250000 0.709716 0.803295
O O9 0.050024 0.500000 0.808023
O O10 0.986231 0.759885 0.834337
O O11 0.750000 0.238289 0.462313
O O12 0.000000 0.242590 0.500000
O O13 0.907906 0.000000 0.464265
O O14 0.250000 0.299969 0.959420
O O15 0.047218 0.500000 0.942790
O O16 0.009374 0.231366 0.918521
O O17 0.000000 0.290979 0.000000
O O18 0.750000 0.214508 0.881916
O O19 0.944046 0.000000 0.875418
#
# Coordination Sequence:
#
# PCOD8213313 Si02
#       6
#     8   8   8   8   8   8
#     4  10  21  36  54  77 104 135 172 214 260 310
#     4   9  18  32  50  74 103 134 169 210 257 309
#     4  10  21  38  60  82 103 134 177 219 261 313
#     4   8  14  25  42  66  96 128 163 204 250 301
#     4  10  21  38  61  87 113 145 186 227 267 313
#     4  11  24  39  56  82 115 148 180 217 265 316
#
# _framework density 18.720465000000001
#
# number of rings (size 3 to 8) (size 9 to 14) (size 15 to 20)
#    0.000    2.333    0.000    3.500    0.000    8.333 
#    0.000    1.667    0.000    0.500    0.000    0.000 
#    0.000    0.000    0.000    0.000    0.000    0.000 
#
# Total GULP energy -595188.886265 kJ/mol
# GULP energy per Si atom -12399.768464 kJ/mol
# Density = 1.867786 g / cm^3
# Si number density = 18.720465 Si / 1000 Ang^3
#
#
#
# Elastic Constant Matrix: (Units=GPa)
#
#
# Indices 1 2 3 4 5 6 
#
# 1 97.0318 40.6146 59.7952 0.0000 0.0000 0.0000
# 2 40.6146 46.0050 49.3505 0.0000 0.0000 0.0000
# 3 59.7952 49.3505 142.3078 0.0000 0.0000 0.0000
# 4 0.0000 0.0000 0.0000 26.7058 0.0000 0.0000
# 5 0.0000 0.0000 0.0000 0.0000 43.3325 0.0000
# 6 0.0000 0.0000 0.0000 0.0000 0.0000 27.7931
#
#
#
# Elastic Compliance Matrix: (Units=1/GPa)
#
#
# Indices 1 2 3 4 5 6 
#
# 1 0.017173 -0.011816 -0.003118 0.000000 0.000000 0.000000
# 2 -0.011816 0.042743 -0.009858 0.000000 0.000000 0.000000
# 3 -0.003118 -0.009858 0.011756 0.000000 0.000000 0.000000
# 4 0.000000 0.000000 0.000000 0.037445 0.000000 0.000000
# 5 0.000000 0.000000 0.000000 0.000000 0.023077 0.000000
# 6 0.000000 0.000000 0.000000 0.000000 0.000000 0.035980
#
#
# Mechanical properties :
#
#
# Convention : Reuss Voigt Hill
#
# Bulk Modulus (GPa) = 45.27375 64.98502 55.12938
# Shear Modulus (GPa) = 22.21020 28.60525 25.40772
#
# Velocity S-wave (km/s) = 3.44817 3.91323 3.68804
# Velocity P-wave (km/s) = 6.33165 7.43011 6.90276
#
# Compressibility (1/GPa) = 0.02208785
#
# Stress axis : x y z
#
# Youngs Moduli (GPa) = 58.22962 23.39561 85.06426
#
# Poissons Ratio (x) = 0.27645 0.26525
# Poissons Ratio (y) = 0.68805 0.83855
# Poissons Ratio (z) = 0.18158 0.23063
#
# Static dielectric constant tensor:
#      x y z
#    x 3.639650 0.000000 0.000000 
#    y 0.000000 3.188610 0.000000 
#    z 0.000000 0.000000 3.751320 
# 
# 
# High freq. dielectric constant tensor:
#      x y z
#    x 1.735810 0.000000 0.000000 
#    y 0.000000 1.700030 0.000000 
#    z 0.000000 0.000000 1.744900 
# 
# From -- ./inp_files/36894.got.cif
#   From: 2010.03.12/outbox.cif.g09.slc.cpg/sg51_19_cif.got.tgz:36894.got - 2010.04.16 13:43:02.
