data_PCOD8213429
_publ_section_title
;
Structure prediction by ZEFSAII (Michael W. Deem and Ramdas Pophale) SiO2 
 PCOD8213429
Probable space group: P M M A
;
_chemical_formula_sum "Si O2"
_cell_formula_units_Z 32
_cell_length_a 9.123669
_cell_length_b 7.676317
_cell_length_c 23.747176
_cell_angle_alpha 90.000000
_cell_angle_beta 90.000000
_cell_angle_gamma 90.000000
_cell_volume 1663.161385
_symmetry_space_group_name_H-M "P M M A"
_symmetry_group_IT_number 51
_symmetry_cell_setting 'orthorhombic'
loop_
_space_group_symop_operation_xyz
x,y,z
1/2-x,-y,z
1/2+x,-y,-z
-x,y,-z
-x,-y,-z
1/2+x,y,-z
1/2-x,y,z
x,-y,z
loop_
_atom_site_type_symbol
_atom_site_label
_atom_site_fract_x
_atom_site_fract_y
_atom_site_fract_z
Si Si1 0.083876 0.798362 0.243077
Si Si2 0.425532 0.500000 0.560250
Si Si3 0.924444 0.000000 0.059753
Si Si4 0.416975 0.307524 0.862329
Si Si5 0.921702 0.201772 0.628927
O O1 0.250000 0.736704 0.236823
O O2 0.031447 0.761985 0.306644
O O3 0.991158 0.690211 0.198653
O O4 0.066622 0.000000 0.228330
O O5 0.250000 0.500000 0.555273
O O6 0.500000 0.500000 0.500000
O O7 0.477697 0.675054 0.591280
O O8 0.982737 0.169157 0.093646
O O9 0.750000 0.000000 0.051401
O O10 0.000000 0.000000 0.000000
O O11 0.250000 0.256643 0.851243
O O12 0.434046 0.500000 0.888889
O O13 0.750000 0.244917 0.619950
O O14 0.951674 0.000000 0.613133
#
# Coordination Sequence:
#
# PCOD8213429 Si02
#       5
#     8   4   4   8   8
#     4   9  18  34  58  87 118 151 189 232 283 342
#     4  12  26  42  62  88 120 160 205 250 297 356
#     4  10  22  40  58  78 110 152 193 242 287 336
#     4  10  21  36  55  82 115 150 187 230 287 345
#     4   9  20  40  63  88 121 159 197 245 299 352
#
# _framework density 19.240466999999999
#
# number of rings (size 3 to 8) (size 9 to 14) (size 15 to 20)
#    0.000    2.250    1.250    2.625    1.750    4.000 
#    0.000    2.500    0.000    0.000    0.000    0.000 
#    0.000    0.000    0.000    0.000    0.000    0.000 
#
# Total GULP energy -396760.121589 kJ/mol
# GULP energy per Si atom -12398.753800 kJ/mol
# Density = 1.919668 g / cm^3
# Si number density = 19.240467 Si / 1000 Ang^3
#
#
#
# Elastic Constant Matrix: (Units=GPa)
#
#
# Indices 1 2 3 4 5 6 
#
# 1 79.6748 52.7717 60.2080 0.0000 0.0000 0.0000
# 2 52.7717 125.5324 73.8675 0.0000 0.0000 0.0000
# 3 60.2080 73.8675 138.8163 0.0000 0.0000 0.0000
# 4 0.0000 0.0000 0.0000 24.3331 0.0000 0.0000
# 5 0.0000 0.0000 0.0000 0.0000 36.6211 0.0000
# 6 0.0000 0.0000 0.0000 0.0000 0.0000 27.9098
#
#
#
# Elastic Compliance Matrix: (Units=1/GPa)
#
#
# Indices 1 2 3 4 5 6 
#
# 1 0.020586 -0.004950 -0.006295 0.000000 0.000000 0.000000
# 2 -0.004950 0.012788 -0.004658 0.000000 0.000000 0.000000
# 3 -0.006295 -0.004658 0.012412 0.000000 0.000000 0.000000
# 4 0.000000 0.000000 0.000000 0.041096 0.000000 0.000000
# 5 0.000000 0.000000 0.000000 0.000000 0.027307 0.000000
# 6 0.000000 0.000000 0.000000 0.000000 0.000000 0.035830
#
#
# Mechanical properties :
#
#
# Convention : Reuss Voigt Hill
#
# Bulk Modulus (GPa) = 71.52320 79.74643 75.63481
# Shear Modulus (GPa) = 26.81180 28.25121 27.53151
#
# Velocity S-wave (km/s) = 3.73703 3.83603 3.78685
# Velocity P-wave (km/s) = 7.47492 7.82032 7.64957
#
# Compressibility (1/GPa) = 0.01398148
#
# Stress axis : x y z
#
# Youngs Moduli (GPa) = 48.57556 78.19971 80.56453
#
# Poissons Ratio (x) = 0.38710 0.50713
# Poissons Ratio (y) = 0.24046 0.37524
# Poissons Ratio (z) = 0.30577 0.36423
#
# Static dielectric constant tensor:
#      x y z
#    x 3.374250 0.000000 0.000000 
#    y 0.000000 3.796340 0.000000 
#    z 0.000000 0.000000 3.478790 
# 
# 
# High freq. dielectric constant tensor:
#      x y z
#    x 1.734250 0.000000 0.000000 
#    y 0.000000 1.761970 0.000000 
#    z 0.000000 0.000000 1.744820 
# 
# From -- ./inp_files/34271.got.cif
#   From: 2010.03.12/outbox.cif.g09.slc.cpg/sg51_18_cif.got.tgz:34271.got - 2010.04.16 13:43:02.
