data_PCOD8213314
_publ_section_title
;
Structure prediction by ZEFSAII (Michael W. Deem and Ramdas Pophale) SiO2 
 PCOD8213314
Probable space group: P M M A
;
_chemical_formula_sum "Si O2"
_cell_formula_units_Z 48
_cell_length_a 9.115366
_cell_length_b 9.126174
_cell_length_c 31.045876
_cell_angle_alpha 90.000000
_cell_angle_beta 90.000000
_cell_angle_gamma 90.000000
_cell_volume 2582.657254
_symmetry_space_group_name_H-M "P M M A"
_symmetry_group_IT_number 51
_symmetry_cell_setting 'orthorhombic'
loop_
_space_group_symop_operation_xyz
x,y,z
1/2-x,-y,z
1/2+x,-y,-z
-x,y,-z
-x,-y,-z
1/2+x,y,-z
1/2-x,y,z
x,-y,z
loop_
_atom_site_type_symbol
_atom_site_label
_atom_site_fract_x
_atom_site_fract_y
_atom_site_fract_z
Si Si1 0.084174 0.174795 0.125948
Si Si2 0.418217 0.672400 0.380552
Si Si3 0.920317 0.830459 0.706046
Si Si4 0.915898 0.174699 0.041974
Si Si5 0.921690 0.831219 0.456399
Si Si6 0.584476 0.174536 0.209434
O O1 0.250000 0.234781 0.124879
O O2 0.998338 0.234599 0.084248
O O3 0.004493 0.236476 0.168547
O O4 0.083723 0.000000 0.126138
O O5 0.250000 0.717338 0.390017
O O6 0.437672 0.500000 0.377633
O O7 0.471298 0.740674 0.335588
O O8 0.520832 0.732662 0.417835
O O9 0.750000 0.806290 0.716347
O O10 0.009958 0.768778 0.746730
O O11 0.955953 0.000000 0.697218
O O12 0.750000 0.235044 0.041745
O O13 0.915465 0.000000 0.041910
O O14 0.000000 0.234842 0.000000
O O15 0.750000 0.805276 0.462232
O O16 0.000000 0.779346 0.500000
O O17 0.959226 0.000000 0.446289
O O18 0.750000 0.234339 0.207229
O O19 0.581401 0.000000 0.208528
#
# Coordination Sequence:
#
# PCOD8213314 Si02
#       6
#     8   8   8   8   8   8
#     4   9  15  22  32  46  66  93 127 170 220 271
#     4  10  21  36  54  77 105 136 168 202 243 291
#     4   9  17  30  48  68  91 121 156 194 236 282
#     4   9  15  21  28  39  58  87 125 168 214 265
#     4  10  21  37  58  82 106 134 169 207 246 288
#     4   9  16  25  38  57  79 103 136 181 229 274
#
# _framework density 18.585508000000001
#
# number of rings (size 3 to 8) (size 9 to 14) (size 15 to 20)
#    0.000    2.667    0.000    2.500    0.000    9.000 
#    0.000    1.667    0.000    0.000    0.000    0.000 
#    0.000    0.000    0.000    0.000    0.000    0.833 
#
# Total GULP energy -595262.573022 kJ/mol
# GULP energy per Si atom -12401.303605 kJ/mol
# Density = 1.854321 g / cm^3
# Si number density = 18.585508 Si / 1000 Ang^3
#
#
#
# Elastic Constant Matrix: (Units=GPa)
#
#
# Indices 1 2 3 4 5 6 
#
# 1 145.6238 25.6609 98.3540 0.0000 0.0000 0.0000
# 2 25.6609 28.9701 37.3545 0.0000 0.0000 0.0000
# 3 98.3540 37.3545 190.0737 0.0000 0.0000 0.0000
# 4 0.0000 0.0000 0.0000 -2.0179 0.0000 0.0000
# 5 0.0000 0.0000 0.0000 0.0000 42.5026 0.0000
# 6 0.0000 0.0000 0.0000 0.0000 0.0000 12.6669
#
#
#
# Elastic Compliance Matrix: (Units=1/GPa)
#
#
# Indices 1 2 3 4 5 6 
#
# 1 0.010767 -0.003152 -0.004952 0.000000 0.000000 0.000000
# 2 -0.003152 0.047157 -0.007637 0.000000 0.000000 0.000000
# 3 -0.004952 -0.007637 0.009324 0.000000 0.000000 0.000000
# 4 0.000000 0.000000 0.000000 -0.495568 0.000000 0.000000
# 5 0.000000 0.000000 0.000000 0.000000 0.023528 0.000000
# 6 0.000000 0.000000 0.000000 0.000000 0.000000 0.078946
#
#
# Mechanical properties :
#
#
# Convention : Reuss Voigt Hill
#
# Bulk Modulus (GPa) = 27.95858 76.37849 52.16853
# Shear Modulus (GPa) = -17.70268 24.18355 3.24043
#
# Velocity S-wave (km/s) = -3.08961 3.61113 1.32186
# Velocity P-wave (km/s) = 1.53242 7.65323 5.51907
#
# Compressibility (1/GPa) = 0.03576720
#
# Stress axis : x y z
#
# Youngs Moduli (GPa) = 92.87672 21.20579 107.24674
#
# Poissons Ratio (x) = 0.06684 0.53108
# Poissons Ratio (y) = 0.29275 0.81900
# Poissons Ratio (z) = 0.45992 0.16194
#
# Static dielectric constant tensor:
#      x y z
#    x 3.559240 0.000000 0.000000 
#    y 0.000000 2.786530 0.000000 
#    z 0.000000 0.000000 3.627680 
# 
# 
# High freq. dielectric constant tensor:
#      x y z
#    x 1.731730 0.000000 0.000000 
#    y 0.000000 1.652480 0.000000 
#    z 0.000000 0.000000 1.739430 
# 
# From -- ./inp_files/37037.got.cif
#   From: 2010.03.12/outbox.cif.g09.slc.cpg/sg51_19_cif.got.tgz:37037.got - 2010.04.16 13:43:02.
