data_PCOD8213257
_publ_section_title
;
Structure prediction by ZEFSAII (Michael W. Deem and Ramdas Pophale) SiO2 
 PCOD8213257
Probable space group: P M M A
;
_chemical_formula_sum "Si O2"
_cell_formula_units_Z 56
_cell_length_a 14.184221
_cell_length_b 9.120669
_cell_length_c 23.600527
_cell_angle_alpha 90.000000
_cell_angle_beta 90.000000
_cell_angle_gamma 90.000000
_cell_volume 3053.190378
_symmetry_space_group_name_H-M "P M M A"
_symmetry_group_IT_number 51
_symmetry_cell_setting 'orthorhombic'
loop_
_space_group_symop_operation_xyz
x,y,z
1/2-x,-y,z
1/2+x,-y,-z
-x,y,-z
-x,-y,-z
1/2+x,y,-z
1/2-x,y,z
x,-y,z
loop_
_atom_site_type_symbol
_atom_site_label
_atom_site_fract_x
_atom_site_fract_y
_atom_site_fract_z
Si Si1 0.861422 0.333354 0.060853
Si Si2 0.358290 0.830423 0.345857
Si Si3 0.988210 0.327592 0.737681
Si Si4 0.357240 0.328832 0.646824
Si Si5 0.857737 0.831616 0.949609
Si Si6 0.487522 0.170877 0.563323
Si Si7 0.991152 0.828322 0.143484
O O1 0.750000 0.323070 0.065179
O O2 0.897436 0.500000 0.064405
O O3 0.900873 0.241198 0.113186
O O4 0.896292 0.265327 0.001467
O O5 0.250000 0.790134 0.357765
O O6 0.396067 0.730742 0.294802
O O7 0.416345 0.795291 0.402790
O O8 0.370144 0.000000 0.328256
O O9 0.977814 0.500000 0.747604
O O10 0.994567 0.246761 0.796779
O O11 0.082145 0.287900 0.702282
O O12 0.250000 0.277625 0.657540
O O13 0.363238 0.500000 0.634212
O O14 0.398188 0.248332 0.591898
O O15 0.750000 0.793315 0.935047
O O16 0.916492 0.795052 0.893729
O O17 0.869750 0.000000 0.968177
O O18 0.500000 0.233142 0.500000
O O19 0.464022 0.000000 0.562003
O O20 0.973856 0.000000 0.152010
#
# Coordination Sequence:
#
# PCOD8213257 Si02
#       7
#     8   8   8   8   8   8   8
#     4  10  21  36  54  77 105 136 170 211 259 308
#     4   9  18  34  54  74 102 141 178 213 258 309
#     4  10  21  36  53  75 103 134 173 221 265 307
#     4   9  19  36  55  74 101 139 177 213 258 308
#     4   9  19  36  55  75 102 135 169 207 255 312
#     4   9  18  32  52  81 112 138 170 213 256 302
#     4  11  22  35  54  79 105 136 173 212 259 313
#
# _framework density 18.341470000000001
#
# number of rings (size 3 to 8) (size 9 to 14) (size 15 to 20)
#    0.000    2.429    0.000    1.714    0.000    6.857 
#    0.000    4.286    0.000    0.000    0.000    0.000 
#    0.000    0.000    0.000    0.000    0.000    0.000 
#
# Total GULP energy -694584.650610 kJ/mol
# GULP energy per Si atom -12403.297332 kJ/mol
# Density = 1.829972 g / cm^3
# Si number density = 18.341470 Si / 1000 Ang^3
#
#
#
# Elastic Constant Matrix: (Units=GPa)
#
#
# Indices 1 2 3 4 5 6 
#
# 1 104.0699 46.5967 53.9138 0.0000 0.0000 0.0000
# 2 46.5967 89.2088 71.3176 0.0000 0.0000 0.0000
# 3 53.9138 71.3176 156.0632 0.0000 0.0000 0.0000
# 4 0.0000 0.0000 0.0000 27.5711 0.0000 0.0000
# 5 0.0000 0.0000 0.0000 0.0000 15.6840 0.0000
# 6 0.0000 0.0000 0.0000 0.0000 0.0000 29.0484
#
#
#
# Elastic Compliance Matrix: (Units=1/GPa)
#
#
# Indices 1 2 3 4 5 6 
#
# 1 0.012999 -0.005042 -0.002187 0.000000 0.000000 0.000000
# 2 -0.005042 0.019618 -0.007223 0.000000 0.000000 0.000000
# 3 -0.002187 -0.007223 0.010464 0.000000 0.000000 0.000000
# 4 0.000000 0.000000 0.000000 0.036270 0.000000 0.000000
# 5 0.000000 0.000000 0.000000 0.000000 0.063759 0.000000
# 6 0.000000 0.000000 0.000000 0.000000 0.000000 0.034425
#
#
# Mechanical properties :
#
#
# Convention : Reuss Voigt Hill
#
# Bulk Modulus (GPa) = 70.53417 76.99980 73.76698
# Shear Modulus (GPa) = 23.67824 26.29494 24.98659
#
# Velocity S-wave (km/s) = 3.59690 3.79044 3.69494
# Velocity P-wave (km/s) = 7.46926 7.82490 7.64915
#
# Compressibility (1/GPa) = 0.01417753
#
# Stress axis : x y z
#
# Youngs Moduli (GPa) = 76.92788 50.97466 95.56662
#
# Poissons Ratio (x) = 0.25700 0.20898
# Poissons Ratio (y) = 0.38785 0.69029
# Poissons Ratio (z) = 0.16822 0.36820
#
# Static dielectric constant tensor:
#      x y z
#    x 3.515830 0.000000 0.000000 
#    y 0.000000 3.469190 0.000000 
#    z 0.000000 0.000000 3.391660 
# 
# 
# High freq. dielectric constant tensor:
#      x y z
#    x 1.715290 0.000000 0.000000 
#    y 0.000000 1.714610 0.000000 
#    z 0.000000 0.000000 1.709360 
# 
# From -- ./inp_files/33344.got.cif
#   From: 2010.03.12/outbox.cif.g09.slc.cpg/sg51_17_cif.got.tgz:33344.got - 2010.04.16 13:43:02.
