data_PCOD8213568
_publ_section_title
;
Structure prediction by ZEFSAII (Michael W. Deem and Ramdas Pophale) SiO2 
 PCOD8213568
Probable space group: P M M A
;
_chemical_formula_sum "Si O2"
_cell_formula_units_Z 56
_cell_length_a 8.938702
_cell_length_b 14.327353
_cell_length_c 23.129968
_cell_angle_alpha 90.000000
_cell_angle_beta 90.000000
_cell_angle_gamma 90.000000
_cell_volume 2962.207329
_symmetry_space_group_name_H-M "P M M A"
_symmetry_group_IT_number 51
_symmetry_cell_setting 'orthorhombic'
loop_
_space_group_symop_operation_xyz
x,y,z
1/2-x,-y,z
1/2+x,-y,-z
-x,y,-z
-x,-y,-z
1/2+x,y,-z
1/2-x,y,z
x,-y,z
loop_
_atom_site_type_symbol
_atom_site_label
_atom_site_fract_x
_atom_site_fract_y
_atom_site_fract_z
Si Si1 0.926050 0.222408 0.941426
Si Si2 0.922766 0.606411 0.108233
Si Si3 0.574502 0.393753 0.440213
Si Si4 0.081081 0.390757 0.759224
Si Si5 0.079408 0.109447 0.841584
Si Si6 0.421818 0.713583 0.339089
Si Si7 0.578008 0.105034 0.723750
O O1 0.750000 0.216211 0.947785
O O2 0.975321 0.329536 0.932157
O O3 0.978041 0.159789 0.888346
O O4 0.000000 0.183449 0.000000
O O5 0.750000 0.618574 0.090623
O O6 0.974426 0.500000 0.099377
O O7 0.945863 0.637784 0.174516
O O8 0.500000 0.362932 0.500000
O O9 0.750000 0.384872 0.447969
O O10 0.528434 0.500000 0.423768
O O11 0.523219 0.323123 0.390840
O O12 0.250000 0.364365 0.740222
O O13 0.055814 0.500000 0.750848
O O14 0.961327 0.337654 0.720497
O O15 0.250000 0.143958 0.847812
O O16 0.024311 0.135415 0.777506
O O17 0.064233 0.000000 0.852337
O O18 0.250000 0.693106 0.354352
O O19 0.451172 0.824232 0.329527
O O20 0.750000 0.111383 0.744123
O O21 0.538483 0.000000 0.702844
#
# Coordination Sequence:
#
# PCOD8213568 Si02
#       7
#     8   8   8   8   8   8   8
#     4  12  25  39  56  77 103 136 175 219 265 318
#     4   9  19  37  58  78 104 138 175 218 267 317
#     4  10  21  37  56  78 108 146 184 222 264 310
#     4   9  18  32  50  74 105 139 171 207 257 313
#     4  10  21  38  60  84 109 137 171 215 269 326
#     4  11  21  31  50  80 110 142 179 219 261 305
#     4   9  19  36  56  80 111 144 177 215 262 315
#
# _framework density 18.904820999999998
#
# number of rings (size 3 to 8) (size 9 to 14) (size 15 to 20)
#    0.000    2.000    0.000    4.714    0.000    8.571 
#    0.000    1.429    0.000    0.429    0.000    0.000 
#    0.000    0.000    0.000    0.000    0.000    0.000 
#
# Total GULP energy -694580.370626 kJ/mol
# GULP energy per Si atom -12403.220904 kJ/mol
# Density = 1.886179 g / cm^3
# Si number density = 18.904821 Si / 1000 Ang^3
#
#
#
# Elastic Constant Matrix: (Units=GPa)
#
#
# Indices 1 2 3 4 5 6 
#
# 1 101.7091 37.0744 43.9750 0.0000 0.0000 0.0000
# 2 37.0744 67.2138 50.8201 0.0000 0.0000 0.0000
# 3 43.9750 50.8201 81.4220 0.0000 0.0000 0.0000
# 4 0.0000 0.0000 0.0000 22.9506 0.0000 0.0000
# 5 0.0000 0.0000 0.0000 0.0000 36.0284 0.0000
# 6 0.0000 0.0000 0.0000 0.0000 0.0000 28.1288
#
#
#
# Elastic Compliance Matrix: (Units=1/GPa)
#
#
# Indices 1 2 3 4 5 6 
#
# 1 0.013272 -0.003600 -0.004921 0.000000 0.000000 0.000000
# 2 -0.003600 0.029150 -0.016250 0.000000 0.000000 0.000000
# 3 -0.004921 -0.016250 0.025082 0.000000 0.000000 0.000000
# 4 0.000000 0.000000 0.000000 0.043572 0.000000 0.000000
# 5 0.000000 0.000000 0.000000 0.000000 0.027756 0.000000
# 6 0.000000 0.000000 0.000000 0.000000 0.000000 0.035551
#
#
# Mechanical properties :
#
#
# Convention : Reuss Voigt Hill
#
# Bulk Modulus (GPa) = 55.67259 57.12043 56.39651
# Shear Modulus (GPa) = 21.74749 25.31994 23.53371
#
# Velocity S-wave (km/s) = 3.39539 3.66367 3.53207
# Velocity P-wave (km/s) = 6.69958 6.94096 6.82134
#
# Compressibility (1/GPa) = 0.01796216
#
# Stress axis : x y z
#
# Youngs Moduli (GPa) = 75.34761 34.30526 39.86902
#
# Poissons Ratio (x) = 0.12349 0.19620
# Poissons Ratio (y) = 0.27123 0.64787
# Poissons Ratio (z) = 0.37080 0.55746
#
# Static dielectric constant tensor:
#      x y z
#    x 3.481560 0.000000 0.000000 
#    y 0.000000 3.587480 0.000000 
#    z 0.000000 0.000000 3.327740 
# 
# 
# High freq. dielectric constant tensor:
#      x y z
#    x 1.739210 0.000000 0.000000 
#    y 0.000000 1.737980 0.000000 
#    z 0.000000 0.000000 1.719030 
# 
# From -- ./inp_files/31918.got.cif
#   From: 2010.03.12/outbox.cif.g09.slc.cpg/sg51_16_cif.got.tgz:31918.got - 2010.04.16 13:43:02.
