data_PCOD8213216
_publ_section_title
;
Structure prediction by ZEFSAII (Michael W. Deem and Ramdas Pophale) SiO2 
 PCOD8213216
Probable space group: P M M A
;
_chemical_formula_sum "Si O2"
_cell_formula_units_Z 48
_cell_length_a 8.544515
_cell_length_b 31.248342
_cell_length_c 9.146964
_cell_angle_alpha 90.000000
_cell_angle_beta 90.000000
_cell_angle_gamma 90.000000
_cell_volume 2442.257014
_symmetry_space_group_name_H-M "P M M A"
_symmetry_group_IT_number 51
_symmetry_cell_setting 'orthorhombic'
loop_
_space_group_symop_operation_xyz
x,y,z
1/2-x,-y,z
1/2+x,-y,-z
-x,y,-z
-x,-y,-z
1/2+x,y,-z
1/2-x,y,z
x,-y,z
loop_
_atom_site_type_symbol
_atom_site_label
_atom_site_fract_x
_atom_site_fract_y
_atom_site_fract_z
Si Si1 0.065549 0.158099 0.664273
Si Si2 0.433146 0.338212 0.339144
Si Si3 0.565078 0.920513 0.837916
Si Si4 0.933562 0.244695 0.660495
Si Si5 0.064973 0.000000 0.661986
Si Si6 0.564397 0.418189 0.839298
Si Si7 0.564801 0.500000 0.661398
O O1 0.250000 0.150199 0.663763
O O2 0.000000 0.154390 0.500000
O O3 0.982102 0.124226 0.767245
O O4 0.024139 0.204750 0.734438
O O5 0.500000 0.344008 0.500000
O O6 0.250000 0.344411 0.356709
O O7 0.468755 0.291188 0.267280
O O8 0.502488 0.374452 0.232364
O O9 0.750000 0.925363 0.841259
O O10 0.492976 0.958088 0.743089
O O11 0.500000 0.923571 0.000000
O O12 0.750000 0.233988 0.657354
O O13 0.000000 0.249129 0.500000
O O14 0.000000 0.000000 0.500000
O O15 0.250000 0.000000 0.656688
O O16 0.750000 0.417564 0.845591
O O17 0.502142 0.458052 0.744737
O O18 0.500000 0.423062 0.000000
O O19 0.750000 0.500000 0.655300
O O20 0.500000 0.500000 0.500000
#
# Coordination Sequence:
#
# PCOD8213216 Si02
#       7
#     8   8   8   8   4   8   4
#     4  11  21  36  58  86 116 151 192 237 283 334
#     4   9  18  32  52  77 106 138 180 227 274 324
#     4  12  25  43  63  88 120 156 193 235 285 340
#     4   9  16  29  50  77 107 141 180 230 279 325
#     4  12  25  44  67  94 122 154 194 238 283 332
#     4  10  21  36  52  76 107 141 177 219 267 324
#     4  10  21  36  56  80 106 134 175 222 268 320
#
# _framework density 19.653949999999998
#
# number of rings (size 3 to 8) (size 9 to 14) (size 15 to 20)
#    0.000    1.667    0.000    6.750    0.000    2.000 
#    0.000    0.833    0.000    2.000    0.000    0.000 
#    0.000    0.000    0.000    0.000    0.000    0.000 
#
# Total GULP energy -595074.759477 kJ/mol
# GULP energy per Si atom -12397.390822 kJ/mol
# Density = 1.960922 g / cm^3
# Si number density = 19.653950 Si / 1000 Ang^3
#
#
#
# Elastic Constant Matrix: (Units=GPa)
#
#
# Indices 1 2 3 4 5 6 
#
# 1 101.8859 45.4646 39.7094 0.0000 0.0000 0.0000
# 2 45.4646 186.9021 85.9167 0.0000 0.0000 0.0000
# 3 39.7094 85.9167 136.8956 0.0000 0.0000 0.0000
# 4 0.0000 0.0000 0.0000 -20.0828 0.0000 0.0000
# 5 0.0000 0.0000 0.0000 0.0000 32.4700 0.0000
# 6 0.0000 0.0000 0.0000 0.0000 0.0000 -16.6735
#
#
#
# Elastic Compliance Matrix: (Units=1/GPa)
#
#
# Indices 1 2 3 4 5 6 
#
# 1 0.011469 -0.001772 -0.002215 0.000000 0.000000 0.000000
# 2 -0.001772 0.007794 -0.004377 0.000000 0.000000 0.000000
# 3 -0.002215 -0.004377 0.010695 0.000000 0.000000 0.000000
# 4 0.000000 0.000000 0.000000 -0.049794 0.000000 0.000000
# 5 0.000000 0.000000 0.000000 0.000000 0.030798 0.000000
# 6 0.000000 0.000000 0.000000 0.000000 0.000000 -0.059975
#
#
# Mechanical properties :
#
#
# Convention : Reuss Voigt Hill
#
# Bulk Modulus (GPa) = 75.59108 85.31834 80.45471
# Shear Modulus (GPa) = -179.35828 16.11560 -81.62134
#
# Velocity S-wave (km/s) = -9.56328 2.86661 -6.45131
# Velocity P-wave (km/s) = 9.13220 7.37978 3.80368
#
# Compressibility (1/GPa) = 0.01322907
#
# Stress axis : x y z
#
# Youngs Moduli (GPa) = 87.19395 128.31031 93.50528
#
# Poissons Ratio (x) = 0.22732 0.20710
# Poissons Ratio (y) = 0.15448 0.40931
# Poissons Ratio (z) = 0.19312 0.56167
#
# Static dielectric constant tensor:
#      x y z
#    x 3.651510 0.000000 0.000000 
#    y 0.000000 4.548660 0.000000 
#    z 0.000000 0.000000 3.446100 
# 
# 
# High freq. dielectric constant tensor:
#      x y z
#    x 1.771800 0.000000 0.000000 
#    y 0.000000 1.796510 0.000000 
#    z 0.000000 0.000000 1.743620 
# 
# From -- ./inp_files/6107.got.cif
#   From: 2010.03.12/outbox.cif.g09.slc.cpg/sg51_4_cif.got.tgz:6107.got - 2010.04.16 13:43:02.
