data_PCOD8213584
_publ_section_title
;
Structure prediction by ZEFSAII (Michael W. Deem and Ramdas Pophale) SiO2 
 PCOD8213584
Probable space group: P M M A
;
_chemical_formula_sum "Si O2"
_cell_formula_units_Z 52
_cell_length_a 8.951209
_cell_length_b 10.244593
_cell_length_c 29.841555
_cell_angle_alpha 90.000000
_cell_angle_beta 90.000000
_cell_angle_gamma 90.000000
_cell_volume 2736.515149
_symmetry_space_group_name_H-M "P M M A"
_symmetry_group_IT_number 51
_symmetry_cell_setting 'orthorhombic'
loop_
_space_group_symop_operation_xyz
x,y,z
1/2-x,-y,z
1/2+x,-y,-z
-x,y,-z
-x,-y,-z
1/2+x,y,-z
1/2-x,y,z
x,-y,z
loop_
_atom_site_type_symbol
_atom_site_label
_atom_site_fract_x
_atom_site_fract_y
_atom_site_fract_z
Si Si1 0.577873 0.500000 0.453145
Si Si2 0.925453 0.727021 0.385980
Si Si3 0.081351 0.844250 0.955530
Si Si4 0.426621 0.650935 0.293200
Si Si5 0.582935 0.154061 0.867855
Si Si6 0.586482 0.148378 0.542009
Si Si7 0.573454 0.151264 0.223784
O O1 0.750000 0.500000 0.463120
O O2 0.500000 0.500000 0.500000
O O3 0.531156 0.377675 0.423431
O O4 0.750000 0.741854 0.376302
O O5 0.006254 0.690895 0.340486
O O6 0.995525 0.852930 0.410461
O O7 0.250000 0.790585 0.954954
O O8 0.994796 0.787734 0.912263
O O9 0.081406 0.000000 0.954796
O O10 0.000000 0.791689 0.000000
O O11 0.250000 0.670153 0.294114
O O12 0.468341 0.500000 0.282044
O O13 0.495394 0.749827 0.257505
O O14 0.750000 0.212900 0.862765
O O15 0.483003 0.191556 0.825301
O O16 0.593508 0.000000 0.872815
O O17 0.500000 0.217087 0.500000
O O18 0.750000 0.215731 0.547262
O O19 0.611639 0.000000 0.528457
O O20 0.750000 0.170739 0.226058
O O21 0.531134 0.000000 0.234953
#
# Coordination Sequence:
#
# PCOD8213584 Si02
#       7
#     4   8   8   8   8   8   8
#     4  10  22  36  54  80 106 132 162 200 243 294
#     4  11  22  38  58  80 106 137 172 210 257 310
#     4   9  15  22  34  56  90 133 179 224 273 331
#     4  11  24  41  61  84 111 145 183 227 279 332
#     4   9  16  27  44  67  98 136 178 226 277 329
#     4  10  21  37  56  80 110 142 176 213 254 304
#     4  10  21  37  58  83 110 144 186 231 280 334
#
# _framework density 19.002271
#
# number of rings (size 3 to 8) (size 9 to 14) (size 15 to 20)
#    0.000    2.000    0.769    3.231    0.000    9.538 
#    0.000    0.000    0.000    0.000    0.000    0.000 
#    0.000    0.615    0.000    2.308    0.000    5.077 
#
# Total GULP energy -644563.234077 kJ/mol
# GULP energy per Si atom -12395.446809 kJ/mol
# Density = 1.895902 g / cm^3
# Si number density = 19.002271 Si / 1000 Ang^3
#
#
#
# Elastic Constant Matrix: (Units=GPa)
#
#
# Indices 1 2 3 4 5 6 
#
# 1 141.8901 40.4885 85.0959 0.0000 0.0000 0.0000
# 2 40.4885 48.1723 50.8359 0.0000 0.0000 0.0000
# 3 85.0959 50.8359 176.6563 0.0000 0.0000 0.0000
# 4 0.0000 0.0000 0.0000 14.7754 0.0000 0.0000
# 5 0.0000 0.0000 0.0000 0.0000 44.3095 0.0000
# 6 0.0000 0.0000 0.0000 0.0000 0.0000 15.4996
#
#
#
# Elastic Compliance Matrix: (Units=1/GPa)
#
#
# Indices 1 2 3 4 5 6 
#
# 1 0.010722 -0.005115 -0.003693 0.000000 0.000000 0.000000
# 2 -0.005115 0.032252 -0.006817 0.000000 0.000000 0.000000
# 3 -0.003693 -0.006817 0.009401 0.000000 0.000000 0.000000
# 4 0.000000 0.000000 0.000000 0.067680 0.000000 0.000000
# 5 0.000000 0.000000 0.000000 0.000000 0.022569 0.000000
# 6 0.000000 0.000000 0.000000 0.000000 0.000000 0.064518
#
#
# Mechanical properties :
#
#
# Convention : Reuss Voigt Hill
#
# Bulk Modulus (GPa) = 47.33619 79.95103 63.64361
# Shear Modulus (GPa) = 20.37216 27.60347 23.98781
#
# Velocity S-wave (km/s) = 3.27783 3.81549 3.55683
# Velocity P-wave (km/s) = 6.26821 7.84706 7.10165
#
# Compressibility (1/GPa) = 0.02112548
#
# Stress axis : x y z
#
# Youngs Moduli (GPa) = 93.26655 31.00602 106.36654
#
# Poissons Ratio (x) = 0.15858 0.39281
# Poissons Ratio (y) = 0.47701 0.72514
# Poissons Ratio (z) = 0.34443 0.21138
#
# Static dielectric constant tensor:
#      x y z
#    x 3.791980 0.000000 0.000000 
#    y 0.000000 3.309970 0.000000 
#    z 0.000000 0.000000 3.742240 
# 
# 
# High freq. dielectric constant tensor:
#      x y z
#    x 1.760570 0.000000 0.000000 
#    y 0.000000 1.691980 0.000000 
#    z 0.000000 0.000000 1.747650 
# 
# From -- ./inp_files/36245.got.cif
#   From: 2010.03.12/outbox.cif.g09.slc.cpg/sg51_19_cif.got.tgz:36245.got - 2010.04.16 13:43:02.
