data_PCOD8213878
_publ_section_title
;
Structure prediction by ZEFSAII (Michael W. Deem and Ramdas Pophale) SiO2 
 PCOD8213878
Probable space group: P M M A
;
_chemical_formula_sum "Si O2"
_cell_formula_units_Z 48
_cell_length_a 33.853647
_cell_length_b 9.060208
_cell_length_c 7.653342
_cell_angle_alpha 90.000000
_cell_angle_beta 90.000000
_cell_angle_gamma 90.000000
_cell_volume 2347.441350
_symmetry_space_group_name_H-M "P M M A"
_symmetry_group_IT_number 51
_symmetry_cell_setting 'orthorhombic'
loop_
_space_group_symop_operation_xyz
x,y,z
1/2-x,-y,z
1/2+x,-y,-z
-x,y,-z
-x,-y,-z
1/2+x,y,-z
1/2-x,y,z
x,-y,z
loop_
_atom_site_type_symbol
_atom_site_label
_atom_site_fract_x
_atom_site_fract_y
_atom_site_fract_z
Si Si1 0.417182 0.837730 0.204292
Si Si2 0.508146 0.659977 0.698384
Si Si3 0.295524 0.670082 0.472339
Si Si4 0.159019 0.671783 0.130074
Si Si5 0.846368 0.824884 0.235382
Si Si6 0.433565 0.839126 0.801674
O O1 0.454930 0.768089 0.296325
O O2 0.379696 0.732702 0.228691
O O3 0.409063 0.000000 0.287593
O O4 0.426062 0.858878 0.003716
O O5 0.500000 0.631408 0.500000
O O6 0.516874 0.500000 0.787696
O O7 0.469047 0.725734 0.785075
O O8 0.250000 0.710949 0.498020
O O9 0.304129 0.500000 0.519555
O O10 0.305928 0.699577 0.268889
O O11 0.320128 0.770976 0.604245
O O12 0.153096 0.500000 0.088009
O O13 0.168146 0.753344 0.947464
O O14 0.892065 0.781432 0.280054
O O15 0.842474 0.000000 0.213116
O O16 0.445016 0.000000 0.721916
#
# Coordination Sequence:
#
# PCOD8213878 Si02
#       6
#     8   8   8   8   8   8
#     4  10  21  38  59  82 112 151 196 244 296 352
#     4  11  24  36  50  80 116 151 195 243 290 345
#     4  10  23  42  64  91 123 160 200 245 300 362
#     4  10  21  39  64  92 123 161 204 250 302 360
#     4  10  22  40  63  93 125 159 202 249 302 361
#     4   9  20  38  57  80 110 149 193 238 291 351
#
# _framework density 20.447794999999999
#
# number of rings (size 3 to 8) (size 9 to 14) (size 15 to 20)
#    0.000    2.000    0.000    3.500    2.333    9.667 
#    0.000    1.667    0.000    0.000    0.000    0.000 
#    0.000    0.000    0.000    0.000    0.000    0.000 
#
# Total GULP energy -595065.034376 kJ/mol
# GULP energy per Si atom -12397.188216 kJ/mol
# Density = 2.040125 g / cm^3
# Si number density = 20.447795 Si / 1000 Ang^3
#
#
#
# Elastic Constant Matrix: (Units=GPa)
#
#
# Indices 1 2 3 4 5 6 
#
# 1 56.9085 27.6604 11.4877 0.0000 0.0000 0.0000
# 2 27.6604 117.4876 24.9544 0.0000 0.0000 0.0000
# 3 11.4877 24.9544 33.7086 0.0000 0.0000 0.0000
# 4 0.0000 0.0000 0.0000 15.6481 0.0000 0.0000
# 5 0.0000 0.0000 0.0000 0.0000 34.5966 0.0000
# 6 0.0000 0.0000 0.0000 0.0000 0.0000 25.8707
#
#
#
# Elastic Compliance Matrix: (Units=1/GPa)
#
#
# Indices 1 2 3 4 5 6 
#
# 1 0.020289 -0.003925 -0.004009 0.000000 0.000000 0.000000
# 2 -0.003925 0.010859 -0.006701 0.000000 0.000000 0.000000
# 3 -0.004009 -0.006701 0.035993 0.000000 0.000000 0.000000
# 4 0.000000 0.000000 0.000000 0.063905 0.000000 0.000000
# 5 0.000000 0.000000 0.000000 0.000000 0.028905 0.000000
# 6 0.000000 0.000000 0.000000 0.000000 0.000000 0.038654
#
#
# Mechanical properties :
#
#
# Convention : Reuss Voigt Hill
#
# Bulk Modulus (GPa) = 26.40534 37.36774 31.88654
# Shear Modulus (GPa) = 20.79014 24.82323 22.80668
#
# Velocity S-wave (km/s) = 3.19210 3.48800 3.34333
# Velocity P-wave (km/s) = 5.15049 5.87673 5.52555
#
# Compressibility (1/GPa) = 0.03787112
#
# Stress axis : x y z
#
# Youngs Moduli (GPa) = 49.28743 92.08942 27.78321
#
# Poissons Ratio (x) = 0.36148 0.11137
# Poissons Ratio (y) = 0.19347 0.18618
# Poissons Ratio (z) = 0.19757 0.61711
#
# Static dielectric constant tensor:
#      x y z
#    x 3.621680 0.000000 0.000000 
#    y 0.000000 3.449810 0.000000 
#    z 0.000000 0.000000 3.592140 
# 
# 
# High freq. dielectric constant tensor:
#      x y z
#    x 1.794890 0.000000 0.000000 
#    y 0.000000 1.811780 0.000000 
#    z 0.000000 0.000000 1.797720 
# 
# From -- ./inp_files/12806.got.cif
#   From: 2010.03.12/outbox.cif.g09.slc.cpg/sg51_7_cif.got.tgz:12806.got - 2010.04.16 13:43:02.
