data_PCOD8213362
_publ_section_title
;
Structure prediction by ZEFSAII (Michael W. Deem and Ramdas Pophale) SiO2 
 PCOD8213362
Probable space group: P M M A
;
_chemical_formula_sum "Si O2"
_cell_formula_units_Z 48
_cell_length_a 30.086528
_cell_length_b 9.200968
_cell_length_c 9.095881
_cell_angle_alpha 90.000000
_cell_angle_beta 90.000000
_cell_angle_gamma 90.000000
_cell_volume 2517.968907
_symmetry_space_group_name_H-M "P M M A"
_symmetry_group_IT_number 51
_symmetry_cell_setting 'orthorhombic'
loop_
_space_group_symop_operation_xyz
x,y,z
1/2-x,-y,z
1/2+x,-y,-z
-x,y,-z
-x,-y,-z
1/2+x,y,-z
1/2-x,y,z
x,-y,z
loop_
_atom_site_type_symbol
_atom_site_label
_atom_site_fract_x
_atom_site_fract_y
_atom_site_fract_z
Si Si1 0.457086 0.171342 0.407209
Si Si2 0.300115 0.666343 0.384678
Si Si3 0.118314 0.332298 0.580330
Si Si4 0.698498 0.830519 0.906629
Si Si5 0.127604 0.669498 0.914216
Si Si6 0.458567 0.668512 0.102249
O O1 0.500000 0.217314 0.500000
O O2 0.413924 0.234342 0.484947
O O3 0.462191 0.234616 0.245542
O O4 0.451776 0.000000 0.395290
O O5 0.250000 0.707332 0.432873
O O6 0.303118 0.500000 0.331315
O O7 0.331515 0.694128 0.524085
O O8 0.316396 0.763783 0.248985
O O9 0.104111 0.500000 0.561528
O O10 0.115498 0.283400 0.749031
O O11 0.750000 0.797014 0.937820
O O12 0.688242 0.000000 0.901425
O O13 0.670586 0.758903 0.036941
O O14 0.139475 0.500000 0.920596
O O15 0.086276 0.709118 0.017043
O O16 0.459107 0.500000 0.148353
O O17 0.500000 0.707046 0.000000
#
# Coordination Sequence:
#
# PCOD8213362 Si02
#       6
#     8   8   8   8   8   8
#     4  11  24  39  56  81 112 145 181 222 270 322
#     4   9  18  34  56  81 108 139 178 223 268 316
#     4  10  21  37  58  83 110 142 181 223 269 322
#     4  10  21  36  54  78 109 146 185 223 268 322
#     4  10  21  36  56  83 111 141 180 225 272 321
#     4  10  21  38  60  84 110 142 181 224 271 323
#
# _framework density 19.062982999999999
#
# number of rings (size 3 to 8) (size 9 to 14) (size 15 to 20)
#    0.000    2.000    0.000    3.000    0.000   10.667 
#    0.000    1.667    0.000    2.000    0.000    0.000 
#    0.000    0.000    0.000    0.000    0.000    0.000 
#
# Total GULP energy -595449.501649 kJ/mol
# GULP energy per Si atom -12405.197951 kJ/mol
# Density = 1.901959 g / cm^3
# Si number density = 19.062983 Si / 1000 Ang^3
#
#
#
# Elastic Constant Matrix: (Units=GPa)
#
#
# Indices 1 2 3 4 5 6 
#
# 1 101.9865 50.5498 61.2947 0.0000 0.0000 0.0000
# 2 50.5498 72.8896 58.6739 0.0000 0.0000 0.0000
# 3 61.2947 58.6739 134.6133 0.0000 0.0000 0.0000
# 4 0.0000 0.0000 0.0000 8.8513 0.0000 0.0000
# 5 0.0000 0.0000 0.0000 0.0000 34.0512 0.0000
# 6 0.0000 0.0000 0.0000 0.0000 0.0000 27.9693
#
#
#
# Elastic Compliance Matrix: (Units=1/GPa)
#
#
# Indices 1 2 3 4 5 6 
#
# 1 0.016110 -0.008115 -0.003799 0.000000 0.000000 0.000000
# 2 -0.008115 0.025222 -0.007299 0.000000 0.000000 0.000000
# 3 -0.003799 -0.007299 0.012340 0.000000 0.000000 0.000000
# 4 0.000000 0.000000 0.000000 0.112977 0.000000 0.000000
# 5 0.000000 0.000000 0.000000 0.000000 0.029368 0.000000
# 6 0.000000 0.000000 0.000000 0.000000 0.000000 0.035753
#
#
# Mechanical properties :
#
#
# Convention : Reuss Voigt Hill
#
# Bulk Modulus (GPa) = 65.58256 72.28067 68.93161
# Shear Modulus (GPa) = 18.16346 23.43911 20.80129
#
# Velocity S-wave (km/s) = 3.09012 3.51031 3.30690
# Velocity P-wave (km/s) = 6.87092 7.37759 7.12876
#
# Compressibility (1/GPa) = 0.01524796
#
# Stress axis : x y z
#
# Youngs Moduli (GPa) = 62.07160 39.64731 81.03993
#
# Poissons Ratio (x) = 0.32174 0.30784
# Poissons Ratio (y) = 0.50371 0.59148
# Poissons Ratio (z) = 0.23579 0.28937
#
# Static dielectric constant tensor:
#      x y z
#    x 3.634040 0.000000 0.000000 
#    y 0.000000 3.456390 0.000000 
#    z 0.000000 0.000000 3.510440 
# 
# 
# High freq. dielectric constant tensor:
#      x y z
#    x 1.754270 0.000000 0.000000 
#    y 0.000000 1.736410 0.000000 
#    z 0.000000 0.000000 1.745040 
# 
# From -- ./inp_files/12731.got.cif
#   From: 2010.03.12/outbox.cif.g09.slc.cpg/sg51_7_cif.got.tgz:12731.got - 2010.04.16 13:43:02.
