data_PCOD8213323
_publ_section_title
;
Structure prediction by ZEFSAII (Michael W. Deem and Ramdas Pophale) SiO2 
 PCOD8213323
Probable space group: P M M A
;
_chemical_formula_sum "Si O2"
_cell_formula_units_Z 48
_cell_length_a 23.388906
_cell_length_b 9.130279
_cell_length_c 11.553168
_cell_angle_alpha 90.000000
_cell_angle_beta 90.000000
_cell_angle_gamma 90.000000
_cell_volume 2467.147108
_symmetry_space_group_name_H-M "P M M A"
_symmetry_group_IT_number 51
_symmetry_cell_setting 'orthorhombic'
loop_
_space_group_symop_operation_xyz
x,y,z
1/2-x,-y,z
1/2+x,-y,-z
-x,y,-z
-x,-y,-z
1/2+x,y,-z
1/2-x,y,z
x,-y,z
loop_
_atom_site_type_symbol
_atom_site_label
_atom_site_fract_x
_atom_site_fract_y
_atom_site_fract_z
Si Si1 0.184443 0.170895 0.888529
Si Si2 0.867964 0.671528 0.895744
Si Si3 0.186732 0.835836 0.300983
Si Si4 0.977135 0.672877 0.748618
Si Si5 0.917269 0.169449 0.545403
Si Si6 0.913052 0.170607 0.282039
O O1 0.250000 0.230642 0.879529
O O2 0.150208 0.201699 0.769286
O O3 0.186062 0.000000 0.918034
O O4 0.146632 0.249470 0.985386
O O5 0.863247 0.500000 0.916325
O O6 0.821393 0.720826 0.801923
O O7 0.930624 0.716324 0.846652
O O8 0.250000 0.818750 0.350959
O O9 0.146180 0.802486 0.408284
O O10 0.175844 0.000000 0.251941
O O11 0.981250 0.500000 0.735666
O O12 0.961792 0.739948 0.622871
O O13 0.038220 0.738951 0.787544
O O14 0.915342 0.225431 0.414223
O O15 0.935656 0.000000 0.552830
O O16 0.927845 0.000000 0.271326
#
# Coordination Sequence:
#
# PCOD8213323 Si02
#       6
#     8   8   8   8   8   8
#     4  10  22  39  57  78 106 140 176 214 258 309
#     4  10  21  36  54  77 105 137 174 218 266 311
#     4   9  17  30  51  78 105 135 173 217 263 310
#     4  10  21  36  55  80 108 137 172 217 265 309
#     4   9  18  33  53  78 108 140 174 213 259 311
#     4  10  21  36  55  79 107 140 175 212 256 309
#
# _framework density 19.455670999999999
#
# number of rings (size 3 to 8) (size 9 to 14) (size 15 to 20)
#    0.000    2.333    0.000    2.000    0.000    9.333 
#    0.000    6.667    0.000    0.000    0.000    4.667 
#    0.000    0.000    0.000    0.000    0.000    0.000 
#
# Total GULP energy -595114.577921 kJ/mol
# GULP energy per Si atom -12398.220373 kJ/mol
# Density = 1.941139 g / cm^3
# Si number density = 19.455671 Si / 1000 Ang^3
#
#
#
# Elastic Constant Matrix: (Units=GPa)
#
#
# Indices 1 2 3 4 5 6 
#
# 1 125.7597 41.1782 56.7810 0.0000 0.0000 0.0000
# 2 41.1782 55.3122 37.0764 0.0000 0.0000 0.0000
# 3 56.7810 37.0764 89.4317 0.0000 0.0000 0.0000
# 4 0.0000 0.0000 0.0000 11.1981 0.0000 0.0000
# 5 0.0000 0.0000 0.0000 0.0000 15.4972 0.0000
# 6 0.0000 0.0000 0.0000 0.0000 0.0000 21.8575
#
#
#
# Elastic Compliance Matrix: (Units=1/GPa)
#
#
# Indices 1 2 3 4 5 6 
#
# 1 0.012207 -0.005391 -0.005516 0.000000 0.000000 0.000000
# 2 -0.005391 0.027417 -0.007944 0.000000 0.000000 0.000000
# 3 -0.005516 -0.007944 0.017977 0.000000 0.000000 0.000000
# 4 0.000000 0.000000 0.000000 0.089301 0.000000 0.000000
# 5 0.000000 0.000000 0.000000 0.000000 0.064528 0.000000
# 6 0.000000 0.000000 0.000000 0.000000 0.000000 0.045751
#
#
# Mechanical properties :
#
#
# Convention : Reuss Voigt Hill
#
# Bulk Modulus (GPa) = 50.24883 60.06386 55.15635
# Shear Modulus (GPa) = 16.58291 18.74174 17.66233
#
# Velocity S-wave (km/s) = 2.92266 3.10708 3.01628
# Velocity P-wave (km/s) = 6.10513 6.61900 6.36725
#
# Compressibility (1/GPa) = 0.01990096
#
# Stress axis : x y z
#
# Youngs Moduli (GPa) = 81.91988 36.47325 55.62667
#
# Poissons Ratio (x) = 0.19661 0.30681
# Poissons Ratio (y) = 0.44160 0.44190
# Poissons Ratio (z) = 0.45183 0.28974
#
# Static dielectric constant tensor:
#      x y z
#    x 3.778810 0.000000 0.000000 
#    y 0.000000 3.468320 0.000000 
#    z 0.000000 0.000000 3.500120 
# 
# 
# High freq. dielectric constant tensor:
#      x y z
#    x 1.770420 0.000000 0.000000 
#    y 0.000000 1.746340 0.000000 
#    z 0.000000 0.000000 1.745020 
# 
# From -- ./inp_files/18550.got.cif
#   From: 2010.03.12/outbox.cif.g09.slc.cpg/sg51_10_cif.got.tgz:18550.got - 2010.04.16 13:43:02.
