data_PCOD8213845
_publ_section_title
;
Structure prediction by ZEFSAII (Michael W. Deem and Ramdas Pophale) SiO2 
 PCOD8213845
Probable space group: P M M A
;
_chemical_formula_sum "Si O2"
_cell_formula_units_Z 48
_cell_length_a 8.767884
_cell_length_b 30.314633
_cell_length_c 9.594873
_cell_angle_alpha 90.000000
_cell_angle_beta 90.000000
_cell_angle_gamma 90.000000
_cell_volume 2550.271050
_symmetry_space_group_name_H-M "P M M A"
_symmetry_group_IT_number 51
_symmetry_cell_setting 'orthorhombic'
loop_
_space_group_symop_operation_xyz
x,y,z
1/2-x,-y,z
1/2+x,-y,-z
-x,y,-z
-x,-y,-z
1/2+x,y,-z
1/2-x,y,z
x,-y,z
loop_
_atom_site_type_symbol
_atom_site_label
_atom_site_fract_x
_atom_site_fract_y
_atom_site_fract_z
Si Si1 0.431006 0.381182 0.152225
Si Si2 0.069695 0.119875 0.653113
Si Si3 0.928590 0.206322 0.651299
Si Si4 0.927119 0.551698 0.355262
Si Si5 0.573464 0.051391 0.854011
Si Si6 0.572130 0.696714 0.650728
O O1 0.250000 0.382716 0.141325
O O2 0.490148 0.425333 0.226021
O O3 0.490395 0.339126 0.240413
O O4 0.500000 0.377630 0.000000
O O5 0.250000 0.120046 0.645120
O O6 0.000000 0.117223 0.500000
O O7 0.010709 0.165169 0.729412
O O8 0.014193 0.077235 0.734649
O O9 0.750000 0.196133 0.642980
O O10 0.961664 0.254610 0.717286
O O11 0.000000 0.208591 0.500000
O O12 0.750000 0.564183 0.356680
O O13 0.954378 0.500000 0.335677
O O14 0.000000 0.568392 0.500000
O O15 0.750000 0.064708 0.856103
O O16 0.550381 0.000000 0.822428
O O17 0.500000 0.064839 0.000000
O O18 0.500000 0.689299 0.500000
O O19 0.750000 0.690447 0.627000
#
# Coordination Sequence:
#
# PCOD8213845 Si02
#       6
#     8   8   8   8   8   8
#     4  11  23  38  55  79 111 146 183 223 271 321
#     4  11  21  34  54  81 111 142 178 221 269 317
#     4   9  16  30  51  76 106 137 173 218 267 317
#     4  10  21  38  60  85 111 141 179 222 267 317
#     4  10  21  38  58  79 105 139 178 219 265 319
#     4   9  19  34  55  80 105 137 177 221 266 317
#
# _framework density 18.821529000000002
#
# number of rings (size 3 to 8) (size 9 to 14) (size 15 to 20)
#    0.000    2.000    0.000    5.000    0.000    6.000 
#    0.000    0.833    0.000    2.000    0.000    0.000 
#    0.000    0.000    0.000    0.000    0.000    0.000 
#
# Total GULP energy -595111.584314 kJ/mol
# GULP energy per Si atom -12398.158007 kJ/mol
# Density = 1.877869 g / cm^3
# Si number density = 18.821529 Si / 1000 Ang^3
#
#
#
# Elastic Constant Matrix: (Units=GPa)
#
#
# Indices 1 2 3 4 5 6 
#
# 1 129.3626 60.1342 54.8789 0.0000 0.0000 0.0000
# 2 60.1342 101.5832 64.3880 0.0000 0.0000 0.0000
# 3 54.8789 64.3880 111.0089 0.0000 0.0000 0.0000
# 4 0.0000 0.0000 0.0000 14.2073 0.0000 0.0000
# 5 0.0000 0.0000 0.0000 0.0000 32.5466 0.0000
# 6 0.0000 0.0000 0.0000 0.0000 0.0000 26.4894
#
#
#
# Elastic Compliance Matrix: (Units=1/GPa)
#
#
# Indices 1 2 3 4 5 6 
#
# 1 0.011141 -0.004909 -0.002660 0.000000 0.000000 0.000000
# 2 -0.004909 0.017730 -0.007857 0.000000 0.000000 0.000000
# 3 -0.002660 -0.007857 0.014881 0.000000 0.000000 0.000000
# 4 0.000000 0.000000 0.000000 0.070386 0.000000 0.000000
# 5 0.000000 0.000000 0.000000 0.000000 0.030725 0.000000
# 6 0.000000 0.000000 0.000000 0.000000 0.000000 0.037751
#
#
# Mechanical properties :
#
#
# Convention : Reuss Voigt Hill
#
# Bulk Modulus (GPa) = 77.52494 77.86187 77.69340
# Shear Modulus (GPa) = 22.96037 25.48557 24.22297
#
# Velocity S-wave (km/s) = 3.49649 3.68375 3.59135
# Velocity P-wave (km/s) = 7.58812 7.71698 7.65282
#
# Compressibility (1/GPa) = 0.01289907
#
# Stress axis : x y z
#
# Youngs Moduli (GPa) = 89.76183 56.40084 67.20003
#
# Poissons Ratio (x) = 0.27685 0.17878
# Poissons Ratio (y) = 0.44061 0.52801
# Poissons Ratio (z) = 0.23880 0.44316
#
# Static dielectric constant tensor:
#      x y z
#    x 3.585430 0.000000 0.000000 
#    y 0.000000 4.166630 0.000000 
#    z 0.000000 0.000000 3.217770 
# 
# 
# High freq. dielectric constant tensor:
#      x y z
#    x 1.746870 0.000000 0.000000 
#    y 0.000000 1.751000 0.000000 
#    z 0.000000 0.000000 1.701870 
# 
# From -- ./inp_files/6085.got.cif
#   From: 2010.03.12/outbox.cif.g09.slc.cpg/sg51_4_cif.got.tgz:6085.got - 2010.04.16 13:43:02.
