data_PCOD8213997
_publ_section_title
;
Structure prediction by ZEFSAII (Michael W. Deem and Ramdas Pophale) SiO2 
 PCOD8213997
Probable space group: P M M A
;
_chemical_formula_sum "Si O2"
_cell_formula_units_Z 32
_cell_length_a 19.834050
_cell_length_b 8.679791
_cell_length_c 9.251053
_cell_angle_alpha 90.000000
_cell_angle_beta 90.000000
_cell_angle_gamma 90.000000
_cell_volume 1592.618810
_symmetry_space_group_name_H-M "P M M A"
_symmetry_group_IT_number 51
_symmetry_cell_setting 'orthorhombic'
loop_
_space_group_symop_operation_xyz
x,y,z
1/2-x,-y,z
1/2+x,-y,-z
-x,y,-z
-x,-y,-z
1/2+x,y,-z
1/2-x,y,z
x,-y,z
loop_
_atom_site_type_symbol
_atom_site_label
_atom_site_fract_x
_atom_site_fract_y
_atom_site_fract_z
Si Si1 0.828489 0.821380 0.906733
Si Si2 0.434895 0.179830 0.589861
Si Si3 0.937702 0.678901 0.102000
Si Si4 0.672618 0.678257 0.606043
O O1 0.750000 0.784362 0.929425
O O2 0.851095 0.774349 0.745653
O O3 0.845108 0.000000 0.929699
O O4 0.868225 0.721632 0.023640
O O5 0.500000 0.232204 0.500000
O O6 0.446760 0.220263 0.755673
O O7 0.370337 0.271850 0.532031
O O8 0.420636 0.000000 0.572578
O O9 0.936795 0.500000 0.143856
O O10 0.000000 0.721126 0.000000
O O11 0.750000 0.713277 0.567575
O O12 0.660846 0.500000 0.641633
#
# Coordination Sequence:
#
# PCOD8213997 Si02
#       4
#     8   8   8   8
#     4  10  21  38  61  88 118 153 192 235 285 341
#     4  11  24  40  60  86 116 152 193 238 288 342
#     4  11  24  40  60  86 116 152 193 238 288 342
#     4  10  21  38  61  88 118 153 192 235 285 341
#
# _framework density 20.092692
#
# number of rings (size 3 to 8) (size 9 to 14) (size 15 to 20)
#    0.000    1.500    0.000    4.500    0.000   12.000 
#    0.000    0.000    0.000    0.000    0.000    0.000 
#    0.000    0.000    0.000    0.000    0.000    0.000 
#
# Total GULP energy -397076.426916 kJ/mol
# GULP energy per Si atom -12408.638341 kJ/mol
# Density = 2.004696 g / cm^3
# Si number density = 20.092692 Si / 1000 Ang^3
#
#
#
# Elastic Constant Matrix: (Units=GPa)
#
#
# Indices 1 2 3 4 5 6 
#
# 1 94.0726 40.0848 55.9375 0.0000 0.0000 0.0000
# 2 40.0848 47.9029 18.2254 0.0000 0.0000 0.0000
# 3 55.9375 18.2254 109.4980 0.0000 0.0000 0.0000
# 4 0.0000 0.0000 0.0000 43.3591 0.0000 0.0000
# 5 0.0000 0.0000 0.0000 0.0000 40.0939 0.0000
# 6 0.0000 0.0000 0.0000 0.0000 0.0000 27.1285
#
#
#
# Elastic Compliance Matrix: (Units=1/GPa)
#
#
# Indices 1 2 3 4 5 6 
#
# 1 0.022528 -0.015451 -0.008937 0.000000 0.000000 0.000000
# 2 -0.015451 0.032884 0.002420 0.000000 0.000000 0.000000
# 3 -0.008937 0.002420 0.013295 0.000000 0.000000 0.000000
# 4 0.000000 0.000000 0.000000 0.023063 0.000000 0.000000
# 5 0.000000 0.000000 0.000000 0.000000 0.024941 0.000000
# 6 0.000000 0.000000 0.000000 0.000000 0.000000 0.036862
#
#
# Mechanical properties :
#
#
# Convention : Reuss Voigt Hill
#
# Bulk Modulus (GPa) = 40.36911 53.32987 46.84949
# Shear Modulus (GPa) = 24.29943 31.26470 27.78206
#
# Velocity S-wave (km/s) = 3.48137 3.94893 3.72249
# Velocity P-wave (km/s) = 6.02453 6.88415 6.46864
#
# Compressibility (1/GPa) = 0.02477142
#
# Stress axis : x y z
#
# Youngs Moduli (GPa) = 44.38969 30.40972 75.21537
#
# Poissons Ratio (x) = 0.46986 0.67217
# Poissons Ratio (y) = 0.68586 -0.18201
# Poissons Ratio (z) = 0.39670 -0.07359
#
# Static dielectric constant tensor:
#      x y z
#    x 3.701960 0.000000 0.000000 
#    y 0.000000 3.668740 0.000000 
#    z 0.000000 0.000000 3.579390 
# 
# 
# High freq. dielectric constant tensor:
#      x y z
#    x 1.793060 0.000000 0.000000 
#    y 0.000000 1.796720 0.000000 
#    z 0.000000 0.000000 1.785410 
# 
# From -- ./inp_files/4847.got.cif
#   From: 2010.03.12/outbox.cif.g09.slc.cpg/sg51_3_cif.got.tgz:4847.got - 2010.04.16 13:43:02.
