data_PCOD8213345
_publ_section_title
;
Structure prediction by ZEFSAII (Michael W. Deem and Ramdas Pophale) SiO2 
 PCOD8213345
Probable space group: P M M A
;
_chemical_formula_sum "Si O2"
_cell_formula_units_Z 48
_cell_length_a 8.920142
_cell_length_b 9.569373
_cell_length_c 30.580111
_cell_angle_alpha 90.000000
_cell_angle_beta 90.000000
_cell_angle_gamma 90.000000
_cell_volume 2610.323352
_symmetry_space_group_name_H-M "P M M A"
_symmetry_group_IT_number 51
_symmetry_cell_setting 'orthorhombic'
loop_
_space_group_symop_operation_xyz
x,y,z
1/2-x,-y,z
1/2+x,-y,-z
-x,y,-z
-x,-y,-z
1/2+x,y,-z
1/2-x,y,z
x,-y,z
loop_
_atom_site_type_symbol
_atom_site_label
_atom_site_fract_x
_atom_site_fract_y
_atom_site_fract_z
Si Si1 0.423043 0.336627 0.284394
Si Si2 0.576925 0.338350 0.374044
Si Si3 0.075750 0.838797 0.789974
Si Si4 0.926135 0.159709 0.455731
Si Si5 0.074226 0.339200 0.955109
Si Si6 0.923848 0.163037 0.879921
O O1 0.250000 0.294248 0.279454
O O2 0.448604 0.500000 0.275826
O O3 0.478113 0.294992 0.332556
O O4 0.522322 0.253195 0.250217
O O5 0.750000 0.303120 0.363648
O O6 0.555935 0.500000 0.385865
O O7 0.515808 0.250152 0.414961
O O8 0.250000 0.811316 0.798947
O O9 0.984531 0.791933 0.832665
O O10 0.044015 0.000000 0.778652
O O11 0.750000 0.175670 0.461148
O O12 0.000000 0.217933 0.500000
O O13 0.974675 0.000000 0.447418
O O14 0.250000 0.316393 0.959387
O O15 0.032392 0.500000 0.945875
O O16 0.013268 0.247498 0.915920
O O17 0.000000 0.287168 0.000000
O O18 0.750000 0.202265 0.882529
O O19 0.952556 0.000000 0.888265
#
# Coordination Sequence:
#
# PCOD8213345 Si02
#       6
#     8   8   8   8   8   8
#     4  10  21  36  54  78 107 138 173 214 260 310
#     4   9  18  33  51  71  98 132 168 207 252 302
#     4  10  21  37  57  80 106 138 176 217 261 310
#     4   9  18  32  49  70  97 128 163 204 250 301
#     4  10  21  37  57  81 109 142 180 221 265 313
#     4  10  21  37  57  81 109 141 177 218 264 313
#
# _framework density 18.388527
#
# number of rings (size 3 to 8) (size 9 to 14) (size 15 to 20)
#    0.000    2.333    0.000    2.000    0.000    6.667 
#    0.000    1.667    0.000    0.000    0.000    0.000 
#    0.000    0.000    0.000    0.000    0.000    0.000 
#
# Total GULP energy -595407.724011 kJ/mol
# GULP energy per Si atom -12404.327584 kJ/mol
# Density = 1.834667 g / cm^3
# Si number density = 18.388527 Si / 1000 Ang^3
#
#
#
# Elastic Constant Matrix: (Units=GPa)
#
#
# Indices 1 2 3 4 5 6 
#
# 1 59.7519 28.6282 35.0683 0.0000 0.0000 0.0000
# 2 28.6282 56.7576 59.4522 0.0000 0.0000 0.0000
# 3 35.0683 59.4522 125.7355 0.0000 0.0000 0.0000
# 4 0.0000 0.0000 0.0000 40.1912 0.0000 0.0000
# 5 0.0000 0.0000 0.0000 0.0000 41.1225 0.0000
# 6 0.0000 0.0000 0.0000 0.0000 0.0000 27.9935
#
#
#
# Elastic Compliance Matrix: (Units=1/GPa)
#
#
# Indices 1 2 3 4 5 6 
#
# 1 0.022269 -0.009365 -0.001783 0.000000 0.000000 0.000000
# 2 -0.009365 0.038846 -0.015756 0.000000 0.000000 0.000000
# 3 -0.001783 -0.015756 0.015900 0.000000 0.000000 0.000000
# 4 0.000000 0.000000 0.000000 0.024881 0.000000 0.000000
# 5 0.000000 0.000000 0.000000 0.000000 0.024318 0.000000
# 6 0.000000 0.000000 0.000000 0.000000 0.000000 0.035723
#
#
# Mechanical properties :
#
#
# Convention : Reuss Voigt Hill
#
# Bulk Modulus (GPa) = 43.08790 54.28250 48.68520
# Shear Modulus (GPa) = 22.37327 29.80120 26.08723
#
# Velocity S-wave (km/s) = 3.49190 4.03009 3.77061
# Velocity P-wave (km/s) = 6.30402 7.15816 6.74463
#
# Compressibility (1/GPa) = 0.02320837
#
# Stress axis : x y z
#
# Youngs Moduli (GPa) = 44.90519 25.74243 62.89116
#
# Poissons Ratio (x) = 0.24107 0.11213
# Poissons Ratio (y) = 0.42053 0.99092
# Poissons Ratio (z) = 0.08006 0.40560
#
# Static dielectric constant tensor:
#      x y z
#    x 3.239080 0.000000 0.000000 
#    y 0.000000 3.363460 0.000000 
#    z 0.000000 0.000000 3.503950 
# 
# 
# High freq. dielectric constant tensor:
#      x y z
#    x 1.721590 0.000000 0.000000 
#    y 0.000000 1.706970 0.000000 
#    z 0.000000 0.000000 1.722710 
# 
# From -- ./inp_files/36895.got.cif
#   From: 2010.03.12/outbox.cif.g09.slc.cpg/sg51_19_cif.got.tgz:36895.got - 2010.04.16 13:43:02.
