data_PCOD8213326
_publ_section_title
;
Structure prediction by ZEFSAII (Michael W. Deem and Ramdas Pophale) SiO2 
 PCOD8213326
Probable space group: P M M A
;
_chemical_formula_sum "Si O2"
_cell_formula_units_Z 48
_cell_length_a 9.227889
_cell_length_b 9.208872
_cell_length_c 30.330449
_cell_angle_alpha 90.000000
_cell_angle_beta 90.000000
_cell_angle_gamma 90.000000
_cell_volume 2577.434502
_symmetry_space_group_name_H-M "P M M A"
_symmetry_group_IT_number 51
_symmetry_cell_setting 'orthorhombic'
loop_
_space_group_symop_operation_xyz
x,y,z
1/2-x,-y,z
1/2+x,-y,-z
-x,y,-z
-x,-y,-z
1/2+x,y,-z
1/2-x,y,z
x,-y,z
loop_
_atom_site_type_symbol
_atom_site_label
_atom_site_fract_x
_atom_site_fract_y
_atom_site_fract_z
Si Si1 0.919700 0.336378 0.717716
Si Si2 0.417099 0.830009 0.542976
Si Si3 0.419456 0.832531 0.044788
Si Si4 0.413918 0.669626 0.383033
Si Si5 0.417108 0.670926 0.879094
Si Si6 0.418872 0.833162 0.791214
O O1 0.750000 0.325123 0.726653
O O2 0.973577 0.500000 0.728042
O O3 0.955370 0.295939 0.667349
O O4 0.000021 0.221803 0.748125
O O5 0.500000 0.770172 0.500000
O O6 0.250000 0.790411 0.536940
O O7 0.474986 0.754618 0.586657
O O8 0.443607 0.000000 0.548583
O O9 0.250000 0.801087 0.038682
O O10 0.481705 0.731364 0.082722
O O11 0.449097 0.000000 0.057088
O O12 0.500000 0.789685 0.000000
O O13 0.250000 0.721692 0.392818
O O14 0.428199 0.500000 0.392667
O O15 0.250000 0.711673 0.889067
O O16 0.439492 0.500000 0.875330
O O17 0.469566 0.741902 0.833521
O O18 0.250000 0.811743 0.782569
O O19 0.459652 0.000000 0.799719
#
# Coordination Sequence:
#
# PCOD8213326 Si02
#       6
#     8   8   8   8   8   8
#     4   9  19  36  56  78 106 140 177 217 262 313
#     4  10  21  36  54  77 105 138 176 217 262 313
#     4  10  21  37  58  83 110 142 179 219 265 316
#     4   9  19  36  56  78 105 138 176 217 262 313
#     4  10  21  37  57  80 107 142 182 222 266 315
#     4  10  21  36  55  80 109 141 178 220 265 314
#
# _framework density 18.623169000000001
#
# number of rings (size 3 to 8) (size 9 to 14) (size 15 to 20)
#    0.000    2.333    0.000    3.000    0.000    7.333 
#    0.000    5.000    0.000    0.000    0.000    0.000 
#    0.000    0.000    0.000    0.000    0.000    0.000 
#
# Total GULP energy -595382.773420 kJ/mol
# GULP energy per Si atom -12403.807780 kJ/mol
# Density = 1.858078 g / cm^3
# Si number density = 18.623169 Si / 1000 Ang^3
#
#
#
# Elastic Constant Matrix: (Units=GPa)
#
#
# Indices 1 2 3 4 5 6 
#
# 1 90.2514 55.6642 75.4367 0.0000 0.0000 0.0000
# 2 55.6642 83.2490 69.8736 0.0000 0.0000 0.0000
# 3 75.4367 69.8736 137.0927 0.0000 0.0000 0.0000
# 4 0.0000 0.0000 0.0000 122.6170 0.0000 0.0000
# 5 0.0000 0.0000 0.0000 0.0000 38.0181 0.0000
# 6 0.0000 0.0000 0.0000 0.0000 0.0000 33.6122
#
#
#
# Elastic Compliance Matrix: (Units=1/GPa)
#
#
# Indices 1 2 3 4 5 6 
#
# 1 0.023518 -0.008500 -0.008609 0.000000 0.000000 0.000000
# 2 -0.008500 0.024064 -0.007588 0.000000 0.000000 0.000000
# 3 -0.008609 -0.007588 0.015899 0.000000 0.000000 0.000000
# 4 0.000000 0.000000 0.000000 0.008155 0.000000 0.000000
# 5 0.000000 0.000000 0.000000 0.000000 0.026303 0.000000
# 6 0.000000 0.000000 0.000000 0.000000 0.000000 0.029751
#
#
# Mechanical properties :
#
#
# Convention : Reuss Voigt Hill
#
# Bulk Modulus (GPa) = 70.98181 79.17133 75.07657
# Shear Modulus (GPa) = 27.50550 46.15736 36.83143
#
# Velocity S-wave (km/s) = 3.84728 4.98385 4.45198
# Velocity P-wave (km/s) = 7.61137 8.70189 8.17483
#
# Compressibility (1/GPa) = 0.01408812
#
# Stress axis : x y z
#
# Youngs Moduli (GPa) = 42.51985 41.55520 62.89619
#
# Poissons Ratio (x) = 0.35320 0.54149
# Poissons Ratio (y) = 0.36140 0.47727
# Poissons Ratio (z) = 0.36606 0.31533
#
# Static dielectric constant tensor:
#      x y z
#    x 3.376600 0.000000 0.000000 
#    y 0.000000 3.370090 0.000000 
#    z 0.000000 0.000000 3.458600 
# 
# 
# High freq. dielectric constant tensor:
#      x y z
#    x 1.722490 0.000000 0.000000 
#    y 0.000000 1.722090 0.000000 
#    z 0.000000 0.000000 1.732430 
# 
# From -- ./inp_files/36981.got.cif
#   From: 2010.03.12/outbox.cif.g09.slc.cpg/sg51_19_cif.got.tgz:36981.got - 2010.04.16 13:43:02.
