data_PCOD8213166
_publ_section_title
;
Structure prediction by ZEFSAII (Michael W. Deem and Ramdas Pophale) SiO2 
 PCOD8213166
Probable space group: P M M A
;
_chemical_formula_sum "Si O2"
_cell_formula_units_Z 48
_cell_length_a 16.553305
_cell_length_b 9.356025
_cell_length_c 16.340329
_cell_angle_alpha 90.000000
_cell_angle_beta 90.000000
_cell_angle_gamma 90.000000
_cell_volume 2530.677986
_symmetry_space_group_name_H-M "P M M A"
_symmetry_group_IT_number 51
_symmetry_cell_setting 'orthorhombic'
loop_
_space_group_symop_operation_xyz
x,y,z
1/2-x,-y,z
1/2+x,-y,-z
-x,y,-z
-x,-y,-z
1/2+x,y,-z
1/2-x,y,z
x,-y,z
loop_
_atom_site_type_symbol
_atom_site_label
_atom_site_fract_x
_atom_site_fract_y
_atom_site_fract_z
Si Si1 0.080274 0.666634 0.044465
Si Si2 0.250000 0.337070 0.981063
Si Si3 0.105196 0.167878 0.709497
Si Si4 0.156956 0.835267 0.531612
Si Si5 0.250000 0.664074 0.787857
Si Si6 0.955828 0.336344 0.768881
Si Si7 0.658803 0.663812 0.620645
O O1 0.081980 0.500000 0.021855
O O2 0.075909 0.695130 0.140753
O O3 0.165920 0.735249 0.013692
O O4 0.000000 0.733284 0.000000
O O5 0.250000 0.500000 0.012373
O O6 0.250000 0.326058 0.884549
O O7 0.106494 0.201951 0.612797
O O8 0.172537 0.256492 0.755085
O O9 0.022098 0.220004 0.747192
O O10 0.118299 0.000000 0.725541
O O11 0.250000 0.791531 0.548142
O O12 0.119182 0.750162 0.454879
O O13 0.149534 0.000000 0.508955
O O14 0.250000 0.500000 0.758108
O O15 0.988441 0.500000 0.762020
O O16 0.883441 0.308154 0.706578
O O17 0.750000 0.717123 0.632910
O O18 0.654235 0.500000 0.594705
#
# Coordination Sequence:
#
# PCOD8213166 Si02
#       7
#     8   4   8   8   4   8   8
#     4   9  17  31  52  80 114 145 182 232 281 335
#     4   9  18  31  55  86 111 144 184 229 287 341
#     4  11  22  37  56  80 113 149 187 226 275 334
#     4   9  18  35  55  75 103 143 189 227 266 326
#     4  11  21  35  59  88 113 138 182 233 283 335
#     4  10  21  35  54  82 114 145 185 234 280 328
#     4   9  19  34  53  79 111 145 183 231 285 330
#
# _framework density 18.967248999999999
#
# number of rings (size 3 to 8) (size 9 to 14) (size 15 to 20)
#    0.000    2.333    0.833    1.750    1.167    5.333 
#    0.000    3.333    0.000    5.500    0.000    0.000 
#    0.000    0.000    0.000    0.000    0.000    0.000 
#
# Total GULP energy -595083.900178 kJ/mol
# GULP energy per Si atom -12397.581254 kJ/mol
# Density = 1.892408 g / cm^3
# Si number density = 18.967249 Si / 1000 Ang^3
#
#
#
# Elastic Constant Matrix: (Units=GPa)
#
#
# Indices 1 2 3 4 5 6 
#
# 1 118.0685 41.2274 62.3037 0.0000 0.0000 0.0000
# 2 41.2274 66.4659 53.1492 0.0000 0.0000 0.0000
# 3 62.3037 53.1492 125.6225 0.0000 0.0000 0.0000
# 4 0.0000 0.0000 0.0000 1.6959 0.0000 0.0000
# 5 0.0000 0.0000 0.0000 0.0000 24.9880 0.0000
# 6 0.0000 0.0000 0.0000 0.0000 0.0000 25.5417
#
#
#
# Elastic Compliance Matrix: (Units=1/GPa)
#
#
# Indices 1 2 3 4 5 6 
#
# 1 0.012174 -0.004116 -0.004297 0.000000 0.000000 0.000000
# 2 -0.004116 0.024129 -0.008168 0.000000 0.000000 0.000000
# 3 -0.004297 -0.008168 0.013547 0.000000 0.000000 0.000000
# 4 0.000000 0.000000 0.000000 0.589665 0.000000 0.000000
# 5 0.000000 0.000000 0.000000 0.000000 0.040019 0.000000
# 6 0.000000 0.000000 0.000000 0.000000 0.000000 0.039152
#
#
# Mechanical properties :
#
#
# Convention : Reuss Voigt Hill
#
# Bulk Modulus (GPa) = 59.91363 69.27973 64.59668
# Shear Modulus (GPa) = 6.60145 20.67690 13.63918
#
# Velocity S-wave (km/s) = 1.86762 3.30530 2.68450
# Velocity P-wave (km/s) = 6.02554 7.15346 6.61359
#
# Compressibility (1/GPa) = 0.01669069
#
# Stress axis : x y z
#
# Youngs Moduli (GPa) = 82.14221 41.44336 73.81757
#
# Poissons Ratio (x) = 0.17056 0.31716
# Poissons Ratio (y) = 0.33806 0.60292
# Poissons Ratio (z) = 0.35293 0.33849
#
# Static dielectric constant tensor:
#      x y z
#    x 3.546340 0.000000 0.000000 
#    y 0.000000 3.263880 0.000000 
#    z 0.000000 0.000000 3.578240 
# 
# 
# High freq. dielectric constant tensor:
#      x y z
#    x 1.739880 0.000000 0.000000 
#    y 0.000000 1.704010 0.000000 
#    z 0.000000 0.000000 1.750170 
# 
# From -- ./inp_files/24981.got.cif
#   From: 2010.03.12/outbox.cif.g09.slc.cpg/sg51_13_cif.got.tgz:24981.got - 2010.04.16 13:43:02.
