data_PCOD8213443
_publ_section_title
;
Structure prediction by ZEFSAII (Michael W. Deem and Ramdas Pophale) SiO2 
 PCOD8213443
Probable space group: P M M A
;
_chemical_formula_sum "Si O2"
_cell_formula_units_Z 56
_cell_length_a 22.213215
_cell_length_b 9.352704
_cell_length_c 14.322279
_cell_angle_alpha 90.000000
_cell_angle_beta 90.000000
_cell_angle_gamma 90.000000
_cell_volume 2975.505377
_symmetry_space_group_name_H-M "P M M A"
_symmetry_group_IT_number 51
_symmetry_cell_setting 'orthorhombic'
loop_
_space_group_symop_operation_xyz
x,y,z
1/2-x,-y,z
1/2+x,-y,-z
-x,y,-z
-x,-y,-z
1/2+x,y,-z
1/2-x,y,z
x,-y,z
loop_
_atom_site_type_symbol
_atom_site_label
_atom_site_fract_x
_atom_site_fract_y
_atom_site_fract_z
Si Si1 0.978932 0.159883 0.604422
Si Si2 0.972341 0.330655 0.233674
Si Si3 0.397214 0.337898 0.159044
Si Si4 0.643701 0.835263 0.184737
Si Si5 0.250000 0.664541 0.484986
Si Si6 0.634844 0.662953 0.636177
Si Si7 0.250000 0.168615 0.678171
Si Si8 0.683235 0.835697 0.976635
O O1 0.913141 0.225609 0.599708
O O2 0.000000 0.153354 0.500000
O O3 0.023729 0.258999 0.664300
O O4 0.976973 0.000000 0.647634
O O5 0.964758 0.500000 0.245117
O O6 0.914864 0.265097 0.182221
O O7 0.033468 0.292007 0.177572
O O8 0.395698 0.500000 0.124138
O O9 0.357156 0.317747 0.252368
O O10 0.369467 0.245577 0.076696
O O11 0.690109 0.785543 0.265261
O O12 0.624287 0.000000 0.200119
O O13 0.676733 0.814953 0.086868
O O14 0.250000 0.500000 0.516109
O O15 0.305552 0.702136 0.419079
O O16 0.250000 0.757449 0.577944
O O17 0.613566 0.500000 0.616461
O O18 0.250000 0.000000 0.662872
O O19 0.750000 0.779332 0.948880
O O20 0.676823 0.000000 0.948582
#
# Coordination Sequence:
#
# PCOD8213443 Si02
#       8
#     8   8   8   8   4   8   4   8
#     4  10  21  36  56  82 112 147 191 236 282 336
#     4  10  22  39  59  84 115 150 189 236 288 340
#     4   9  20  38  59  84 115 150 186 231 286 339
#     4  10  21  40  62  83 115 153 190 235 288 342
#     4  10  22  38  57  84 116 152 193 234 279 338
#     4   9  20  38  57  81 116 153 187 229 282 336
#     4  10  22  40  59  80 114 154 191 236 287 340
#     4  10  21  38  60  86 115 151 191 233 284 339
#
# _framework density 18.820332000000001
#
# number of rings (size 3 to 8) (size 9 to 14) (size 15 to 20)
#    0.000    2.286    0.714    1.714    3.000    6.571 
#    0.000    2.857    0.000    0.000    0.000    0.000 
#    0.000    0.000    0.000    0.000    0.000    0.000 
#
# Total GULP energy -694367.111062 kJ/mol
# GULP energy per Si atom -12399.412698 kJ/mol
# Density = 1.877750 g / cm^3
# Si number density = 18.820332 Si / 1000 Ang^3
#
#
#
# Elastic Constant Matrix: (Units=GPa)
#
#
# Indices 1 2 3 4 5 6 
#
# 1 106.7587 54.0057 42.9830 0.0000 0.0000 0.0000
# 2 54.0057 86.9991 35.1784 0.0000 0.0000 0.0000
# 3 42.9830 35.1784 65.2699 0.0000 0.0000 0.0000
# 4 0.0000 0.0000 0.0000 27.9299 0.0000 0.0000
# 5 0.0000 0.0000 0.0000 0.0000 24.6785 0.0000
# 6 0.0000 0.0000 0.0000 0.0000 0.0000 30.5194
#
#
#
# Elastic Compliance Matrix: (Units=1/GPa)
#
#
# Indices 1 2 3 4 5 6 
#
# 1 0.015510 -0.007030 -0.006425 0.000000 0.000000 0.000000
# 2 -0.007030 0.017884 -0.005009 0.000000 0.000000 0.000000
# 3 -0.006425 -0.005009 0.022252 0.000000 0.000000 0.000000
# 4 0.000000 0.000000 0.000000 0.035804 0.000000 0.000000
# 5 0.000000 0.000000 0.000000 0.000000 0.040521 0.000000
# 6 0.000000 0.000000 0.000000 0.000000 0.000000 0.032766
#
#
# Mechanical properties :
#
#
# Convention : Reuss Voigt Hill
#
# Bulk Modulus (GPa) = 53.42680 58.15132 55.78906
# Shear Modulus (GPa) = 24.04947 25.08292 24.56619
#
# Velocity S-wave (km/s) = 3.57857 3.65465 3.61681
# Velocity P-wave (km/s) = 6.74717 6.98383 6.86652
#
# Compressibility (1/GPa) = 0.01871720
#
# Stress axis : x y z
#
# Youngs Moduli (GPa) = 64.47444 55.91628 44.93981
#
# Poissons Ratio (x) = 0.39309 0.28874
# Poissons Ratio (y) = 0.45326 0.22512
# Poissons Ratio (z) = 0.41425 0.28010
#
# Static dielectric constant tensor:
#      x y z
#    x 4.175370 0.000000 0.000000 
#    y 0.000000 3.530960 0.000000 
#    z 0.000000 0.000000 3.355790 
# 
# 
# High freq. dielectric constant tensor:
#      x y z
#    x 1.735890 0.000000 0.000000 
#    y 0.000000 1.731990 0.000000 
#    z 0.000000 0.000000 1.729490 
# 
# From -- ./inp_files/25809.got.cif
#   From: 2010.03.12/outbox.cif.g09.slc.cpg/sg51_13_cif.got.tgz:25809.got - 2010.04.16 13:43:02.
