data_PCOD8213509
_publ_section_title
;
Structure prediction by ZEFSAII (Michael W. Deem and Ramdas Pophale) SiO2 
 PCOD8213509
Probable space group: P M M A
;
_chemical_formula_sum "Si O2"
_cell_formula_units_Z 48
_cell_length_a 17.949521
_cell_length_b 9.285714
_cell_length_c 15.406772
_cell_angle_alpha 90.000000
_cell_angle_beta 90.000000
_cell_angle_gamma 90.000000
_cell_volume 2567.910141
_symmetry_space_group_name_H-M "P M M A"
_symmetry_group_IT_number 51
_symmetry_cell_setting 'orthorhombic'
loop_
_space_group_symop_operation_xyz
x,y,z
1/2-x,-y,z
1/2+x,-y,-z
-x,y,-z
-x,-y,-z
1/2+x,y,-z
1/2-x,y,z
x,-y,z
loop_
_atom_site_type_symbol
_atom_site_label
_atom_site_fract_x
_atom_site_fract_y
_atom_site_fract_z
Si Si1 0.164032 0.664180 0.992297
Si Si2 0.420098 0.334558 0.166447
Si Si3 0.333062 0.171386 0.691321
Si Si4 0.571255 0.171456 0.147256
Si Si5 0.661297 0.839848 0.498229
Si Si6 0.334982 0.330852 0.337467
O O1 0.250000 0.706323 0.982653
O O2 0.149415 0.500000 0.961852
O O3 0.116236 0.772908 0.935285
O O4 0.141863 0.682397 0.092442
O O5 0.446914 0.500000 0.173480
O O6 0.488909 0.233851 0.143617
O O7 0.383640 0.280311 0.255891
O O8 0.250000 0.233491 0.709551
O O9 0.388572 0.228047 0.765301
O O10 0.363306 0.221579 0.596446
O O11 0.328946 0.000000 0.691600
O O12 0.567729 0.000000 0.143171
O O13 0.750000 0.843978 0.498427
O O14 0.630803 0.740145 0.575603
O O15 0.628942 0.000000 0.513015
O O16 0.250000 0.280196 0.322235
O O17 0.338846 0.500000 0.350244
#
# Coordination Sequence:
#
# PCOD8213509 Si02
#       6
#     8   8   8   8   8   8
#     4  10  21  38  59  79  99 130 172 211 250 303
#     4  10  21  37  54  73 103 140 171 203 250 308
#     4   8  15  30  51  73  99 133 170 206 248 299
#     4  11  22  35  53  78 107 137 169 209 256 301
#     4   8  14  27  49  74  98 127 165 208 252 298
#     4   9  17  31  52  76 100 129 169 215 258 298
#
# _framework density 18.692242
#
# number of rings (size 3 to 8) (size 9 to 14) (size 15 to 20)
#    0.000    2.667    0.000    3.000    0.000    6.333 
#    0.000    2.500    0.000   12.000    0.000    0.000 
#    0.000    0.000    0.000    0.000    0.000    0.000 
#
# Total GULP energy -595131.195657 kJ/mol
# GULP energy per Si atom -12398.566576 kJ/mol
# Density = 1.864970 g / cm^3
# Si number density = 18.692242 Si / 1000 Ang^3
#
#
#
# Elastic Constant Matrix: (Units=GPa)
#
#
# Indices 1 2 3 4 5 6 
#
# 1 65.7687 24.0659 20.1219 0.0000 0.0000 0.0000
# 2 24.0659 46.1708 27.7082 0.0000 0.0000 0.0000
# 3 20.1219 27.7082 107.1031 0.0000 0.0000 0.0000
# 4 0.0000 0.0000 0.0000 31.2794 0.0000 0.0000
# 5 0.0000 0.0000 0.0000 0.0000 -19.8247 0.0000
# 6 0.0000 0.0000 0.0000 0.0000 0.0000 17.2326
#
#
#
# Elastic Compliance Matrix: (Units=1/GPa)
#
#
# Indices 1 2 3 4 5 6 
#
# 1 0.018915 -0.009147 -0.001187 0.000000 0.000000 0.000000
# 2 -0.009147 0.030062 -0.006059 0.000000 0.000000 0.000000
# 3 -0.001187 -0.006059 0.011127 0.000000 0.000000 0.000000
# 4 0.000000 0.000000 0.000000 0.031970 0.000000 0.000000
# 5 0.000000 0.000000 0.000000 0.000000 -0.050442 0.000000
# 6 0.000000 0.000000 0.000000 0.000000 0.000000 0.058029
#
#
# Mechanical properties :
#
#
# Convention : Reuss Voigt Hill
#
# Bulk Modulus (GPa) = 36.60464 40.31497 38.45980
# Shear Modulus (GPa) = 35.32218 15.54722 25.43470
#
# Velocity S-wave (km/s) = 4.35175 2.88713 3.69278
# Velocity P-wave (km/s) = 6.69893 5.72089 6.22913
#
# Compressibility (1/GPa) = 0.02731894
#
# Stress axis : x y z
#
# Youngs Moduli (GPa) = 52.86822 33.26418 89.86870
#
# Poissons Ratio (x) = 0.30425 0.10671
# Poissons Ratio (y) = 0.48356 0.54451
# Poissons Ratio (z) = 0.06277 0.20154
#
# Static dielectric constant tensor:
#      x y z
#    x 3.303890 0.000000 0.000000 
#    y 0.000000 3.266370 0.000000 
#    z 0.000000 0.000000 3.793070 
# 
# 
# High freq. dielectric constant tensor:
#      x y z
#    x 1.707260 0.000000 0.000000 
#    y 0.000000 1.703080 0.000000 
#    z 0.000000 0.000000 1.743850 
# 
# From -- ./inp_files/24795.got.cif
#   From: 2010.03.12/outbox.cif.g09.slc.cpg/sg51_13_cif.got.tgz:24795.got - 2010.04.16 13:43:02.
