data_PCOD8213348
_publ_section_title
;
Structure prediction by ZEFSAII (Michael W. Deem and Ramdas Pophale) SiO2 
 PCOD8213348
Probable space group: P M M A
;
_chemical_formula_sum "Si O2"
_cell_formula_units_Z 48
_cell_length_a 9.240170
_cell_length_b 9.234110
_cell_length_c 30.826133
_cell_angle_alpha 90.000000
_cell_angle_beta 90.000000
_cell_angle_gamma 90.000000
_cell_volume 2630.231975
_symmetry_space_group_name_H-M "P M M A"
_symmetry_group_IT_number 51
_symmetry_cell_setting 'orthorhombic'
loop_
_space_group_symop_operation_xyz
x,y,z
1/2-x,-y,z
1/2+x,-y,-z
-x,y,-z
-x,-y,-z
1/2+x,y,-z
1/2-x,y,z
x,-y,z
loop_
_atom_site_type_symbol
_atom_site_label
_atom_site_fract_x
_atom_site_fract_y
_atom_site_fract_z
Si Si1 0.419193 0.832833 0.543885
Si Si2 0.082623 0.830469 0.127414
Si Si3 0.086675 0.172314 0.789062
Si Si4 0.918351 0.332192 0.957676
Si Si5 0.417883 0.832944 0.294789
Si Si6 0.083544 0.329627 0.381717
O O1 0.500000 0.788314 0.500000
O O2 0.250000 0.801940 0.537723
O O3 0.480019 0.733427 0.581753
O O4 0.449386 0.000000 0.555547
O O5 0.250000 0.793630 0.135668
O O6 0.024005 0.752701 0.084312
O O7 0.994292 0.768244 0.168339
O O8 0.056951 0.000000 0.121209
O O9 0.250000 0.231217 0.789139
O O10 0.007246 0.228924 0.745914
O O11 0.081022 0.000000 0.789447
O O12 0.750000 0.302687 0.965006
O O13 0.953323 0.500000 0.950226
O O14 0.000000 0.272338 0.000000
O O15 0.250000 0.814192 0.283365
O O16 0.463507 0.739750 0.336245
O O17 0.455832 0.000000 0.304568
O O18 0.250000 0.290032 0.392503
O O19 0.059956 0.500000 0.378714
#
# Coordination Sequence:
#
# PCOD8213348 Si02
#       6
#     8   8   8   8   8   8
#     4  10  21  37  58  82 106 135 173 215 257 302
#     4   9  17  30  48  69  93 121 154 192 235 284
#     4   9  17  29  47  72  98 123 156 200 245 287
#     4   9  18  32  48  66  90 121 155 190 230 278
#     4   9  17  31  52  74  97 130 169 205 243 291
#     4  10  21  36  54  78 108 140 173 210 254 303
#
# _framework density 18.249338999999999
#
# number of rings (size 3 to 8) (size 9 to 14) (size 15 to 20)
#    0.000    2.667    0.000    1.500    0.000    6.000 
#    0.000    2.500    0.000    5.000    0.000    0.000 
#    0.000    0.000    0.000    0.000    0.000    0.000 
#
# Total GULP energy -595316.251151 kJ/mol
# GULP energy per Si atom -12402.421899 kJ/mol
# Density = 1.820780 g / cm^3
# Si number density = 18.249339 Si / 1000 Ang^3
#
#
#
# Elastic Constant Matrix: (Units=GPa)
#
#
# Indices 1 2 3 4 5 6 
#
# 1 96.4384 40.0912 89.8471 0.0000 0.0000 0.0000
# 2 40.0912 53.6141 62.8291 0.0000 0.0000 0.0000
# 3 89.8471 62.8291 187.3587 0.0000 0.0000 0.0000
# 4 0.0000 0.0000 0.0000 -3.4019 0.0000 0.0000
# 5 0.0000 0.0000 0.0000 0.0000 38.7252 0.0000
# 6 0.0000 0.0000 0.0000 0.0000 0.0000 19.7163
#
#
#
# Elastic Compliance Matrix: (Units=1/GPa)
#
#
# Indices 1 2 3 4 5 6 
#
# 1 0.019879 -0.006085 -0.007493 0.000000 0.000000 0.000000
# 2 -0.006085 0.032589 -0.008011 0.000000 0.000000 0.000000
# 3 -0.007493 -0.008011 0.011617 0.000000 0.000000 0.000000
# 4 0.000000 0.000000 0.000000 -0.293951 0.000000 0.000000
# 5 0.000000 0.000000 0.000000 0.000000 0.025823 0.000000
# 6 0.000000 0.000000 0.000000 0.000000 0.000000 0.050719
#
#
# Mechanical properties :
#
#
# Convention : Reuss Voigt Hill
#
# Bulk Modulus (GPa) = 47.82557 80.32732 64.07644
# Shear Modulus (GPa) = -48.46024 20.65084 -13.90470
#
# Velocity S-wave (km/s) = -5.15870 3.36757 -2.76330
# Velocity P-wave (km/s) = 3.03632 7.69628 5.00068
#
# Compressibility (1/GPa) = 0.02090932
#
# Stress axis : x y z
#
# Youngs Moduli (GPa) = 50.30335 30.68489 86.08336
#
# Poissons Ratio (x) = 0.18672 0.64498
# Poissons Ratio (y) = 0.30609 0.68957
# Poissons Ratio (z) = 0.37690 0.24580
#
# Static dielectric constant tensor:
#      x y z
#    x 3.383290 0.000000 0.000000 
#    y 0.000000 3.126270 0.000000 
#    z 0.000000 0.000000 3.556850 
# 
# 
# High freq. dielectric constant tensor:
#      x y z
#    x 1.705580 0.000000 0.000000 
#    y 0.000000 1.681380 0.000000 
#    z 0.000000 0.000000 1.720650 
# 
# From -- ./inp_files/36904.got.cif
#   From: 2010.03.12/outbox.cif.g09.slc.cpg/sg51_19_cif.got.tgz:36904.got - 2010.04.16 13:43:02.
