data_PCOD8213487
_publ_section_title
;
Structure prediction by ZEFSAII (Michael W. Deem and Ramdas Pophale) SiO2 
 PCOD8213487
Probable space group: P M M A
;
_chemical_formula_sum "Si O2"
_cell_formula_units_Z 64
_cell_length_a 18.635086
_cell_length_b 13.776943
_cell_length_c 12.781006
_cell_angle_alpha 90.000000
_cell_angle_beta 90.000000
_cell_angle_gamma 90.000000
_cell_volume 3281.325410
_symmetry_space_group_name_H-M "P M M A"
_symmetry_group_IT_number 51
_symmetry_cell_setting 'orthorhombic'
loop_
_space_group_symop_operation_xyz
x,y,z
1/2-x,-y,z
1/2+x,-y,-z
-x,y,-z
-x,-y,-z
1/2+x,y,-z
1/2-x,y,z
x,-y,z
loop_
_atom_site_type_symbol
_atom_site_label
_atom_site_fract_x
_atom_site_fract_y
_atom_site_fract_z
Si Si1 0.909208 0.612938 0.791594
Si Si2 0.582886 0.114074 0.505863
Si Si3 0.665134 0.890250 0.074455
Si Si4 0.425053 0.613312 0.782483
Si Si5 0.333851 0.730843 0.385086
Si Si6 0.582992 0.283832 0.004375
Si Si7 0.667144 0.611415 0.409431
Si Si8 0.171051 0.114475 0.692366
O O1 0.889345 0.500000 0.780641
O O2 0.857408 0.675631 0.718969
O O3 0.895219 0.644895 0.910668
O O4 0.991379 0.633029 0.759927
O O5 0.500000 0.142430 0.500000
O O6 0.621732 0.169022 0.601866
O O7 0.617773 0.151600 0.397278
O O8 0.593774 0.000000 0.524790
O O9 0.750000 0.881734 0.062755
O O10 0.641553 0.859707 0.192383
O O11 0.640176 0.000000 0.048733
O O12 0.626904 0.816739 0.994797
O O13 0.409783 0.500000 0.796024
O O14 0.379134 0.656503 0.685868
O O15 0.397561 0.662703 0.888222
O O16 0.250000 0.755535 0.377411
O O17 0.352779 0.663859 0.483514
O O18 0.500000 0.256088 0.000000
O O19 0.750000 0.623321 0.379719
O O20 0.645686 0.500000 0.426574
O O21 0.250000 0.161328 0.672553
O O22 0.179160 0.000000 0.685762
#
# Coordination Sequence:
#
# PCOD8213487 Si02
#       8
#     8   8   8   8   8   8   8   8
#     4  10  22  40  60  82 113 157 201 238 284 350
#     4  10  22  37  56  84 118 152 191 240 287 341
#     4   9  19  35  56  84 114 144 186 237 288 345
#     4   9  19  36  59  86 115 145 184 240 299 351
#     4  11  24  38  57  83 115 157 199 238 284 344
#     4  10  21  36  58  85 115 149 192 241 295 348
#     4   9  19  35  55  84 118 146 178 231 295 347
#     4   8  15  31  55  80 108 142 177 222 283 342
#
# _framework density 19.504313
#
# number of rings (size 3 to 8) (size 9 to 14) (size 15 to 20)
#    0.000    2.500    0.000    1.875    3.500    5.250 
#    0.000    2.500    0.000    2.250    0.000    0.000 
#    0.000    0.000    0.000    0.000    0.000    0.000 
#
# Total GULP energy -793687.986089 kJ/mol
# GULP energy per Si atom -12401.374783 kJ/mol
# Density = 1.945992 g / cm^3
# Si number density = 19.504313 Si / 1000 Ang^3
#
#
#
# Elastic Constant Matrix: (Units=GPa)
#
#
# Indices 1 2 3 4 5 6 
#
# 1 83.9255 41.4293 46.3311 0.0000 0.0000 0.0000
# 2 41.4293 79.4840 34.2809 0.0000 0.0000 0.0000
# 3 46.3311 34.2809 80.4675 0.0000 0.0000 0.0000
# 4 0.0000 0.0000 0.0000 32.8146 0.0000 0.0000
# 5 0.0000 0.0000 0.0000 0.0000 31.3528 0.0000
# 6 0.0000 0.0000 0.0000 0.0000 0.0000 21.3613
#
#
#
# Elastic Compliance Matrix: (Units=1/GPa)
#
#
# Indices 1 2 3 4 5 6 
#
# 1 0.020001 -0.006687 -0.008667 0.000000 0.000000 0.000000
# 2 -0.006687 0.017649 -0.003669 0.000000 0.000000 0.000000
# 3 -0.008667 -0.003669 0.018981 0.000000 0.000000 0.000000
# 4 0.000000 0.000000 0.000000 0.030474 0.000000 0.000000
# 5 0.000000 0.000000 0.000000 0.000000 0.031895 0.000000
# 6 0.000000 0.000000 0.000000 0.000000 0.000000 0.046814
#
#
# Mechanical properties :
#
#
# Convention : Reuss Voigt Hill
#
# Bulk Modulus (GPa) = 53.80729 54.21774 54.01251
# Shear Modulus (GPa) = 23.80338 25.22813 24.51576
#
# Velocity S-wave (km/s) = 3.49724 3.60038 3.54918
# Velocity P-wave (km/s) = 6.62984 6.71876 6.67445
#
# Compressibility (1/GPa) = 0.01858484
#
# Stress axis : x y z
#
# Youngs Moduli (GPa) = 49.99720 56.66100 52.68520
#
# Poissons Ratio (x) = 0.37889 0.45664
# Poissons Ratio (y) = 0.33433 0.19328
# Poissons Ratio (z) = 0.43334 0.20786
#
# Static dielectric constant tensor:
#      x y z
#    x 3.513270 0.000000 0.000000 
#    y 0.000000 3.572910 0.000000 
#    z 0.000000 0.000000 3.561440 
# 
# 
# High freq. dielectric constant tensor:
#      x y z
#    x 1.752740 0.000000 0.000000 
#    y 0.000000 1.769140 0.000000 
#    z 0.000000 0.000000 1.749260 
# 
# From -- ./inp_files/17585.got.cif
#   From: 2010.03.12/outbox.cif.g09.slc.cpg/sg51_9_cif.got.tgz:17585.got - 2010.04.16 13:43:02.
