data_PCOD8213818
_publ_section_title
;
Structure prediction by ZEFSAII (Michael W. Deem and Ramdas Pophale) SiO2 
 PCOD8213818
Probable space group: P M M A
;
_chemical_formula_sum "Si O2"
_cell_formula_units_Z 48
_cell_length_a 9.240449
_cell_length_b 18.083278
_cell_length_c 14.705084
_cell_angle_alpha 90.000000
_cell_angle_beta 90.000000
_cell_angle_gamma 90.000000
_cell_volume 2457.184363
_symmetry_space_group_name_H-M "P M M A"
_symmetry_group_IT_number 51
_symmetry_cell_setting 'orthorhombic'
loop_
_space_group_symop_operation_xyz
x,y,z
1/2-x,-y,z
1/2+x,-y,-z
-x,y,-z
-x,-y,-z
1/2+x,y,-z
1/2-x,y,z
x,-y,z
loop_
_atom_site_type_symbol
_atom_site_label
_atom_site_fract_x
_atom_site_fract_y
_atom_site_fract_z
Si Si1 0.091802 0.292548 0.575950
Si Si2 0.081369 0.416753 0.143536
Si Si3 0.412219 0.818501 0.733148
Si Si4 0.409938 0.417329 0.353974
Si Si5 0.416581 0.913076 0.407718
Si Si6 0.076840 0.269711 0.910684
O O1 0.250000 0.302698 0.535510
O O2 0.091902 0.253982 0.672156
O O3 0.000000 0.247063 0.500000
O O4 0.022570 0.372753 0.586080
O O5 0.250000 0.398572 0.124730
O O6 0.045008 0.500000 0.106241
O O7 0.044959 0.415481 0.249307
O O8 0.981718 0.353615 0.099210
O O9 0.250000 0.852575 0.741573
O O10 0.516593 0.877517 0.684221
O O11 0.468354 0.787664 0.830126
O O12 0.250000 0.382626 0.364645
O O13 0.412606 0.500000 0.391460
O O14 0.500000 0.889515 0.500000
O O15 0.250000 0.887867 0.418306
O O16 0.429107 0.000000 0.392781
O O17 0.250000 0.272899 0.920089
O O18 0.000000 0.235857 0.000000
#
# Coordination Sequence:
#
# PCOD8213818 Si02
#       6
#     8   8   8   8   8   8
#     4  11  22  35  51  76 106 140 183 227 273 330
#     4   9  18  34  56  80 106 140 185 238 296 350
#     4  10  22  39  58  83 115 149 187 230 279 332
#     4   9  18  33  52  73  99 135 180 228 279 333
#     4  10  21  37  61  94 127 158 191 225 267 323
#     4  11  23  39  58  84 113 146 191 239 290 347
#
# _framework density 19.534552999999999
#
# number of rings (size 3 to 8) (size 9 to 14) (size 15 to 20)
#    0.000    2.000    1.667    3.000    0.000    6.333 
#    0.000    1.667    0.000    0.500    0.000    0.000 
#    0.000    0.000    0.000    0.000    0.000    0.000 
#
# Total GULP energy -594879.949446 kJ/mol
# GULP energy per Si atom -12393.332280 kJ/mol
# Density = 1.949009 g / cm^3
# Si number density = 19.534553 Si / 1000 Ang^3
#
#
#
# Elastic Constant Matrix: (Units=GPa)
#
#
# Indices 1 2 3 4 5 6 
#
# 1 135.5821 47.1169 61.8826 0.0000 0.0000 0.0000
# 2 47.1169 68.3566 39.7937 0.0000 0.0000 0.0000
# 3 61.8826 39.7937 119.9176 0.0000 0.0000 0.0000
# 4 0.0000 0.0000 0.0000 10.6509 0.0000 0.0000
# 5 0.0000 0.0000 0.0000 0.0000 33.1391 0.0000
# 6 0.0000 0.0000 0.0000 0.0000 0.0000 0.6310
#
#
#
# Elastic Compliance Matrix: (Units=1/GPa)
#
#
# Indices 1 2 3 4 5 6 
#
# 1 0.011009 -0.005306 -0.003920 0.000000 0.000000 0.000000
# 2 -0.005306 0.020689 -0.004127 0.000000 0.000000 0.000000
# 3 -0.003920 -0.004127 0.011732 0.000000 0.000000 0.000000
# 4 0.000000 0.000000 0.000000 0.093889 0.000000 0.000000
# 5 0.000000 0.000000 0.000000 0.000000 0.030176 0.000000
# 6 0.000000 0.000000 0.000000 0.000000 0.000000 1.584677
#
#
# Mechanical properties :
#
#
# Convention : Reuss Voigt Hill
#
# Bulk Modulus (GPa) = 59.79995 69.04919 64.42457
# Shear Modulus (GPa) = 2.80198 20.55508 11.67853
#
# Velocity S-wave (km/s) = 1.19895 3.24735 2.44773
# Velocity P-wave (km/s) = 5.70925 7.03451 6.40624
#
# Compressibility (1/GPa) = 0.01672242
#
# Stress axis : x y z
#
# Youngs Moduli (GPa) = 90.83632 48.33420 85.23880
#
# Poissons Ratio (x) = 0.25646 0.33416
# Poissons Ratio (y) = 0.48198 0.35182
# Poissons Ratio (z) = 0.35610 0.19950
#
# Static dielectric constant tensor:
#      x y z
#    x 3.716430 0.000000 0.000000 
#    y 0.000000 3.371370 0.000000 
#    z 0.000000 0.000000 3.644390 
# 
# 
# High freq. dielectric constant tensor:
#      x y z
#    x 1.765010 0.000000 0.000000 
#    y 0.000000 1.740930 0.000000 
#    z 0.000000 0.000000 1.760520 
# 
# From -- ./inp_files/21064.got.cif
#   From: 2010.03.12/outbox.cif.g09.slc.cpg/sg51_11_cif.got.tgz:21064.got - 2010.04.16 13:43:02.
