data_PCOD8213026
_publ_section_title
;
Structure prediction by ZEFSAII (Michael W. Deem and Ramdas Pophale) SiO2 
 PCOD8213026
Probable space group: P M M A
;
_chemical_formula_sum "Si O2"
_cell_formula_units_Z 64
_cell_length_a 9.161535
_cell_length_b 14.708605
_cell_length_c 24.231462
_cell_angle_alpha 90.000000
_cell_angle_beta 90.000000
_cell_angle_gamma 90.000000
_cell_volume 3265.271880
_symmetry_space_group_name_H-M "P M M A"
_symmetry_group_IT_number 51
_symmetry_cell_setting 'orthorhombic'
loop_
_space_group_symop_operation_xyz
x,y,z
1/2-x,-y,z
1/2+x,-y,-z
-x,y,-z
-x,-y,-z
1/2+x,y,-z
1/2-x,y,z
x,-y,z
loop_
_atom_site_type_symbol
_atom_site_label
_atom_site_fract_x
_atom_site_fract_y
_atom_site_fract_z
Si Si1 0.419590 0.393165 0.876942
Si Si2 0.080849 0.897057 0.365145
Si Si3 0.579549 0.261933 0.557151
Si Si4 0.419381 0.896079 0.150980
Si Si5 0.077707 0.245506 0.056269
Si Si6 0.914670 0.108171 0.258133
Si Si7 0.412042 0.392136 0.230121
Si Si8 0.076083 0.398815 0.350698
O O1 0.250000 0.368248 0.881572
O O2 0.447168 0.500000 0.885821
O O3 0.510158 0.340828 0.923595
O O4 0.476720 0.360163 0.817100
O O5 0.250000 0.890412 0.348960
O O6 0.046465 0.838583 0.419586
O O7 0.993314 0.856079 0.313294
O O8 0.033681 0.000000 0.378903
O O9 0.500000 0.277024 0.500000
O O10 0.750000 0.277429 0.547332
O O11 0.516021 0.333934 0.601288
O O12 0.250000 0.890888 0.165759
O O13 0.459159 0.835150 0.098575
O O14 0.504698 0.855140 0.203585
O O15 0.466359 0.000000 0.137949
O O16 0.250000 0.258057 0.047373
O O17 0.000000 0.216518 0.000000
O O18 0.750000 0.144463 0.257799
O O19 0.922990 0.000000 0.257923
O O20 0.250000 0.352039 0.217295
O O21 0.400672 0.500000 0.232190
O O22 0.471375 0.360257 0.290264
O O23 0.250000 0.401045 0.351282
O O24 0.012915 0.500000 0.361003
#
# Coordination Sequence:
#
# PCOD8213026 Si02
#       8
#     8   8   8   8   8   8   8   8
#     4  10  21  37  57  82 113 145 175 215 268 320
#     4   9  18  33  51  71 100 137 171 206 252 306
#     4  10  21  35  50  70  96 129 172 214 252 300
#     4   9  19  37  59  82 110 144 178 213 260 319
#     4  11  24  40  58  80 107 142 185 227 264 309
#     4   9  17  30  52  83 112 136 167 210 260 311
#     4   8  14  28  52  79 104 132 169 210 253 308
#     4   8  15  30  52  75  99 128 162 203 252 306
#
# _framework density 19.600206
#
# number of rings (size 3 to 8) (size 9 to 14) (size 15 to 20)
#    0.000    2.750    0.000    1.875    0.000    5.750 
#    0.000    3.125    0.000    0.750    0.000    0.000 
#    0.000    0.000    0.000    0.000    0.000    0.000 
#
# Total GULP energy -793553.452796 kJ/mol
# GULP energy per Si atom -12399.272700 kJ/mol
# Density = 1.955559 g / cm^3
# Si number density = 19.600206 Si / 1000 Ang^3
#
#
#
# Elastic Constant Matrix: (Units=GPa)
#
#
# Indices 1 2 3 4 5 6 
#
# 1 64.8628 12.3002 28.7618 0.0000 0.0000 0.0000
# 2 12.3002 46.4503 11.0057 0.0000 0.0000 0.0000
# 3 28.7618 11.0057 93.4772 0.0000 0.0000 0.0000
# 4 0.0000 0.0000 0.0000 30.0407 0.0000 0.0000
# 5 0.0000 0.0000 0.0000 0.0000 39.5939 0.0000
# 6 0.0000 0.0000 0.0000 0.0000 0.0000 17.1210
#
#
#
# Elastic Compliance Matrix: (Units=1/GPa)
#
#
# Indices 1 2 3 4 5 6 
#
# 1 0.018432 -0.003639 -0.005243 0.000000 0.000000 0.000000
# 2 -0.003639 0.022864 -0.001572 0.000000 0.000000 0.000000
# 3 -0.005243 -0.001572 0.012496 0.000000 0.000000 0.000000
# 4 0.000000 0.000000 0.000000 0.033288 0.000000 0.000000
# 5 0.000000 0.000000 0.000000 0.000000 0.025256 0.000000
# 6 0.000000 0.000000 0.000000 0.000000 0.000000 0.058408
#
#
# Mechanical properties :
#
#
# Convention : Reuss Voigt Hill
#
# Bulk Modulus (GPa) = 30.40934 34.32509 32.36721
# Shear Modulus (GPa) = 24.67743 27.53264 26.10503
#
# Velocity S-wave (km/s) = 3.55214 3.75201 3.65345
# Velocity P-wave (km/s) = 5.68965 6.02667 5.86058
#
# Compressibility (1/GPa) = 0.03288464
#
# Stress axis : x y z
#
# Youngs Moduli (GPa) = 54.25343 43.73601 80.02491
#
# Poissons Ratio (x) = 0.15914 0.41956
# Poissons Ratio (y) = 0.19741 0.12583
# Poissons Ratio (z) = 0.28445 0.06877
#
# Static dielectric constant tensor:
#      x y z
#    x 3.476680 0.000000 0.000000 
#    y 0.000000 3.588710 0.000000 
#    z 0.000000 0.000000 3.648250 
# 
# 
# High freq. dielectric constant tensor:
#      x y z
#    x 1.745050 0.000000 0.000000 
#    y 0.000000 1.758780 0.000000 
#    z 0.000000 0.000000 1.763630 
# 
# From -- ./inp_files/35032.got.cif
#   From: 2010.03.12/outbox.cif.g09.slc.cpg/sg51_18_cif.got.tgz:35032.got - 2010.04.16 13:43:02.
