data_PCOD8213875
_publ_section_title
;
Structure prediction by ZEFSAII (Michael W. Deem and Ramdas Pophale) SiO2 
 PCOD8213875
Probable space group: P M M A
;
_chemical_formula_sum "Si O2"
_cell_formula_units_Z 40
_cell_length_a 8.974982
_cell_length_b 14.864147
_cell_length_c 14.860877
_cell_angle_alpha 90.000000
_cell_angle_beta 90.000000
_cell_angle_gamma 90.000000
_cell_volume 1982.522010
_symmetry_space_group_name_H-M "P M M A"
_symmetry_group_IT_number 51
_symmetry_cell_setting 'orthorhombic'
loop_
_space_group_symop_operation_xyz
x,y,z
1/2-x,-y,z
1/2+x,-y,-z
-x,y,-z
-x,-y,-z
1/2+x,y,-z
1/2-x,y,z
x,-y,z
loop_
_atom_site_type_symbol
_atom_site_label
_atom_site_fract_x
_atom_site_fract_y
_atom_site_fract_z
Si Si1 0.422396 0.606279 0.769140
Si Si2 0.086761 0.893645 0.415846
Si Si3 0.581721 0.393079 0.588402
Si Si4 0.572485 0.262997 0.903096
Si Si5 0.572598 0.099801 0.780461
O O1 0.250000 0.634676 0.772017
O O2 0.441755 0.500000 0.779545
O O3 0.492695 0.641092 0.675705
O O4 0.511713 0.650522 0.850863
O O5 0.250000 0.849709 0.418444
O O6 0.010339 0.872776 0.318844
O O7 0.000000 0.850045 0.500000
O O8 0.097994 0.000000 0.427889
O O9 0.500000 0.354541 0.500000
O O10 0.750000 0.355622 0.592559
O O11 0.582535 0.500000 0.585213
O O12 0.750000 0.269073 0.910456
O O13 0.518351 0.172166 0.853039
O O14 0.500000 0.261328 0.000000
O O15 0.750000 0.097483 0.773479
O O16 0.514232 0.000000 0.808220
#
# Coordination Sequence:
#
# PCOD8213875 Si02
#       5
#     8   8   8   8   8
#     4  10  21  38  59  82 110 145 185 229 276 327
#     4   8  13  24  45  73 104 137 172 208 248 299
#     4   9  16  28  50  81 115 149 184 222 267 321
#     4  11  23  39  59  81 107 139 179 230 284 336
#     4   8  16  33  56  80 108 144 181 216 262 322
#
# _framework density 20.176323
#
# number of rings (size 3 to 8) (size 9 to 14) (size 15 to 20)
#    0.000    2.800    0.000    3.000    0.000    4.400 
#    0.000    3.000    0.000    6.600    0.000    0.000 
#    0.000    0.000    0.000    0.000    0.000    0.000 
#
# Total GULP energy -495838.743211 kJ/mol
# GULP energy per Si atom -12395.968580 kJ/mol
# Density = 2.013040 g / cm^3
# Si number density = 20.176323 Si / 1000 Ang^3
#
#
#
# Elastic Constant Matrix: (Units=GPa)
#
#
# Indices 1 2 3 4 5 6 
#
# 1 112.5983 34.0903 73.0252 0.0000 0.0000 0.0000
# 2 34.0903 59.8519 51.9591 0.0000 0.0000 0.0000
# 3 73.0252 51.9591 196.2425 0.0000 0.0000 0.0000
# 4 0.0000 0.0000 0.0000-1093.0437 0.0000 0.0000
# 5 0.0000 0.0000 0.0000 0.0000 39.9387 0.0000
# 6 0.0000 0.0000 0.0000 0.0000 0.0000 10.0902
#
#
#
# Elastic Compliance Matrix: (Units=1/GPa)
#
#
# Indices 1 2 3 4 5 6 
#
# 1 0.012391 -0.003967 -0.003561 0.000000 0.000000 0.000000
# 2 -0.003967 0.022964 -0.004604 0.000000 0.000000 0.000000
# 3 -0.003561 -0.004604 0.007640 0.000000 0.000000 0.000000
# 4 0.000000 0.000000 0.000000 -0.000915 0.000000 0.000000
# 5 0.000000 0.000000 0.000000 0.000000 0.025038 0.000000
# 6 0.000000 0.000000 0.000000 0.000000 0.000000 0.099106
#
#
# Mechanical properties :
#
#
# Convention : Reuss Voigt Hill
#
# Bulk Modulus (GPa) = 53.38395 76.31575 64.84985
# Shear Modulus (GPa) = 25.41529 -194.62841 -84.60656
#
# Velocity S-wave (km/s) = 3.55302 -9.83225 -6.48264
# Velocity P-wave (km/s) = 6.58392 9.53892 4.88073
#
# Compressibility (1/GPa) = 0.01873222
#
# Stress axis : x y z
#
# Youngs Moduli (GPa) = 80.70094 43.54599 130.89295
#
# Poissons Ratio (x) = 0.17273 0.46609
# Poissons Ratio (y) = 0.32011 0.60266
# Poissons Ratio (z) = 0.28736 0.20049
#
# Static dielectric constant tensor:
#      x y z
#    x 3.681950 0.000000 0.000000 
#    y 0.000000 3.515350 0.000000 
#    z 0.000000 0.000000 3.824540 
# 
# 
# High freq. dielectric constant tensor:
#      x y z
#    x 1.771010 0.000000 0.000000 
#    y 0.000000 1.774960 0.000000 
#    z 0.000000 0.000000 1.793790 
# 
# From -- ./inp_files/20470.got.cif
#   From: 2010.03.12/outbox.cif.g09.slc.cpg/sg51_11_cif.got.tgz:20470.got - 2010.04.16 13:43:02.
