data_PCOD8213455
_publ_section_title
;
Structure prediction by ZEFSAII (Michael W. Deem and Ramdas Pophale) SiO2 
 PCOD8213455
Probable space group: P M M A
;
_chemical_formula_sum "Si O2"
_cell_formula_units_Z 64
_cell_length_a 9.074633
_cell_length_b 14.371984
_cell_length_c 25.086924
_cell_angle_alpha 90.000000
_cell_angle_beta 90.000000
_cell_angle_gamma 90.000000
_cell_volume 3271.848677
_symmetry_space_group_name_H-M "P M M A"
_symmetry_group_IT_number 51
_symmetry_cell_setting 'orthorhombic'
loop_
_space_group_symop_operation_xyz
x,y,z
1/2-x,-y,z
1/2+x,-y,-z
-x,y,-z
-x,-y,-z
1/2+x,y,-z
1/2-x,y,z
x,-y,z
loop_
_atom_site_type_symbol
_atom_site_label
_atom_site_fract_x
_atom_site_fract_y
_atom_site_fract_z
Si Si1 0.076614 0.398788 0.415256
Si Si2 0.079710 0.219567 0.755468
Si Si3 0.923858 0.201281 0.551819
Si Si4 0.086214 0.397561 0.690758
Si Si5 0.415943 0.110161 0.948492
Si Si6 0.075630 0.229687 0.132602
Si Si7 0.422799 0.394140 0.054953
Si Si8 0.421100 0.109592 0.337449
O O1 0.250000 0.404058 0.416779
O O2 0.011121 0.500000 0.434763
O O3 0.023910 0.309960 0.449034
O O4 0.032022 0.378979 0.354769
O O5 0.250000 0.192429 0.765758
O O6 0.062209 0.325606 0.737676
O O7 0.986466 0.217659 0.808698
O O8 0.015432 0.150298 0.711044
O O9 0.750000 0.189776 0.545895
O O10 0.977186 0.152266 0.606304
O O11 0.000000 0.154449 0.500000
O O12 0.250000 0.386964 0.665709
O O13 0.064403 0.500000 0.715698
O O14 0.250000 0.150547 0.947919
O O15 0.507210 0.142439 0.897768
O O16 0.412569 0.000000 0.948451
O O17 0.500000 0.149689 0.000000
O O18 0.250000 0.220135 0.134784
O O19 0.027832 0.325957 0.103224
O O20 0.250000 0.385735 0.044937
O O21 0.467556 0.500000 0.070503
O O22 0.500000 0.363450 0.000000
O O23 0.250000 0.134637 0.328363
O O24 0.447158 0.000000 0.339640
#
# Coordination Sequence:
#
# PCOD8213455 Si02
#       8
#     8   8   8   8   8   8   8   8
#     4   9  17  31  53  80 110 145 183 222 266 321
#     4  11  23  38  58  84 114 147 186 233 285 340
#     4  10  21  36  56  84 116 147 184 229 278 336
#     4   9  18  33  54  80 109 142 180 222 270 325
#     4  10  21  38  60  85 114 147 184 230 284 340
#     4  11  23  37  57  84 116 153 193 237 283 336
#     4   9  19  36  57  83 116 155 198 240 283 332
#     4  10  22  42  64  83 108 145 188 235 288 345
#
# _framework density 19.560805999999999
#
# number of rings (size 3 to 8) (size 9 to 14) (size 15 to 20)
#    0.000    2.125    1.250    1.500    0.000    6.000 
#    0.000    0.000    0.000    0.000    0.000    0.000 
#    0.000    0.000    0.000    0.000    0.000    0.000 
#
# Total GULP energy -793366.213166 kJ/mol
# GULP energy per Si atom -12396.347081 kJ/mol
# Density = 1.951628 g / cm^3
# Si number density = 19.560806 Si / 1000 Ang^3
#
#
#
# Elastic Constant Matrix: (Units=GPa)
#
#
# Indices 1 2 3 4 5 6 
#
# 1 69.7858 45.1012 56.0382 0.0000 0.0000 0.0000
# 2 45.1012 70.9065 47.9270 0.0000 0.0000 0.0000
# 3 56.0382 47.9270 140.3761 0.0000 0.0000 0.0000
# 4 0.0000 0.0000 0.0000 48.0488 0.0000 0.0000
# 5 0.0000 0.0000 0.0000 0.0000 37.9685 0.0000
# 6 0.0000 0.0000 0.0000 0.0000 0.0000 23.4776
#
#
#
# Elastic Compliance Matrix: (Units=1/GPa)
#
#
# Indices 1 2 3 4 5 6 
#
# 1 0.028530 -0.013583 -0.006751 0.000000 0.000000 0.000000
# 2 -0.013583 0.024801 -0.003045 0.000000 0.000000 0.000000
# 3 -0.006751 -0.003045 0.010859 0.000000 0.000000 0.000000
# 4 0.000000 0.000000 0.000000 0.020812 0.000000 0.000000
# 5 0.000000 0.000000 0.000000 0.000000 0.026338 0.000000
# 6 0.000000 0.000000 0.000000 0.000000 0.000000 0.042594
#
#
# Mechanical properties :
#
#
# Convention : Reuss Voigt Hill
#
# Bulk Modulus (GPa) = 57.37351 64.35569 60.86460
# Shear Modulus (GPa) = 24.21278 30.69912 27.45595
#
# Velocity S-wave (km/s) = 3.52209 3.96589 3.75056
# Velocity P-wave (km/s) = 6.77751 7.34457 7.06673
#
# Compressibility (1/GPa) = 0.01742965
#
# Stress axis : x y z
#
# Youngs Moduli (GPa) = 35.05134 40.32063 92.09313
#
# Poissons Ratio (x) = 0.54769 0.62176
# Poissons Ratio (y) = 0.47611 0.28044
# Poissons Ratio (z) = 0.23665 0.12278
#
# Static dielectric constant tensor:
#      x y z
#    x 3.520990 0.000000 0.000000 
#    y 0.000000 3.862120 0.000000 
#    z 0.000000 0.000000 3.623050 
# 
# 
# High freq. dielectric constant tensor:
#      x y z
#    x 1.761150 0.000000 0.000000 
#    y 0.000000 1.770510 0.000000 
#    z 0.000000 0.000000 1.754030 
# 
# From -- ./inp_files/34999.got.cif
#   From: 2010.03.12/outbox.cif.g09.slc.cpg/sg51_18_cif.got.tgz:34999.got - 2010.04.16 13:43:02.
