data_PCOD8213592
_publ_section_title
;
Structure prediction by ZEFSAII (Michael W. Deem and Ramdas Pophale) SiO2 
 PCOD8213592
Probable space group: P M M A
;
_chemical_formula_sum "Si O2"
_cell_formula_units_Z 48
_cell_length_a 19.247610
_cell_length_b 13.866266
_cell_length_c 10.168092
_cell_angle_alpha 90.000000
_cell_angle_beta 90.000000
_cell_angle_gamma 90.000000
_cell_volume 2713.787292
_symmetry_space_group_name_H-M "P M M A"
_symmetry_group_IT_number 51
_symmetry_cell_setting 'orthorhombic'
loop_
_space_group_symop_operation_xyz
x,y,z
1/2-x,-y,z
1/2+x,-y,-z
-x,y,-z
-x,-y,-z
1/2+x,y,-z
1/2-x,y,z
x,-y,z
loop_
_atom_site_type_symbol
_atom_site_label
_atom_site_fract_x
_atom_site_fract_y
_atom_site_fract_z
Si Si1 0.512331 0.892855 0.717488
Si Si2 0.170342 0.386061 0.231663
Si Si3 0.536985 0.296438 0.863254
Si Si4 0.111499 0.892847 0.529988
Si Si5 0.826980 0.696111 0.481341
Si Si6 0.958476 0.386951 0.375368
O O1 0.531786 0.816981 0.830573
O O2 0.568137 0.888033 0.602829
O O3 0.437177 0.868997 0.655339
O O4 0.512037 0.000000 0.780514
O O5 0.250000 0.362488 0.190983
O O6 0.156296 0.500000 0.228665
O O7 0.117544 0.331663 0.132255
O O8 0.153721 0.347137 0.376862
O O9 0.497350 0.359865 0.756501
O O10 0.500000 0.317656 0.000000
O O11 0.171214 0.812698 0.519101
O O12 0.144230 0.000000 0.545780
O O13 0.750000 0.663026 0.440176
O O14 0.880748 0.655520 0.374631
O O15 0.953371 0.500000 0.388524
O O16 0.000000 0.342247 0.500000
#
# Coordination Sequence:
#
# PCOD8213592 Si02
#       6
#     8   8   8   8   8   8
#     4   9  17  32  55  82 111 142 180 226 275 326
#     4  10  21  37  56  80 112 149 186 226 276 332
#     4  12  23  36  59  87 112 145 188 232 276 327
#     4   9  16  30  55  82 109 142 181 228 277 325
#     4  11  20  32  55  85 114 145 182 227 282 334
#     4  11  21  36  57  79 109 146 186 232 272 318
#
# _framework density 17.687459
#
# number of rings (size 3 to 8) (size 9 to 14) (size 15 to 20)
#    0.000    1.667    5.000    2.000    0.000    3.000 
#    0.000    0.833    0.000    0.500    0.000    0.000 
#    0.000    0.000    0.000    0.000    0.000    0.000 
#
# Total GULP energy -595132.610159 kJ/mol
# GULP energy per Si atom -12398.596045 kJ/mol
# Density = 1.764720 g / cm^3
# Si number density = 17.687459 Si / 1000 Ang^3
#
#
#
# Elastic Constant Matrix: (Units=GPa)
#
#
# Indices 1 2 3 4 5 6 
#
# 1 106.5439 41.3079 39.4428 0.0000 0.0000 0.0000
# 2 41.3079 99.2390 30.8053 0.0000 0.0000 0.0000
# 3 39.4428 30.8053 69.4776 0.0000 0.0000 0.0000
# 4 0.0000 0.0000 0.0000 11.8420 0.0000 0.0000
# 5 0.0000 0.0000 0.0000 0.0000 19.0994 0.0000
# 6 0.0000 0.0000 0.0000 0.0000 0.0000 27.0073
#
#
#
# Elastic Compliance Matrix: (Units=1/GPa)
#
#
# Indices 1 2 3 4 5 6 
#
# 1 0.012900 -0.003590 -0.005731 0.000000 0.000000 0.000000
# 2 -0.003590 0.012684 -0.003586 0.000000 0.000000 0.000000
# 3 -0.005731 -0.003586 0.019237 0.000000 0.000000 0.000000
# 4 0.000000 0.000000 0.000000 0.084446 0.000000 0.000000
# 5 0.000000 0.000000 0.000000 0.000000 0.052358 0.000000
# 6 0.000000 0.000000 0.000000 0.000000 0.000000 0.037027
#
#
# Mechanical properties :
#
#
# Convention : Reuss Voigt Hill
#
# Bulk Modulus (GPa) = 52.61556 55.37473 53.99514
# Shear Modulus (GPa) = 19.93619 22.50338 21.21979
#
# Velocity S-wave (km/s) = 3.36093 3.57077 3.46744
# Velocity P-wave (km/s) = 6.69874 6.95528 6.82821
#
# Compressibility (1/GPa) = 0.01900579
#
# Stress axis : x y z
#
# Youngs Moduli (GPa) = 77.52229 78.83822 51.98413
#
# Poissons Ratio (x) = 0.28305 0.29793
# Poissons Ratio (y) = 0.27833 0.18640
# Poissons Ratio (z) = 0.44430 0.28269
#
# Static dielectric constant tensor:
#      x y z
#    x 3.298880 0.000000 0.000000 
#    y 0.000000 3.917940 0.000000 
#    z 0.000000 0.000000 2.872960 
# 
# 
# High freq. dielectric constant tensor:
#      x y z
#    x 1.678060 0.000000 0.000000 
#    y 0.000000 1.706440 0.000000 
#    z 0.000000 0.000000 1.635310 
# 
# From -- ./inp_files/9621.got.cif
#   From: 2010.03.12/outbox.cif.g09.slc.cpg/sg51_5_cif.got.tgz:9621.got - 2010.04.16 13:43:02.
