data_PCOD8213766
_publ_section_title
;
Structure prediction by ZEFSAII (Michael W. Deem and Ramdas Pophale) SiO2 
 PCOD8213766
Probable space group: P M M A
;
_chemical_formula_sum "Si O2"
_cell_formula_units_Z 64
_cell_length_a 8.878741
_cell_length_b 24.402174
_cell_length_c 15.204982
_cell_angle_alpha 90.000000
_cell_angle_beta 90.000000
_cell_angle_gamma 90.000000
_cell_volume 3294.320261
_symmetry_space_group_name_H-M "P M M A"
_symmetry_group_IT_number 51
_symmetry_cell_setting 'orthorhombic'
loop_
_space_group_symop_operation_xyz
x,y,z
1/2-x,-y,z
1/2+x,-y,-z
-x,y,-z
-x,-y,-z
1/2+x,y,-z
1/2-x,y,z
x,-y,z
loop_
_atom_site_type_symbol
_atom_site_label
_atom_site_fract_x
_atom_site_fract_y
_atom_site_fract_z
Si Si1 0.571097 0.360132 0.769930
Si Si2 0.927828 0.330911 0.410749
Si Si3 0.422613 0.938130 0.761001
Si Si4 0.423395 0.435308 0.909856
Si Si5 0.073579 0.901534 0.412873
Si Si6 0.579798 0.220427 0.626484
Si Si7 0.080676 0.758757 0.173689
Si Si8 0.573065 0.855982 0.090044
O O1 0.750000 0.364152 0.758733
O O2 0.498661 0.361907 0.673005
O O3 0.508404 0.410188 0.826395
O O4 0.525503 0.304129 0.820154
O O5 0.750000 0.340108 0.410974
O O6 0.000000 0.355899 0.500000
O O7 0.964660 0.266150 0.407788
O O8 0.250000 0.923285 0.740250
O O9 0.514969 0.933109 0.671760
O O10 0.487298 0.896751 0.834302
O O11 0.438802 0.000000 0.796848
O O12 0.250000 0.416633 0.910667
O O13 0.439665 0.500000 0.900504
O O14 0.500000 0.414681 0.000000
O O15 0.250000 0.909900 0.417138
O O16 0.028286 0.837532 0.411468
O O17 0.000000 0.927697 0.500000
O O18 0.750000 0.237030 0.597942
O O19 0.572817 0.214151 0.730906
O O20 0.250000 0.761584 0.135808
O O21 0.973204 0.793145 0.109758
O O22 0.750000 0.859648 0.080354
O O23 0.500000 0.876231 0.000000
#
# Coordination Sequence:
#
# PCOD8213766 Si02
#       8
#     8   8   8   8   8   8   8   8
#     4  10  21  37  58  86 120 158 198 243 291 343
#     4  11  21  33  52  80 117 158 199 240 285 340
#     4  10  23  43  62  81 107 139 181 233 283 337
#     4  10  21  38  61  89 120 156 200 248 296 346
#     4  11  22  36  57  84 112 144 182 225 276 336
#     4   9  18  33  53  79 111 146 184 228 276 331
#     4   9  18  35  56  81 115 148 182 227 276 331
#     4  11  23  38  60  85 110 143 181 225 281 341
#
# _framework density 19.427375999999999
#
# number of rings (size 3 to 8) (size 9 to 14) (size 15 to 20)
#    0.000    1.875    1.250    3.750    0.000    7.000 
#    0.000    0.000    0.000    0.375    0.000    0.000 
#    0.000    0.000    0.000    0.000    0.000    0.000 
#
# Total GULP energy -793775.461999 kJ/mol
# GULP energy per Si atom -12402.741594 kJ/mol
# Density = 1.938316 g / cm^3
# Si number density = 19.427376 Si / 1000 Ang^3
#
#
#
# Elastic Constant Matrix: (Units=GPa)
#
#
# Indices 1 2 3 4 5 6 
#
# 1 99.1841 34.6015 50.8952 0.0000 0.0000 0.0000
# 2 34.6015 49.6335 42.0751 0.0000 0.0000 0.0000
# 3 50.8952 42.0751 124.6199 0.0000 0.0000 0.0000
# 4 0.0000 0.0000 0.0000 14.7119 0.0000 0.0000
# 5 0.0000 0.0000 0.0000 0.0000 37.3554 0.0000
# 6 0.0000 0.0000 0.0000 0.0000 0.0000 26.4780
#
#
#
# Elastic Compliance Matrix: (Units=1/GPa)
#
#
# Indices 1 2 3 4 5 6 
#
# 1 0.014319 -0.007040 -0.003471 0.000000 0.000000 0.000000
# 2 -0.007040 0.031688 -0.007823 0.000000 0.000000 0.000000
# 3 -0.003471 -0.007823 0.012083 0.000000 0.000000 0.000000
# 4 0.000000 0.000000 0.000000 0.067972 0.000000 0.000000
# 5 0.000000 0.000000 0.000000 0.000000 0.026770 0.000000
# 6 0.000000 0.000000 0.000000 0.000000 0.000000 0.037767
#
#
# Mechanical properties :
#
#
# Convention : Reuss Voigt Hill
#
# Bulk Modulus (GPa) = 46.68281 58.73122 52.70702
# Shear Modulus (GPa) = 21.33016 25.43344 23.38180
#
# Velocity S-wave (km/s) = 3.31712 3.62215 3.47298
# Velocity P-wave (km/s) = 6.22516 6.91304 6.57810
#
# Compressibility (1/GPa) = 0.02142116
#
# Stress axis : x y z
#
# Youngs Moduli (GPa) = 69.83494 31.55805 82.75774
#
# Poissons Ratio (x) = 0.22217 0.28727
# Poissons Ratio (y) = 0.49164 0.64745
# Poissons Ratio (z) = 0.24241 0.24689
#
# Static dielectric constant tensor:
#      x y z
#    x 3.530660 0.000000 0.000000 
#    y 0.000000 3.343380 0.000000 
#    z 0.000000 0.000000 3.608890 
# 
# 
# High freq. dielectric constant tensor:
#      x y z
#    x 1.761460 0.000000 0.000000 
#    y 0.000000 1.733390 0.000000 
#    z 0.000000 0.000000 1.763160 
# 
# From -- ./inp_files/22230.got.cif
#   From: 2010.03.12/outbox.cif.g09.slc.cpg/sg51_12_cif.got.tgz:22230.got - 2010.04.16 13:43:02.
