data_PCOD8213402
_publ_section_title
;
Structure prediction by ZEFSAII (Michael W. Deem and Ramdas Pophale) SiO2 
 PCOD8213402
Probable space group: P M M A
;
_chemical_formula_sum "Si O2"
_cell_formula_units_Z 56
_cell_length_a 18.713461
_cell_length_b 8.963476
_cell_length_c 17.686874
_cell_angle_alpha 90.000000
_cell_angle_beta 90.000000
_cell_angle_gamma 90.000000
_cell_volume 2966.754832
_symmetry_space_group_name_H-M "P M M A"
_symmetry_group_IT_number 51
_symmetry_cell_setting 'orthorhombic'
loop_
_space_group_symop_operation_xyz
x,y,z
1/2-x,-y,z
1/2+x,-y,-z
-x,y,-z
-x,-y,-z
1/2+x,y,-z
1/2-x,y,z
x,-y,z
loop_
_atom_site_type_symbol
_atom_site_label
_atom_site_fract_x
_atom_site_fract_y
_atom_site_fract_z
Si Si1 0.666560 0.169552 0.081660
Si Si2 0.415855 0.328538 0.789997
Si Si3 0.580566 0.328689 0.783710
Si Si4 0.910550 0.175099 0.363651
Si Si5 0.666397 0.168789 0.909266
Si Si6 0.167134 0.675257 0.500113
Si Si7 0.924129 0.824913 0.630103
O O1 0.750000 0.188578 0.096823
O O2 0.625055 0.282990 0.134677
O O3 0.642850 0.000000 0.098912
O O4 0.647871 0.210970 0.995429
O O5 0.399642 0.500000 0.770905
O O6 0.498875 0.300498 0.805523
O O7 0.389331 0.229285 0.719890
O O8 0.595497 0.500000 0.763148
O O9 0.626889 0.283911 0.855517
O O10 0.602685 0.229856 0.711718
O O11 0.858514 0.257018 0.421128
O O12 0.992735 0.216436 0.382100
O O13 0.897452 0.000000 0.369522
O O14 0.750000 0.183613 0.894547
O O15 0.641100 0.000000 0.892060
O O16 0.250000 0.714877 0.487872
O O17 0.153897 0.500000 0.501902
O O18 0.121815 0.744052 0.432759
O O19 0.911227 0.000000 0.623514
#
# Coordination Sequence:
#
# PCOD8213402 Si02
#       7
#     8   8   8   8   8   8   8
#     4   9  19  36  56  78 106 142 183 224 268 320
#     4  10  21  36  55  81 111 142 178 221 269 320
#     4  10  21  36  55  81 111 142 178 221 269 320
#     4  10  21  38  60  83 107 140 182 223 266 318
#     4   9  19  36  56  78 106 142 183 224 268 320
#     4  11  24  39  56  82 114 145 178 217 264 318
#     4  10  21  38  60  83 107 140 182 223 266 318
#
# _framework density 18.875843
#
# number of rings (size 3 to 8) (size 9 to 14) (size 15 to 20)
#    0.000    2.143    0.000    3.429    0.000    9.143 
#    0.000    4.286    0.000    0.000    0.000    0.000 
#    0.000    0.000    0.000    0.000    0.000    0.000 
#
# Total GULP energy -694633.415027 kJ/mol
# GULP energy per Si atom -12404.168125 kJ/mol
# Density = 1.883288 g / cm^3
# Si number density = 18.875843 Si / 1000 Ang^3
#
#
#
# Elastic Constant Matrix: (Units=GPa)
#
#
# Indices 1 2 3 4 5 6 
#
# 1 34.6460 35.7383 32.7907 0.0000 0.0000 0.0000
# 2 35.7383 82.0713 41.2423 0.0000 0.0000 0.0000
# 3 32.7907 41.2423 95.7600 0.0000 0.0000 0.0000
# 4 0.0000 0.0000 0.0000 -19.8520 0.0000 0.0000
# 5 0.0000 0.0000 0.0000 0.0000 78.6349 0.0000
# 6 0.0000 0.0000 0.0000 0.0000 0.0000 33.0468
#
#
#
# Elastic Compliance Matrix: (Units=1/GPa)
#
#
# Indices 1 2 3 4 5 6 
#
# 1 0.061912 -0.020810 -0.012238 0.000000 0.000000 0.000000
# 2 -0.020810 0.022545 -0.002584 0.000000 0.000000 0.000000
# 3 -0.012238 -0.002584 0.015746 0.000000 0.000000 0.000000
# 4 0.000000 0.000000 0.000000 -0.050373 0.000000 0.000000
# 5 0.000000 0.000000 0.000000 0.000000 0.012717 0.000000
# 6 0.000000 0.000000 0.000000 0.000000 0.000000 0.030260
#
#
# Mechanical properties :
#
#
# Convention : Reuss Voigt Hill
#
# Bulk Modulus (GPa) = 34.55466 48.00220 41.27843
# Shear Modulus (GPa) = 28.78252 25.21300 26.99776
#
# Velocity S-wave (km/s) = 3.90915 3.65873 3.78601
# Velocity P-wave (km/s) = 6.22264 6.58286 6.40529
#
# Compressibility (1/GPa) = 0.02893966
#
# Stress axis : x y z
#
# Youngs Moduli (GPa) = 16.15200 44.35621 63.50809
#
# Poissons Ratio (x) = 0.92306 0.77719
# Poissons Ratio (y) = 0.33613 0.16409
# Poissons Ratio (z) = 0.19766 0.11461
#
# Static dielectric constant tensor:
#      x y z
#    x 3.390500 0.000000 0.000000 
#    y 0.000000 3.520550 0.000000 
#    z 0.000000 0.000000 3.530330 
# 
# 
# High freq. dielectric constant tensor:
#      x y z
#    x 1.726510 0.000000 0.000000 
#    y 0.000000 1.742890 0.000000 
#    z 0.000000 0.000000 1.743790 
# 
# From -- ./inp_files/25681.got.cif
#   From: 2010.03.12/outbox.cif.g09.slc.cpg/sg51_13_cif.got.tgz:25681.got - 2010.04.16 13:43:02.
