data_PCOD8213621
_publ_section_title
;
Structure prediction by ZEFSAII (Michael W. Deem and Ramdas Pophale) SiO2 
 PCOD8213621
Probable space group: P M M A
;
_chemical_formula_sum "Si O2"
_cell_formula_units_Z 48
_cell_length_a 9.243990
_cell_length_b 9.196732
_cell_length_c 30.875817
_cell_angle_alpha 90.000000
_cell_angle_beta 90.000000
_cell_angle_gamma 90.000000
_cell_volume 2624.892102
_symmetry_space_group_name_H-M "P M M A"
_symmetry_group_IT_number 51
_symmetry_cell_setting 'orthorhombic'
loop_
_space_group_symop_operation_xyz
x,y,z
1/2-x,-y,z
1/2+x,-y,-z
-x,y,-z
-x,-y,-z
1/2+x,y,-z
1/2-x,y,z
x,-y,z
loop_
_atom_site_type_symbol
_atom_site_label
_atom_site_fract_x
_atom_site_fract_y
_atom_site_fract_z
Si Si1 0.917712 0.171685 0.289588
Si Si2 0.415577 0.330233 0.872782
Si Si3 0.917986 0.831252 0.042004
Si Si4 0.908639 0.328056 0.539183
Si Si5 0.579762 0.668333 0.635750
Si Si6 0.081206 0.329978 0.212961
O O1 0.750000 0.216773 0.287155
O O2 0.985376 0.230125 0.333824
O O3 0.001842 0.240411 0.249704
O O4 0.937855 0.000000 0.288041
O O5 0.250000 0.285137 0.862649
O O6 0.428783 0.500000 0.881725
O O7 0.474986 0.249860 0.915315
O O8 0.514792 0.281561 0.832847
O O9 0.750000 0.800031 0.034763
O O10 0.952497 0.000000 0.048521
O O11 0.000000 0.769268 0.000000
O O12 0.750000 0.258808 0.535562
O O13 0.898775 0.500000 0.533305
O O14 0.972008 0.294042 0.586831
O O15 0.000000 0.257838 0.500000
O O16 0.750000 0.700811 0.641644
O O17 0.549051 0.500000 0.646841
O O18 0.250000 0.291535 0.213289
O O19 0.054330 0.500000 0.221551
#
# Coordination Sequence:
#
# PCOD8213621 Si02
#       6
#     8   8   8   8   8   8
#     4  11  24  38  52  74 103 134 170 211 253 300
#     4   9  18  33  52  74 101 132 164 201 248 298
#     4   9  18  32  49  70  98 132 168 205 245 290
#     4   8  14  25  43  70 102 131 161 201 247 294
#     4   9  18  33  53  77 104 134 169 209 253 301
#     4  10  21  37  57  80 104 131 166 208 254 306
#
# _framework density 18.286466000000001
#
# number of rings (size 3 to 8) (size 9 to 14) (size 15 to 20)
#    0.000    2.667    0.000    2.500    0.000    7.000 
#    0.000    3.333    0.000    0.500    0.000    0.000 
#    0.000    0.000    0.000    0.000    0.000    0.000 
#
# Total GULP energy -595163.233149 kJ/mol
# GULP energy per Si atom -12399.234024 kJ/mol
# Density = 1.824485 g / cm^3
# Si number density = 18.286466 Si / 1000 Ang^3
#
#
#
# Elastic Constant Matrix: (Units=GPa)
#
#
# Indices 1 2 3 4 5 6 
#
# 1 105.8130 46.6018 89.7425 0.0000 0.0000 0.0000
# 2 46.6018 47.4478 59.7167 0.0000 0.0000 0.0000
# 3 89.7425 59.7167 182.7828 0.0000 0.0000 0.0000
# 4 0.0000 0.0000 0.0000 -11.6550 0.0000 0.0000
# 5 0.0000 0.0000 0.0000 0.0000 40.2909 0.0000
# 6 0.0000 0.0000 0.0000 0.0000 0.0000 23.1948
#
#
#
# Elastic Compliance Matrix: (Units=1/GPa)
#
#
# Indices 1 2 3 4 5 6 
#
# 1 0.019585 -0.012115 -0.005658 0.000000 0.000000 0.000000
# 2 -0.012115 0.043288 -0.008194 0.000000 0.000000 0.000000
# 3 -0.005658 -0.008194 0.010926 0.000000 0.000000 0.000000
# 4 0.000000 0.000000 0.000000 -0.085800 0.000000 0.000000
# 5 0.000000 0.000000 0.000000 0.000000 0.024820 0.000000
# 6 0.000000 0.000000 0.000000 0.000000 0.000000 0.043113
#
#
# Mechanical properties :
#
#
# Convention : Reuss Voigt Hill
#
# Bulk Modulus (GPa) = 45.73581 80.90730 63.32155
# Shear Modulus (GPa) = 43.42045 19.69830 31.55938
#
# Velocity S-wave (km/s) = 4.87813 3.28564 4.15882
# Velocity P-wave (km/s) = 7.53613 7.66383 7.60025
#
# Compressibility (1/GPa) = 0.02186470
#
# Stress axis : x y z
#
# Youngs Moduli (GPa) = 51.06067 23.10111 91.52567
#
# Poissons Ratio (x) = 0.27987 0.51781
# Poissons Ratio (y) = 0.61859 0.75000
# Poissons Ratio (z) = 0.28888 0.18930
#
# Static dielectric constant tensor:
#      x y z
#    x 3.452720 0.000000 0.000000 
#    y 0.000000 3.118070 0.000000 
#    z 0.000000 0.000000 3.619260 
# 
# 
# High freq. dielectric constant tensor:
#      x y z
#    x 1.707770 0.000000 0.000000 
#    y 0.000000 1.681680 0.000000 
#    z 0.000000 0.000000 1.725900 
# 
# From -- ./inp_files/37010.got.cif
#   From: 2010.03.12/outbox.cif.g09.slc.cpg/sg51_19_cif.got.tgz:37010.got - 2010.04.16 13:43:02.
