data_PCOD8213406
_publ_section_title
;
Structure prediction by ZEFSAII (Michael W. Deem and Ramdas Pophale) SiO2 
 PCOD8213406
Probable space group: P M M A
;
_chemical_formula_sum "Si O2"
_cell_formula_units_Z 48
_cell_length_a 15.077607
_cell_length_b 8.918016
_cell_length_c 18.261534
_cell_angle_alpha 90.000000
_cell_angle_beta 90.000000
_cell_angle_gamma 90.000000
_cell_volume 2455.488602
_symmetry_space_group_name_H-M "P M M A"
_symmetry_group_IT_number 51
_symmetry_cell_setting 'orthorhombic'
loop_
_space_group_symop_operation_xyz
x,y,z
1/2-x,-y,z
1/2+x,-y,-z
-x,y,-z
-x,-y,-z
1/2+x,y,-z
1/2-x,y,z
x,-y,z
loop_
_atom_site_type_symbol
_atom_site_label
_atom_site_fract_x
_atom_site_fract_y
_atom_site_fract_z
Si Si1 0.488576 0.176911 0.323210
Si Si2 0.851718 0.323960 0.400250
Si Si3 0.592471 0.164628 0.958610
Si Si4 0.347425 0.825698 0.890854
Si Si5 0.016442 0.675900 0.172605
Si Si6 0.851315 0.826732 0.551997
O O1 0.585154 0.242315 0.342309
O O2 0.454361 0.244643 0.247202
O O3 0.415952 0.224374 0.383211
O O4 0.497023 0.000000 0.315624
O O5 0.750000 0.280967 0.381865
O O6 0.867688 0.500000 0.394878
O O7 0.876479 0.270810 0.481650
O O8 0.586774 0.278323 0.890502
O O9 0.619222 0.000000 0.928212
O O10 0.500000 0.155265 0.000000
O O11 0.659270 0.218716 0.022549
O O12 0.250000 0.799186 0.856616
O O13 0.416553 0.724149 0.847388
O O14 0.376684 0.000000 0.883819
O O15 0.019647 0.500000 0.183647
O O16 0.750000 0.797983 0.576867
O O17 0.866654 0.000000 0.531237
#
# Coordination Sequence:
#
# PCOD8213406 Si02
#       6
#     8   8   8   8   8   8
#     4  11  22  36  56  79 106 144 184 222 266 316
#     4  10  21  36  55  81 112 143 175 216 267 321
#     4   8  15  31  53  73  95 126 165 204 242 293
#     4   9  18  34  56  79 102 132 171 213 257 308
#     4  11  22  34  50  74 106 140 171 210 261 313
#     4   9  19  37  59  81 104 134 178 227 270 316
#
# _framework density 19.548044000000001
#
# number of rings (size 3 to 8) (size 9 to 14) (size 15 to 20)
#    0.000    2.333    0.000    4.000    0.000    8.333 
#    0.000    0.833    0.000    5.000    0.000    0.000 
#    0.000    0.000    0.000    0.000    0.000    0.000 
#
# Total GULP energy -595129.328266 kJ/mol
# GULP energy per Si atom -12398.527672 kJ/mol
# Density = 1.950355 g / cm^3
# Si number density = 19.548044 Si / 1000 Ang^3
#
#
#
# Elastic Constant Matrix: (Units=GPa)
#
#
# Indices 1 2 3 4 5 6 
#
# 1 40.1320 12.9230 6.7805 0.0000 0.0000 0.0000
# 2 12.9230 83.7040 32.6025 0.0000 0.0000 0.0000
# 3 6.7805 32.6025 79.0042 0.0000 0.0000 0.0000
# 4 0.0000 0.0000 0.0000 11.8713 0.0000 0.0000
# 5 0.0000 0.0000 0.0000 0.0000 18.8135 0.0000
# 6 0.0000 0.0000 0.0000 0.0000 0.0000 20.9918
#
#
#
# Elastic Compliance Matrix: (Units=1/GPa)
#
#
# Indices 1 2 3 4 5 6 
#
# 1 0.026253 -0.003784 -0.000692 0.000000 0.000000 0.000000
# 2 -0.003784 0.014780 -0.005775 0.000000 0.000000 0.000000
# 3 -0.000692 -0.005775 0.015100 0.000000 0.000000 0.000000
# 4 0.000000 0.000000 0.000000 0.084237 0.000000 0.000000
# 5 0.000000 0.000000 0.000000 0.000000 0.053153 0.000000
# 6 0.000000 0.000000 0.000000 0.000000 0.000000 0.047638
#
#
# Mechanical properties :
#
#
# Convention : Reuss Voigt Hill
#
# Bulk Modulus (GPa) = 28.06385 34.16138 31.11261
# Shear Modulus (GPa) = 18.27894 20.37092 19.32493
#
# Velocity S-wave (km/s) = 3.06122 3.23165 3.14759
# Velocity P-wave (km/s) = 5.18481 5.60699 5.40003
#
# Compressibility (1/GPa) = 0.03563303
#
# Stress axis : x y z
#
# Youngs Moduli (GPa) = 38.09080 67.65799 66.22554
#
# Poissons Ratio (x) = 0.25600 0.04581
# Poissons Ratio (y) = 0.14413 0.38243
# Poissons Ratio (z) = 0.02635 0.39070
#
# Static dielectric constant tensor:
#      x y z
#    x 3.993550 0.000000 0.000000 
#    y 0.000000 3.448350 0.000000 
#    z 0.000000 0.000000 3.639710 
# 
# 
# High freq. dielectric constant tensor:
#      x y z
#    x 1.751460 0.000000 0.000000 
#    y 0.000000 1.754320 0.000000 
#    z 0.000000 0.000000 1.757930 
# 
# From -- ./inp_files/29438.got.cif
#   From: 2010.03.12/outbox.cif.g09.slc.cpg/sg51_15_cif.got.tgz:29438.got - 2010.04.16 13:43:02.
