data_PCOD8213355
_publ_section_title
;
Structure prediction by ZEFSAII (Michael W. Deem and Ramdas Pophale) SiO2 
 PCOD8213355
Probable space group: P M M A
;
_chemical_formula_sum "Si O2"
_cell_formula_units_Z 36
_cell_length_a 9.411571
_cell_length_b 7.933561
_cell_length_c 24.301679
_cell_angle_alpha 90.000000
_cell_angle_beta 90.000000
_cell_angle_gamma 90.000000
_cell_volume 1814.540091
_symmetry_space_group_name_H-M "P M M A"
_symmetry_group_IT_number 51
_symmetry_cell_setting 'orthorhombic'
loop_
_space_group_symop_operation_xyz
x,y,z
1/2-x,-y,z
1/2+x,-y,-z
-x,y,-z
-x,-y,-z
1/2+x,y,-z
1/2-x,y,z
x,-y,z
loop_
_atom_site_type_symbol
_atom_site_label
_atom_site_fract_x
_atom_site_fract_y
_atom_site_fract_z
Si Si1 0.586985 0.811277 0.368023
Si Si2 0.416811 0.500000 0.556363
Si Si3 0.412742 0.697573 0.948500
Si Si4 0.411572 0.193462 0.830007
Si Si5 0.088611 0.692080 0.268834
O O1 0.750000 0.777264 0.351017
O O2 0.537377 0.669375 0.411234
O O3 0.493505 0.804205 0.313193
O O4 0.569439 0.000000 0.393443
O O5 0.250000 0.500000 0.543897
O O6 0.500000 0.500000 0.500000
O O7 0.250000 0.742428 0.959965
O O8 0.438787 0.500000 0.941749
O O9 0.465798 0.785259 0.892492
O O10 0.500000 0.771009 0.000000
O O11 0.250000 0.262694 0.825050
O O12 0.513627 0.297774 0.790251
O O13 0.418918 0.000000 0.812368
O O14 0.250000 0.757915 0.263737
O O15 0.084896 0.500000 0.289086
#
# Coordination Sequence:
#
# PCOD8213355 Si02
#       5
#     8   4   8   8   8
#     4  10  21  39  63  89 118 157 201 240 286 344
#     4  10  22  40  62  90 124 160 199 242 283 334
#     4   9  18  33  52  73  99 135 179 226 276 333
#     4  10  21  36  54  78 108 144 186 229 279 343
#     4  11  23  37  56  84 116 149 188 236 291 344
#
# _framework density 19.839739999999999
#
# number of rings (size 3 to 8) (size 9 to 14) (size 15 to 20)
#    0.000    2.000    1.111    2.000    0.000    8.444 
#    0.000    2.222    0.000    0.000    0.000    0.000 
#    0.000    0.000    0.000    0.000    0.000    0.000 
#
# Total GULP energy -446496.293505 kJ/mol
# GULP energy per Si atom -12402.674820 kJ/mol
# Density = 1.979458 g / cm^3
# Si number density = 19.839740 Si / 1000 Ang^3
#
#
#
# Elastic Constant Matrix: (Units=GPa)
#
#
# Indices 1 2 3 4 5 6 
#
# 1 94.0211 33.3207 71.6609 0.0000 0.0000 0.0000
# 2 33.3207 91.2948 45.4833 0.0000 0.0000 0.0000
# 3 71.6609 45.4833 134.8207 0.0000 0.0000 0.0000
# 4 0.0000 0.0000 0.0000 23.2852 0.0000 0.0000
# 5 0.0000 0.0000 0.0000 0.0000 42.0338 0.0000
# 6 0.0000 0.0000 0.0000 0.0000 0.0000 16.2327
#
#
#
# Elastic Compliance Matrix: (Units=1/GPa)
#
#
# Indices 1 2 3 4 5 6 
#
# 1 0.018238 -0.002196 -0.008953 0.000000 0.000000 0.000000
# 2 -0.002196 0.013431 -0.003364 0.000000 0.000000 0.000000
# 3 -0.008953 -0.003364 0.013311 0.000000 0.000000 0.000000
# 4 0.000000 0.000000 0.000000 0.042946 0.000000 0.000000
# 5 0.000000 0.000000 0.000000 0.000000 0.023790 0.000000
# 6 0.000000 0.000000 0.000000 0.000000 0.000000 0.061604
#
#
# Mechanical properties :
#
#
# Convention : Reuss Voigt Hill
#
# Bulk Modulus (GPa) = 62.68071 69.00739 65.84405
# Shear Modulus (GPa) = 24.07733 27.62179 25.84956
#
# Velocity S-wave (km/s) = 3.48744 3.73533 3.61351
# Velocity P-wave (km/s) = 6.91942 7.31174 7.11828
#
# Compressibility (1/GPa) = 0.01595387
#
# Stress axis : x y z
#
# Youngs Moduli (GPa) = 54.83016 74.45520 75.12598
#
# Poissons Ratio (x) = 0.16350 0.67262
# Poissons Ratio (y) = 0.12041 0.25271
# Poissons Ratio (z) = 0.49091 0.25045
#
# Static dielectric constant tensor:
#      x y z
#    x 3.630060 0.000000 0.000000 
#    y 0.000000 3.639860 0.000000 
#    z 0.000000 0.000000 3.486990 
# 
# 
# High freq. dielectric constant tensor:
#      x y z
#    x 1.765120 0.000000 0.000000 
#    y 0.000000 1.778770 0.000000 
#    z 0.000000 0.000000 1.767280 
# 
# From -- ./inp_files/34337.got.cif
#   From: 2010.03.12/outbox.cif.g09.slc.cpg/sg51_18_cif.got.tgz:34337.got - 2010.04.16 13:43:02.
