data_PCOD8213347
_publ_section_title
;
Structure prediction by ZEFSAII (Michael W. Deem and Ramdas Pophale) SiO2 
 PCOD8213347
Probable space group: P M M A
;
_chemical_formula_sum "Si O2"
_cell_formula_units_Z 48
_cell_length_a 9.210616
_cell_length_b 9.266374
_cell_length_c 30.839725
_cell_angle_alpha 90.000000
_cell_angle_beta 90.000000
_cell_angle_gamma 90.000000
_cell_volume 2632.140078
_symmetry_space_group_name_H-M "P M M A"
_symmetry_group_IT_number 51
_symmetry_cell_setting 'orthorhombic'
loop_
_space_group_symop_operation_xyz
x,y,z
1/2-x,-y,z
1/2+x,-y,-z
-x,y,-z
-x,-y,-z
1/2+x,y,-z
1/2-x,y,z
x,-y,z
loop_
_atom_site_type_symbol
_atom_site_label
_atom_site_fract_x
_atom_site_fract_y
_atom_site_fract_z
Si Si1 0.085971 0.171976 0.541542
Si Si2 0.082159 0.831168 0.374168
Si Si3 0.419831 0.333660 0.044093
Si Si4 0.081037 0.666849 0.289519
Si Si5 0.419286 0.665416 0.795591
Si Si6 0.582431 0.169838 0.118627
O O1 0.250000 0.231120 0.540311
O O2 0.000000 0.233567 0.500000
O O3 0.008396 0.228153 0.585055
O O4 0.083886 0.000000 0.540534
O O5 0.250000 0.793862 0.382861
O O6 0.023304 0.752966 0.331208
O O7 0.058075 0.000000 0.367413
O O8 0.250000 0.303362 0.038094
O O9 0.450515 0.500000 0.056145
O O10 0.481501 0.232963 0.081447
O O11 0.500000 0.290566 0.000000
O O12 0.250000 0.695483 0.282334
O O13 0.045128 0.500000 0.297377
O O14 0.000465 0.724818 0.246832
O O15 0.250000 0.681322 0.786545
O O16 0.462996 0.500000 0.805328
O O17 0.468669 0.761322 0.836139
O O18 0.750000 0.209744 0.108934
O O19 0.558733 0.000000 0.121350
#
# Coordination Sequence:
#
# PCOD8213347 Si02
#       6
#     8   8   8   8   8   8
#     4   9  16  26  42  65  92 121 153 190 232 278
#     4   9  17  29  45  66  92 121 153 191 236 283
#     4  10  21  37  58  82 106 136 175 215 254 299
#     4   9  18  32  49  69  94 125 160 198 241 289
#     4   9  18  33  52  72  96 129 167 205 245 291
#     4  10  21  36  54  78 108 140 172 209 256 305
#
# _framework density 18.236111999999999
#
# number of rings (size 3 to 8) (size 9 to 14) (size 15 to 20)
#    0.000    2.667    0.000    1.500    0.000    6.333 
#    0.000    1.667    0.000    0.500    0.000    0.000 
#    0.000    0.000    0.000    0.000    0.000    0.000 
#
# Total GULP energy -595314.474905 kJ/mol
# GULP energy per Si atom -12402.384894 kJ/mol
# Density = 1.819461 g / cm^3
# Si number density = 18.236112 Si / 1000 Ang^3
#
#
#
# Elastic Constant Matrix: (Units=GPa)
#
#
# Indices 1 2 3 4 5 6 
#
# 1 93.3011 39.1479 85.9442 0.0000 0.0000 0.0000
# 2 39.1479 54.2601 64.5520 0.0000 0.0000 0.0000
# 3 85.9442 64.5520 188.5834 0.0000 0.0000 0.0000
# 4 0.0000 0.0000 0.0000 36.7336 0.0000 0.0000
# 5 0.0000 0.0000 0.0000 0.0000 41.1883 0.0000
# 6 0.0000 0.0000 0.0000 0.0000 0.0000 20.3333
#
#
#
# Elastic Compliance Matrix: (Units=1/GPa)
#
#
# Indices 1 2 3 4 5 6 
#
# 1 0.019535 -0.005909 -0.006880 0.000000 0.000000 0.000000
# 2 -0.005909 0.032878 -0.008561 0.000000 0.000000 0.000000
# 3 -0.006880 -0.008561 0.011369 0.000000 0.000000 0.000000
# 4 0.000000 0.000000 0.000000 0.027223 0.000000 0.000000
# 5 0.000000 0.000000 0.000000 0.000000 0.024279 0.000000
# 6 0.000000 0.000000 0.000000 0.000000 0.000000 0.049180
#
#
# Mechanical properties :
#
#
# Convention : Reuss Voigt Hill
#
# Bulk Modulus (GPa) = 47.43601 79.49252 63.46426
# Shear Modulus (GPa) = 23.34359 29.41775 26.38067
#
# Velocity S-wave (km/s) = 3.58169 4.02077 3.80757
# Velocity P-wave (km/s) = 6.57064 8.07718 7.36255
#
# Compressibility (1/GPa) = 0.02108103
#
# Stress axis : x y z
#
# Youngs Moduli (GPa) = 51.19034 30.41534 87.96091
#
# Poissons Ratio (x) = 0.17973 0.60518
# Poissons Ratio (y) = 0.30249 0.75305
# Poissons Ratio (z) = 0.35219 0.26039
#
# Static dielectric constant tensor:
#      x y z
#    x 3.380520 0.000000 0.000000 
#    y 0.000000 3.137150 0.000000 
#    z 0.000000 0.000000 3.557690 
# 
# 
# High freq. dielectric constant tensor:
#      x y z
#    x 1.706090 0.000000 0.000000 
#    y 0.000000 1.680350 0.000000 
#    z 0.000000 0.000000 1.719950 
# 
# From -- ./inp_files/36960.got.cif
#   From: 2010.03.12/outbox.cif.g09.slc.cpg/sg51_19_cif.got.tgz:36960.got - 2010.04.16 13:43:02.
