data_PCOD8213814
_publ_section_title
;
Structure prediction by ZEFSAII (Michael W. Deem and Ramdas Pophale) SiO2 
 PCOD8213814
Probable space group: P M M A
;
_chemical_formula_sum "Si O2"
_cell_formula_units_Z 48
_cell_length_a 13.747279
_cell_length_b 17.939415
_cell_length_c 9.592156
_cell_angle_alpha 90.000000
_cell_angle_beta 90.000000
_cell_angle_gamma 90.000000
_cell_volume 2365.599701
_symmetry_space_group_name_H-M "P M M A"
_symmetry_group_IT_number 51
_symmetry_cell_setting 'orthorhombic'
loop_
_space_group_symop_operation_xyz
x,y,z
1/2-x,-y,z
1/2+x,-y,-z
-x,y,-z
-x,-y,-z
1/2+x,y,-z
1/2-x,y,z
x,-y,z
loop_
_atom_site_type_symbol
_atom_site_label
_atom_site_fract_x
_atom_site_fract_y
_atom_site_fract_z
Si Si1 0.480429 0.168733 0.845263
Si Si2 0.860169 0.584814 0.879129
Si Si3 0.862384 0.087699 0.673361
Si Si4 0.636890 0.317645 0.150344
Si Si5 0.521993 0.412995 0.344417
Si Si6 0.363374 0.919922 0.637155
O O1 0.579118 0.147963 0.764319
O O2 0.445558 0.253879 0.849244
O O3 0.391556 0.130045 0.766960
O O4 0.500000 0.138352 0.000000
O O5 0.750000 0.595942 0.826675
O O6 0.878539 0.500000 0.928251
O O7 0.928586 0.605881 0.750257
O O8 0.882939 0.636667 0.009998
O O9 0.750000 0.103386 0.703390
O O10 0.893028 0.109665 0.515689
O O11 0.885392 0.000000 0.704088
O O12 0.750000 0.290134 0.157648
O O13 0.615901 0.369871 0.283869
O O14 0.500000 0.384077 0.500000
O O15 0.547505 0.500000 0.346025
O O16 0.250000 0.930307 0.638148
O O17 0.414434 0.000000 0.659319
#
# Coordination Sequence:
#
# PCOD8213814 Si02
#       6
#     8   8   8   8   8   8
#     4  12  24  36  54  84 120 153 187 235 292 340
#     4   9  18  36  62  86 111 151 199 239 277 332
#     4   9  20  40  64  87 112 148 194 238 283 344
#     4  11  24  41  58  79 113 158 203 239 278 337
#     4  10  21  37  60  92 123 148 183 238 298 347
#     4   9  19  38  62  85 111 147 190 232 276 336
#
# _framework density 20.290838000000001
#
# number of rings (size 3 to 8) (size 9 to 14) (size 15 to 20)
#    0.000    2.000    0.000    4.500    0.000    8.333 
#    0.000    4.167    0.000    0.000    0.000    0.000 
#    0.000    0.000    0.000    0.000    0.000    0.000 
#
# Total GULP energy -594823.977722 kJ/mol
# GULP energy per Si atom -12392.166203 kJ/mol
# Density = 2.024466 g / cm^3
# Si number density = 20.290838 Si / 1000 Ang^3
#
#
#
# Elastic Constant Matrix: (Units=GPa)
#
#
# Indices 1 2 3 4 5 6 
#
# 1 105.7655 53.0478 55.5086 0.0000 0.0000 0.0000
# 2 53.0478 88.8032 64.9403 0.0000 0.0000 0.0000
# 3 55.5086 64.9403 162.6846 0.0000 0.0000 0.0000
# 4 0.0000 0.0000 0.0000 -3.4015 0.0000 0.0000
# 5 0.0000 0.0000 0.0000 0.0000 37.4125 0.0000
# 6 0.0000 0.0000 0.0000 0.0000 0.0000 35.6434
#
#
#
# Elastic Compliance Matrix: (Units=1/GPa)
#
#
# Indices 1 2 3 4 5 6 
#
# 1 0.013957 -0.006856 -0.002025 0.000000 0.000000 0.000000
# 2 -0.006856 0.019271 -0.005353 0.000000 0.000000 0.000000
# 3 -0.002025 -0.005353 0.008975 0.000000 0.000000 0.000000
# 4 0.000000 0.000000 0.000000 -0.293989 0.000000 0.000000
# 5 0.000000 0.000000 0.000000 0.000000 0.026729 0.000000
# 6 0.000000 0.000000 0.000000 0.000000 0.000000 0.028056
#
#
# Mechanical properties :
#
#
# Convention : Reuss Voigt Hill
#
# Bulk Modulus (GPa) = 72.81594 78.24962 75.53278
# Shear Modulus (GPa) = -30.49626 26.18133 -2.15747
#
# Velocity S-wave (km/s) = -3.88100 3.59598 -1.03227
# Velocity P-wave (km/s) = 3.98511 7.47590 5.99042
#
# Compressibility (1/GPa) = 0.01373326
#
# Stress axis : x y z
#
# Youngs Moduli (GPa) = 71.65116 51.89074 111.42292
#
# Poissons Ratio (x) = 0.35577 0.22565
# Poissons Ratio (y) = 0.49125 0.59649
# Poissons Ratio (z) = 0.14511 0.27779
#
# Static dielectric constant tensor:
#      x y z
#    x 3.788420 0.000000 0.000000 
#    y 0.000000 3.617570 0.000000 
#    z 0.000000 0.000000 4.261260 
# 
# 
# High freq. dielectric constant tensor:
#      x y z
#    x 1.807840 0.000000 0.000000 
#    y 0.000000 1.780350 0.000000 
#    z 0.000000 0.000000 1.792280 
# 
# From -- ./inp_files/8230.got.cif
#   From: 2010.03.12/outbox.cif.g09.slc.cpg/sg51_5_cif.got.tgz:8230.got - 2010.04.16 13:43:02.
