data_PCOD8213953
_publ_section_title
;
Structure prediction by ZEFSAII (Michael W. Deem and Ramdas Pophale) SiO2 
 PCOD8213953
Probable space group: P M M A
;
_chemical_formula_sum "Si O2"
_cell_formula_units_Z 64
_cell_length_a 30.710645
_cell_length_b 8.942374
_cell_length_c 11.959208
_cell_angle_alpha 90.000000
_cell_angle_beta 90.000000
_cell_angle_gamma 90.000000
_cell_volume 3284.310334
_symmetry_space_group_name_H-M "P M M A"
_symmetry_group_IT_number 51
_symmetry_cell_setting 'orthorhombic'
loop_
_space_group_symop_operation_xyz
x,y,z
1/2-x,-y,z
1/2+x,-y,-z
-x,y,-z
-x,-y,-z
1/2+x,y,-z
1/2-x,y,z
x,-y,z
loop_
_atom_site_type_symbol
_atom_site_label
_atom_site_fract_x
_atom_site_fract_y
_atom_site_fract_z
Si Si1 0.621585 0.322596 0.141563
Si Si2 0.915299 0.825911 0.751818
Si Si3 0.450579 0.825457 0.004664
Si Si4 0.126939 0.324266 0.603811
Si Si5 0.798405 0.677689 0.994369
Si Si6 0.824512 0.676981 0.749565
Si Si7 0.046565 0.673467 0.448910
Si Si8 0.798370 0.170061 0.533254
O O1 0.619757 0.500000 0.132578
O O2 0.622589 0.267609 0.269103
O O3 0.577993 0.259780 0.086370
O O4 0.664959 0.259760 0.079159
O O5 0.932829 0.787572 0.873497
O O6 0.873766 0.724606 0.727101
O O7 0.950852 0.776168 0.661004
O O8 0.903952 0.000000 0.738996
O O9 0.448381 0.000000 0.976680
O O10 0.500000 0.766655 0.000000
O O11 0.134867 0.500000 0.599791
O O12 0.083469 0.278729 0.537642
O O13 0.168956 0.248454 0.551185
O O14 0.750000 0.733287 0.030350
O O15 0.799920 0.500000 0.993991
O O16 0.808544 0.737207 0.869756
O O17 0.820327 0.500000 0.741336
O O18 0.795634 0.749685 0.653236
O O19 0.051235 0.500000 0.415715
O O20 0.000000 0.708621 0.500000
O O21 0.750000 0.178171 0.480706
O O22 0.813624 0.000000 0.550983
#
# Coordination Sequence:
#
# PCOD8213953 Si02
#       8
#     8   8   8   8   8   8   8   8
#     4  10  21  38  60  87 116 149 196 245 289 341
#     4  11  22  37  60  88 118 153 197 241 290 349
#     4  10  23  41  59  84 120 158 194 236 289 349
#     4  10  22  39  59  85 117 156 198 243 294 347
#     4   9  18  33  55  84 115 146 183 232 289 344
#     4  11  20  35  60  88 118 151 191 238 295 347
#     4  10  22  39  59  86 119 154 194 242 295 348
#     4  11  24  40  59  86 120 157 197 241 290 347
#
# _framework density 19.486587
#
# number of rings (size 3 to 8) (size 9 to 14) (size 15 to 20)
#    0.000    1.750    2.500    1.500    1.750    3.500 
#    0.000    1.250    0.000    1.125    0.000    0.000 
#    0.000    0.000    0.000    0.000    0.000    0.000 
#
# Total GULP energy -793773.155957 kJ/mol
# GULP energy per Si atom -12402.705562 kJ/mol
# Density = 1.944223 g / cm^3
# Si number density = 19.486587 Si / 1000 Ang^3
#
#
#
# Elastic Constant Matrix: (Units=GPa)
#
#
# Indices 1 2 3 4 5 6 
#
# 1 123.9804 24.2288 46.6097 0.0000 0.0000 0.0000
# 2 24.2288 37.9987 40.3154 0.0000 0.0000 0.0000
# 3 46.6097 40.3154 132.0097 0.0000 0.0000 0.0000
# 4 0.0000 0.0000 0.0000 19.3656 0.0000 0.0000
# 5 0.0000 0.0000 0.0000 0.0000 23.3553 0.0000
# 6 0.0000 0.0000 0.0000 0.0000 0.0000 24.9793
#
#
#
# Elastic Compliance Matrix: (Units=1/GPa)
#
#
# Indices 1 2 3 4 5 6 
#
# 1 0.009649 -0.003754 -0.002260 0.000000 0.000000 0.000000
# 2 -0.003754 0.040392 -0.011010 0.000000 0.000000 0.000000
# 3 -0.002260 -0.011010 0.011736 0.000000 0.000000 0.000000
# 4 0.000000 0.000000 0.000000 0.051638 0.000000 0.000000
# 5 0.000000 0.000000 0.000000 0.000000 0.042817 0.000000
# 6 0.000000 0.000000 0.000000 0.000000 0.000000 0.040033
#
#
# Mechanical properties :
#
#
# Convention : Reuss Voigt Hill
#
# Bulk Modulus (GPa) = 36.06550 57.36627 46.71589
# Shear Modulus (GPa) = 20.87191 25.72904 23.30048
#
# Velocity S-wave (km/s) = 3.27630 3.63760 3.46167
# Velocity P-wave (km/s) = 5.73239 6.86627 6.32479
#
# Compressibility (1/GPa) = 0.02772733
#
# Stress axis : x y z
#
# Youngs Moduli (GPa) = 103.63484 24.75750 85.21013
#
# Poissons Ratio (x) = 0.09295 0.19261
# Poissons Ratio (y) = 0.38909 0.93816
# Poissons Ratio (z) = 0.23425 0.27258
#
# Static dielectric constant tensor:
#      x y z
#    x 3.716380 0.000000 0.000000 
#    y 0.000000 3.363640 0.000000 
#    z 0.000000 0.000000 3.709350 
# 
# 
# High freq. dielectric constant tensor:
#      x y z
#    x 1.771870 0.000000 0.000000 
#    y 0.000000 1.741390 0.000000 
#    z 0.000000 0.000000 1.764290 
# 
# From -- ./inp_files/19657.got.cif
#   From: 2010.03.12/outbox.cif.g09.slc.cpg/sg51_10_cif.got.tgz:19657.got - 2010.04.16 13:43:02.
