data_PCOD8213900
_publ_section_title
;
Structure prediction by ZEFSAII (Michael W. Deem and Ramdas Pophale) SiO2 
 PCOD8213900
Probable space group: P M M A
;
_chemical_formula_sum "Si O2"
_cell_formula_units_Z 64
_cell_length_a 27.304329
_cell_length_b 18.249097
_cell_length_c 6.711906
_cell_angle_alpha 90.000000
_cell_angle_beta 90.000000
_cell_angle_gamma 90.000000
_cell_volume 3344.404148
_symmetry_space_group_name_H-M "P M M A"
_symmetry_group_IT_number 51
_symmetry_cell_setting 'orthorhombic'
loop_
_space_group_symop_operation_xyz
x,y,z
1/2-x,-y,z
1/2+x,-y,-z
-x,y,-z
-x,-y,-z
1/2+x,y,-z
1/2-x,y,z
x,-y,z
loop_
_atom_site_type_symbol
_atom_site_label
_atom_site_fract_x
_atom_site_fract_y
_atom_site_fract_z
Si Si1 0.619958 0.175269 0.918897
Si Si2 0.806626 0.415928 0.368557
Si Si3 0.878271 0.335464 0.085218
Si Si4 0.118718 0.582008 0.303843
Si Si5 0.055912 0.844007 0.437881
Si Si6 0.056412 0.687573 0.559900
Si Si7 0.806669 0.915434 0.654907
Si Si8 0.627791 0.918734 0.303944
O O1 0.629946 0.260758 0.961464
O O2 0.616917 0.137546 0.131063
O O3 0.568466 0.161431 0.799565
O O4 0.664780 0.141215 0.795304
O O5 0.750000 0.394553 0.376921
O O6 0.813986 0.500000 0.291762
O O7 0.833367 0.355696 0.230767
O O8 0.828272 0.408330 0.591849
O O9 0.929179 0.334039 0.212880
O O10 0.879479 0.401200 0.929065
O O11 0.099418 0.500000 0.330542
O O12 0.078997 0.632654 0.404517
O O13 0.077584 0.769191 0.531249
O O14 0.084930 0.912086 0.531277
O O15 0.000000 0.855045 0.500000
O O16 0.000000 0.688632 0.500000
O O17 0.750000 0.896657 0.677319
O O18 0.821629 0.903381 0.422979
O O19 0.817692 0.000000 0.716954
O O20 0.627542 0.000000 0.212922
#
# Coordination Sequence:
#
# PCOD8213900 Si02
#       8
#     8   8   8   8   8   8   8   8
#     4  11  21  36  59  86 117 152 197 242 289 340
#     4   9  20  38  59  84 118 158 195 235 290 350
#     4  11  21  36  59  86 117 152 197 242 289 340
#     4  10  21  38  59  85 116 151 192 244 292 342
#     4  10  21  39  59  82 114 155 193 235 292 352
#     4  10  21  39  59  82 114 155 193 235 292 352
#     4   9  20  38  59  84 118 158 195 235 290 350
#     4  10  21  38  59  85 116 151 192 244 292 342
#
# _framework density 19.136444000000001
#
# number of rings (size 3 to 8) (size 9 to 14) (size 15 to 20)
#    0.000    2.000    2.500    0.750    0.000    4.000 
#    0.000    5.000    0.000    0.000    0.000    0.000 
#    0.000    0.000    0.000    0.000    0.000    0.000 
#
# Total GULP energy -793231.194844 kJ/mol
# GULP energy per Si atom -12394.237419 kJ/mol
# Density = 1.909289 g / cm^3
# Si number density = 19.136444 Si / 1000 Ang^3
#
#
#
# Elastic Constant Matrix: (Units=GPa)
#
#
# Indices 1 2 3 4 5 6 
#
# 1 103.2547 45.9390 46.3909 0.0000 0.0000 0.0000
# 2 45.9390 50.2255 21.4899 0.0000 0.0000 0.0000
# 3 46.3909 21.4899 101.8430 0.0000 0.0000 0.0000
# 4 0.0000 0.0000 0.0000 35.2869 0.0000 0.0000
# 5 0.0000 0.0000 0.0000 0.0000 23.1293 0.0000
# 6 0.0000 0.0000 0.0000 0.0000 0.0000 19.7925
#
#
#
# Elastic Compliance Matrix: (Units=1/GPa)
#
#
# Indices 1 2 3 4 5 6 
#
# 1 0.018684 -0.014783 -0.005392 0.000000 0.000000 0.000000
# 2 -0.014783 0.033582 -0.000352 0.000000 0.000000 0.000000
# 3 -0.005392 -0.000352 0.012349 0.000000 0.000000 0.000000
# 4 0.000000 0.000000 0.000000 0.028339 0.000000 0.000000
# 5 0.000000 0.000000 0.000000 0.000000 0.043235 0.000000
# 6 0.000000 0.000000 0.000000 0.000000 0.000000 0.050524
#
#
# Mechanical properties :
#
#
# Convention : Reuss Voigt Hill
#
# Bulk Modulus (GPa) = 42.44094 53.66252 48.05173
# Shear Modulus (GPa) = 21.22050 25.07529 23.14789
#
# Velocity S-wave (km/s) = 3.33364 3.62379 3.48174
# Velocity P-wave (km/s) = 6.08635 6.75367 6.42868
#
# Compressibility (1/GPa) = 0.02356215
#
# Stress axis : x y z
#
# Youngs Moduli (GPa) = 53.52162 29.77787 80.97594
#
# Poissons Ratio (x) = 0.44019 0.43659
# Poissons Ratio (y) = 0.79119 0.02854
# Poissons Ratio (z) = 0.28857 0.01050
#
# Static dielectric constant tensor:
#      x y z
#    x 3.359790 0.000000 0.000000 
#    y 0.000000 3.655090 0.000000 
#    z 0.000000 0.000000 3.588750 
# 
# 
# High freq. dielectric constant tensor:
#      x y z
#    x 1.729220 0.000000 0.000000 
#    y 0.000000 1.754490 0.000000 
#    z 0.000000 0.000000 1.749460 
# 
# From -- ./inp_files/3664.got.cif
#   From: 2010.03.12/outbox.cif.g09.slc.cpg/sg51_2_cif.got.tgz:3664.got - 2010.04.16 13:43:02.
