data_PCOD8213371
_publ_section_title
;
Structure prediction by ZEFSAII (Michael W. Deem and Ramdas Pophale) SiO2 
 PCOD8213371
Probable space group: P M M A
;
_chemical_formula_sum "Si O2"
_cell_formula_units_Z 56
_cell_length_a 8.973242
_cell_length_b 19.056822
_cell_length_c 15.855191
_cell_angle_alpha 90.000000
_cell_angle_beta 90.000000
_cell_angle_gamma 90.000000
_cell_volume 2711.261056
_symmetry_space_group_name_H-M "P M M A"
_symmetry_group_IT_number 51
_symmetry_cell_setting 'orthorhombic'
loop_
_space_group_symop_operation_xyz
x,y,z
1/2-x,-y,z
1/2+x,-y,-z
-x,y,-z
-x,-y,-z
1/2+x,y,-z
1/2-x,y,z
x,-y,z
loop_
_atom_site_type_symbol
_atom_site_label
_atom_site_fract_x
_atom_site_fract_y
_atom_site_fract_z
Si Si1 0.083705 0.295472 0.844317
Si Si2 0.923950 0.577987 0.912071
Si Si3 0.079603 0.916975 0.250000
Si Si4 0.576050 0.422013 0.587929
Si Si5 0.083705 0.704528 0.655683
Si Si6 0.073087 0.851198 0.912746
Si Si7 0.073087 0.148802 0.587254
O O1 0.250000 0.321232 0.866909
O O2 0.076708 0.264813 0.750000
O O3 0.036036 0.231803 0.904905
O O4 0.975827 0.362551 0.847634
O O5 0.750000 0.583586 0.925343
O O6 0.968230 0.500000 0.879117
O O7 0.000000 0.595009 0.000000
O O8 0.250000 0.888885 0.250000
O O9 0.996999 0.891853 0.165723
O O10 0.996999 0.891853 0.334277
O O11 0.076364 0.000000 0.250000
O O12 0.500000 0.404992 0.500000
O O13 0.750000 0.416414 0.574657
O O14 0.531771 0.500000 0.620884
O O15 0.524173 0.362551 0.652366
O O16 0.250000 0.678768 0.633091
O O17 0.036036 0.768197 0.595095
O O18 0.250000 0.864751 0.913980
O O19 0.000000 0.878232 0.000000
O O20 0.250000 0.135249 0.586020
O O21 0.000000 0.121768 0.500000
#
# Coordination Sequence:
#
# PCOD8213371 Si02
#       7
#     8   8   8   8   8   8   8
#     4  10  21  38  59  86 119 156 203 255 308 367
#     4  10  21  36  54  79 112 153 202 254 309 368
#     4  11  25  45  69  99 132 167 210 257 309 372
#     4  10  21  36  54  79 112 153 202 254 309 368
#     4  10  21  38  59  86 119 156 203 255 308 367
#     4  11  23  42  67  97 131 169 213 260 313 374
#     4  11  23  42  67  97 131 169 213 260 313 374
#
# _framework density 20.654596000000002
#
# number of rings (size 3 to 8) (size 9 to 14) (size 15 to 20)
#    0.000    1.571    1.429    3.000    0.000    9.143 
#    0.000    2.857    0.000    0.000    0.000    0.000 
#    0.000    0.000    0.000    0.000    0.000    0.000 
#
# Total GULP energy -694401.723701 kJ/mol
# GULP energy per Si atom -12400.030780 kJ/mol
# Density = 2.060759 g / cm^3
# Si number density = 20.654596 Si / 1000 Ang^3
#
#
#
# Elastic Constant Matrix: (Units=GPa)
#
#
# Indices 1 2 3 4 5 6 
#
# 1 110.6296 52.0188 56.2805 0.0000 0.0000 0.0000
# 2 52.0188 84.1207 43.4175 0.0000 0.0000 0.0000
# 3 56.2805 43.4175 131.6201 0.0000 0.0000 0.0000
# 4 0.0000 0.0000 0.0000 20.5934 0.0000 0.0000
# 5 0.0000 0.0000 0.0000 0.0000 37.4469 0.0000
# 6 0.0000 0.0000 0.0000 0.0000 0.0000 34.0041
#
#
#
# Elastic Compliance Matrix: (Units=1/GPa)
#
#
# Indices 1 2 3 4 5 6 
#
# 1 0.014178 -0.006795 -0.003821 0.000000 0.000000 0.000000
# 2 -0.006795 0.017584 -0.002895 0.000000 0.000000 0.000000
# 3 -0.003821 -0.002895 0.010186 0.000000 0.000000 0.000000
# 4 0.000000 0.000000 0.000000 0.048559 0.000000 0.000000
# 5 0.000000 0.000000 0.000000 0.000000 0.026705 0.000000
# 6 0.000000 0.000000 0.000000 0.000000 0.000000 0.029408
#
#
# Mechanical properties :
#
#
# Convention : Reuss Voigt Hill
#
# Bulk Modulus (GPa) = 66.99594 69.97823 68.48709
# Shear Modulus (GPa) = 27.99264 30.05243 29.02253
#
# Velocity S-wave (km/s) = 3.68540 3.81858 3.75258
# Velocity P-wave (km/s) = 7.11451 7.30725 7.21152
#
# Compressibility (1/GPa) = 0.01492628
#
# Stress axis : x y z
#
# Youngs Moduli (GPa) = 70.53024 56.87008 98.17072
#
# Poissons Ratio (x) = 0.38646 0.37511
# Poissons Ratio (y) = 0.47929 0.28417
# Poissons Ratio (z) = 0.26950 0.16462
#
# Static dielectric constant tensor:
#      x y z
#    x 3.953840 0.000000 0.000000 
#    y 0.000000 3.706490 0.000000 
#    z 0.000000 0.000000 3.637010 
# 
# 
# High freq. dielectric constant tensor:
#      x y z
#    x 1.815950 0.000000 0.000000 
#    y 0.000000 1.808050 0.000000 
#    z 0.000000 0.000000 1.808540 
# 
# From -- ./inp_files/21839.got.cif
#   From: 2010.03.12/outbox.cif.g09.slc.cpg/sg51_11_cif.got.tgz:21839.got - 2010.04.16 13:43:02.
