data_PCOD8213966
_publ_section_title
;
Structure prediction by ZEFSAII (Michael W. Deem and Ramdas Pophale) SiO2 
 PCOD8213966
Probable space group: P M M A
;
_chemical_formula_sum "Si O2"
_cell_formula_units_Z 56
_cell_length_a 15.874500
_cell_length_b 8.894812
_cell_length_c 19.459232
_cell_angle_alpha 90.000000
_cell_angle_beta 90.000000
_cell_angle_gamma 90.000000
_cell_volume 2747.657045
_symmetry_space_group_name_H-M "P M M A"
_symmetry_group_IT_number 51
_symmetry_cell_setting 'orthorhombic'
loop_
_space_group_symop_operation_xyz
x,y,z
1/2-x,-y,z
1/2+x,-y,-z
-x,y,-z
-x,-y,-z
1/2+x,y,-z
1/2-x,y,z
x,-y,z
loop_
_atom_site_type_symbol
_atom_site_label
_atom_site_fract_x
_atom_site_fract_y
_atom_site_fract_z
Si Si1 0.503533 0.177423 0.921812
Si Si2 0.578227 0.677735 0.288863
Si Si3 0.342858 0.678134 0.571346
Si Si4 0.904964 0.823549 0.713299
Si Si5 0.655996 0.825703 0.166781
Si Si6 0.343868 0.326011 0.158505
Si Si7 0.350163 0.331288 0.420976
O O1 0.415826 0.229044 0.886499
O O2 0.586004 0.248462 0.887999
O O3 0.514745 0.000000 0.916960
O O4 0.500000 0.233502 0.000000
O O5 0.563942 0.500000 0.285698
O O6 0.598730 0.733325 0.366309
O O7 0.496295 0.766183 0.263826
O O8 0.651152 0.727137 0.236357
O O9 0.250000 0.749719 0.580731
O O10 0.334079 0.500000 0.574000
O O11 0.381071 0.723203 0.496737
O O12 0.840101 0.745102 0.765131
O O13 0.886577 0.781818 0.634724
O O14 0.898667 0.000000 0.722675
O O15 0.750000 0.800170 0.135492
O O16 0.642439 0.000000 0.185408
O O17 0.250000 0.304067 0.126609
O O18 0.367009 0.500000 0.165392
O O19 0.250000 0.330732 0.419975
O O20 0.383903 0.500000 0.405316
#
# Coordination Sequence:
#
# PCOD8213966 Si02
#       7
#     8   8   8   8   8   8   8
#     4  10  22  41  66  96 130 167 204 242 290 357
#     4  11  21  35  58  85 114 152 202 254 300 353
#     4   8  16  32  54  80 109 144 192 247 299 354
#     4  12  24  37  55  82 118 156 198 250 308 366
#     4  10  21  38  60  89 126 164 201 246 300 356
#     4  11  24  42  65  93 124 161 206 256 307 357
#     4   9  18  35  57  79 107 146 194 248 301 355
#
# _framework density 20.381
#
# number of rings (size 3 to 8) (size 9 to 14) (size 15 to 20)
#    0.000    1.857    1.429    3.857    0.000    5.429 
#    0.000    5.714    0.000    1.714    0.000    0.000 
#    0.000    0.000    0.000    0.000    0.000    0.000 
#
# Total GULP energy -694324.906690 kJ/mol
# GULP energy per Si atom -12398.659048 kJ/mol
# Density = 2.033461 g / cm^3
# Si number density = 20.381000 Si / 1000 Ang^3
#
#
#
# Elastic Constant Matrix: (Units=GPa)
#
#
# Indices 1 2 3 4 5 6 
#
# 1 110.0152 28.7862 53.3758 0.0000 0.0000 0.0000
# 2 28.7862 51.0395 35.8610 0.0000 0.0000 0.0000
# 3 53.3758 35.8610 137.3130 0.0000 0.0000 0.0000
# 4 0.0000 0.0000 0.0000 28.5946 0.0000 0.0000
# 5 0.0000 0.0000 0.0000 0.0000 26.6861 0.0000
# 6 0.0000 0.0000 0.0000 0.0000 0.0000 27.5051
#
#
#
# Elastic Compliance Matrix: (Units=1/GPa)
#
#
# Indices 1 2 3 4 5 6 
#
# 1 0.011908 -0.004242 -0.003521 0.000000 0.000000 0.000000
# 2 -0.004242 0.025507 -0.005012 0.000000 0.000000 0.000000
# 3 -0.003521 -0.005012 0.009960 0.000000 0.000000 0.000000
# 4 0.000000 0.000000 0.000000 0.034972 0.000000 0.000000
# 5 0.000000 0.000000 0.000000 0.000000 0.037473 0.000000
# 6 0.000000 0.000000 0.000000 0.000000 0.000000 0.036357
#
#
# Mechanical properties :
#
#
# Convention : Reuss Voigt Hill
#
# Bulk Modulus (GPa) = 45.82080 59.37932 52.60006
# Shear Modulus (GPa) = 26.45468 28.58012 27.51740
#
# Velocity S-wave (km/s) = 3.60669 3.74878 3.67842
# Velocity P-wave (km/s) = 6.31469 6.92356 6.62612
#
# Compressibility (1/GPa) = 0.02182415
#
# Stress axis : x y z
#
# Youngs Moduli (GPa) = 83.97805 39.20478 100.39828
#
# Poissons Ratio (x) = 0.16632 0.35349
# Poissons Ratio (y) = 0.35625 0.50324
# Poissons Ratio (z) = 0.29568 0.19651
#
# Static dielectric constant tensor:
#      x y z
#    x 3.753720 0.000000 0.000000 
#    y 0.000000 3.444770 0.000000 
#    z 0.000000 0.000000 3.954620 
# 
# 
# High freq. dielectric constant tensor:
#      x y z
#    x 1.802090 0.000000 0.000000 
#    y 0.000000 1.773200 0.000000 
#    z 0.000000 0.000000 1.799000 
# 
# From -- ./inp_files/33487.got.cif
#   From: 2010.03.12/outbox.cif.g09.slc.cpg/sg51_17_cif.got.tgz:33487.got - 2010.04.16 13:43:02.
