data_PCOD8213798
_publ_section_title
;
Structure prediction by ZEFSAII (Michael W. Deem and Ramdas Pophale) SiO2 
 PCOD8213798
Probable space group: P M M A
;
_chemical_formula_sum "Si O2"
_cell_formula_units_Z 48
_cell_length_a 10.340789
_cell_length_b 8.530730
_cell_length_c 27.951633
_cell_angle_alpha 90.000000
_cell_angle_beta 90.000000
_cell_angle_gamma 90.000000
_cell_volume 2465.738741
_symmetry_space_group_name_H-M "P M M A"
_symmetry_group_IT_number 51
_symmetry_cell_setting 'orthorhombic'
loop_
_space_group_symop_operation_xyz
x,y,z
1/2-x,-y,z
1/2+x,-y,-z
-x,y,-z
-x,-y,-z
1/2+x,y,-z
1/2-x,y,z
x,-y,z
loop_
_atom_site_type_symbol
_atom_site_label
_atom_site_fract_x
_atom_site_fract_y
_atom_site_fract_z
Si Si1 0.491155 0.182582 0.236813
Si Si2 0.750000 0.318484 0.709227
Si Si3 0.606014 0.313271 0.963490
Si Si4 0.750000 0.315836 0.392538
Si Si5 0.250000 0.816266 0.394164
Si Si6 0.497196 0.813741 0.554285
Si Si7 0.750000 0.314013 0.281964
Si Si8 0.900921 0.680612 0.856049
O O1 0.377376 0.281026 0.260927
O O2 0.626314 0.239988 0.257004
O O3 0.485548 0.214324 0.179918
O O4 0.472140 0.000000 0.247688
O O5 0.750000 0.500000 0.695411
O O6 0.750000 0.217318 0.661583
O O7 0.750000 0.251456 0.977022
O O8 0.606877 0.500000 0.965598
O O9 0.569295 0.260223 0.909808
O O10 0.500000 0.242559 0.000000
O O11 0.750000 0.500000 0.397423
O O12 0.874385 0.248642 0.418163
O O13 0.750000 0.264049 0.337334
O O14 0.376840 0.744455 0.419180
O O15 0.250000 0.000000 0.402788
O O16 0.500000 0.751724 0.500000
O O17 0.493279 0.000000 0.555502
O O18 0.750000 0.500000 0.275360
O O19 0.750000 0.701947 0.844413
O O20 0.941702 0.500000 0.849844
#
# Coordination Sequence:
#
# PCOD8213798 Si02
#       8
#     8   4   8   4   4   8   4   8
#     4  12  24  39  60  87 116 151 196 243 292 348
#     4  12  24  39  61  86 116 152 193 241 290 344
#     4   8  14  26  46  74 108 145 189 237 282 333
#     4  11  24  40  60  87 117 152 190 231 286 345
#     4  10  21  37  59  89 117 144 190 243 286 333
#     4  10  21  39  63  88 116 152 191 231 278 336
#     4  11  25  44  62  84 118 156 193 237 296 358
#     4   9  17  32  55  81 113 154 195 238 291 344
#
# _framework density 19.466783
#
# number of rings (size 3 to 8) (size 9 to 14) (size 15 to 20)
#    0.000    1.833    0.833    5.250    0.000    6.333 
#    1.500    0.833    0.000    0.500    0.000    0.000 
#    0.000    0.000    0.000    0.000    0.000    0.000 
#
# Total GULP energy -595279.138751 kJ/mol
# GULP energy per Si atom -12401.648724 kJ/mol
# Density = 1.942248 g / cm^3
# Si number density = 19.466783 Si / 1000 Ang^3
#
#
#
# Elastic Constant Matrix: (Units=GPa)
#
#
# Indices 1 2 3 4 5 6 
#
# 1 158.6022 21.5958 80.7792 0.0000 0.0000 0.0000
# 2 21.5958 40.2145 17.0880 0.0000 0.0000 0.0000
# 3 80.7792 17.0880 149.7557 0.0000 0.0000 0.0000
# 4 0.0000 0.0000 0.0000 20.7996 0.0000 0.0000
# 5 0.0000 0.0000 0.0000 0.0000 51.4592 0.0000
# 6 0.0000 0.0000 0.0000 0.0000 0.0000 35.6101
#
#
#
# Elastic Compliance Matrix: (Units=1/GPa)
#
#
# Indices 1 2 3 4 5 6 
#
# 1 0.009007 -0.002914 -0.004526 0.000000 0.000000 0.000000
# 2 -0.002914 0.027076 -0.001518 0.000000 0.000000 0.000000
# 3 -0.004526 -0.001518 0.009292 0.000000 0.000000 0.000000
# 4 0.000000 0.000000 0.000000 0.048078 0.000000 0.000000
# 5 0.000000 0.000000 0.000000 0.000000 0.019433 0.000000
# 6 0.000000 0.000000 0.000000 0.000000 0.000000 0.028082
#
#
# Mechanical properties :
#
#
# Convention : Reuss Voigt Hill
#
# Bulk Modulus (GPa) = 36.41622 65.27758 50.84690
# Shear Modulus (GPa) = 29.75542 36.84774 33.30158
#
# Velocity S-wave (km/s) = 3.91387 4.35541 4.14053
# Velocity P-wave (km/s) = 6.25875 7.67453 7.00251
#
# Compressibility (1/GPa) = 0.02746029
#
# Stress axis : x y z
#
# Youngs Moduli (GPa) = 111.02499 36.93260 107.61864
#
# Poissons Ratio (x) = 0.10761 0.48708
# Poissons Ratio (y) = 0.32350 0.16335
# Poissons Ratio (z) = 0.50249 0.05606
#
# Static dielectric constant tensor:
#      x y z
#    x 3.615490 0.000000 0.000000 
#    y 0.000000 3.311680 0.000000 
#    z 0.000000 0.000000 3.823520 
# 
# 
# High freq. dielectric constant tensor:
#      x y z
#    x 1.762150 0.000000 0.000000 
#    y 0.000000 1.735150 0.000000 
#    z 0.000000 0.000000 1.773600 
# 
# From -- ./inp_files/37240.got.cif
#   From: 2010.03.12/outbox.cif.g09.slc.cpg/sg51_19_cif.got.tgz:37240.got - 2010.04.16 13:43:02.
