data_PCOD8213931
_publ_section_title
;
Structure prediction by ZEFSAII (Michael W. Deem and Ramdas Pophale) SiO2 
 PCOD8213931
Probable space group: P M M A
;
_chemical_formula_sum "Si O2"
_cell_formula_units_Z 48
_cell_length_a 8.713357
_cell_length_b 14.804702
_cell_length_c 19.085938
_cell_angle_alpha 90.000000
_cell_angle_beta 90.000000
_cell_angle_gamma 90.000000
_cell_volume 2462.060309
_symmetry_space_group_name_H-M "P M M A"
_symmetry_group_IT_number 51
_symmetry_cell_setting 'orthorhombic'
loop_
_space_group_symop_operation_xyz
x,y,z
1/2-x,-y,z
1/2+x,-y,-z
-x,y,-z
-x,-y,-z
1/2+x,y,-z
1/2-x,y,z
x,-y,z
loop_
_atom_site_type_symbol
_atom_site_label
_atom_site_fract_x
_atom_site_fract_y
_atom_site_fract_z
Si Si1 0.069583 0.396255 0.073240
Si Si2 0.568856 0.243679 0.677207
Si Si3 0.429031 0.895283 0.073472
Si Si4 0.069260 0.750092 0.828996
Si Si5 0.930389 0.398644 0.572596
Si Si6 0.072187 0.894085 0.573773
O O1 0.250000 0.382060 0.069873
O O2 0.024214 0.500000 0.086975
O O3 0.002381 0.338832 0.136555
O O4 0.000000 0.361840 0.000000
O O5 0.750000 0.241205 0.691902
O O6 0.476609 0.247152 0.748634
O O7 0.517880 0.332595 0.634509
O O8 0.520063 0.154599 0.635366
O O9 0.250000 0.873185 0.071735
O O10 0.507505 0.840860 0.135558
O O11 0.462770 0.000000 0.087725
O O12 0.500000 0.863870 0.000000
O O13 0.250000 0.746053 0.837080
O O14 0.750000 0.397184 0.563632
O O15 0.989656 0.500000 0.589822
O O16 0.000000 0.362897 0.500000
O O17 0.250000 0.865620 0.574675
O O18 0.000000 0.864324 0.500000
O O19 0.051042 0.000000 0.586445
#
# Coordination Sequence:
#
# PCOD8213931 Si02
#       6
#     8   8   8   8   8   8
#     4  10  21  39  63  88 115 149 191 238 285 336
#     4  11  23  38  57  82 114 151 190 233 283 338
#     4  10  21  39  63  88 114 147 189 235 282 335
#     4  12  25  39  57  83 118 155 191 234 285 343
#     4   9  19  36  58  83 110 142 181 225 273 326
#     4  10  21  38  60  85 113 147 188 234 284 338
#
# _framework density 19.495865999999999
#
# number of rings (size 3 to 8) (size 9 to 14) (size 15 to 20)
#    0.000    1.667    0.000    4.500    0.000    7.000 
#    0.000    1.667    0.000    0.000    0.000    0.000 
#    0.000    0.000    0.000    0.000    0.000    0.000 
#
# Total GULP energy -595474.748698 kJ/mol
# GULP energy per Si atom -12405.723931 kJ/mol
# Density = 1.945149 g / cm^3
# Si number density = 19.495866 Si / 1000 Ang^3
#
#
#
# Elastic Constant Matrix: (Units=GPa)
#
#
# Indices 1 2 3 4 5 6 
#
# 1 76.1024 33.6697 30.1241 0.0000 0.0000 0.0000
# 2 33.6697 87.4403 56.4212 0.0000 0.0000 0.0000
# 3 30.1241 56.4212 132.3128 0.0000 0.0000 0.0000
# 4 0.0000 0.0000 0.0000 24.1866 0.0000 0.0000
# 5 0.0000 0.0000 0.0000 0.0000 40.3546 0.0000
# 6 0.0000 0.0000 0.0000 0.0000 0.0000 31.8248
#
#
#
# Elastic Compliance Matrix: (Units=1/GPa)
#
#
# Indices 1 2 3 4 5 6 
#
# 1 0.016025 -0.005265 -0.001403 0.000000 0.000000 0.000000
# 2 -0.005265 0.017507 -0.006267 0.000000 0.000000 0.000000
# 3 -0.001403 -0.006267 0.010550 0.000000 0.000000 0.000000
# 4 0.000000 0.000000 0.000000 0.041345 0.000000 0.000000
# 5 0.000000 0.000000 0.000000 0.000000 0.024780 0.000000
# 6 0.000000 0.000000 0.000000 0.000000 0.000000 0.031422
#
#
# Mechanical properties :
#
#
# Convention : Reuss Voigt Hill
#
# Bulk Modulus (GPa) = 54.90989 59.58727 57.24858
# Shear Modulus (GPa) = 28.80667 30.98257 29.89462
#
# Velocity S-wave (km/s) = 3.84810 3.99079 3.92009
# Velocity P-wave (km/s) = 6.92603 7.20177 7.06525
#
# Compressibility (1/GPa) = 0.01821166
#
# Stress axis : x y z
#
# Youngs Moduli (GPa) = 62.40217 57.11853 94.78969
#
# Poissons Ratio (x) = 0.30074 0.13302
# Poissons Ratio (y) = 0.32855 0.59403
# Poissons Ratio (z) = 0.08757 0.35795
#
# Static dielectric constant tensor:
#      x y z
#    x 3.578610 0.000000 0.000000 
#    y 0.000000 3.765900 0.000000 
#    z 0.000000 0.000000 3.584870 
# 
# 
# High freq. dielectric constant tensor:
#      x y z
#    x 1.772030 0.000000 0.000000 
#    y 0.000000 1.772270 0.000000 
#    z 0.000000 0.000000 1.758260 
# 
# From -- ./inp_files/27572.got.cif
#   From: 2010.03.12/outbox.cif.g09.slc.cpg/sg51_14_cif.got.tgz:27572.got - 2010.04.16 13:43:02.
