data_PCOD8213016
_publ_section_title
;
Structure prediction by ZEFSAII (Michael W. Deem and Ramdas Pophale) SiO2 
 PCOD8213016
Probable space group: P M M A
;
_chemical_formula_sum "Si O2"
_cell_formula_units_Z 40
_cell_length_a 7.808953
_cell_length_b 9.893234
_cell_length_c 29.503736
_cell_angle_alpha 90.000000
_cell_angle_beta 90.000000
_cell_angle_gamma 90.000000
_cell_volume 2279.334708
_symmetry_space_group_name_H-M "P M M A"
_symmetry_group_IT_number 51
_symmetry_cell_setting 'orthorhombic'
loop_
_space_group_symop_operation_xyz
x,y,z
1/2-x,-y,z
1/2+x,-y,-z
-x,y,-z
-x,-y,-z
1/2+x,y,-z
1/2-x,y,z
x,-y,z
loop_
_atom_site_type_symbol
_atom_site_label
_atom_site_fract_x
_atom_site_fract_y
_atom_site_fract_z
Si Si1 0.450100 0.150660 0.049044
Si Si2 0.250000 0.661478 0.286859
Si Si3 0.750000 0.338870 0.610879
Si Si4 0.557746 0.339091 0.450923
Si Si5 0.051230 0.647236 0.873193
Si Si6 0.558287 0.660694 0.226046
O O1 0.250000 0.142972 0.054054
O O2 0.519797 0.246422 0.087679
O O3 0.530392 0.000000 0.054298
O O4 0.500000 0.210962 0.000000
O O5 0.250000 0.500000 0.285773
O O6 0.250000 0.717137 0.338016
O O7 0.421530 0.717575 0.262305
O O8 0.750000 0.500000 0.610310
O O9 0.578303 0.284678 0.586044
O O10 0.500000 0.284330 0.500000
O O11 0.750000 0.286657 0.439420
O O12 0.556592 0.500000 0.451420
O O13 0.250000 0.623620 0.867432
O O14 0.966872 0.500000 0.884831
O O15 0.988070 0.701883 0.824176
O O16 0.750000 0.719459 0.235987
O O17 0.566607 0.500000 0.228699
#
# Coordination Sequence:
#
# PCOD8213016 Si02
#       6
#     8   4   4   8   8   8
#     4  10  21  35  50  69  94 123 151 181 224 274
#     4   9  16  24  36  52  73  99 127 163 216 271
#     4   9  16  22  28  44  62  83 119 157 202 261
#     4   9  14  20  29  38  53  79 113 156 202 249
#     4   9  18  32  50  71  91 115 151 188 224 271
#     4   8  15  27  41  58  80 103 131 171 215 260
#
# _framework density 17.548978999999999
#
# number of rings (size 3 to 8) (size 9 to 14) (size 15 to 20)
#    0.000    3.000    1.000    1.800    1.400    2.800 
#    0.000    4.000    0.000    0.000    0.000    0.000 
#    0.000    0.000    0.000    0.000    0.000    0.000 
#
# Total GULP energy -495643.009189 kJ/mol
# GULP energy per Si atom -12391.075230 kJ/mol
# Density = 1.750904 g / cm^3
# Si number density = 17.548979 Si / 1000 Ang^3
#
#
#
# Elastic Constant Matrix: (Units=GPa)
#
#
# Indices 1 2 3 4 5 6 
#
# 1 106.6925 13.0114 68.5483 0.0000 0.0000 0.0000
# 2 13.0114 24.6234 32.2483 0.0000 0.0000 0.0000
# 3 68.5483 32.2483 171.7040 0.0000 0.0000 0.0000
# 4 0.0000 0.0000 0.0000 -3.0177 0.0000 0.0000
# 5 0.0000 0.0000 0.0000 0.0000 35.0219 0.0000
# 6 0.0000 0.0000 0.0000 0.0000 0.0000 7.8878
#
#
#
# Elastic Compliance Matrix: (Units=1/GPa)
#
#
# Indices 1 2 3 4 5 6 
#
# 1 0.012606 -0.000093 -0.005015 0.000000 0.000000 0.000000
# 2 -0.000093 0.053860 -0.010079 0.000000 0.000000 0.000000
# 3 -0.005015 -0.010079 0.009719 0.000000 0.000000 0.000000
# 4 0.000000 0.000000 0.000000 -0.331374 0.000000 0.000000
# 5 0.000000 0.000000 0.000000 0.000000 0.028554 0.000000
# 6 0.000000 0.000000 0.000000 0.000000 0.000000 0.126779
#
#
# Mechanical properties :
#
#
# Convention : Reuss Voigt Hill
#
# Bulk Modulus (GPa) = 21.82836 58.95956 40.39396
# Shear Modulus (GPa) = -92.23102 20.59253 -35.81925
#
# Velocity S-wave (km/s) = -7.25744 3.42926 -4.52276
# Velocity P-wave (km/s) = 7.60011 7.02494 2.05084
#
# Compressibility (1/GPa) = 0.04581196
#
# Stress axis : x y z
#
# Youngs Moduli (GPa) = 79.32541 18.56654 102.89059
#
# Poissons Ratio (x) = 0.00173 0.51602
# Poissons Ratio (y) = 0.00738 1.03699
# Poissons Ratio (z) = 0.39784 0.18712
#
# Static dielectric constant tensor:
#      x y z
#    x 3.717050 0.000000 0.000000 
#    y 0.000000 1.520050 0.000000 
#    z 0.000000 0.000000 3.408500 
# 
# 
# High freq. dielectric constant tensor:
#      x y z
#    x 1.692590 0.000000 0.000000 
#    y 0.000000 1.592790 0.000000 
#    z 0.000000 0.000000 1.683830 
# 
# From -- ./inp_files/36049.got.cif
#   From: 2010.03.12/outbox.cif.g09.slc.cpg/sg51_19_cif.got.tgz:36049.got - 2010.04.16 13:43:02.
