data_PCOD8213687
_publ_section_title
;
Structure prediction by ZEFSAII (Michael W. Deem and Ramdas Pophale) SiO2 
 PCOD8213687
Probable space group: P M M A
;
_chemical_formula_sum "Si O2"
_cell_formula_units_Z 64
_cell_length_a 16.001857
_cell_length_b 9.094923
_cell_length_c 22.031756
_cell_angle_alpha 90.000000
_cell_angle_beta 90.000000
_cell_angle_gamma 90.000000
_cell_volume 3206.406090
_symmetry_space_group_name_H-M "P M M A"
_symmetry_group_IT_number 51
_symmetry_cell_setting 'orthorhombic'
loop_
_space_group_symop_operation_xyz
x,y,z
1/2-x,-y,z
1/2+x,-y,-z
-x,y,-z
-x,-y,-z
1/2+x,y,-z
1/2-x,y,z
x,-y,z
loop_
_atom_site_type_symbol
_atom_site_label
_atom_site_fract_x
_atom_site_fract_y
_atom_site_fract_z
Si Si1 0.844126 0.337854 0.996238
Si Si2 0.653374 0.665424 0.768962
Si Si3 0.606855 0.837386 0.882851
Si Si4 0.652865 0.669481 0.221313
Si Si5 0.155379 0.829537 0.354922
Si Si6 0.415648 0.162959 0.892834
Si Si7 0.496606 0.173743 0.567547
Si Si8 0.154037 0.173464 0.653088
O O1 0.750000 0.357606 0.017542
O O2 0.886710 0.500000 0.992916
O O3 0.844344 0.263402 0.930326
O O4 0.886583 0.237769 0.045896
O O5 0.750000 0.666970 0.786567
O O6 0.617619 0.500000 0.769776
O O7 0.605293 0.764129 0.816973
O O8 0.637763 0.732125 0.703326
O O9 0.512849 0.852750 0.903834
O O10 0.648324 0.000000 0.879611
O O11 0.750000 0.686430 0.206453
O O12 0.626240 0.500000 0.226845
O O13 0.602921 0.741947 0.166492
O O14 0.630027 0.748973 0.284052
O O15 0.250000 0.801324 0.380242
O O16 0.084945 0.780292 0.402699
O O17 0.144777 0.000000 0.337265
O O18 0.375173 0.000000 0.885956
O O19 0.500000 0.242396 0.500000
O O20 0.413723 0.230633 0.603438
O O21 0.489229 0.000000 0.563669
O O22 0.250000 0.213010 0.633231
O O23 0.145325 0.000000 0.663288
#
# Coordination Sequence:
#
# PCOD8213687 Si02
#       8
#     8   8   8   8   8   8   8   8
#     4  11  24  41  60  82 110 145 186 231 278 332
#     4  10  21  37  57  82 111 144 185 232 282 336
#     4  11  24  39  57  83 113 145 184 230 279 333
#     4  10  21  37  57  82 111 144 185 232 282 336
#     4   9  18  33  54  80 112 149 188 234 286 337
#     4  11  24  39  57  83 113 145 184 230 279 333
#     4   9  18  32  53  83 115 146 187 236 281 335
#     4   9  18  33  54  80 112 149 188 234 286 337
#
# _framework density 19.960042000000001
#
# number of rings (size 3 to 8) (size 9 to 14) (size 15 to 20)
#    0.000    2.000    0.000    3.000    1.750    9.500 
#    0.000    2.500    0.000    1.500    0.000    3.500 
#    0.000    0.000    0.000    0.000    0.000    0.000 
#
# Total GULP energy -793527.658775 kJ/mol
# GULP energy per Si atom -12398.869668 kJ/mol
# Density = 1.991461 g / cm^3
# Si number density = 19.960042 Si / 1000 Ang^3
#
#
#
# Elastic Constant Matrix: (Units=GPa)
#
#
# Indices 1 2 3 4 5 6 
#
# 1 85.8331 29.7437 46.6216 0.0000 0.0000 0.0000
# 2 29.7437 107.4604 47.0434 0.0000 0.0000 0.0000
# 3 46.6216 47.0434 117.8229 0.0000 0.0000 0.0000
# 4 0.0000 0.0000 0.0000 -17.9391 0.0000 0.0000
# 5 0.0000 0.0000 0.0000 0.0000 16.0217 0.0000
# 6 0.0000 0.0000 0.0000 0.0000 0.0000 43.9842
#
#
#
# Elastic Compliance Matrix: (Units=1/GPa)
#
#
# Indices 1 2 3 4 5 6 
#
# 1 0.015154 -0.001902 -0.005237 0.000000 0.000000 0.000000
# 2 -0.001902 0.011516 -0.003845 0.000000 0.000000 0.000000
# 3 -0.005237 -0.003845 0.012095 0.000000 0.000000 0.000000
# 4 0.000000 0.000000 0.000000 -0.055744 0.000000 0.000000
# 5 0.000000 0.000000 0.000000 0.000000 0.062415 0.000000
# 6 0.000000 0.000000 0.000000 0.000000 0.000000 0.022735
#
#
# Mechanical properties :
#
#
# Convention : Reuss Voigt Hill
#
# Bulk Modulus (GPa) = 59.53711 61.99262 60.76487
# Shear Modulus (GPa) = 52.22572 20.92721 36.57646
#
# Velocity S-wave (km/s) = 5.12074 3.24150 4.28540
# Velocity P-wave (km/s) = 8.05329 6.71830 7.41590
#
# Compressibility (1/GPa) = 0.01679625
#
# Stress axis : x y z
#
# Youngs Moduli (GPa) = 65.98868 86.83925 82.67961
#
# Poissons Ratio (x) = 0.16515 0.43299
# Poissons Ratio (y) = 0.12550 0.31793
# Poissons Ratio (z) = 0.34558 0.33392
#
# Static dielectric constant tensor:
#      x y z
#    x 3.741700 0.000000 0.000000 
#    y 0.000000 3.826180 0.000000 
#    z 0.000000 0.000000 3.658010 
# 
# 
# High freq. dielectric constant tensor:
#      x y z
#    x 1.783380 0.000000 0.000000 
#    y 0.000000 1.774030 0.000000 
#    z 0.000000 0.000000 1.775580 
# 
# From -- ./inp_files/33808.got.cif
#   From: 2010.03.12/outbox.cif.g09.slc.cpg/sg51_17_cif.got.tgz:33808.got - 2010.04.16 13:43:02.
