data_PCOD8213094
_publ_section_title
;
Structure prediction by ZEFSAII (Michael W. Deem and Ramdas Pophale) SiO2 
 PCOD8213094
Probable space group: P M M A
;
_chemical_formula_sum "Si O2"
_cell_formula_units_Z 52
_cell_length_a 9.042646
_cell_length_b 13.365456
_cell_length_c 22.538076
_cell_angle_alpha 90.000000
_cell_angle_beta 90.000000
_cell_angle_gamma 90.000000
_cell_volume 2723.931293
_symmetry_space_group_name_H-M "P M M A"
_symmetry_group_IT_number 51
_symmetry_cell_setting 'orthorhombic'
loop_
_space_group_symop_operation_xyz
x,y,z
1/2-x,-y,z
1/2+x,-y,-z
-x,y,-z
-x,-y,-z
1/2+x,y,-z
1/2-x,y,z
x,-y,z
loop_
_atom_site_type_symbol
_atom_site_label
_atom_site_fract_x
_atom_site_fract_y
_atom_site_fract_z
Si Si1 0.423944 0.112735 0.437502
Si Si2 0.918932 0.111701 0.166583
Si Si3 0.079347 0.613359 0.879527
Si Si4 0.080716 0.705547 0.756321
Si Si5 0.924432 0.695164 0.634534
Si Si6 0.075233 0.790655 0.060889
Si Si7 0.574644 0.500000 0.563182
O O1 0.500000 0.132800 0.500000
O O2 0.250000 0.123723 0.447364
O O3 0.482048 0.198750 0.392422
O O4 0.462817 0.000000 0.414051
O O5 0.750000 0.131118 0.145731
O O6 0.956856 0.182311 0.221965
O O7 0.025781 0.131817 0.111340
O O8 0.944021 0.000000 0.189555
O O9 0.250000 0.642361 0.891244
O O10 0.045432 0.500000 0.896360
O O11 0.042781 0.630494 0.810215
O O12 0.976718 0.679373 0.921733
O O13 0.250000 0.694992 0.736372
O O14 0.980447 0.679385 0.700885
O O15 0.750000 0.696167 0.636961
O O16 0.980315 0.600145 0.596731
O O17 0.250000 0.792906 0.053540
O O18 0.000000 0.824823 0.000000
O O19 0.750000 0.500000 0.555775
O O20 0.500000 0.500000 0.500000
#
# Coordination Sequence:
#
# PCOD8213094 Si02
#       7
#     8   8   8   8   8   8   4
#     4   9  18  33  52  73  98 130 169 214 264 315
#     4   9  19  38  60  80 108 145 182 225 274 320
#     4   9  19  37  58  78 105 141 180 226 275 322
#     4   9  19  34  54  81 107 135 176 219 261 314
#     4  10  21  35  51  75 108 141 174 216 267 323
#     4  11  22  36  55  81 112 144 182 226 272 327
#     4  10  22  38  54  76 106 142 181 224 271 322
#
# _framework density 19.090056000000001
#
# number of rings (size 3 to 8) (size 9 to 14) (size 15 to 20)
#    0.000    2.462    0.000    2.769    1.077    5.538 
#    0.000    0.000    0.000    0.000    0.000    0.000 
#    0.000    0.000    0.000    0.000    0.000    0.000 
#
# Total GULP energy -644773.499921 kJ/mol
# GULP energy per Si atom -12399.490383 kJ/mol
# Density = 1.904661 g / cm^3
# Si number density = 19.090056 Si / 1000 Ang^3
#
#
#
# Elastic Constant Matrix: (Units=GPa)
#
#
# Indices 1 2 3 4 5 6 
#
# 1 59.4835 22.4634 32.8810 0.0000 0.0000 0.0000
# 2 22.4634 100.0559 21.1579 0.0000 0.0000 0.0000
# 3 32.8810 21.1579 88.8515 0.0000 0.0000 0.0000
# 4 0.0000 0.0000 0.0000 7.7622 0.0000 0.0000
# 5 0.0000 0.0000 0.0000 0.0000 37.2066 0.0000
# 6 0.0000 0.0000 0.0000 0.0000 0.0000 20.5786
#
#
#
# Elastic Compliance Matrix: (Units=1/GPa)
#
#
# Indices 1 2 3 4 5 6 
#
# 1 0.022192 -0.003418 -0.007399 0.000000 0.000000 0.000000
# 2 -0.003418 0.011051 -0.001367 0.000000 0.000000 0.000000
# 3 -0.007399 -0.001367 0.014318 0.000000 0.000000 0.000000
# 4 0.000000 0.000000 0.000000 0.128829 0.000000 0.000000
# 5 0.000000 0.000000 0.000000 0.000000 0.026877 0.000000
# 6 0.000000 0.000000 0.000000 0.000000 0.000000 0.048594
#
#
# Mechanical properties :
#
#
# Convention : Reuss Voigt Hill
#
# Bulk Modulus (GPa) = 43.11338 44.59950 43.85644
# Shear Modulus (GPa) = 17.60820 24.56873 21.08847
#
# Velocity S-wave (km/s) = 3.04036 3.59136 3.32728
# Velocity P-wave (km/s) = 5.91255 6.37264 6.14690
#
# Compressibility (1/GPa) = 0.02319466
#
# Stress axis : x y z
#
# Youngs Moduli (GPa) = 45.06165 90.49185 69.84140
#
# Poissons Ratio (x) = 0.30928 0.51673
# Poissons Ratio (y) = 0.15401 0.09545
# Poissons Ratio (z) = 0.33339 0.12367
#
# Static dielectric constant tensor:
#      x y z
#    x 3.335300 0.000000 0.000000 
#    y 0.000000 3.829740 0.000000 
#    z 0.000000 0.000000 3.328780 
# 
# 
# High freq. dielectric constant tensor:
#      x y z
#    x 1.730310 0.000000 0.000000 
#    y 0.000000 1.754900 0.000000 
#    z 0.000000 0.000000 1.734420 
# 
# From -- ./inp_files/31720.got.cif
#   From: 2010.03.12/outbox.cif.g09.slc.cpg/sg51_16_cif.got.tgz:31720.got - 2010.04.16 13:43:02.
