data_PCOD8213641
_publ_section_title
;
Structure prediction by ZEFSAII (Michael W. Deem and Ramdas Pophale) SiO2 
 PCOD8213641
Probable space group: P M M A
;
_chemical_formula_sum "Si O2"
_cell_formula_units_Z 64
_cell_length_a 19.813233
_cell_length_b 8.821859
_cell_length_c 19.824511
_cell_angle_alpha 90.000000
_cell_angle_beta 90.000000
_cell_angle_gamma 90.000000
_cell_volume 3465.117314
_symmetry_space_group_name_H-M "P M M A"
_symmetry_group_IT_number 51
_symmetry_cell_setting 'orthorhombic'
loop_
_space_group_symop_operation_xyz
x,y,z
1/2-x,-y,z
1/2+x,-y,-z
-x,y,-z
-x,-y,-z
1/2+x,y,-z
1/2-x,y,z
x,-y,z
loop_
_atom_site_type_symbol
_atom_site_label
_atom_site_fract_x
_atom_site_fract_y
_atom_site_fract_z
Si Si1 0.567174 0.179602 0.682307
Si Si2 0.828277 0.176497 0.442776
Si Si3 0.424319 0.322229 0.665120
Si Si4 0.068993 0.322376 0.030544
Si Si5 0.048796 0.172174 0.165979
Si Si6 0.397048 0.173093 0.800600
Si Si7 0.672288 0.324280 0.584025
Si Si8 0.327603 0.825952 0.933911
O O1 0.494725 0.234583 0.655154
O O2 0.575662 0.223875 0.760859
O O3 0.627207 0.264043 0.644807
O O4 0.571462 0.000000 0.671333
O O5 0.750000 0.209006 0.426520
O O6 0.873204 0.275206 0.393094
O O7 0.846053 0.227905 0.518165
O O8 0.845771 0.000000 0.434840
O O9 0.438466 0.500000 0.661450
O O10 0.389573 0.281541 0.736351
O O11 0.062619 0.500000 0.031180
O O12 0.082355 0.269909 0.107075
O O13 0.131902 0.277193 0.985211
O O14 0.000000 0.250429 0.000000
O O15 0.968641 0.194841 0.163203
O O16 0.069356 0.000000 0.152272
O O17 0.341473 0.219056 0.856008
O O18 0.388415 0.000000 0.775219
O O19 0.750000 0.299946 0.604692
O O20 0.656656 0.500000 0.569760
O O21 0.250000 0.797969 0.949627
O O22 0.349124 0.000000 0.944858
#
# Coordination Sequence:
#
# PCOD8213641 Si02
#       8
#     8   8   8   8   8   8   8   8
#     4  10  21  38  59  85 114 146 189 234 277 330
#     4  10  21  38  59  81 109 149 194 235 275 329
#     4  11  22  35  55  84 118 150 184 230 283 333
#     4  11  22  34  54  83 111 143 183 226 278 334
#     4   9  18  34  57  81 106 141 184 229 270 319
#     4   9  18  34  54  78 108 143 184 225 271 328
#     4  10  21  38  60  86 115 146 183 230 287 344
#     4  10  21  37  57  80 108 145 188 231 275 327
#
# _framework density 18.469792999999999
#
# number of rings (size 3 to 8) (size 9 to 14) (size 15 to 20)
#    0.000    2.000    1.250    3.375    0.000    6.250 
#    0.000    4.375    0.000    0.750    0.000    0.000 
#    0.000    0.000    0.000    0.000    0.000    0.000 
#
# Total GULP energy -793783.979814 kJ/mol
# GULP energy per Si atom -12402.874685 kJ/mol
# Density = 1.842775 g / cm^3
# Si number density = 18.469793 Si / 1000 Ang^3
#
#
#
# Elastic Constant Matrix: (Units=GPa)
#
#
# Indices 1 2 3 4 5 6 
#
# 1 69.7271 27.6342 51.2895 0.0000 0.0000 0.0000
# 2 27.6342 63.8675 33.3962 0.0000 0.0000 0.0000
# 3 51.2895 33.3962 100.5326 0.0000 0.0000 0.0000
# 4 0.0000 0.0000 0.0000 -2.0038 0.0000 0.0000
# 5 0.0000 0.0000 0.0000 0.0000 32.7187 0.0000
# 6 0.0000 0.0000 0.0000 0.0000 0.0000 28.0613
#
#
#
# Elastic Compliance Matrix: (Units=1/GPa)
#
#
# Indices 1 2 3 4 5 6 
#
# 1 0.024136 -0.004846 -0.010704 0.000000 0.000000 0.000000
# 2 -0.004846 0.019922 -0.004146 0.000000 0.000000 0.000000
# 3 -0.010704 -0.004146 0.016785 0.000000 0.000000 0.000000
# 4 0.000000 0.000000 0.000000 -0.499053 0.000000 0.000000
# 5 0.000000 0.000000 0.000000 0.000000 0.030564 0.000000
# 6 0.000000 0.000000 0.000000 0.000000 0.000000 0.035636
#
#
# Mechanical properties :
#
#
# Convention : Reuss Voigt Hill
#
# Bulk Modulus (GPa) = 46.61594 50.97410 48.79502
# Shear Modulus (GPa) = -15.36238 19.87574 2.25668
#
# Velocity S-wave (km/s) = -2.88715 3.28399 1.10656
# Velocity P-wave (km/s) = 3.76559 6.48367 5.30177
#
# Compressibility (1/GPa) = 0.02145189
#
# Stress axis : x y z
#
# Youngs Moduli (GPa) = 41.43274 50.19593 59.57752
#
# Poissons Ratio (x) = 0.24325 0.63769
# Poissons Ratio (y) = 0.20079 0.24698
# Poissons Ratio (z) = 0.44348 0.20809
#
# Static dielectric constant tensor:
#      x y z
#    x 3.272980 0.000000 0.000000 
#    y 0.000000 3.389020 0.000000 
#    z 0.000000 0.000000 3.414550 
# 
# 
# High freq. dielectric constant tensor:
#      x y z
#    x 1.703180 0.000000 0.000000 
#    y 0.000000 1.720260 0.000000 
#    z 0.000000 0.000000 1.722700 
# 
# From -- ./inp_files/30506.got.cif
#   From: 2010.03.12/outbox.cif.g09.slc.cpg/sg51_16_cif.got.tgz:30506.got - 2010.04.16 13:43:02.
