data_PCOD8213379
_publ_section_title
;
Structure prediction by ZEFSAII (Michael W. Deem and Ramdas Pophale) SiO2 
 PCOD8213379
Probable space group: P M M A
;
_chemical_formula_sum "Si O2"
_cell_formula_units_Z 56
_cell_length_a 21.496973
_cell_length_b 14.565188
_cell_length_c 9.481154
_cell_angle_alpha 90.000000
_cell_angle_beta 90.000000
_cell_angle_gamma 90.000000
_cell_volume 2968.619982
_symmetry_space_group_name_H-M "P M M A"
_symmetry_group_IT_number 51
_symmetry_cell_setting 'orthorhombic'
loop_
_space_group_symop_operation_xyz
x,y,z
1/2-x,-y,z
1/2+x,-y,-z
-x,y,-z
-x,-y,-z
1/2+x,y,-z
1/2-x,y,z
x,-y,z
loop_
_atom_site_type_symbol
_atom_site_label
_atom_site_fract_x
_atom_site_fract_y
_atom_site_fract_z
Si Si1 0.010858 0.394029 0.335127
Si Si2 0.822677 0.106944 0.871467
Si Si3 0.821855 0.746610 0.402114
Si Si4 0.319941 0.396699 0.076555
Si Si5 0.625680 0.268983 0.707430
Si Si6 0.621925 0.393977 0.208602
Si Si7 0.176378 0.100860 0.808407
O O1 0.032596 0.500000 0.309559
O O2 0.059618 0.320022 0.274905
O O3 0.000000 0.377631 0.500000
O O4 0.948821 0.372345 0.248140
O O5 0.750000 0.130150 0.841191
O O6 0.869143 0.167259 0.774869
O O7 0.835061 0.000000 0.838729
O O8 0.840409 0.130825 0.032677
O O9 0.750000 0.763022 0.438455
O O10 0.860660 0.740366 0.543656
O O11 0.830406 0.653583 0.315471
O O12 0.850614 0.828485 0.306200
O O13 0.250000 0.390916 0.017633
O O14 0.337071 0.500000 0.122614
O O15 0.324456 0.332662 0.213260
O O16 0.365523 0.361688 0.951996
O O17 0.638064 0.500000 0.223439
O O18 0.250000 0.097790 0.795209
O O19 0.148565 0.000000 0.775937
#
# Coordination Sequence:
#
# PCOD8213379 Si02
#       7
#     8   8   8   8   8   8   8
#     4  10  21  40  60  78 108 152 203 247 278 324
#     4   9  18  34  56  82 114 150 184 226 287 353
#     4  11  21  31  51  83 112 142 183 230 287 344
#     4  10  21  36  54  82 118 148 179 230 294 353
#     4  12  22  34  55  83 118 149 185 234 292 336
#     4  10  21  38  58  77 105 149 196 236 275 329
#     4   8  16  33  55  78 108 146 184 221 267 333
#
# _framework density 18.863983000000001
#
# number of rings (size 3 to 8) (size 9 to 14) (size 15 to 20)
#    0.000    2.000    1.429    3.857    0.000    3.714 
#    0.000    3.571    0.000    1.286    0.000    3.000 
#    0.000    0.000    0.000    0.000    0.000    0.000 
#
# Total GULP energy -694274.045331 kJ/mol
# GULP energy per Si atom -12397.750809 kJ/mol
# Density = 1.882105 g / cm^3
# Si number density = 18.863983 Si / 1000 Ang^3
#
#
#
# Elastic Constant Matrix: (Units=GPa)
#
#
# Indices 1 2 3 4 5 6 
#
# 1 53.3196 32.1088 17.8966 0.0000 0.0000 0.0000
# 2 32.1088 103.4217 56.0633 0.0000 0.0000 0.0000
# 3 17.8966 56.0633 98.9197 0.0000 0.0000 0.0000
# 4 0.0000 0.0000 0.0000 33.8594 0.0000 0.0000
# 5 0.0000 0.0000 0.0000 0.0000 26.6798 0.0000
# 6 0.0000 0.0000 0.0000 0.0000 0.0000 27.2979
#
#
#
# Elastic Compliance Matrix: (Units=1/GPa)
#
#
# Indices 1 2 3 4 5 6 
#
# 1 0.023069 -0.007073 -0.000165 0.000000 0.000000 0.000000
# 2 -0.007073 0.016126 -0.007860 0.000000 0.000000 0.000000
# 3 -0.000165 -0.007860 0.014594 0.000000 0.000000 0.000000
# 4 0.000000 0.000000 0.000000 0.029534 0.000000 0.000000
# 5 0.000000 0.000000 0.000000 0.000000 0.037482 0.000000
# 6 0.000000 0.000000 0.000000 0.000000 0.000000 0.036633
#
#
# Mechanical properties :
#
#
# Convention : Reuss Voigt Hill
#
# Bulk Modulus (GPa) = 42.38466 51.97759 47.18113
# Shear Modulus (GPa) = 25.57589 27.54024 26.55807
#
# Velocity S-wave (km/s) = 3.68612 3.82506 3.75623
# Velocity P-wave (km/s) = 6.37448 6.86453 6.62404
#
# Compressibility (1/GPa) = 0.02359344
#
# Stress axis : x y z
#
# Youngs Moduli (GPa) = 43.34739 62.01333 68.52313
#
# Poissons Ratio (x) = 0.43860 0.01132
# Poissons Ratio (y) = 0.30658 0.53857
# Poissons Ratio (z) = 0.00716 0.48740
#
# Static dielectric constant tensor:
#      x y z
#    x 3.177830 0.000000 0.000000 
#    y 0.000000 3.743930 0.000000 
#    z 0.000000 0.000000 3.503220 
# 
# 
# High freq. dielectric constant tensor:
#      x y z
#    x 1.697710 0.000000 0.000000 
#    y 0.000000 1.739160 0.000000 
#    z 0.000000 0.000000 1.738800 
# 
# From -- ./inp_files/10960.got.cif
#   From: 2010.03.12/outbox.cif.g09.slc.cpg/sg51_6_cif.got.tgz:10960.got - 2010.04.16 13:43:02.
