data_PCOD8213486
_publ_section_title
;
Structure prediction by ZEFSAII (Michael W. Deem and Ramdas Pophale) SiO2 
 PCOD8213486
Probable space group: P M M A
;
_chemical_formula_sum "Si O2"
_cell_formula_units_Z 52
_cell_length_a 14.292644
_cell_length_b 22.154043
_cell_length_c 8.728582
_cell_angle_alpha 90.000000
_cell_angle_beta 90.000000
_cell_angle_gamma 90.000000
_cell_volume 2763.816893
_symmetry_space_group_name_H-M "P M M A"
_symmetry_group_IT_number 51
_symmetry_cell_setting 'orthorhombic'
loop_
_space_group_symop_operation_xyz
x,y,z
1/2-x,-y,z
1/2+x,-y,-z
-x,y,-z
-x,-y,-z
1/2+x,y,-z
1/2-x,y,z
x,-y,z
loop_
_atom_site_type_symbol
_atom_site_label
_atom_site_fract_x
_atom_site_fract_y
_atom_site_fract_z
Si Si1 0.858380 0.433430 0.324415
Si Si2 0.470796 0.785127 0.769095
Si Si3 0.000000 0.867210 0.500000
Si Si4 0.008803 0.653184 0.824014
Si Si5 0.858715 0.569824 0.674374
Si Si6 0.856492 0.068855 0.721685
Si Si7 0.858039 0.174580 0.938701
O O1 0.750000 0.431468 0.291625
O O2 0.898491 0.500000 0.296359
O O3 0.881321 0.414662 0.498135
O O4 0.905231 0.391272 0.199807
O O5 0.447018 0.823408 0.618705
O O6 0.460178 0.714026 0.735065
O O7 0.580435 0.788401 0.816535
O O8 0.400993 0.813963 0.894364
O O9 0.075827 0.908147 0.413209
O O10 0.914934 0.619221 0.771130
O O11 0.000000 0.671633 0.000000
O O12 0.750000 0.579033 0.710955
O O13 0.886639 0.500000 0.710788
O O14 0.750000 0.075450 0.661425
O O15 0.867758 0.104917 0.882694
O O16 0.882050 0.000000 0.759442
O O17 0.750000 0.196187 0.935384
#
# Coordination Sequence:
#
# PCOD8213486 Si02
#       7
#     8   8   4   8   8   8   8
#     4   9  20  39  59  80 107 140 181 230 283 338
#     4  10  22  38  52  81 112 150 192 226 267 335
#     4  10  21  36  58  80 125 152 178 228 288 316
#     4  12  23  35  54  81 112 144 187 231 279 324
#     4   9  20  39  60  81 107 141 183 230 284 343
#     4   9  18  35  61  90 115 146 188 228 272 325
#     4   9  18  38  59  75 110 153 184 221 270 321
#
# _framework density 18.814561000000001
#
# number of rings (size 3 to 8) (size 9 to 14) (size 15 to 20)
#    0.000    2.308    1.538    2.077    2.154    4.923 
#    0.000    8.462    0.000    1.846    0.000    0.000 
#    0.000    0.000    0.000    0.000    0.000    0.000 
#
# Total GULP energy -644461.670635 kJ/mol
# GULP energy per Si atom -12393.493666 kJ/mol
# Density = 1.877174 g / cm^3
# Si number density = 18.814561 Si / 1000 Ang^3
#
#
#
# Elastic Constant Matrix: (Units=GPa)
#
#
# Indices 1 2 3 4 5 6 
#
# 1 93.5680 46.0310 27.6842 0.0000 0.0000 0.0000
# 2 46.0310 126.3770 41.0543 0.0000 0.0000 0.0000
# 3 27.6842 41.0543 58.9371 0.0000 0.0000 0.0000
# 4 0.0000 0.0000 0.0000 28.0784 0.0000 0.0000
# 5 0.0000 0.0000 0.0000 0.0000 29.5205 0.0000
# 6 0.0000 0.0000 0.0000 0.0000 0.0000 45.3642
#
#
#
# Elastic Compliance Matrix: (Units=1/GPa)
#
#
# Indices 1 2 3 4 5 6 
#
# 1 0.013652 -0.003734 -0.003811 0.000000 0.000000 0.000000
# 2 -0.003734 0.011249 -0.006081 0.000000 0.000000 0.000000
# 3 -0.003811 -0.006081 0.022994 0.000000 0.000000 0.000000
# 4 0.000000 0.000000 0.000000 0.035615 0.000000 0.000000
# 5 0.000000 0.000000 0.000000 0.000000 0.033875 0.000000
# 6 0.000000 0.000000 0.000000 0.000000 0.000000 0.022044
#
#
# Mechanical properties :
#
#
# Convention : Reuss Voigt Hill
#
# Bulk Modulus (GPa) = 48.44954 56.49123 52.47039
# Shear Modulus (GPa) = 28.80808 31.53347 30.17077
#
# Velocity S-wave (km/s) = 3.91725 4.09836 4.00882
# Velocity P-wave (km/s) = 6.80197 7.24471 7.02683
#
# Compressibility (1/GPa) = 0.02064003
#
# Stress axis : x y z
#
# Youngs Moduli (GPa) = 73.24762 88.89968 43.49011
#
# Poissons Ratio (x) = 0.33199 0.16576
# Poissons Ratio (y) = 0.27354 0.26448
# Poissons Ratio (z) = 0.27918 0.54063
#
# Static dielectric constant tensor:
#      x y z
#    x 3.489230 0.000000 0.000000 
#    y 0.000000 3.536750 0.000000 
#    z 0.000000 0.000000 3.319160 
# 
# 
# High freq. dielectric constant tensor:
#      x y z
#    x 1.735880 0.000000 0.000000 
#    y 0.000000 1.735880 0.000000 
#    z 0.000000 0.000000 1.715820 
# 
# From -- ./inp_files/8449.got.cif
#   From: 2010.03.12/outbox.cif.g09.slc.cpg/sg51_5_cif.got.tgz:8449.got - 2010.04.16 13:43:02.
