data_PCOD8213417
_publ_section_title
;
Structure prediction by ZEFSAII (Michael W. Deem and Ramdas Pophale) SiO2 
 PCOD8213417
Probable space group: P M M A
;
_chemical_formula_sum "Si O2"
_cell_formula_units_Z 56
_cell_length_a 18.732378
_cell_length_b 13.331644
_cell_length_c 11.660734
_cell_angle_alpha 90.000000
_cell_angle_beta 90.000000
_cell_angle_gamma 90.000000
_cell_volume 2912.074687
_symmetry_space_group_name_H-M "P M M A"
_symmetry_group_IT_number 51
_symmetry_cell_setting 'orthorhombic'
loop_
_space_group_symop_operation_xyz
x,y,z
1/2-x,-y,z
1/2+x,-y,-z
-x,y,-z
-x,-y,-z
1/2+x,y,-z
1/2-x,y,z
x,-y,z
loop_
_atom_site_type_symbol
_atom_site_label
_atom_site_fract_x
_atom_site_fract_y
_atom_site_fract_z
Si Si1 0.084837 0.250472 0.778220
Si Si2 0.466161 0.888706 0.123078
Si Si3 0.166522 0.258616 0.423304
Si Si4 0.832175 0.234253 0.838580
Si Si5 0.334233 0.888802 0.617134
Si Si6 0.572434 0.390211 0.432290
Si Si7 0.332201 0.616896 0.962578
O O1 0.142010 0.171020 0.730479
O O2 0.061944 0.324186 0.678795
O O3 0.118165 0.315339 0.881289
O O4 0.012682 0.192062 0.808677
O O5 0.384442 0.850503 0.110309
O O6 0.465781 0.000000 0.181005
O O7 0.500000 0.899450 0.000000
O O8 0.250000 0.271623 0.432010
O O9 0.142495 0.250617 0.291952
O O10 0.140279 0.162529 0.497890
O O11 0.134042 0.356517 0.481219
O O12 0.750000 0.195651 0.844608
O O13 0.839992 0.338306 0.909023
O O14 0.250000 0.893957 0.621231
O O15 0.367753 0.000000 0.619915
O O16 0.500000 0.389320 0.500000
O O17 0.593817 0.500000 0.388953
O O18 0.250000 0.624570 0.920912
O O19 0.356770 0.500000 0.963537
#
# Coordination Sequence:
#
# PCOD8213417 Si02
#       7
#     8   8   8   8   8   8   8
#     4  11  20  37  59  82 115 153 188 237 291 342
#     4  11  23  39  58  84 116 149 191 242 291 348
#     4   9  19  35  57  83 112 148 191 236 283 335
#     4  10  21  40  61  83 116 156 194 240 294 350
#     4   9  18  33  55  84 115 148 187 231 280 335
#     4  10  21  36  55  81 114 149 188 234 283 338
#     4  10  21  37  58  85 116 151 194 240 286 344
#
# _framework density 19.230276
#
# number of rings (size 3 to 8) (size 9 to 14) (size 15 to 20)
#    0.000    2.000    1.429    2.143    0.000    2.286 
#    0.000    5.000    0.000    4.714    0.000    0.000 
#    0.000    0.000    0.000    0.000    0.000    0.000 
#
# Total GULP energy -694226.204597 kJ/mol
# GULP energy per Si atom -12396.896511 kJ/mol
# Density = 1.918651 g / cm^3
# Si number density = 19.230276 Si / 1000 Ang^3
#
#
#
# Elastic Constant Matrix: (Units=GPa)
#
#
# Indices 1 2 3 4 5 6 
#
# 1 67.1854 57.0145 35.2121 0.0000 0.0000 0.0000
# 2 57.0145 164.1116 59.1488 0.0000 0.0000 0.0000
# 3 35.2121 59.1488 99.0009 0.0000 0.0000 0.0000
# 4 0.0000 0.0000 0.0000 24.8669 0.0000 0.0000
# 5 0.0000 0.0000 0.0000 0.0000 23.8994 0.0000
# 6 0.0000 0.0000 0.0000 0.0000 0.0000 27.2380
#
#
#
# Elastic Compliance Matrix: (Units=1/GPa)
#
#
# Indices 1 2 3 4 5 6 
#
# 1 0.022416 -0.006263 -0.004231 0.000000 0.000000 0.000000
# 2 -0.006263 0.009515 -0.003458 0.000000 0.000000 0.000000
# 3 -0.004231 -0.003458 0.013672 0.000000 0.000000 0.000000
# 4 0.000000 0.000000 0.000000 0.040214 0.000000 0.000000
# 5 0.000000 0.000000 0.000000 0.000000 0.041842 0.000000
# 6 0.000000 0.000000 0.000000 0.000000 0.000000 0.036713
#
#
# Mechanical properties :
#
#
# Convention : Reuss Voigt Hill
#
# Bulk Modulus (GPa) = 56.49599 70.33874 63.41737
# Shear Modulus (GPa) = 25.23010 27.12902 26.17956
#
# Velocity S-wave (km/s) = 3.62608 3.76006 3.69368
# Velocity P-wave (km/s) = 6.85374 7.45032 7.15825
#
# Compressibility (1/GPa) = 0.01770037
#
# Stress axis : x y z
#
# Youngs Moduli (GPa) = 44.61013 105.09368 73.14445
#
# Poissons Ratio (x) = 0.65817 0.30949
# Poissons Ratio (y) = 0.27938 0.25290
# Poissons Ratio (z) = 0.18876 0.36336
#
# Static dielectric constant tensor:
#      x y z
#    x 3.414920 0.000000 0.000000 
#    y 0.000000 3.891310 0.000000 
#    z 0.000000 0.000000 3.758520 
# 
# 
# High freq. dielectric constant tensor:
#      x y z
#    x 1.747640 0.000000 0.000000 
#    y 0.000000 1.753170 0.000000 
#    z 0.000000 0.000000 1.751070 
# 
# From -- ./inp_files/18230.got.cif
#   From: 2010.03.12/outbox.cif.g09.slc.cpg/sg51_10_cif.got.tgz:18230.got - 2010.04.16 13:43:02.
