data_PCOD8213940
_publ_section_title
;
Structure prediction by ZEFSAII (Michael W. Deem and Ramdas Pophale) SiO2 
 PCOD8213940
Probable space group: P M M A
;
_chemical_formula_sum "Si O2"
_cell_formula_units_Z 48
_cell_length_a 8.702786
_cell_length_b 29.887810
_cell_length_c 9.550311
_cell_angle_alpha 90.000000
_cell_angle_beta 90.000000
_cell_angle_gamma 90.000000
_cell_volume 2484.104791
_symmetry_space_group_name_H-M "P M M A"
_symmetry_group_IT_number 51
_symmetry_cell_setting 'orthorhombic'
loop_
_space_group_symop_operation_xyz
x,y,z
1/2-x,-y,z
1/2+x,-y,-z
-x,y,-z
-x,-y,-z
1/2+x,y,-z
1/2-x,y,z
x,-y,z
loop_
_atom_site_type_symbol
_atom_site_label
_atom_site_fract_x
_atom_site_fract_y
_atom_site_fract_z
Si Si1 0.069219 0.550141 0.854475
Si Si2 0.432252 0.371458 0.653252
Si Si3 0.430000 0.948402 0.145492
Si Si4 0.432483 0.297512 0.149620
Si Si5 0.570602 0.121324 0.348702
Si Si6 0.930531 0.202071 0.145194
O O1 0.250000 0.550595 0.871902
O O2 0.009328 0.500000 0.819486
O O3 0.016470 0.583156 0.731586
O O4 0.000000 0.567648 0.000000
O O5 0.500000 0.374481 0.500000
O O6 0.250000 0.365844 0.648395
O O7 0.504887 0.329240 0.729948
O O8 0.250000 0.940737 0.138192
O O9 0.497685 0.921655 0.275429
O O10 0.474421 0.000000 0.168811
O O11 0.500000 0.930485 0.000000
O O12 0.250000 0.299852 0.142985
O O13 0.486119 0.247732 0.188860
O O14 0.500000 0.312581 0.000000
O O15 0.500000 0.127835 0.500000
O O16 0.750000 0.112709 0.361628
O O17 0.532652 0.165968 0.263096
O O18 0.750000 0.211047 0.126710
O O19 0.000000 0.183787 0.000000
#
# Coordination Sequence:
#
# PCOD8213940 Si02
#       6
#     8   8   8   8   8   8
#     4   9  19  36  58  83 110 143 185 231 278 330
#     4  11  23  38  56  81 115 151 188 231 281 336
#     4  10  21  38  61  87 115 149 190 235 281 332
#     4  11  22  38  61  86 113 147 188 233 280 331
#     4  11  24  39  58  84 116 153 190 232 282 337
#     4  10  21  38  60  86 113 145 188 234 282 334
#
# _framework density 19.322855000000001
#
# number of rings (size 3 to 8) (size 9 to 14) (size 15 to 20)
#    0.000    1.667    0.000    5.500    0.000    9.000 
#    0.000    1.667    0.000    0.000    0.000    0.000 
#    0.000    0.000    0.000    0.000    0.000    0.000 
#
# Total GULP energy -595429.135459 kJ/mol
# GULP energy per Si atom -12404.773655 kJ/mol
# Density = 1.927887 g / cm^3
# Si number density = 19.322855 Si / 1000 Ang^3
#
#
#
# Elastic Constant Matrix: (Units=GPa)
#
#
# Indices 1 2 3 4 5 6 
#
# 1 109.7371 63.7766 71.5640 0.0000 0.0000 0.0000
# 2 63.7766 107.1232 92.1770 0.0000 0.0000 0.0000
# 3 71.5640 92.1770 175.6182 0.0000 0.0000 0.0000
# 4 0.0000 0.0000 0.0000 47.6456 0.0000 0.0000
# 5 0.0000 0.0000 0.0000 0.0000 38.5969 0.0000
# 6 0.0000 0.0000 0.0000 0.0000 0.0000 23.0937
#
#
#
# Elastic Compliance Matrix: (Units=1/GPa)
#
#
# Indices 1 2 3 4 5 6 
#
# 1 0.014519 -0.006479 -0.002516 0.000000 0.000000 0.000000
# 2 -0.006479 0.019915 -0.007813 0.000000 0.000000 0.000000
# 3 -0.002516 -0.007813 0.010820 0.000000 0.000000 0.000000
# 4 0.000000 0.000000 0.000000 0.020988 0.000000 0.000000
# 5 0.000000 0.000000 0.000000 0.000000 0.025909 0.000000
# 6 0.000000 0.000000 0.000000 0.000000 0.000000 0.043302
#
#
# Mechanical properties :
#
#
# Convention : Reuss Voigt Hill
#
# Bulk Modulus (GPa) = 85.91898 94.16818 90.04358
# Shear Modulus (GPa) = 28.91056 32.86464 30.88760
#
# Velocity S-wave (km/s) = 3.87225 4.12857 4.00246
# Velocity P-wave (km/s) = 8.03455 8.45971 8.24987
#
# Compressibility (1/GPa) = 0.01163887
#
# Stress axis : x y z
#
# Youngs Moduli (GPa) = 68.87620 50.21328 92.42271
#
# Poissons Ratio (x) = 0.32535 0.23250
# Poissons Ratio (y) = 0.44627 0.72206
# Poissons Ratio (z) = 0.17326 0.39229
#
# Static dielectric constant tensor:
#      x y z
#    x 3.652080 0.000000 0.000000 
#    y 0.000000 3.735710 0.000000 
#    z 0.000000 0.000000 3.538180 
# 
# 
# High freq. dielectric constant tensor:
#      x y z
#    x 1.766370 0.000000 0.000000 
#    y 0.000000 1.764330 0.000000 
#    z 0.000000 0.000000 1.751820 
# 
# From -- ./inp_files/6008.got.cif
#   From: 2010.03.12/outbox.cif.g09.slc.cpg/sg51_4_cif.got.tgz:6008.got - 2010.04.16 13:43:02.
