data_PCOD8213447
_publ_section_title
;
Structure prediction by ZEFSAII (Michael W. Deem and Ramdas Pophale) SiO2 
 PCOD8213447
Probable space group: P M M A
;
_chemical_formula_sum "Si O2"
_cell_formula_units_Z 48
_cell_length_a 18.005165
_cell_length_b 9.222230
_cell_length_c 16.167514
_cell_angle_alpha 90.000000
_cell_angle_beta 90.000000
_cell_angle_gamma 90.000000
_cell_volume 2684.579692
_symmetry_space_group_name_H-M "P M M A"
_symmetry_group_IT_number 51
_symmetry_cell_setting 'orthorhombic'
loop_
_space_group_symop_operation_xyz
x,y,z
1/2-x,-y,z
1/2+x,-y,-z
-x,y,-z
-x,-y,-z
1/2+x,y,-z
1/2-x,y,z
x,-y,z
loop_
_atom_site_type_symbol
_atom_site_label
_atom_site_fract_x
_atom_site_fract_y
_atom_site_fract_z
Si Si1 0.601487 0.164866 0.830277
Si Si2 0.529133 0.669473 0.590586
Si Si3 0.664237 0.832521 0.138489
Si Si4 0.954737 0.164778 0.267576
Si Si5 0.666116 0.169026 0.657822
Si Si6 0.414793 0.328638 0.008062
O O1 0.516675 0.187462 0.802664
O O2 0.655008 0.208119 0.754296
O O3 0.619550 0.268776 0.906757
O O4 0.616008 0.000000 0.858502
O O5 0.500000 0.706038 0.500000
O O6 0.537632 0.500000 0.606342
O O7 0.468972 0.730818 0.655128
O O8 0.609962 0.741217 0.600933
O O9 0.750000 0.797036 0.152618
O O10 0.623619 0.796650 0.225268
O O11 0.650673 0.000000 0.114083
O O12 0.633210 0.732243 0.066630
O O13 0.956855 0.000000 0.300662
O O14 0.750000 0.207857 0.631653
O O15 0.648268 0.000000 0.644557
O O16 0.407821 0.500000 0.008028
O O17 0.500000 0.277444 0.000000
#
# Coordination Sequence:
#
# PCOD8213447 Si02
#       6
#     8   8   8   8   8   8
#     4   9  17  31  53  77 102 137 178 218 262 313
#     4  10  21  36  56  83 112 143 177 212 257 320
#     4  10  21  37  56  77 103 138 181 227 271 313
#     4   9  18  34  56  79 102 133 175 221 265 313
#     4   9  19  36  57  82 110 139 175 222 272 316
#     4  11  22  33  49  76 109 144 182 223 264 312
#
# _framework density 17.879894
#
# number of rings (size 3 to 8) (size 9 to 14) (size 15 to 20)
#    0.000    2.333    1.667    2.000    0.000    6.667 
#    0.000    2.500    0.000    3.000    0.000    0.000 
#    0.000    0.000    0.000    0.000    0.000    0.000 
#
# Total GULP energy -595290.264603 kJ/mol
# GULP energy per Si atom -12401.880513 kJ/mol
# Density = 1.783920 g / cm^3
# Si number density = 17.879894 Si / 1000 Ang^3
#
#
#
# Elastic Constant Matrix: (Units=GPa)
#
#
# Indices 1 2 3 4 5 6 
#
# 1 122.8372 56.1366 64.1942 0.0000 0.0000 0.0000
# 2 56.1366 85.7956 70.1076 0.0000 0.0000 0.0000
# 3 64.1942 70.1076 115.9058 0.0000 0.0000 0.0000
# 4 0.0000 0.0000 0.0000 -20.7180 0.0000 0.0000
# 5 0.0000 0.0000 0.0000 0.0000 20.5342 0.0000
# 6 0.0000 0.0000 0.0000 0.0000 0.0000 15.3613
#
#
#
# Elastic Compliance Matrix: (Units=1/GPa)
#
#
# Indices 1 2 3 4 5 6 
#
# 1 0.012441 -0.004963 -0.003889 0.000000 0.000000 0.000000
# 2 -0.004963 0.025026 -0.012389 0.000000 0.000000 0.000000
# 3 -0.003889 -0.012389 0.018275 0.000000 0.000000 0.000000
# 4 0.000000 0.000000 0.000000 -0.048267 0.000000 0.000000
# 5 0.000000 0.000000 0.000000 0.000000 0.048699 0.000000
# 6 0.000000 0.000000 0.000000 0.000000 0.000000 0.065099
#
#
# Mechanical properties :
#
#
# Convention : Reuss Voigt Hill
#
# Bulk Modulus (GPa) = 75.40472 78.37949 76.89211
# Shear Modulus (GPa) = 29.73099 11.97551 20.85325
#
# Velocity S-wave (km/s) = 4.08219 2.59081 3.41881
# Velocity P-wave (km/s) = 8.03016 7.27197 7.66045
#
# Compressibility (1/GPa) = 0.01326177
#
# Stress axis : x y z
#
# Youngs Moduli (GPa) = 80.37955 39.95791 54.71892
#
# Poissons Ratio (x) = 0.19829 0.21279
# Poissons Ratio (y) = 0.39889 0.67792
# Poissons Ratio (z) = 0.31257 0.49504
#
# Static dielectric constant tensor:
#      x y z
#    x 3.425700 0.000000 0.000000 
#    y 0.000000 3.248980 0.000000 
#    z 0.000000 0.000000 3.149130 
# 
# 
# High freq. dielectric constant tensor:
#      x y z
#    x 1.687650 0.000000 0.000000 
#    y 0.000000 1.689930 0.000000 
#    z 0.000000 0.000000 1.681720 
# 
# From -- ./inp_files/30027.got.cif
#   From: 2010.03.12/outbox.cif.g09.slc.cpg/sg51_16_cif.got.tgz:30027.got - 2010.04.16 13:43:02.
