data_PCOD8213492
_publ_section_title
;
Structure prediction by ZEFSAII (Michael W. Deem and Ramdas Pophale) SiO2 
 PCOD8213492
Probable space group: P M M A
;
_chemical_formula_sum "Si O2"
_cell_formula_units_Z 40
_cell_length_a 16.286446
_cell_length_b 8.886233
_cell_length_c 13.846603
_cell_angle_alpha 90.000000
_cell_angle_beta 90.000000
_cell_angle_gamma 90.000000
_cell_volume 2003.951750
_symmetry_space_group_name_H-M "P M M A"
_symmetry_group_IT_number 51
_symmetry_cell_setting 'orthorhombic'
loop_
_space_group_symop_operation_xyz
x,y,z
1/2-x,-y,z
1/2+x,-y,-z
-x,y,-z
-x,-y,-z
1/2+x,y,-z
1/2-x,y,z
x,-y,z
loop_
_atom_site_type_symbol
_atom_site_label
_atom_site_fract_x
_atom_site_fract_y
_atom_site_fract_z
Si Si1 0.250000 0.177893 0.745775
Si Si2 0.419441 0.177957 0.055634
Si Si3 0.156930 0.827619 0.454130
Si Si4 0.750000 0.179183 0.034934
Si Si5 0.601145 0.324227 0.363896
Si Si6 0.051536 0.172555 0.274160
O O1 0.250000 0.236059 0.855312
O O2 0.329447 0.236299 0.692562
O O3 0.250000 0.000000 0.742065
O O4 0.423645 0.224741 0.167408
O O5 0.418524 0.000000 0.042399
O O6 0.500000 0.243434 0.000000
O O7 0.333531 0.243855 0.014016
O O8 0.250000 0.770479 0.462576
O O9 0.100161 0.727809 0.524303
O O10 0.130312 0.810636 0.343010
O O11 0.148718 0.000000 0.487864
O O12 0.750000 0.000000 0.027468
O O13 0.617833 0.500000 0.358288
O O14 0.516116 0.285208 0.313841
O O15 0.018992 0.000000 0.273642
#
# Coordination Sequence:
#
# PCOD8213492 Si02
#       6
#     4   8   8   4   8   8
#     4  11  21  37  62  87 114 150 193 243 296 345
#     4   9  17  31  53  86 121 150 188 240 294 345
#     4  10  21  37  58  85 117 154 194 239 289 344
#     4   9  18  31  56  89 118 146 187 245 302 347
#     4  12  24  38  57  84 116 154 196 240 290 345
#     4  10  21  36  59  86 118 155 194 236 288 345
#
# _framework density 19.960560000000001
#
# number of rings (size 3 to 8) (size 9 to 14) (size 15 to 20)
#    0.000    1.800    1.000    3.900    1.400    6.400 
#    0.000    0.000    0.000    6.600    0.000    0.000 
#    0.000    0.000    0.000    0.000    0.000    0.000 
#
# Total GULP energy -496056.977327 kJ/mol
# GULP energy per Si atom -12401.424433 kJ/mol
# Density = 1.991513 g / cm^3
# Si number density = 19.960560 Si / 1000 Ang^3
#
#
#
# Elastic Constant Matrix: (Units=GPa)
#
#
# Indices 1 2 3 4 5 6 
#
# 1 116.0328 18.7461 52.6281 0.0000 0.0000 0.0000
# 2 18.7461 54.2649 31.5821 0.0000 0.0000 0.0000
# 3 52.6281 31.5821 163.5119 0.0000 0.0000 0.0000
# 4 0.0000 0.0000 0.0000 0.8911 0.0000 0.0000
# 5 0.0000 0.0000 0.0000 0.0000 45.5095 0.0000
# 6 0.0000 0.0000 0.0000 0.0000 0.0000 22.6411
#
#
#
# Elastic Compliance Matrix: (Units=1/GPa)
#
#
# Indices 1 2 3 4 5 6 
#
# 1 0.010250 -0.001826 -0.002946 0.000000 0.000000 0.000000
# 2 -0.001826 0.021087 -0.003485 0.000000 0.000000 0.000000
# 3 -0.002946 -0.003485 0.007737 0.000000 0.000000 0.000000
# 4 0.000000 0.000000 0.000000 1.122247 0.000000 0.000000
# 5 0.000000 0.000000 0.000000 0.000000 0.021973 0.000000
# 6 0.000000 0.000000 0.000000 0.000000 0.000000 0.044167
#
#
# Mechanical properties :
#
#
# Convention : Reuss Voigt Hill
#
# Bulk Modulus (GPa) = 44.32816 59.96915 52.14865
# Shear Modulus (GPa) = 3.99522 29.19856 16.59689
#
# Velocity S-wave (km/s) = 1.41630 3.82882 2.88667
# Velocity P-wave (km/s) = 4.99306 7.04667 6.10681
#
# Compressibility (1/GPa) = 0.02255902
#
# Stress axis : x y z
#
# Youngs Moduli (GPa) = 97.56513 47.42177 129.24556
#
# Poissons Ratio (x) = 0.08660 0.38079
# Poissons Ratio (y) = 0.17816 0.45045
# Poissons Ratio (z) = 0.28745 0.16528
#
# Static dielectric constant tensor:
#      x y z
#    x 2.832920 0.000000 0.000000 
#    y 0.000000 3.194870 0.000000 
#    z 0.000000 0.000000 3.851040 
# 
# 
# High freq. dielectric constant tensor:
#      x y z
#    x 1.789600 0.000000 0.000000 
#    y 0.000000 1.731160 0.000000 
#    z 0.000000 0.000000 1.795230 
# 
# From -- ./inp_files/23731.got.cif
#   From: 2010.03.12/outbox.cif.g09.slc.cpg/sg51_12_cif.got.tgz:23731.got - 2010.04.16 13:43:02.
