data_PCOD8213007
_publ_section_title
;
Structure prediction by ZEFSAII (Michael W. Deem and Ramdas Pophale) SiO2 
 PCOD8213007
Probable space group: P M M A
;
_chemical_formula_sum "Si O2"
_cell_formula_units_Z 48
_cell_length_a 9.347652
_cell_length_b 9.415189
_cell_length_c 31.339243
_cell_angle_alpha 90.000000
_cell_angle_beta 90.000000
_cell_angle_gamma 90.000000
_cell_volume 2758.163965
_symmetry_space_group_name_H-M "P M M A"
_symmetry_group_IT_number 51
_symmetry_cell_setting 'orthorhombic'
loop_
_space_group_symop_operation_xyz
x,y,z
1/2-x,-y,z
1/2+x,-y,-z
-x,y,-z
-x,-y,-z
1/2+x,y,-z
1/2-x,y,z
x,-y,z
loop_
_atom_site_type_symbol
_atom_site_label
_atom_site_fract_x
_atom_site_fract_y
_atom_site_fract_z
Si Si1 0.916002 0.834564 0.541161
Si Si2 0.583614 0.663074 0.041677
Si Si3 0.421147 0.340487 0.378889
Si Si4 0.406150 0.332007 0.287807
Si Si5 0.416404 0.166038 0.875451
Si Si6 0.920883 0.662426 0.804798
O O1 0.750000 0.798767 0.534372
O O2 0.978601 0.758695 0.583247
O O3 0.000000 0.776680 0.500000
O O4 0.943737 0.000000 0.547677
O O5 0.750000 0.683049 0.032070
O O6 0.545962 0.500000 0.052635
O O7 0.533299 0.759621 0.080953
O O8 0.500000 0.715524 0.000000
O O9 0.250000 0.334873 0.376228
O O10 0.473780 0.500000 0.388649
O O11 0.483354 0.286136 0.332497
O O12 0.250000 0.259486 0.286586
O O13 0.386537 0.500000 0.290121
O O14 0.482092 0.295078 0.242634
O O15 0.250000 0.196877 0.866738
O O16 0.507442 0.229851 0.837183
O O17 0.448917 0.000000 0.879264
O O18 0.750000 0.678697 0.806180
O O19 0.963784 0.500000 0.815937
#
# Coordination Sequence:
#
# PCOD8213007 Si02
#       6
#     8   8   8   8   8   8
#     4   9  17  28  41  58  81 109 141 175 211 254
#     4   9  18  33  52  72  93 119 154 194 232 271
#     4   8  13  23  41  63  85 109 138 174 217 262
#     4   7  11  22  41  65  90 112 137 176 224 266
#     4  10  21  35  49  68  98 133 163 190 225 272
#     4   9  17  30  50  74  96 120 154 194 233 274
#
# _framework density 17.402881000000001
#
# number of rings (size 3 to 8) (size 9 to 14) (size 15 to 20)
#    0.000    3.333    0.000    2.500    0.000    2.667 
#    0.000    2.500    0.000    4.000    0.000    4.667 
#    0.000    0.000    0.000    0.000    0.000    0.000 
#
# Total GULP energy -594707.542177 kJ/mol
# GULP energy per Si atom -12389.740462 kJ/mol
# Density = 1.736327 g / cm^3
# Si number density = 17.402881 Si / 1000 Ang^3
#
#
#
# Elastic Constant Matrix: (Units=GPa)
#
#
# Indices 1 2 3 4 5 6 
#
# 1 26.9642 25.9215 46.1395 0.0000 0.0000 0.0000
# 2 25.9215 70.9605 76.3266 0.0000 0.0000 0.0000
# 3 46.1395 76.3266 198.7698 0.0000 0.0000 0.0000
# 4 0.0000 0.0000 0.0000 6.2571 0.0000 0.0000
# 5 0.0000 0.0000 0.0000 0.0000 22.4633 0.0000
# 6 0.0000 0.0000 0.0000 0.0000 0.0000 17.8576
#
#
#
# Elastic Compliance Matrix: (Units=1/GPa)
#
#
# Indices 1 2 3 4 5 6 
#
# 1 0.068315 -0.013456 -0.010691 0.000000 0.000000 0.000000
# 2 -0.013456 0.026659 -0.007114 0.000000 0.000000 0.000000
# 3 -0.010691 -0.007114 0.010244 0.000000 0.000000 0.000000
# 4 0.000000 0.000000 0.000000 0.159818 0.000000 0.000000
# 5 0.000000 0.000000 0.000000 0.000000 0.044517 0.000000
# 6 0.000000 0.000000 0.000000 0.000000 0.000000 0.055999
#
#
# Mechanical properties :
#
#
# Convention : Reuss Voigt Hill
#
# Bulk Modulus (GPa) = 23.42039 65.94108 44.68073
# Shear Modulus (GPa) = 11.30443 19.20274 15.25358
#
# Velocity S-wave (km/s) = 2.55144 3.32538 2.96378
# Velocity P-wave (km/s) = 4.70816 7.26067 6.11899
#
# Compressibility (1/GPa) = 0.04269784
#
# Stress axis : x y z
#
# Youngs Moduli (GPa) = 14.63811 37.51046 97.61771
#
# Poissons Ratio (x) = 0.50474 1.04358
# Poissons Ratio (y) = 0.19697 0.69441
# Poissons Ratio (z) = 0.15649 0.26683
#
# Static dielectric constant tensor:
#      x y z
#    x 2.800770 0.000000 0.000000 
#    y 0.000000 3.063770 0.000000 
#    z 0.000000 0.000000 3.730580 
# 
# 
# High freq. dielectric constant tensor:
#      x y z
#    x 1.624440 0.000000 0.000000 
#    y 0.000000 1.650180 0.000000 
#    z 0.000000 0.000000 1.696490 
# 
# From -- ./inp_files/35312.got.cif
#   From: 2010.03.12/outbox.cif.g09.slc.cpg/sg51_18_cif.got.tgz:35312.got - 2010.04.16 13:43:02.
