data_PCOD8213330
_publ_section_title
;
Structure prediction by ZEFSAII (Michael W. Deem and Ramdas Pophale) SiO2 
 PCOD8213330
Probable space group: P M M A
;
_chemical_formula_sum "Si O2"
_cell_formula_units_Z 48
_cell_length_a 9.184995
_cell_length_b 9.020860
_cell_length_c 30.818786
_cell_angle_alpha 90.000000
_cell_angle_beta 90.000000
_cell_angle_gamma 90.000000
_cell_volume 2553.538406
_symmetry_space_group_name_H-M "P M M A"
_symmetry_group_IT_number 51
_symmetry_cell_setting 'orthorhombic'
loop_
_space_group_symop_operation_xyz
x,y,z
1/2-x,-y,z
1/2+x,-y,-z
-x,y,-z
-x,-y,-z
1/2+x,y,-z
1/2-x,y,z
x,-y,z
loop_
_atom_site_type_symbol
_atom_site_label
_atom_site_fract_x
_atom_site_fract_y
_atom_site_fract_z
Si Si1 0.914279 0.823425 0.041556
Si Si2 0.579832 0.828825 0.543839
Si Si3 0.078106 0.669074 0.213717
Si Si4 0.418859 0.827627 0.708775
Si Si5 0.919369 0.828198 0.873525
Si Si6 0.583289 0.674245 0.379577
O O1 0.750000 0.762235 0.040570
O O2 0.992111 0.767552 0.085238
O O3 0.916249 0.000000 0.040168
O O4 0.000000 0.759212 0.000000
O O5 0.500000 0.779428 0.500000
O O6 0.750000 0.798631 0.537880
O O7 0.520004 0.728877 0.582316
O O8 0.546811 0.000000 0.554551
O O9 0.250000 0.682341 0.218550
O O10 0.024723 0.500000 0.216735
O O11 0.027265 0.735334 0.167811
O O12 0.008148 0.763603 0.251572
O O13 0.250000 0.796284 0.717589
O O14 0.470547 0.748916 0.664775
O O15 0.453487 0.000000 0.704034
O O16 0.750000 0.803132 0.883474
O O17 0.953125 0.000000 0.864211
O O18 0.750000 0.719494 0.389867
O O19 0.566012 0.500000 0.374188
#
# Coordination Sequence:
#
# PCOD8213330 Si02
#       6
#     8   8   8   8   8   8
#     4   9  16  26  43  69  99 129 163 206 255 305
#     4  10  21  37  58  83 110 143 183 225 268 314
#     4  10  21  36  54  77 106 140 176 215 262 315
#     4  10  21  37  58  82 107 138 177 220 265 313
#     4   9  17  30  48  70  98 132 169 210 256 305
#     4  10  21  37  57  81 110 144 180 219 266 318
#
# _framework density 18.797446999999998
#
# number of rings (size 3 to 8) (size 9 to 14) (size 15 to 20)
#    0.000    2.333    0.000    2.500    0.000    7.667 
#    0.000    1.667    0.000    0.500    0.000    0.000 
#    0.000    0.000    0.000    0.000    0.000    0.000 
#
# Total GULP energy -595383.414617 kJ/mol
# GULP energy per Si atom -12403.821138 kJ/mol
# Density = 1.875466 g / cm^3
# Si number density = 18.797447 Si / 1000 Ang^3
#
#
#
# Elastic Constant Matrix: (Units=GPa)
#
#
# Indices 1 2 3 4 5 6 
#
# 1 81.0711 34.0640 70.2198 0.0000 0.0000 0.0000
# 2 34.0640 67.8605 54.9553 0.0000 0.0000 0.0000
# 3 70.2198 54.9553 166.2459 0.0000 0.0000 0.0000
# 4 0.0000 0.0000 0.0000 -10.1341 0.0000 0.0000
# 5 0.0000 0.0000 0.0000 0.0000 38.2778 0.0000
# 6 0.0000 0.0000 0.0000 0.0000 0.0000 23.7012
#
#
#
# Elastic Compliance Matrix: (Units=1/GPa)
#
#
# Indices 1 2 3 4 5 6 
#
# 1 0.020391 -0.004453 -0.007141 0.000000 0.000000 0.000000
# 2 -0.004453 0.021095 -0.005093 0.000000 0.000000 0.000000
# 3 -0.007141 -0.005093 0.010715 0.000000 0.000000 0.000000
# 4 0.000000 0.000000 0.000000 -0.098677 0.000000 0.000000
# 5 0.000000 0.000000 0.000000 0.000000 0.026125 0.000000
# 6 0.000000 0.000000 0.000000 0.000000 0.000000 0.042192
#
#
# Mechanical properties :
#
#
# Convention : Reuss Voigt Hill
#
# Bulk Modulus (GPa) = 53.11076 70.40621 61.75849
# Shear Modulus (GPa) = 81.31422 20.76487 51.03955
#
# Velocity S-wave (km/s) = 6.58423 3.32725 5.21645
# Velocity P-wave (km/s) = 9.27999 7.23169 8.31912
#
# Compressibility (1/GPa) = 0.01882858
#
# Stress axis : x y z
#
# Youngs Moduli (GPa) = 49.04159 47.40353 93.32844
#
# Poissons Ratio (x) = 0.21108 0.66645
# Poissons Ratio (y) = 0.21837 0.47529
# Poissons Ratio (z) = 0.35020 0.24141
#
# Static dielectric constant tensor:
#      x y z
#    x 3.426940 0.000000 0.000000 
#    y 0.000000 3.322760 0.000000 
#    z 0.000000 0.000000 3.597710 
# 
# 
# High freq. dielectric constant tensor:
#      x y z
#    x 1.728370 0.000000 0.000000 
#    y 0.000000 1.714300 0.000000 
#    z 0.000000 0.000000 1.744680 
# 
# From -- ./inp_files/36953.got.cif
#   From: 2010.03.12/outbox.cif.g09.slc.cpg/sg51_19_cif.got.tgz:36953.got - 2010.04.16 13:43:02.
