data_PCOD8213999
_publ_section_title
;
Structure prediction by ZEFSAII (Michael W. Deem and Ramdas Pophale) SiO2 
 PCOD8213999
Probable space group: P M M A
;
_chemical_formula_sum "Si O2"
_cell_formula_units_Z 40
_cell_length_a 8.898515
_cell_length_b 24.861083
_cell_length_c 9.187807
_cell_angle_alpha 90.000000
_cell_angle_beta 90.000000
_cell_angle_gamma 90.000000
_cell_volume 2032.588407
_symmetry_space_group_name_H-M "P M M A"
_symmetry_group_IT_number 51
_symmetry_cell_setting 'orthorhombic'
loop_
_space_group_symop_operation_xyz
x,y,z
1/2-x,-y,z
1/2+x,-y,-z
-x,y,-z
-x,-y,-z
1/2+x,y,-z
1/2-x,y,z
x,-y,z
loop_
_atom_site_type_symbol
_atom_site_label
_atom_site_fract_x
_atom_site_fract_y
_atom_site_fract_z
Si Si1 0.925858 0.939666 0.851325
Si Si2 0.075452 0.249763 0.845481
Si Si3 0.423676 0.353800 0.651008
Si Si4 0.427271 0.158092 0.343713
Si Si5 0.924261 0.562757 0.849901
O O1 0.750000 0.938572 0.879272
O O2 0.970098 0.900653 0.718886
O O3 0.981967 0.000000 0.812464
O O4 0.000000 0.918688 0.000000
O O5 0.250000 0.234934 0.863405
O O6 0.052352 0.304464 0.758555
O O7 0.992033 0.201995 0.764339
O O8 0.000000 0.258547 0.000000
O O9 0.500000 0.337994 0.500000
O O10 0.250000 0.366644 0.624076
O O11 0.501077 0.406735 0.715592
O O12 0.500000 0.165019 0.500000
O O13 0.250000 0.166194 0.357791
O O14 0.750000 0.577697 0.859826
O O15 0.950880 0.500000 0.821869
O O16 0.000000 0.581475 0.000000
#
# Coordination Sequence:
#
# PCOD8213999 Si02
#       5
#     8   8   8   8   8
#     4   9  19  36  57  82 112 147 189 235 282 335
#     4  11  24  41  62  87 115 149 190 235 284 339
#     4  11  24  40  60  86 117 153 191 235 286 339
#     4  11  23  38  58  84 116 152 190 235 287 341
#     4  10  21  38  61  88 118 153 193 237 284 336
#
# _framework density 19.679341000000001
#
# number of rings (size 3 to 8) (size 9 to 14) (size 15 to 20)
#    0.000    1.600    0.000    4.200    0.000   11.600 
#    0.000    0.000    0.000    0.000    0.000    0.000 
#    0.000    0.000    0.000    0.000    0.000    0.000 
#
# Total GULP energy -496228.298755 kJ/mol
# GULP energy per Si atom -12405.707469 kJ/mol
# Density = 1.963455 g / cm^3
# Si number density = 19.679341 Si / 1000 Ang^3
#
#
#
# Elastic Constant Matrix: (Units=GPa)
#
#
# Indices 1 2 3 4 5 6 
#
# 1 128.7239 63.5427 75.7483 0.0000 0.0000 0.0000
# 2 63.5427 84.2499 51.0680 0.0000 0.0000 0.0000
# 3 75.7483 51.0680 142.6382 0.0000 0.0000 0.0000
# 4 0.0000 0.0000 0.0000 6293.2048 0.0000 0.0000
# 5 0.0000 0.0000 0.0000 0.0000 40.1936 0.0000
# 6 0.0000 0.0000 0.0000 0.0000 0.0000 28.8348
#
#
#
# Elastic Compliance Matrix: (Units=1/GPa)
#
#
# Indices 1 2 3 4 5 6 
#
# 1 0.014623 -0.008074 -0.004875 0.000000 0.000000 0.000000
# 2 -0.008074 0.019617 -0.002736 0.000000 0.000000 0.000000
# 3 -0.004875 -0.002736 0.010579 0.000000 0.000000 0.000000
# 4 0.000000 0.000000 0.000000 0.000159 0.000000 0.000000
# 5 0.000000 0.000000 0.000000 0.000000 0.024880 0.000000
# 6 0.000000 0.000000 0.000000 0.000000 0.000000 0.034680
#
#
# Mechanical properties :
#
#
# Convention : Reuss Voigt Hill
#
# Bulk Modulus (GPa) = 74.34933 81.81445 78.08189
# Shear Modulus (GPa) = 35.61514 1283.46352 659.53933
#
# Velocity S-wave (km/s) = 4.25876 25.56568 18.32677
# Velocity P-wave (km/s) = 7.87687 30.21814 22.08145
#
# Compressibility (1/GPa) = 0.01345002
#
# Stress axis : x y z
#
# Youngs Moduli (GPa) = 68.38694 50.97575 94.52701
#
# Poissons Ratio (x) = 0.41157 0.46080
# Poissons Ratio (y) = 0.55214 0.25861
# Poissons Ratio (z) = 0.33337 0.13946
#
# Static dielectric constant tensor:
#      x y z
#    x 3.756490 0.000000 0.000000 
#    y 0.000000 3.826190 0.000000 
#    z 0.000000 0.000000 3.573640 
# 
# 
# High freq. dielectric constant tensor:
#      x y z
#    x 1.780580 0.000000 0.000000 
#    y 0.000000 1.778700 0.000000 
#    z 0.000000 0.000000 1.772800 
# 
# From -- ./inp_files/5215.got.cif
#   From: 2010.03.12/outbox.cif.g09.slc.cpg/sg51_3_cif.got.tgz:5215.got - 2010.04.16 13:43:02.
