data_PCOD8213664
_publ_section_title
;
Structure prediction by ZEFSAII (Michael W. Deem and Ramdas Pophale) SiO2 
 PCOD8213664
Probable space group: P M M A
;
_chemical_formula_sum "Si O2"
_cell_formula_units_Z 48
_cell_length_a 8.950916
_cell_length_b 29.801048
_cell_length_c 9.470232
_cell_angle_alpha 90.000000
_cell_angle_beta 90.000000
_cell_angle_gamma 90.000000
_cell_volume 2526.152920
_symmetry_space_group_name_H-M "P M M A"
_symmetry_group_IT_number 51
_symmetry_cell_setting 'orthorhombic'
loop_
_space_group_symop_operation_xyz
x,y,z
1/2-x,-y,z
1/2+x,-y,-z
-x,y,-z
-x,-y,-z
1/2+x,y,-z
1/2-x,y,z
x,-y,z
loop_
_atom_site_type_symbol
_atom_site_label
_atom_site_fract_x
_atom_site_fract_y
_atom_site_fract_z
Si Si1 0.424847 0.871943 0.650660
Si Si2 0.922391 0.384003 0.643436
Si Si3 0.423991 0.720591 0.353149
Si Si4 0.074325 0.050887 0.854501
Si Si5 0.926924 0.788786 0.151742
Si Si6 0.578217 0.450377 0.148723
O O1 0.500000 0.866464 0.500000
O O2 0.250000 0.873668 0.623905
O O3 0.481023 0.917488 0.727048
O O4 0.469477 0.830700 0.750175
O O5 0.750000 0.396341 0.631360
O O6 0.947581 0.331805 0.675433
O O7 0.000000 0.398650 0.500000
O O8 0.996026 0.412391 0.765126
O O9 0.500000 0.735519 0.500000
O O10 0.250000 0.733712 0.360676
O O11 0.503792 0.744681 0.222709
O O12 0.250000 0.055761 0.876577
O O13 0.027333 0.000000 0.816821
O O14 0.000000 0.066806 0.000000
O O15 0.750000 0.782874 0.134492
O O16 0.000000 0.796596 0.000000
O O17 0.750000 0.436512 0.130583
O O18 0.564486 0.500000 0.219371
O O19 0.500000 0.451803 0.000000
#
# Coordination Sequence:
#
# PCOD8213664 Si02
#       6
#     8   8   8   8   8   8
#     4  10  22  37  54  79 109 142 180 222 269 321
#     4  10  21  37  58  83 111 144 181 223 270 321
#     4  10  21  38  59  83 111 143 180 222 270 323
#     4   9  18  34  55  79 108 141 178 221 268 318
#     4  11  23  38  57  81 109 142 181 225 272 323
#     4  10  21  37  57  81 110 145 184 226 272 322
#
# _framework density 19.001225999999999
#
# number of rings (size 3 to 8) (size 9 to 14) (size 15 to 20)
#    0.000    2.000    0.000    3.000    0.000    7.667 
#    0.000    0.000    0.000    0.000    0.000    0.000 
#    0.000    0.000    0.000    0.000    0.000    0.000 
#
# Total GULP energy -595330.143954 kJ/mol
# GULP energy per Si atom -12402.711332 kJ/mol
# Density = 1.895798 g / cm^3
# Si number density = 19.001226 Si / 1000 Ang^3
#
#
#
# Elastic Constant Matrix: (Units=GPa)
#
#
# Indices 1 2 3 4 5 6 
#
# 1 109.1883 57.5325 68.6054 0.0000 0.0000 0.0000
# 2 57.5325 85.7061 68.6136 0.0000 0.0000 0.0000
# 3 68.6054 68.6136 145.8231 0.0000 0.0000 0.0000
# 4 0.0000 0.0000 0.0000 71.6407 0.0000 0.0000
# 5 0.0000 0.0000 0.0000 0.0000 41.6119 0.0000
# 6 0.0000 0.0000 0.0000 0.0000 0.0000 27.3077
#
#
#
# Elastic Compliance Matrix: (Units=1/GPa)
#
#
# Indices 1 2 3 4 5 6 
#
# 1 0.015390 -0.007275 -0.003818 0.000000 0.000000 0.000000
# 2 -0.007275 0.022158 -0.007003 0.000000 0.000000 0.000000
# 3 -0.003818 -0.007003 0.011949 0.000000 0.000000 0.000000
# 4 0.000000 0.000000 0.000000 0.013959 0.000000 0.000000
# 5 0.000000 0.000000 0.000000 0.000000 0.024032 0.000000
# 6 0.000000 0.000000 0.000000 0.000000 0.000000 0.036620
#
#
# Mechanical properties :
#
#
# Convention : Reuss Voigt Hill
#
# Bulk Modulus (GPa) = 75.15665 81.13561 78.14613
# Shear Modulus (GPa) = 30.35197 37.84311 34.09754
#
# Velocity S-wave (km/s) = 4.00105 4.46759 4.24074
# Velocity P-wave (km/s) = 7.80922 8.33099 8.07432
#
# Compressibility (1/GPa) = 0.01330554
#
# Stress axis : x y z
#
# Youngs Moduli (GPa) = 64.97521 45.13085 83.68957
#
# Poissons Ratio (x) = 0.32832 0.31950
# Poissons Ratio (y) = 0.47269 0.58609
# Poissons Ratio (z) = 0.24806 0.31606
#
# Static dielectric constant tensor:
#      x y z
#    x 3.581080 0.000000 0.000000 
#    y 0.000000 3.669370 0.000000 
#    z 0.000000 0.000000 3.434260 
# 
# 
# High freq. dielectric constant tensor:
#      x y z
#    x 1.748710 0.000000 0.000000 
#    y 0.000000 1.748840 0.000000 
#    z 0.000000 0.000000 1.738730 
# 
# From -- ./inp_files/5960.got.cif
#   From: 2010.03.12/outbox.cif.g09.slc.cpg/sg51_3_cif.got.tgz:5960.got - 2010.04.16 13:43:02.
