data_PCOD8213556
_publ_section_title
;
Structure prediction by ZEFSAII (Michael W. Deem and Ramdas Pophale) SiO2 
 PCOD8213556
Probable space group: P M M A
;
_chemical_formula_sum "Si O2"
_cell_formula_units_Z 48
_cell_length_a 9.295676
_cell_length_b 8.886782
_cell_length_c 31.083294
_cell_angle_alpha 90.000000
_cell_angle_beta 90.000000
_cell_angle_gamma 90.000000
_cell_volume 2567.748835
_symmetry_space_group_name_H-M "P M M A"
_symmetry_group_IT_number 51
_symmetry_cell_setting 'orthorhombic'
loop_
_space_group_symop_operation_xyz
x,y,z
1/2-x,-y,z
1/2+x,-y,-z
-x,y,-z
-x,-y,-z
1/2+x,y,-z
1/2-x,y,z
x,-y,z
loop_
_atom_site_type_symbol
_atom_site_label
_atom_site_fract_x
_atom_site_fract_y
_atom_site_fract_z
Si Si1 0.082606 0.327542 0.285443
Si Si2 0.084898 0.322409 0.879404
Si Si3 0.917232 0.824945 0.956516
Si Si4 0.088285 0.320905 0.539528
Si Si5 0.411995 0.678860 0.633516
Si Si6 0.085059 0.177314 0.197169
O O1 0.250000 0.315094 0.294552
O O2 0.035944 0.500000 0.277128
O O3 0.036664 0.230405 0.244313
O O4 0.006656 0.256320 0.327462
O O5 0.250000 0.269170 0.885618
O O6 0.075320 0.500000 0.875589
O O7 0.988665 0.270564 0.919108
O O8 0.022140 0.252475 0.836218
O O9 0.750000 0.780591 0.961444
O O10 0.934033 0.000000 0.945031
O O11 0.000000 0.783759 0.000000
O O12 0.250000 0.262456 0.534576
O O13 0.083174 0.500000 0.536859
O O14 0.028312 0.268976 0.586512
O O15 0.000000 0.248593 0.500000
O O16 0.250000 0.737938 0.639538
O O17 0.415936 0.500000 0.635254
O O18 0.250000 0.227103 0.187715
O O19 0.069029 0.000000 0.193752
#
# Coordination Sequence:
#
# PCOD8213556 Si02
#       6
#     8   8   8   8   8   8
#     4   9  17  29  46  68  93 122 158 199 242 291
#     4  11  24  39  56  81 111 142 177 216 258 304
#     4  10  21  38  61  87 114 146 182 218 258 303
#     4   8  13  20  30  47  74 109 147 185 226 275
#     4   8  14  24  37  55  82 116 152 190 234 284
#     4  10  21  37  56  77 102 133 169 210 257 307
#
# _framework density 18.693418999999999
#
# number of rings (size 3 to 8) (size 9 to 14) (size 15 to 20)
#    0.000    2.667    0.000    3.000    0.000    7.000 
#    0.000    5.000    0.000    0.000    0.000    0.000 
#    0.000    0.667    0.000    1.500    0.000    3.000 
#
# Total GULP energy -595043.800250 kJ/mol
# GULP energy per Si atom -12396.745839 kJ/mol
# Density = 1.865087 g / cm^3
# Si number density = 18.693419 Si / 1000 Ang^3
#
#
#
# Elastic Constant Matrix: (Units=GPa)
#
#
# Indices 1 2 3 4 5 6 
#
# 1 107.2829 36.0743 86.0417 0.0000 0.0000 0.0000
# 2 36.0743 36.3533 39.7662 0.0000 0.0000 0.0000
# 3 86.0417 39.7662 167.1370 0.0000 0.0000 0.0000
# 4 0.0000 0.0000 0.0000 -98.0041 0.0000 0.0000
# 5 0.0000 0.0000 0.0000 0.0000 44.0520 0.0000
# 6 0.0000 0.0000 0.0000 0.0000 0.0000 18.3597
#
#
#
# Elastic Compliance Matrix: (Units=1/GPa)
#
#
# Indices 1 2 3 4 5 6 
#
# 1 0.018540 -0.010757 -0.006985 0.000000 0.000000 0.000000
# 2 -0.010757 0.043427 -0.004795 0.000000 0.000000 0.000000
# 3 -0.006985 -0.004795 0.010720 0.000000 0.000000 0.000000
# 4 0.000000 0.000000 0.000000 -0.010204 0.000000 0.000000
# 5 0.000000 0.000000 0.000000 0.000000 0.022700 0.000000
# 6 0.000000 0.000000 0.000000 0.000000 0.000000 0.054467
#
#
# Mechanical properties :
#
#
# Convention : Reuss Voigt Hill
#
# Bulk Modulus (GPa) = 36.21423 70.50417 53.35920
# Shear Modulus (GPa) = 25.78247 2.80759 14.29503
#
# Velocity S-wave (km/s) = 3.71782 1.22686 2.76834
# Velocity P-wave (km/s) = 6.15178 6.30911 6.23094
#
# Compressibility (1/GPa) = 0.02761346
#
# Stress axis : x y z
#
# Youngs Moduli (GPa) = 53.93606 23.02698 93.28513
#
# Poissons Ratio (x) = 0.24771 0.65161
# Poissons Ratio (y) = 0.58020 0.44727
# Poissons Ratio (z) = 0.37675 0.11041
#
# Static dielectric constant tensor:
#      x y z
#    x 3.591620 0.000000 0.000000 
#    y 0.000000 3.055410 0.000000 
#    z 0.000000 0.000000 3.858540 
# 
# 
# High freq. dielectric constant tensor:
#      x y z
#    x 1.724880 0.000000 0.000000 
#    y 0.000000 1.684060 0.000000 
#    z 0.000000 0.000000 1.746060 
# 
# From -- ./inp_files/37001.got.cif
#   From: 2010.03.12/outbox.cif.g09.slc.cpg/sg51_19_cif.got.tgz:37001.got - 2010.04.16 13:43:02.
