data_PCOD8213174
_publ_section_title
;
Structure prediction by ZEFSAII (Michael W. Deem and Ramdas Pophale) SiO2 
 PCOD8213174
Probable space group: P M M A
;
_chemical_formula_sum "Si O2"
_cell_formula_units_Z 64
_cell_length_a 14.828862
_cell_length_b 23.293078
_cell_length_c 9.092284
_cell_angle_alpha 90.000000
_cell_angle_beta 90.000000
_cell_angle_gamma 90.000000
_cell_volume 3140.564355
_symmetry_space_group_name_H-M "P M M A"
_symmetry_group_IT_number 51
_symmetry_cell_setting 'orthorhombic'
loop_
_space_group_symop_operation_xyz
x,y,z
1/2-x,-y,z
1/2+x,-y,-z
-x,y,-z
-x,-y,-z
1/2+x,y,-z
1/2-x,y,z
x,-y,z
loop_
_atom_site_type_symbol
_atom_site_label
_atom_site_fract_x
_atom_site_fract_y
_atom_site_fract_z
Si Si1 0.516940 0.437193 0.172574
Si Si2 0.102000 0.728412 0.466614
Si Si3 0.850428 0.770695 0.222963
Si Si4 0.647617 0.345529 0.078979
Si Si5 0.351465 0.626655 0.253799
Si Si6 0.017749 0.124905 0.831768
Si Si7 0.404930 0.062906 0.579303
Si Si8 0.351206 0.150857 0.351535
O O1 0.550651 0.500000 0.228457
O O2 0.591611 0.387348 0.188301
O O3 0.428263 0.422112 0.272122
O O4 0.500000 0.442378 0.000000
O O5 0.154222 0.741767 0.616496
O O6 0.145211 0.675887 0.377278
O O7 0.108680 0.786073 0.372222
O O8 0.000000 0.712112 0.500000
O O9 0.750000 0.796500 0.191473
O O10 0.874140 0.720291 0.110882
O O11 0.930103 0.815791 0.197909
O O12 0.750000 0.362077 0.112377
O O13 0.624547 0.348989 0.907106
O O14 0.250000 0.600295 0.257076
O O15 0.079119 0.076750 0.751837
O O16 0.917255 0.122301 0.765530
O O17 0.000000 0.110120 0.000000
O O18 0.500000 0.062241 0.500000
O O19 0.346996 0.113444 0.502818
O O20 0.358130 0.000000 0.566556
O O21 0.250000 0.154147 0.287567
#
# Coordination Sequence:
#
# PCOD8213174 Si02
#       8
#     8   8   8   8   8   8   8   8
#     4   9  18  33  55  82 113 151 194 243 294 356
#     4  12  21  36  57  82 116 151 196 251 303 360
#     4  11  22  37  56  81 118 157 196 246 305 365
#     4   9  20  36  54  82 117 154 197 243 296 358
#     4  10  21  35  55  84 115 151 193 246 303 357
#     4  11  24  38  58  91 126 164 203 255 311 370
#     4   9  19  40  64  87 117 157 205 252 298 352
#     4  11  22  39  60  88 121 160 209 253 300 365
#
# _framework density 20.378502999999998
#
# number of rings (size 3 to 8) (size 9 to 14) (size 15 to 20)
#    0.000    1.750    2.500    2.250    1.750    2.000 
#    0.000    2.500    0.000    3.375    0.000    5.250 
#    0.000    0.000    0.000    0.000    0.000    0.000 
#
# Total GULP energy -793099.044521 kJ/mol
# GULP energy per Si atom -12392.172571 kJ/mol
# Density = 2.033212 g / cm^3
# Si number density = 20.378503 Si / 1000 Ang^3
#
#
#
# Elastic Constant Matrix: (Units=GPa)
#
#
# Indices 1 2 3 4 5 6 
#
# 1 103.8779 29.6666 14.2824 0.0000 0.0000 0.0000
# 2 29.6666 78.9614 18.3921 0.0000 0.0000 0.0000
# 3 14.2824 18.3921 78.5078 0.0000 0.0000 0.0000
# 4 0.0000 0.0000 0.0000 11.7824 0.0000 0.0000
# 5 0.0000 0.0000 0.0000 0.0000 22.5868 0.0000
# 6 0.0000 0.0000 0.0000 0.0000 0.0000 -6.5353
#
#
#
# Elastic Compliance Matrix: (Units=1/GPa)
#
#
# Indices 1 2 3 4 5 6 
#
# 1 0.010870 -0.003832 -0.001080 0.000000 0.000000 0.000000
# 2 -0.003832 0.014747 -0.002757 0.000000 0.000000 0.000000
# 3 -0.001080 -0.002757 0.013580 0.000000 0.000000 0.000000
# 4 0.000000 0.000000 0.000000 0.084873 0.000000 0.000000
# 5 0.000000 0.000000 0.000000 0.000000 0.044274 0.000000
# 6 0.000000 0.000000 0.000000 0.000000 0.000000 -0.153016
#
#
# Mechanical properties :
#
#
# Convention : Reuss Voigt Hill
#
# Bulk Modulus (GPa) = 41.91603 42.89215 42.40409
# Shear Modulus (GPa) = 129.47261 18.83385 74.15323
#
# Velocity S-wave (km/s) = 7.97946 3.04337 6.03879
# Velocity P-wave (km/s) = 10.27177 5.78298 8.33523
#
# Compressibility (1/GPa) = 0.02385722
#
# Stress axis : x y z
#
# Youngs Moduli (GPa) = 91.99962 67.81248 73.63767
#
# Poissons Ratio (x) = 0.25988 0.07950
# Poissons Ratio (y) = 0.35257 0.20306
# Poissons Ratio (z) = 0.09933 0.18699
#
# Static dielectric constant tensor:
#      x y z
#    x 3.748010 0.000000 0.000000 
#    y 0.000000 3.956300 0.000000 
#    z 0.000000 0.000000 3.586500 
# 
# 
# High freq. dielectric constant tensor:
#      x y z
#    x 1.802490 0.000000 0.000000 
#    y 0.000000 1.784560 0.000000 
#    z 0.000000 0.000000 1.774440 
# 
# From -- ./inp_files/8680.got.cif
#   From: 2010.03.12/outbox.cif.g09.slc.cpg/sg51_5_cif.got.tgz:8680.got - 2010.04.16 13:43:02.
