data_PCOD8213439
_publ_section_title
;
Structure prediction by ZEFSAII (Michael W. Deem and Ramdas Pophale) SiO2 
 PCOD8213439
Probable space group: P M M A
;
_chemical_formula_sum "Si O2"
_cell_formula_units_Z 64
_cell_length_a 31.686670
_cell_length_b 9.040624
_cell_length_c 11.711915
_cell_angle_alpha 90.000000
_cell_angle_beta 90.000000
_cell_angle_gamma 90.000000
_cell_volume 3355.080308
_symmetry_space_group_name_H-M "P M M A"
_symmetry_group_IT_number 51
_symmetry_cell_setting 'orthorhombic'
loop_
_space_group_symop_operation_xyz
x,y,z
1/2-x,-y,z
1/2+x,-y,-z
-x,y,-z
-x,-y,-z
1/2+x,y,-z
1/2-x,y,z
x,-y,z
loop_
_atom_site_type_symbol
_atom_site_label
_atom_site_fract_x
_atom_site_fract_y
_atom_site_fract_z
Si Si1 0.702057 0.327283 0.887528
Si Si2 0.120885 0.324893 0.969528
Si Si3 0.460305 0.175612 0.079058
Si Si4 0.974290 0.674830 0.679207
Si Si5 0.440513 0.674867 0.554630
Si Si6 0.199870 0.834729 0.339193
Si Si7 0.702693 0.327447 0.439900
Si Si8 0.369762 0.674186 0.716161
O O1 0.750000 0.275510 0.922189
O O2 0.702697 0.500000 0.862145
O O3 0.667643 0.286618 0.983257
O O4 0.685066 0.249382 0.773652
O O5 0.112523 0.500000 0.976253
O O6 0.083361 0.243340 0.034346
O O7 0.121236 0.260626 0.840890
O O8 0.466499 0.233778 0.206770
O O9 0.456188 0.000000 0.080727
O O10 0.500000 0.225137 0.000000
O O11 0.971236 0.500000 0.706535
O O12 0.941782 0.725318 0.578446
O O13 0.019391 0.721553 0.629286
O O14 0.438536 0.500000 0.551139
O O15 0.400581 0.743925 0.620457
O O16 0.250000 0.832270 0.345038
O O17 0.182003 0.754422 0.451642
O O18 0.181711 0.000000 0.335047
O O19 0.750000 0.273374 0.416330
O O20 0.700533 0.500000 0.468643
O O21 0.677492 0.288292 0.324640
O O22 0.377036 0.500000 0.723449
#
# Coordination Sequence:
#
# PCOD8213439 Si02
#       8
#     8   8   8   8   8   8   8   8
#     4   9  18  33  53  78 108 138 170 215 266 308
#     4  10  21  36  56  80 103 136 182 221 256 310
#     4  11  24  39  54  76 109 144 175 215 266 311
#     4   9  17  32  56  81 102 129 168 210 253 306
#     4   8  15  29  51  79 105 127 159 208 258 301
#     4   9  17  30  49  72  99 134 175 214 254 306
#     4   9  17  29  47  72 101 132 166 209 261 310
#     4   9  17  30  49  73 100 129 164 208 256 305
#
# _framework density 19.075548000000001
#
# number of rings (size 3 to 8) (size 9 to 14) (size 15 to 20)
#    0.000    2.750    0.000    2.250    0.000    5.500 
#    0.000    6.875    0.000    1.500    0.000    3.500 
#    0.000    0.000    0.000    0.000    0.000    0.000 
#
# Total GULP energy -793161.145069 kJ/mol
# GULP energy per Si atom -12393.142892 kJ/mol
# Density = 1.903213 g / cm^3
# Si number density = 19.075548 Si / 1000 Ang^3
#
#
#
# Elastic Constant Matrix: (Units=GPa)
#
#
# Indices 1 2 3 4 5 6 
#
# 1 103.3602 33.3569 72.9920 0.0000 0.0000 0.0000
# 2 33.3569 43.0347 40.7822 0.0000 0.0000 0.0000
# 3 72.9920 40.7822 172.7231 0.0000 0.0000 0.0000
# 4 0.0000 0.0000 0.0000 7.0585 0.0000 0.0000
# 5 0.0000 0.0000 0.0000 0.0000 26.8014 0.0000
# 6 0.0000 0.0000 0.0000 0.0000 0.0000 14.8864
#
#
#
# Elastic Compliance Matrix: (Units=1/GPa)
#
#
# Indices 1 2 3 4 5 6 
#
# 1 0.015448 -0.007456 -0.004768 0.000000 0.000000 0.000000
# 2 -0.007456 0.033534 -0.004767 0.000000 0.000000 0.000000
# 3 -0.004768 -0.004767 0.008930 0.000000 0.000000 0.000000
# 4 0.000000 0.000000 0.000000 0.141673 0.000000 0.000000
# 5 0.000000 0.000000 0.000000 0.000000 0.037312 0.000000
# 6 0.000000 0.000000 0.000000 0.000000 0.000000 0.067175
#
#
# Mechanical properties :
#
#
# Convention : Reuss Voigt Hill
#
# Bulk Modulus (GPa) = 41.78762 68.15336 54.97049
# Shear Modulus (GPa) = 14.44961 21.21505 17.83233
#
# Velocity S-wave (km/s) = 2.75525 3.33852 3.06081
# Velocity P-wave (km/s) = 5.66355 7.11805 6.43205
#
# Compressibility (1/GPa) = 0.02393053
#
# Stress axis : x y z
#
# Youngs Moduli (GPa) = 64.73292 29.82085 111.98152
#
# Poissons Ratio (x) = 0.22234 0.53392
# Poissons Ratio (y) = 0.48263 0.53381
# Poissons Ratio (z) = 0.30864 0.14216
#
# Static dielectric constant tensor:
#      x y z
#    x 3.766490 0.000000 0.000000 
#    y 0.000000 3.200770 0.000000 
#    z 0.000000 0.000000 3.737280 
# 
# 
# High freq. dielectric constant tensor:
#      x y z
#    x 1.739580 0.000000 0.000000 
#    y 0.000000 1.704260 0.000000 
#    z 0.000000 0.000000 1.752230 
# 
# From -- ./inp_files/19591.got.cif
#   From: 2010.03.12/outbox.cif.g09.slc.cpg/sg51_10_cif.got.tgz:19591.got - 2010.04.16 13:43:02.
