data_PCOD8213062
_publ_section_title
;
Structure prediction by ZEFSAII (Michael W. Deem and Ramdas Pophale) SiO2 
 PCOD8213062
Probable space group: P M M A
;
_chemical_formula_sum "Si O2"
_cell_formula_units_Z 56
_cell_length_a 24.121016
_cell_length_b 9.021495
_cell_length_c 14.716474
_cell_angle_alpha 90.000000
_cell_angle_beta 90.000000
_cell_angle_gamma 90.000000
_cell_volume 3202.416959
_symmetry_space_group_name_H-M "P M M A"
_symmetry_group_IT_number 51
_symmetry_cell_setting 'orthorhombic'
loop_
_space_group_symop_operation_xyz
x,y,z
1/2-x,-y,z
1/2+x,-y,-z
-x,y,-z
-x,-y,-z
1/2+x,y,-z
1/2-x,y,z
x,-y,z
loop_
_atom_site_type_symbol
_atom_site_label
_atom_site_fract_x
_atom_site_fract_y
_atom_site_fract_z
Si Si1 0.431778 0.829522 0.873579
Si Si2 0.129562 0.324248 0.037189
Si Si3 0.250000 0.675249 0.780127
Si Si4 0.540528 0.669668 0.633925
Si Si5 0.355001 0.830089 0.703876
Si Si6 0.580317 0.330093 0.440188
Si Si7 0.750000 0.324649 0.016704
Si Si8 0.945401 0.825804 0.819095
O O1 0.403816 0.804556 0.776251
O O2 0.495805 0.781664 0.863977
O O3 0.426840 0.000000 0.905438
O O4 0.402583 0.727012 0.947347
O O5 0.124904 0.500000 0.042825
O O6 0.193980 0.271548 0.033847
O O7 0.103500 0.253444 0.126519
O O8 0.250000 0.500000 0.782145
O O9 0.303546 0.729411 0.727994
O O10 0.250000 0.742689 0.881754
O O11 0.544139 0.500000 0.667169
O O12 0.479157 0.708931 0.601477
O O13 0.581297 0.696680 0.548500
O O14 0.558594 0.776276 0.714966
O O15 0.375459 0.779311 0.604939
O O16 0.336257 0.000000 0.699794
O O17 0.595533 0.500000 0.418129
O O18 0.750000 0.500000 0.024252
O O19 0.936206 0.000000 0.823547
#
# Coordination Sequence:
#
# PCOD8213062 Si02
#       8
#     8   8   4   8   8   8   4   8
#     4  10  21  35  50  75 113 147 174 213 266 326
#     4  11  22  37  56  77 102 139 184 229 272 321
#     4  11  21  37  57  78 105 142 185 231 272 318
#     4   9  18  33  54  80 108 140 179 219 261 314
#     4  11  21  34  53  81 112 146 180 218 270 328
#     4   9  18  33  54  80 109 140 176 220 265 313
#     4   9  20  37  55  76 101 132 179 229 270 312
#     4  11  22  36  52  78 113 147 179 218 272 327
#
# _framework density 17.486792000000001
#
# number of rings (size 3 to 8) (size 9 to 14) (size 15 to 20)
#    0.000    1.857    2.857    2.786    0.000    4.000 
#    0.000    2.857    0.000    0.857    0.000    2.000 
#    0.000    0.000    0.000    0.000    0.000    0.000 
#
# Total GULP energy -694508.451288 kJ/mol
# GULP energy per Si atom -12401.936630 kJ/mol
# Density = 1.744699 g / cm^3
# Si number density = 17.486792 Si / 1000 Ang^3
#
#
#
# Elastic Constant Matrix: (Units=GPa)
#
#
# Indices 1 2 3 4 5 6 
#
# 1 112.2860 47.6876 53.9095 0.0000 0.0000 0.0000
# 2 47.6876 77.8689 48.4252 0.0000 0.0000 0.0000
# 3 53.9095 48.4252 100.8747 0.0000 0.0000 0.0000
# 4 0.0000 0.0000 0.0000 31.5372 0.0000 0.0000
# 5 0.0000 0.0000 0.0000 0.0000 46.7863 0.0000
# 6 0.0000 0.0000 0.0000 0.0000 0.0000 18.6819
#
#
#
# Elastic Compliance Matrix: (Units=1/GPa)
#
#
# Indices 1 2 3 4 5 6 
#
# 1 0.013375 -0.005340 -0.004584 0.000000 0.000000 0.000000
# 2 -0.005340 0.020440 -0.006958 0.000000 0.000000 0.000000
# 3 -0.004584 -0.006958 0.015704 0.000000 0.000000 0.000000
# 4 0.000000 0.000000 0.000000 0.031709 0.000000 0.000000
# 5 0.000000 0.000000 0.000000 0.000000 0.021374 0.000000
# 6 0.000000 0.000000 0.000000 0.000000 0.000000 0.053528
#
#
# Mechanical properties :
#
#
# Convention : Reuss Voigt Hill
#
# Bulk Modulus (GPa) = 63.48067 65.67492 64.57779
# Shear Modulus (GPa) = 25.62214 28.80155 27.21184
#
# Velocity S-wave (km/s) = 3.83198 4.06278 3.94907
# Velocity P-wave (km/s) = 7.48062 7.72313 7.60284
#
# Compressibility (1/GPa) = 0.01575283
#
# Stress axis : x y z
#
# Youngs Moduli (GPa) = 74.76860 48.92485 63.67981
#
# Poissons Ratio (x) = 0.26125 0.29192
# Poissons Ratio (y) = 0.39925 0.44310
# Poissons Ratio (z) = 0.34276 0.34043
#
# Static dielectric constant tensor:
#      x y z
#    x 3.053190 0.000000 0.000000 
#    y 0.000000 3.209230 0.000000 
#    z 0.000000 0.000000 3.248080 
# 
# 
# High freq. dielectric constant tensor:
#      x y z
#    x 1.662690 0.000000 0.000000 
#    y 0.000000 1.677050 0.000000 
#    z 0.000000 0.000000 1.672880 
# 
# From -- ./inp_files/25849.got.cif
#   From: 2010.03.12/outbox.cif.g09.slc.cpg/sg51_13_cif.got.tgz:25849.got - 2010.04.16 13:43:02.
