data_PCOD8213508
_publ_section_title
;
Structure prediction by ZEFSAII (Michael W. Deem and Ramdas Pophale) SiO2 
 PCOD8213508
Probable space group: P M M A
;
_chemical_formula_sum "Si O2"
_cell_formula_units_Z 56
_cell_length_a 13.806746
_cell_length_b 8.942403
_cell_length_c 23.534322
_cell_angle_alpha 90.000000
_cell_angle_beta 90.000000
_cell_angle_gamma 90.000000
_cell_volume 2905.676523
_symmetry_space_group_name_H-M "P M M A"
_symmetry_group_IT_number 51
_symmetry_cell_setting 'orthorhombic'
loop_
_space_group_symop_operation_xyz
x,y,z
1/2-x,-y,z
1/2+x,-y,-z
-x,y,-z
-x,-y,-z
1/2+x,y,-z
1/2-x,y,z
x,-y,z
loop_
_atom_site_type_symbol
_atom_site_label
_atom_site_fract_x
_atom_site_fract_y
_atom_site_fract_z
Si Si1 0.138784 0.825314 0.649105
Si Si2 0.045929 0.322878 0.088367
Si Si3 0.865054 0.333790 0.464258
Si Si4 0.533027 0.322891 0.698127
Si Si5 0.356859 0.322922 0.412452
Si Si6 0.862256 0.175803 0.803263
Si Si7 0.856472 0.323069 0.027311
O O1 0.250000 0.779070 0.659052
O O2 0.104457 0.777364 0.585902
O O3 0.076599 0.740351 0.697393
O O4 0.122556 0.000000 0.655757
O O5 0.055000 0.500000 0.099765
O O6 0.079231 0.231358 0.142449
O O7 0.934687 0.275234 0.074814
O O8 0.111434 0.270519 0.035328
O O9 0.750000 0.340227 0.471886
O O10 0.904306 0.500000 0.448389
O O11 0.905879 0.281080 0.526272
O O12 0.531167 0.500000 0.704254
O O13 0.578901 0.263343 0.639263
O O14 0.595316 0.257126 0.748758
O O15 0.250000 0.250503 0.406573
O O16 0.347625 0.500000 0.408602
O O17 0.750000 0.219914 0.809800
O O18 0.876418 0.000000 0.796378
O O19 0.750000 0.255851 0.041671
O O20 0.852598 0.500000 0.026014
#
# Coordination Sequence:
#
# PCOD8213508 Si02
#       7
#     8   8   8   8   8   8   8
#     4  10  21  37  54  73 102 137 171 213 267 325
#     4   9  17  31  55  84 111 146 189 225 262 311
#     4   8  14  28  51  75  99 129 166 208 257 318
#     4  11  22  36  57  80 101 132 179 228 268 313
#     4   8  15  29  50  77 105 130 162 211 267 317
#     4  11  24  40  56  77 109 145 178 217 267 321
#     4   8  14  27  51  85 120 147 177 224 273 311
#
# _framework density 19.272618999999999
#
# number of rings (size 3 to 8) (size 9 to 14) (size 15 to 20)
#    0.000    2.714    0.000    3.857    0.000    3.714 
#    0.000    6.429    0.000    7.286    0.000    0.000 
#    0.000    0.000    0.000    0.000    0.000    0.000 
#
# Total GULP energy -694175.542117 kJ/mol
# GULP energy per Si atom -12395.991824 kJ/mol
# Density = 1.922875 g / cm^3
# Si number density = 19.272619 Si / 1000 Ang^3
#
#
#
# Elastic Constant Matrix: (Units=GPa)
#
#
# Indices 1 2 3 4 5 6 
#
# 1 123.8812 41.0109 62.5929 0.0000 0.0000 0.0000
# 2 41.0109 61.2377 35.5846 0.0000 0.0000 0.0000
# 3 62.5929 35.5846 90.1648 0.0000 0.0000 0.0000
# 4 0.0000 0.0000 0.0000 -10.8518 0.0000 0.0000
# 5 0.0000 0.0000 0.0000 0.0000 29.6450 0.0000
# 6 0.0000 0.0000 0.0000 0.0000 0.0000 21.8401
#
#
#
# Elastic Compliance Matrix: (Units=1/GPa)
#
#
# Indices 1 2 3 4 5 6 
#
# 1 0.013370 -0.004620 -0.007458 0.000000 0.000000 0.000000
# 2 -0.004620 0.022786 -0.005785 0.000000 0.000000 0.000000
# 3 -0.007458 -0.005785 0.018552 0.000000 0.000000 0.000000
# 4 0.000000 0.000000 0.000000 -0.092151 0.000000 0.000000
# 5 0.000000 0.000000 0.000000 0.000000 0.033732 0.000000
# 6 0.000000 0.000000 0.000000 0.000000 0.000000 0.045787
#
#
# Mechanical properties :
#
#
# Convention : Reuss Voigt Hill
#
# Bulk Modulus (GPa) = 52.68683 61.51783 57.10233
# Shear Modulus (GPa) = 59.43164 17.19970 38.31567
#
# Velocity S-wave (km/s) = 5.55916 2.99062 4.46364
# Velocity P-wave (km/s) = 8.28268 6.62678 7.50056
#
# Compressibility (1/GPa) = 0.01898007
#
# Stress axis : x y z
#
# Youngs Moduli (GPa) = 74.79373 43.88720 53.90365
#
# Poissons Ratio (x) = 0.20276 0.40203
# Poissons Ratio (y) = 0.34555 0.31185
# Poissons Ratio (z) = 0.55783 0.25390
#
# Static dielectric constant tensor:
#      x y z
#    x 3.985340 0.000000 0.000000 
#    y 0.000000 3.164810 0.000000 
#    z 0.000000 0.000000 3.499930 
# 
# 
# High freq. dielectric constant tensor:
#      x y z
#    x 1.764950 0.000000 0.000000 
#    y 0.000000 1.714830 0.000000 
#    z 0.000000 0.000000 1.739050 
# 
# From -- ./inp_files/33445.got.cif
#   From: 2010.03.12/outbox.cif.g09.slc.cpg/sg51_17_cif.got.tgz:33445.got - 2010.04.16 13:43:02.
