data_PCOD8213969
_publ_section_title
;
Structure prediction by ZEFSAII (Michael W. Deem and Ramdas Pophale) SiO2 
 PCOD8213969
Probable space group: P M M A
;
_chemical_formula_sum "Si O2"
_cell_formula_units_Z 56
_cell_length_a 15.253667
_cell_length_b 9.084174
_cell_length_c 21.022095
_cell_angle_alpha 90.000000
_cell_angle_beta 90.000000
_cell_angle_gamma 90.000000
_cell_volume 2912.967906
_symmetry_space_group_name_H-M "P M M A"
_symmetry_group_IT_number 51
_symmetry_cell_setting 'orthorhombic'
loop_
_space_group_symop_operation_xyz
x,y,z
1/2-x,-y,z
1/2+x,-y,-z
-x,y,-z
-x,-y,-z
1/2+x,y,-z
1/2-x,y,z
x,-y,z
loop_
_atom_site_type_symbol
_atom_site_label
_atom_site_fract_x
_atom_site_fract_y
_atom_site_fract_z
Si Si1 0.400103 0.326540 0.504732
Si Si2 0.649337 0.169266 0.933046
Si Si3 0.348311 0.832535 0.630451
Si Si4 0.494328 0.325849 0.149158
Si Si5 0.850196 0.830381 0.080989
Si Si6 0.652596 0.832858 0.618350
Si Si7 0.492609 0.827271 0.282430
O O1 0.500000 0.273557 0.500000
O O2 0.390880 0.500000 0.503844
O O3 0.358226 0.269413 0.569454
O O4 0.348195 0.263420 0.445005
O O5 0.750000 0.204886 0.915577
O O6 0.586448 0.274636 0.893867
O O7 0.627635 0.000000 0.916607
O O8 0.632076 0.199312 0.007038
O O9 0.250000 0.815707 0.657605
O O10 0.414145 0.785737 0.686439
O O11 0.368124 0.000000 0.609412
O O12 0.495449 0.500000 0.150888
O O13 0.586888 0.271044 0.122264
O O14 0.480145 0.265056 0.219281
O O15 0.750000 0.791264 0.098307
O O16 0.869904 0.000000 0.097474
O O17 0.750000 0.822641 0.648087
O O18 0.583768 0.774144 0.669970
O O19 0.628595 0.000000 0.599648
O O20 0.485222 0.000000 0.266678
#
# Coordination Sequence:
#
# PCOD8213969 Si02
#       7
#     8   8   8   8   8   8   8
#     4  11  22  35  56  85 117 148 179 220 279 345
#     4   9  19  38  64  90 115 149 196 244 285 332
#     4  10  21  38  61  85 107 139 187 237 283 330
#     4  12  25  37  55  86 124 159 191 231 290 353
#     4   9  19  38  64  90 115 149 196 244 285 332
#     4  10  21  38  61  85 107 139 187 237 283 330
#     4  10  22  40  58  78 109 150 196 241 278 324
#
# _framework density 19.22438
#
# number of rings (size 3 to 8) (size 9 to 14) (size 15 to 20)
#    0.000    1.857    1.429    3.429    0.000    8.000 
#    0.000    4.286    0.000    0.000    0.000    0.000 
#    0.000    0.000    0.000    0.000    0.000    0.000 
#
# Total GULP energy -694610.245687 kJ/mol
# GULP energy per Si atom -12403.754387 kJ/mol
# Density = 1.918062 g / cm^3
# Si number density = 19.224380 Si / 1000 Ang^3
#
#
#
# Elastic Constant Matrix: (Units=GPa)
#
#
# Indices 1 2 3 4 5 6 
#
# 1 87.8884 24.2534 10.6467 0.0000 0.0000 0.0000
# 2 24.2534 77.3902 29.7952 0.0000 0.0000 0.0000
# 3 10.6467 29.7952 54.6244 0.0000 0.0000 0.0000
# 4 0.0000 0.0000 0.0000 -44.3990 0.0000 0.0000
# 5 0.0000 0.0000 0.0000 0.0000 2.3607 0.0000
# 6 0.0000 0.0000 0.0000 0.0000 0.0000 22.5203
#
#
#
# Elastic Compliance Matrix: (Units=1/GPa)
#
#
# Indices 1 2 3 4 5 6 
#
# 1 0.012461 -0.003760 -0.000378 0.000000 0.000000 0.000000
# 2 -0.003760 0.017491 -0.008808 0.000000 0.000000 0.000000
# 3 -0.000378 -0.008808 0.023185 0.000000 0.000000 0.000000
# 4 0.000000 0.000000 0.000000 -0.022523 0.000000 0.000000
# 5 0.000000 0.000000 0.000000 0.000000 0.423601 0.000000
# 6 0.000000 0.000000 0.000000 0.000000 0.000000 0.044404
#
#
# Mechanical properties :
#
#
# Convention : Reuss Voigt Hill
#
# Bulk Modulus (GPa) = 36.70263 38.81040 37.75651
# Shear Modulus (GPa) = 9.37045 6.44359 7.90702
#
# Velocity S-wave (km/s) = 2.21017 1.83277 2.03026
# Velocity P-wave (km/s) = 5.06421 4.97098 5.01782
#
# Compressibility (1/GPa) = 0.02724601
#
# Stress axis : x y z
#
# Youngs Moduli (GPa) = 80.24787 57.17319 43.13190
#
# Poissons Ratio (x) = 0.21496 0.01631
# Poissons Ratio (y) = 0.30171 0.37989
# Poissons Ratio (z) = 0.03034 0.50356
#
# Static dielectric constant tensor:
#      x y z
#    x 3.750170 0.000000 0.000000 
#    y 0.000000 3.373580 0.000000 
#    z 0.000000 0.000000 3.377150 
# 
# 
# High freq. dielectric constant tensor:
#      x y z
#    x 1.767630 0.000000 0.000000 
#    y 0.000000 1.735800 0.000000 
#    z 0.000000 0.000000 1.740750 
# 
# From -- ./inp_files/33317.got.cif
#   From: 2010.03.12/outbox.cif.g09.slc.cpg/sg51_17_cif.got.tgz:33317.got - 2010.04.16 13:43:02.
