data_PCOD8213262
_publ_section_title
;
Structure prediction by ZEFSAII (Michael W. Deem and Ramdas Pophale) SiO2 
 PCOD8213262
Probable space group: P M M A
;
_chemical_formula_sum "Si O2"
_cell_formula_units_Z 64
_cell_length_a 23.807701
_cell_length_b 8.947916
_cell_length_c 15.294367
_cell_angle_alpha 90.000000
_cell_angle_beta 90.000000
_cell_angle_gamma 90.000000
_cell_volume 3258.148429
_symmetry_space_group_name_H-M "P M M A"
_symmetry_group_IT_number 51
_symmetry_cell_setting 'orthorhombic'
loop_
_space_group_symop_operation_xyz
x,y,z
1/2-x,-y,z
1/2+x,-y,-z
-x,y,-z
-x,-y,-z
1/2+x,y,-z
1/2-x,y,z
x,-y,z
loop_
_atom_site_type_symbol
_atom_site_label
_atom_site_fract_x
_atom_site_fract_y
_atom_site_fract_z
Si Si1 0.316815 0.333075 0.306966
Si Si2 0.016251 0.325698 0.593588
Si Si3 0.625610 0.830430 0.361981
Si Si4 0.685217 0.837686 0.529600
Si Si5 0.619949 0.176001 0.843201
Si Si6 0.008364 0.677947 0.215479
Si Si7 0.313794 0.822464 0.985285
Si Si8 0.108093 0.173237 0.829742
O O1 0.250000 0.328909 0.299902
O O2 0.339768 0.500000 0.289059
O O3 0.339220 0.285323 0.403460
O O4 0.342047 0.216917 0.239148
O O5 0.006184 0.500000 0.585271
O O6 0.080722 0.290408 0.608496
O O7 0.000000 0.249083 0.500000
O O8 0.984191 0.269695 0.682185
O O9 0.677171 0.797715 0.427362
O O10 0.642335 0.805093 0.261168
O O11 0.602358 0.000000 0.372606
O O12 0.750000 0.848427 0.549104
O O13 0.657387 0.000000 0.549321
O O14 0.560067 0.258282 0.840105
O O15 0.654205 0.231587 0.927835
O O16 0.609144 0.000000 0.845335
O O17 0.006829 0.500000 0.208514
O O18 0.950863 0.739795 0.173528
O O19 0.250000 0.756968 0.982866
O O20 0.310251 0.000000 0.981921
O O21 0.350551 0.761570 0.903878
O O22 0.094132 0.000000 0.847982
#
# Coordination Sequence:
#
# PCOD8213262 Si02
#       8
#     8   8   8   8   8   8   8   8
#     4  10  21  36  53  75 106 145 186 228 276 332
#     4   9  19  34  51  72 100 140 182 222 265 314
#     4   9  18  31  50  78 106 136 173 220 268 310
#     4   9  18  32  49  74 108 143 179 218 267 324
#     4  11  22  36  57  83 112 144 184 234 283 333
#     4  10  21  37  55  80 114 149 188 228 277 335
#     4   9  19  36  60  88 112 141 184 230 279 335
#     4   9  18  36  59  82 112 145 184 230 276 329
#
# _framework density 19.643059000000001
#
# number of rings (size 3 to 8) (size 9 to 14) (size 15 to 20)
#    0.000    2.500    0.000    1.500    1.750    3.500 
#    0.000    6.250    0.000    1.875    0.000    3.500 
#    0.000    0.000    0.000    0.000    0.000    0.000 
#
# Total GULP energy -793064.612264 kJ/mol
# GULP energy per Si atom -12391.634567 kJ/mol
# Density = 1.959835 g / cm^3
# Si number density = 19.643059 Si / 1000 Ang^3
#
#
#
# Elastic Constant Matrix: (Units=GPa)
#
#
# Indices 1 2 3 4 5 6 
#
# 1 93.2699 34.4881 77.2791 0.0000 0.0000 0.0000
# 2 34.4881 44.3923 34.4383 0.0000 0.0000 0.0000
# 3 77.2791 34.4383 155.9305 0.0000 0.0000 0.0000
# 4 0.0000 0.0000 0.0000 16.5380 0.0000 0.0000
# 5 0.0000 0.0000 0.0000 0.0000 36.1228 0.0000
# 6 0.0000 0.0000 0.0000 0.0000 0.0000 22.9653
#
#
#
# Elastic Compliance Matrix: (Units=1/GPa)
#
#
# Indices 1 2 3 4 5 6 
#
# 1 0.021404 -0.010136 -0.008369 0.000000 0.000000 0.000000
# 2 -0.010136 0.031984 -0.002040 0.000000 0.000000 0.000000
# 3 -0.008369 -0.002040 0.011011 0.000000 0.000000 0.000000
# 4 0.000000 0.000000 0.000000 0.060467 0.000000 0.000000
# 5 0.000000 0.000000 0.000000 0.000000 0.027683 0.000000
# 6 0.000000 0.000000 0.000000 0.000000 0.000000 0.043544
#
#
# Mechanical properties :
#
#
# Convention : Reuss Voigt Hill
#
# Bulk Modulus (GPa) = 42.90354 65.11152 54.00753
# Shear Modulus (GPa) = 20.41203 24.95105 22.68154
#
# Velocity S-wave (km/s) = 3.22708 3.56788 3.40175
# Velocity P-wave (km/s) = 5.98117 7.08466 6.55617
#
# Compressibility (1/GPa) = 0.02330810
#
# Stress axis : x y z
#
# Youngs Moduli (GPa) = 46.72077 31.26571 90.81415
#
# Poissons Ratio (x) = 0.31691 0.76003
# Poissons Ratio (y) = 0.47356 0.18531
# Poissons Ratio (z) = 0.39101 0.06380
#
# Static dielectric constant tensor:
#      x y z
#    x 3.478340 0.000000 0.000000 
#    y 0.000000 3.514890 0.000000 
#    z 0.000000 0.000000 3.935610 
# 
# 
# High freq. dielectric constant tensor:
#      x y z
#    x 1.752640 0.000000 0.000000 
#    y 0.000000 1.746670 0.000000 
#    z 0.000000 0.000000 1.776720 
# 
# From -- ./inp_files/26191.got.cif
#   From: 2010.03.12/outbox.cif.g09.slc.cpg/sg51_14_cif.got.tgz:26191.got - 2010.04.16 13:43:02.
