data_PCOD8213235
_publ_section_title
;
Structure prediction by ZEFSAII (Michael W. Deem and Ramdas Pophale) SiO2 
 PCOD8213235
Probable space group: P M M A
;
_chemical_formula_sum "Si O2"
_cell_formula_units_Z 64
_cell_length_a 9.007034
_cell_length_b 20.024145
_cell_length_c 17.796377
_cell_angle_alpha 90.000000
_cell_angle_beta 90.000000
_cell_angle_gamma 90.000000
_cell_volume 3209.721718
_symmetry_space_group_name_H-M "P M M A"
_symmetry_group_IT_number 51
_symmetry_cell_setting 'orthorhombic'
loop_
_space_group_symop_operation_xyz
x,y,z
1/2-x,-y,z
1/2+x,-y,-z
-x,y,-z
-x,-y,-z
1/2+x,y,-z
1/2-x,y,z
x,-y,z
loop_
_atom_site_type_symbol
_atom_site_label
_atom_site_fract_x
_atom_site_fract_y
_atom_site_fract_z
Si Si1 0.418773 0.603910 0.074397
Si Si2 0.921980 0.885222 0.924688
Si Si3 0.426898 0.705798 0.712150
Si Si4 0.075946 0.214236 0.423707
Si Si5 0.579358 0.924395 0.640392
Si Si6 0.081083 0.256165 0.138389
Si Si7 0.410359 0.075206 0.783275
Si Si8 0.924052 0.574066 0.760281
O O1 0.250000 0.582885 0.062881
O O2 0.442113 0.683170 0.081262
O O3 0.478282 0.572496 0.152554
O O4 0.500000 0.576661 0.000000
O O5 0.750000 0.901765 0.931463
O O6 0.957032 0.807900 0.910742
O O7 0.989252 0.926119 0.856517
O O8 0.000000 0.909841 0.000000
O O9 0.250000 0.705686 0.703799
O O10 0.498859 0.746303 0.644012
O O11 0.472481 0.741195 0.790166
O O12 0.485645 0.628966 0.712680
O O13 0.250000 0.231870 0.423954
O O14 0.052444 0.133279 0.421230
O O15 0.000000 0.239737 0.500000
O O16 0.750000 0.928312 0.663825
O O17 0.494906 0.893435 0.712515
O O18 0.527853 0.000000 0.614592
O O19 0.250000 0.254493 0.169234
O O20 0.250000 0.111173 0.795875
O O21 0.381183 0.000000 0.759510
O O22 0.750000 0.593784 0.758237
O O23 0.951231 0.500000 0.726011
#
# Coordination Sequence:
#
# PCOD8213235 Si02
#       8
#     8   8   8   8   8   8   8   8
#     4   9  17  29  46  71 105 142 179 221 270 322
#     4  11  22  34  50  71  97 131 173 226 283 334
#     4  11  22  36  58  86 114 145 184 230 276 326
#     4  11  23  39  60  87 120 153 184 220 266 322
#     4   9  19  37  60  85 114 149 186 224 269 321
#     4   9  19  35  52  72 101 138 179 221 270 327
#     4  10  21  36  53  73  98 131 174 222 269 322
#     4   9  19  37  58  79 108 149 193 235 283 337
#
# _framework density 19.939423000000001
#
# number of rings (size 3 to 8) (size 9 to 14) (size 15 to 20)
#    0.000    2.125    0.000    4.125    0.000    8.750 
#    0.000    0.000    0.000    0.375    0.000    0.000 
#    0.000    0.000    0.000    0.000    0.000    0.000 
#
# Total GULP energy -793225.240668 kJ/mol
# GULP energy per Si atom -12394.144385 kJ/mol
# Density = 1.989404 g / cm^3
# Si number density = 19.939423 Si / 1000 Ang^3
#
#
#
# Elastic Constant Matrix: (Units=GPa)
#
#
# Indices 1 2 3 4 5 6 
#
# 1 115.8851 34.5188 46.8330 0.0000 0.0000 0.0000
# 2 34.5188 71.6215 22.8274 0.0000 0.0000 0.0000
# 3 46.8330 22.8274 82.3782 0.0000 0.0000 0.0000
# 4 0.0000 0.0000 0.0000 8.1040 0.0000 0.0000
# 5 0.0000 0.0000 0.0000 0.0000 35.2675 0.0000
# 6 0.0000 0.0000 0.0000 0.0000 0.0000 19.9015
#
#
#
# Elastic Compliance Matrix: (Units=1/GPa)
#
#
# Indices 1 2 3 4 5 6 
#
# 1 0.012172 -0.004016 -0.005807 0.000000 0.000000 0.000000
# 2 -0.004016 0.016640 -0.002328 0.000000 0.000000 0.000000
# 3 -0.005807 -0.002328 0.016086 0.000000 0.000000 0.000000
# 4 0.000000 0.000000 0.000000 0.123397 0.000000 0.000000
# 5 0.000000 0.000000 0.000000 0.000000 0.028355 0.000000
# 6 0.000000 0.000000 0.000000 0.000000 0.000000 0.050247
#
#
# Mechanical properties :
#
#
# Convention : Reuss Voigt Hill
#
# Bulk Modulus (GPa) = 48.55363 53.13813 50.84588
# Shear Modulus (GPa) = 17.98149 23.70164 20.84156
#
# Velocity S-wave (km/s) = 3.00627 3.45147 3.23653
# Velocity P-wave (km/s) = 6.03768 6.52619 6.28668
#
# Compressibility (1/GPa) = 0.02059578
#
# Stress axis : x y z
#
# Youngs Moduli (GPa) = 82.15353 60.09742 62.16670
#
# Poissons Ratio (x) = 0.24133 0.36102
# Poissons Ratio (y) = 0.32990 0.14472
# Poissons Ratio (z) = 0.47710 0.13991
#
# Static dielectric constant tensor:
#      x y z
#    x 3.748630 0.000000 0.000000 
#    y 0.000000 3.757290 0.000000 
#    z 0.000000 0.000000 3.325270 
# 
# 
# High freq. dielectric constant tensor:
#      x y z
#    x 1.778130 0.000000 0.000000 
#    y 0.000000 1.779030 0.000000 
#    z 0.000000 0.000000 1.754110 
# 
# From -- ./inp_files/22195.got.cif
#   From: 2010.03.12/outbox.cif.g09.slc.cpg/sg51_12_cif.got.tgz:22195.got - 2010.04.16 13:43:02.
