data_PCOD8213284
_publ_section_title
;
Structure prediction by ZEFSAII (Michael W. Deem and Ramdas Pophale) SiO2 
 PCOD8213284
Probable space group: P M M A
;
_chemical_formula_sum "Si O2"
_cell_formula_units_Z 48
_cell_length_a 18.168475
_cell_length_b 9.026999
_cell_length_c 16.559670
_cell_angle_alpha 90.000000
_cell_angle_beta 90.000000
_cell_angle_gamma 90.000000
_cell_volume 2715.898579
_symmetry_space_group_name_H-M "P M M A"
_symmetry_group_IT_number 51
_symmetry_cell_setting 'orthorhombic'
loop_
_space_group_symop_operation_xyz
x,y,z
1/2-x,-y,z
1/2+x,-y,-z
-x,y,-z
-x,-y,-z
1/2+x,y,-z
1/2-x,y,z
x,-y,z
loop_
_atom_site_type_symbol
_atom_site_label
_atom_site_fract_x
_atom_site_fract_y
_atom_site_fract_z
Si Si1 0.667342 0.176480 0.149041
Si Si2 0.969371 0.326491 0.587228
Si Si3 0.896085 0.167922 0.818935
Si Si4 0.954364 0.831116 0.269638
Si Si5 0.667056 0.824609 0.656164
Si Si6 0.416968 0.822526 0.007228
O O1 0.750000 0.238510 0.158531
O O2 0.619953 0.228201 0.226696
O O3 0.666490 0.000000 0.144913
O O4 0.632473 0.239474 0.066032
O O5 0.959374 0.500000 0.599126
O O6 0.889371 0.250791 0.594551
O O7 0.000000 0.284710 0.500000
O O8 0.027415 0.268599 0.653190
O O9 0.848147 0.240628 0.746592
O O10 0.883939 0.239974 0.907489
O O11 0.982257 0.178547 0.797629
O O12 0.869524 0.000000 0.825159
O O13 0.945250 0.000000 0.299660
O O14 0.750000 0.786073 0.629713
O O15 0.651766 0.000000 0.654907
O O16 0.417583 0.000000 0.008269
O O17 0.500000 0.762683 0.000000
#
# Coordination Sequence:
#
# PCOD8213284 Si02
#       6
#     8   8   8   8   8   8
#     4   9  16  24  37  63  97 130 165 205 245 283
#     4  10  21  36  54  75  96 122 161 202 241 294
#     4   8  13  22  39  63  93 129 161 189 228 281
#     4   9  16  29  48  68  94 127 160 198 243 291
#     4   9  18  32  51  77 106 131 157 194 243 293
#     4   9  13  19  34  59  95 134 165 193 234 284
#
# _framework density 17.673708000000001
#
# number of rings (size 3 to 8) (size 9 to 14) (size 15 to 20)
#    0.000    3.000    1.667    1.500    0.000    2.333 
#    0.000    4.167    0.000    3.500    0.000    9.333 
#    0.000    0.000    0.000    0.000    0.000    0.000 
#
# Total GULP energy -594847.750637 kJ/mol
# GULP energy per Si atom -12392.661472 kJ/mol
# Density = 1.763348 g / cm^3
# Si number density = 17.673708 Si / 1000 Ang^3
#
#
#
# Elastic Constant Matrix: (Units=GPa)
#
#
# Indices 1 2 3 4 5 6 
#
# 1 138.2348 32.8617 74.6290 0.0000 0.0000 0.0000
# 2 32.8617 30.2920 38.8990 0.0000 0.0000 0.0000
# 3 74.6290 38.8990 134.8740 0.0000 0.0000 0.0000
# 4 0.0000 0.0000 0.0000 0.8600 0.0000 0.0000
# 5 0.0000 0.0000 0.0000 0.0000 22.6757 0.0000
# 6 0.0000 0.0000 0.0000 0.0000 0.0000 8.4315
#
#
#
# Elastic Compliance Matrix: (Units=1/GPa)
#
#
# Indices 1 2 3 4 5 6 
#
# 1 0.011086 -0.006590 -0.004234 0.000000 0.000000 0.000000
# 2 -0.006590 0.056347 -0.012605 0.000000 0.000000 0.000000
# 3 -0.004234 -0.012605 0.013392 0.000000 0.000000 0.000000
# 4 0.000000 0.000000 0.000000 1.162790 0.000000 0.000000
# 5 0.000000 0.000000 0.000000 0.000000 0.044100 0.000000
# 6 0.000000 0.000000 0.000000 0.000000 0.000000 0.118602
#
#
# Mechanical properties :
#
#
# Convention : Reuss Voigt Hill
#
# Bulk Modulus (GPa) = 29.43872 66.24223 47.84048
# Shear Modulus (GPa) = 3.41414 16.86086 10.13750
#
# Velocity S-wave (km/s) = 1.39139 3.09205 2.39758
# Velocity P-wave (km/s) = 4.39024 7.09294 5.89847
#
# Compressibility (1/GPa) = 0.03396887
#
# Stress axis : x y z
#
# Youngs Moduli (GPa) = 90.20097 17.74711 74.67042
#
# Poissons Ratio (x) = 0.11696 0.31613
# Poissons Ratio (y) = 0.59445 0.94119
# Poissons Ratio (z) = 0.38188 0.22369
#
# Static dielectric constant tensor:
#      x y z
#    x 3.338300 0.000000 0.000000 
#    y 0.000000 2.710780 0.000000 
#    z 0.000000 0.000000 3.380710 
# 
# 
# High freq. dielectric constant tensor:
#      x y z
#    x 1.679020 0.000000 0.000000 
#    y 0.000000 1.619430 0.000000 
#    z 0.000000 0.000000 1.686510 
# 
# From -- ./inp_files/30039.got.cif
#   From: 2010.03.12/outbox.cif.g09.slc.cpg/sg51_16_cif.got.tgz:30039.got - 2010.04.16 13:43:02.
