data_PCOD8213869
_publ_section_title
;
Structure prediction by ZEFSAII (Michael W. Deem and Ramdas Pophale) SiO2 
 PCOD8213869
Probable space group: P M M A
;
_chemical_formula_sum "Si O2"
_cell_formula_units_Z 64
_cell_length_a 8.895499
_cell_length_b 14.627162
_cell_length_c 24.304273
_cell_angle_alpha 90.000000
_cell_angle_beta 90.000000
_cell_angle_gamma 90.000000
_cell_volume 3162.372475
_symmetry_space_group_name_H-M "P M M A"
_symmetry_group_IT_number 51
_symmetry_cell_setting 'orthorhombic'
loop_
_space_group_symop_operation_xyz
x,y,z
1/2-x,-y,z
1/2+x,-y,-z
-x,y,-z
-x,-y,-z
1/2+x,y,-z
1/2-x,y,z
x,-y,z
loop_
_atom_site_type_symbol
_atom_site_label
_atom_site_fract_x
_atom_site_fract_y
_atom_site_fract_z
Si Si1 0.919501 0.891561 0.766655
Si Si2 0.928527 0.741631 0.942614
Si Si3 0.429158 0.395514 0.387138
Si Si4 0.427487 0.768804 0.556227
Si Si5 0.414063 0.391877 0.268004
Si Si6 0.074531 0.893484 0.877388
Si Si7 0.929687 0.602623 0.849854
Si Si8 0.074174 0.894711 0.657076
O O1 0.750000 0.855435 0.773261
O O2 0.014293 0.856930 0.818779
O O3 0.989606 0.852514 0.710227
O O4 0.926603 0.000000 0.763770
O O5 0.750000 0.743135 0.947634
O O6 0.987804 0.669453 0.897366
O O7 0.988030 0.841709 0.926131
O O8 0.000000 0.711159 0.000000
O O9 0.250000 0.382160 0.388907
O O10 0.471380 0.500000 0.401155
O O11 0.509655 0.332166 0.431618
O O12 0.494735 0.367626 0.326072
O O13 0.500000 0.805455 0.500000
O O14 0.250000 0.764474 0.549523
O O15 0.477585 0.838496 0.603877
O O16 0.250000 0.345177 0.269470
O O17 0.393344 0.500000 0.265879
O O18 0.494382 0.362968 0.210241
O O19 0.250000 0.872653 0.881210
O O20 0.038523 0.000000 0.885020
O O21 0.750000 0.603448 0.846625
O O22 0.987096 0.500000 0.863173
O O23 0.250000 0.884939 0.668491
O O24 0.029088 0.000000 0.646965
#
# Coordination Sequence:
#
# PCOD8213869 Si02
#       8
#     8   8   8   8   8   8   8   8
#     4   9  17  31  55  87 116 141 175 218 264 320
#     4  11  23  37  54  78 108 144 188 233 273 320
#     4   9  18  34  57  83 110 140 173 215 271 331
#     4  11  24  39  55  77 105 141 186 232 275 321
#     4   7  11  24  49  79 106 131 164 207 256 312
#     4  10  21  38  59  81 109 145 180 221 275 328
#     4   8  15  30  53  81 111 141 174 215 265 320
#     4   9  19  37  58  80 110 146 180 218 269 325
#
# _framework density 20.237969
#
# number of rings (size 3 to 8) (size 9 to 14) (size 15 to 20)
#    0.000    2.750    0.000    3.000    0.000    5.500 
#    0.000    1.250    0.000    1.875    0.000    3.500 
#    0.000    0.000    0.000    0.000    0.000    0.000 
#
# Total GULP energy -793290.781658 kJ/mol
# GULP energy per Si atom -12395.168463 kJ/mol
# Density = 2.019191 g / cm^3
# Si number density = 20.237969 Si / 1000 Ang^3
#
#
#
# Elastic Constant Matrix: (Units=GPa)
#
#
# Indices 1 2 3 4 5 6 
#
# 1 54.1493 13.1342 21.2281 0.0000 0.0000 0.0000
# 2 13.1342 40.5270 10.8598 0.0000 0.0000 0.0000
# 3 21.2281 10.8598 98.4569 0.0000 0.0000 0.0000
# 4 0.0000 0.0000 0.0000 34.7056 0.0000 0.0000
# 5 0.0000 0.0000 0.0000 0.0000 31.5548 0.0000
# 6 0.0000 0.0000 0.0000 0.0000 0.0000 17.5698
#
#
#
# Elastic Compliance Matrix: (Units=1/GPa)
#
#
# Indices 1 2 3 4 5 6 
#
# 1 0.021454 -0.005888 -0.003976 0.000000 0.000000 0.000000
# 2 -0.005888 0.027042 -0.001713 0.000000 0.000000 0.000000
# 3 -0.003976 -0.001713 0.011203 0.000000 0.000000 0.000000
# 4 0.000000 0.000000 0.000000 0.028814 0.000000 0.000000
# 5 0.000000 0.000000 0.000000 0.000000 0.031691 0.000000
# 6 0.000000 0.000000 0.000000 0.000000 0.000000 0.056916
#
#
# Mechanical properties :
#
#
# Convention : Reuss Voigt Hill
#
# Bulk Modulus (GPa) = 27.36346 31.50860 29.43603
# Shear Modulus (GPa) = 23.53427 26.62678 25.08052
#
# Velocity S-wave (km/s) = 3.41380 3.63117 3.52416
# Velocity P-wave (km/s) = 5.39341 5.76050 5.57998
#
# Compressibility (1/GPa) = 0.03654508
#
# Stress axis : x y z
#
# Youngs Moduli (GPa) = 46.61055 36.97938 89.26150
#
# Poissons Ratio (x) = 0.21772 0.35493
# Poissons Ratio (y) = 0.27442 0.15293
# Poissons Ratio (z) = 0.18534 0.06336
#
# Static dielectric constant tensor:
#      x y z
#    x 3.338980 0.000000 0.000000 
#    y 0.000000 3.578570 0.000000 
#    z 0.000000 0.000000 3.952560 
# 
# 
# High freq. dielectric constant tensor:
#      x y z
#    x 1.758200 0.000000 0.000000 
#    y 0.000000 1.783300 0.000000 
#    z 0.000000 0.000000 1.801140 
# 
# From -- ./inp_files/35014.got.cif
#   From: 2010.03.12/outbox.cif.g09.slc.cpg/sg51_18_cif.got.tgz:35014.got - 2010.04.16 13:43:02.
