data_PCOD8213210
_publ_section_title
;
Structure prediction by ZEFSAII (Michael W. Deem and Ramdas Pophale) SiO2 
 PCOD8213210
Probable space group: P M M A
;
_chemical_formula_sum "Si O2"
_cell_formula_units_Z 36
_cell_length_a 8.884772
_cell_length_b 15.098566
_cell_length_c 14.680609
_cell_angle_alpha 90.000000
_cell_angle_beta 90.000000
_cell_angle_gamma 90.000000
_cell_volume 1969.364301
_symmetry_space_group_name_H-M "P M M A"
_symmetry_group_IT_number 51
_symmetry_cell_setting 'orthorhombic'
loop_
_space_group_symop_operation_xyz
x,y,z
1/2-x,-y,z
1/2+x,-y,-z
-x,y,-z
-x,-y,-z
1/2+x,y,-z
1/2-x,y,z
x,-y,z
loop_
_atom_site_type_symbol
_atom_site_label
_atom_site_fract_x
_atom_site_fract_y
_atom_site_fract_z
Si Si1 0.074977 0.809169 0.404003
Si Si2 0.925566 0.602594 0.094523
Si Si3 0.427465 0.746852 0.213510
Si Si4 0.425986 0.000000 0.404027
Si Si5 0.073045 0.101569 0.903184
O O1 0.250000 0.809935 0.426364
O O2 0.037036 0.741959 0.322058
O O3 0.023790 0.905660 0.361324
O O4 0.000000 0.782505 0.500000
O O5 0.750000 0.624489 0.089049
O O6 0.956632 0.500000 0.115064
O O7 0.001791 0.657508 0.174653
O O8 0.000000 0.632100 0.000000
O O9 0.250000 0.750229 0.194636
O O10 0.501286 0.834228 0.171066
O O11 0.500000 0.000000 0.500000
O O12 0.250000 0.000000 0.415019
O O13 0.250000 0.119486 0.910293
O O14 0.038665 0.000000 0.874685
O O15 0.000000 0.123840 0.000000
#
# Coordination Sequence:
#
# PCOD8213210 Si02
#       5
#     8   8   8   4   8
#     4   9  19  33  51  74 103 140 179 222 268 311
#     4  10  21  38  60  84 110 139 173 218 269 321
#     4  11  22  34  54  81 109 142 177 219 269 322
#     4   8  14  28  46  66  93 128 171 214 255 300
#     4  10  21  36  52  73 104 143 183 221 261 311
#
# _framework density 18.280010999999998
#
# number of rings (size 3 to 8) (size 9 to 14) (size 15 to 20)
#    0.000    2.222    0.000    2.667    1.556    4.444 
#    0.000    0.000    0.000    0.667    0.000    0.000 
#    0.000    0.000    0.000    0.000    0.000    0.000 
#
# Total GULP energy -446100.102357 kJ/mol
# GULP energy per Si atom -12391.669510 kJ/mol
# Density = 1.823840 g / cm^3
# Si number density = 18.280011 Si / 1000 Ang^3
#
#
#
# Elastic Constant Matrix: (Units=GPa)
#
#
# Indices 1 2 3 4 5 6 
#
# 1 91.3501 46.5066 56.3998 0.0000 0.0000 0.0000
# 2 46.5066 83.1577 64.1408 0.0000 0.0000 0.0000
# 3 56.3998 64.1408 127.0752 0.0000 0.0000 0.0000
# 4 0.0000 0.0000 0.0000 23.2485 0.0000 0.0000
# 5 0.0000 0.0000 0.0000 0.0000 29.6171 0.0000
# 6 0.0000 0.0000 0.0000 0.0000 0.0000 29.8398
#
#
#
# Elastic Compliance Matrix: (Units=1/GPa)
#
#
# Indices 1 2 3 4 5 6 
#
# 1 0.016692 -0.005929 -0.004416 0.000000 0.000000 0.000000
# 2 -0.005929 0.021798 -0.008371 0.000000 0.000000 0.000000
# 3 -0.004416 -0.008371 0.014054 0.000000 0.000000 0.000000
# 4 0.000000 0.000000 0.000000 0.043013 0.000000 0.000000
# 5 0.000000 0.000000 0.000000 0.000000 0.033764 0.000000
# 6 0.000000 0.000000 0.000000 0.000000 0.000000 0.033512
#
#
# Mechanical properties :
#
#
# Convention : Reuss Voigt Hill
#
# Bulk Modulus (GPa) = 66.16973 70.63083 68.40028
# Shear Modulus (GPa) = 24.35433 25.51014 24.93223
#
# Velocity S-wave (km/s) = 3.65402 3.73972 3.69712
# Velocity P-wave (km/s) = 7.35384 7.57427 7.46486
#
# Compressibility (1/GPa) = 0.01511265
#
# Stress axis : x y z
#
# Youngs Moduli (GPa) = 59.91042 45.87614 71.15281
#
# Poissons Ratio (x) = 0.27201 0.31418
# Poissons Ratio (y) = 0.35522 0.59561
# Poissons Ratio (z) = 0.26454 0.38402
#
# Static dielectric constant tensor:
#      x y z
#    x 3.461020 0.000000 0.000000 
#    y 0.000000 3.293400 0.000000 
#    z 0.000000 0.000000 3.259070 
# 
# 
# High freq. dielectric constant tensor:
#      x y z
#    x 1.719370 0.000000 0.000000 
#    y 0.000000 1.697390 0.000000 
#    z 0.000000 0.000000 1.700750 
# 
# From -- ./inp_files/20306.got.cif
#   From: 2010.03.12/outbox.cif.g09.slc.cpg/sg51_11_cif.got.tgz:20306.got - 2010.04.16 13:43:02.
