data_PCOD8213102
_publ_section_title
;
Structure prediction by ZEFSAII (Michael W. Deem and Ramdas Pophale) SiO2 
 PCOD8213102
Probable space group: P M M A
;
_chemical_formula_sum "Si O2"
_cell_formula_units_Z 64
_cell_length_a 19.354675
_cell_length_b 9.410739
_cell_length_c 18.759905
_cell_angle_alpha 90.000000
_cell_angle_beta 90.000000
_cell_angle_gamma 90.000000
_cell_volume 3416.962768
_symmetry_space_group_name_H-M "P M M A"
_symmetry_group_IT_number 51
_symmetry_cell_setting 'orthorhombic'
loop_
_space_group_symop_operation_xyz
x,y,z
1/2-x,-y,z
1/2+x,-y,-z
-x,y,-z
-x,-y,-z
1/2+x,y,-z
1/2-x,y,z
x,-y,z
loop_
_atom_site_type_symbol
_atom_site_label
_atom_site_fract_x
_atom_site_fract_y
_atom_site_fract_z
Si Si1 0.670736 0.334558 0.304365
Si Si2 0.907765 0.665547 0.716944
Si Si3 0.330824 0.666283 0.421546
Si Si4 0.331785 0.840057 0.558258
Si Si5 0.044720 0.335987 0.789978
Si Si6 0.830716 0.336703 0.853520
Si Si7 0.327041 0.837452 0.011303
Si Si8 0.458964 0.163560 0.930298
O O1 0.750000 0.299085 0.283062
O O2 0.662988 0.500000 0.324976
O O3 0.644625 0.242183 0.370918
O O4 0.621027 0.294928 0.238154
O O5 0.890086 0.500000 0.714903
O O6 0.876813 0.728182 0.643698
O O7 0.868383 0.730911 0.785103
O O8 0.989546 0.695343 0.726520
O O9 0.250000 0.693819 0.405259
O O10 0.344080 0.500000 0.436303
O O11 0.357904 0.753336 0.489726
O O12 0.250000 0.845645 0.556466
O O13 0.362595 0.000000 0.558183
O O14 0.041570 0.500000 0.812061
O O15 0.022350 0.250085 0.859812
O O16 0.750000 0.317034 0.841220
O O17 0.851677 0.500000 0.865118
O O18 0.856015 0.252958 0.922919
O O19 0.250000 0.788158 0.988652
O O20 0.377108 0.815592 0.944070
O O21 0.327368 0.000000 0.036620
O O22 0.478344 0.000000 0.916204
O O23 0.500000 0.219183 0.000000
#
# Coordination Sequence:
#
# PCOD8213102 Si02
#       8
#     8   8   8   8   8   8   8   8
#     4   9  18  34  54  74  97 126 161 201 245 291
#     4   9  17  30  47  69  98 128 159 195 234 279
#     4   9  16  28  49  74  99 130 163 192 228 277
#     4   9  17  30  50  76 102 127 160 201 239 278
#     4  10  21  35  52  74  97 123 159 202 243 283
#     4   9  16  27  46  71  96 123 156 193 232 277
#     4   9  18  32  48  67  92 121 154 193 237 285
#     4  10  21  36  52  70  95 128 162 195 236 289
#
# _framework density 18.730084000000002
#
# number of rings (size 3 to 8) (size 9 to 14) (size 15 to 20)
#    0.000    2.750    0.000    1.500    0.000    4.750 
#    0.000    1.875    0.000    6.750    0.000    0.000 
#    0.000    0.000    0.000    0.000    0.000    0.000 
#
# Total GULP energy -793439.019150 kJ/mol
# GULP energy per Si atom -12397.484674 kJ/mol
# Density = 1.868745 g / cm^3
# Si number density = 18.730084 Si / 1000 Ang^3
#
#
#
# Elastic Constant Matrix: (Units=GPa)
#
#
# Indices 1 2 3 4 5 6 
#
# 1 68.6600 24.5838 43.0270 0.0000 0.0000 0.0000
# 2 24.5838 63.6715 49.5104 0.0000 0.0000 0.0000
# 3 43.0270 49.5104 112.5010 0.0000 0.0000 0.0000
# 4 0.0000 0.0000 0.0000 10.0148 0.0000 0.0000
# 5 0.0000 0.0000 0.0000 0.0000 26.6164 0.0000
# 6 0.0000 0.0000 0.0000 0.0000 0.0000 14.9971
#
#
#
# Elastic Compliance Matrix: (Units=1/GPa)
#
#
# Indices 1 2 3 4 5 6 
#
# 1 0.019439 -0.002622 -0.006281 0.000000 0.000000 0.000000
# 2 -0.002622 0.024230 -0.009661 0.000000 0.000000 0.000000
# 3 -0.006281 -0.009661 0.015543 0.000000 0.000000 0.000000
# 4 0.000000 0.000000 0.000000 0.099853 0.000000 0.000000
# 5 0.000000 0.000000 0.000000 0.000000 0.037571 0.000000
# 6 0.000000 0.000000 0.000000 0.000000 0.000000 0.066680
#
#
# Mechanical properties :
#
#
# Convention : Reuss Voigt Hill
#
# Bulk Modulus (GPa) = 45.27897 53.23055 49.25476
# Shear Modulus (GPa) = 16.24417 18.83974 17.54195
#
# Velocity S-wave (km/s) = 2.94815 3.17496 3.06366
# Velocity P-wave (km/s) = 5.98462 6.47472 6.23449
#
# Compressibility (1/GPa) = 0.02208531
#
# Stress axis : x y z
#
# Youngs Moduli (GPa) = 51.44223 41.27147 64.33944
#
# Poissons Ratio (x) = 0.10819 0.40412
# Poissons Ratio (y) = 0.13486 0.62156
# Poissons Ratio (z) = 0.32311 0.39871
#
# Static dielectric constant tensor:
#      x y z
#    x 3.445350 0.000000 0.000000 
#    y 0.000000 3.360420 0.000000 
#    z 0.000000 0.000000 3.394180 
# 
# 
# High freq. dielectric constant tensor:
#      x y z
#    x 1.722430 0.000000 0.000000 
#    y 0.000000 1.706370 0.000000 
#    z 0.000000 0.000000 1.720320 
# 
# From -- ./inp_files/30637.got.cif
#   From: 2010.03.12/outbox.cif.g09.slc.cpg/sg51_16_cif.got.tgz:30637.got - 2010.04.16 13:43:02.
