data_PCOD8213350
_publ_section_title
;
Structure prediction by ZEFSAII (Michael W. Deem and Ramdas Pophale) SiO2 
 PCOD8213350
Probable space group: P M M A
;
_chemical_formula_sum "Si O2"
_cell_formula_units_Z 48
_cell_length_a 9.161854
_cell_length_b 9.144255
_cell_length_c 30.701158
_cell_angle_alpha 90.000000
_cell_angle_beta 90.000000
_cell_angle_gamma 90.000000
_cell_volume 2572.091723
_symmetry_space_group_name_H-M "P M M A"
_symmetry_group_IT_number 51
_symmetry_cell_setting 'orthorhombic'
loop_
_space_group_symop_operation_xyz
x,y,z
1/2-x,-y,z
1/2+x,-y,-z
-x,y,-z
-x,-y,-z
1/2+x,y,-z
1/2-x,y,z
x,-y,z
loop_
_atom_site_type_symbol
_atom_site_label
_atom_site_fract_x
_atom_site_fract_y
_atom_site_fract_z
Si Si1 0.079124 0.668281 0.455721
Si Si2 0.578177 0.168120 0.785009
Si Si3 0.418179 0.328979 0.708724
Si Si4 0.917593 0.829210 0.128295
Si Si5 0.917883 0.828654 0.379807
Si Si6 0.919609 0.330054 0.042572
O O1 0.250000 0.695350 0.461804
O O2 0.044220 0.500000 0.444131
O O3 0.000000 0.715147 0.500000
O O4 0.020490 0.770886 0.417808
O O5 0.750000 0.187527 0.787823
O O6 0.517867 0.269130 0.747035
O O7 0.510215 0.223285 0.830330
O O8 0.533438 0.000000 0.775977
O O9 0.250000 0.294725 0.719831
O O10 0.446648 0.500000 0.702827
O O11 0.465960 0.249872 0.664484
O O12 0.750000 0.784989 0.136855
O O13 0.980058 0.749495 0.085563
O O14 0.935683 0.000000 0.120206
O O15 0.750000 0.792094 0.391181
O O16 0.943347 0.000000 0.373783
O O17 0.750000 0.296965 0.036370
O O18 0.953878 0.500000 0.048384
O O19 0.000000 0.266942 0.000000
#
# Coordination Sequence:
#
# PCOD8213350 Si02
#       6
#     8   8   8   8   8   8
#     4  10  21  37  58  83 111 145 183 223 268 316
#     4  10  21  36  54  78 108 140 174 215 264 315
#     4  10  21  37  58  82 107 139 179 220 263 314
#     4   9  18  33  52  73  99 133 171 210 254 306
#     4  10  21  37  58  83 110 142 180 221 266 316
#     4   9  18  32  49  70  97 129 165 206 253 305
#
# _framework density 18.661854999999999
#
# number of rings (size 3 to 8) (size 9 to 14) (size 15 to 20)
#    0.000    2.333    0.000    2.000    0.000    6.667 
#    0.000    1.667    0.000    0.000    0.000    0.000 
#    0.000    0.000    0.000    0.000    0.000    0.000 
#
# Total GULP energy -595413.127524 kJ/mol
# GULP energy per Si atom -12404.440157 kJ/mol
# Density = 1.861938 g / cm^3
# Si number density = 18.661855 Si / 1000 Ang^3
#
#
#
# Elastic Constant Matrix: (Units=GPa)
#
#
# Indices 1 2 3 4 5 6 
#
# 1 77.7915 43.8741 72.4730 0.0000 0.0000 0.0000
# 2 43.8741 76.9489 72.1091 0.0000 0.0000 0.0000
# 3 72.4730 72.1091 170.9148 0.0000 0.0000 0.0000
# 4 0.0000 0.0000 0.0000 38.9936 0.0000 0.0000
# 5 0.0000 0.0000 0.0000 0.0000 36.0958 0.0000
# 6 0.0000 0.0000 0.0000 0.0000 0.0000 27.0004
#
#
#
# Elastic Compliance Matrix: (Units=1/GPa)
#
#
# Indices 1 2 3 4 5 6 
#
# 1 0.023116 -0.006607 -0.007014 0.000000 0.000000 0.000000
# 2 -0.006607 0.023382 -0.007063 0.000000 0.000000 0.000000
# 3 -0.007014 -0.007063 0.011805 0.000000 0.000000 0.000000
# 4 0.000000 0.000000 0.000000 0.025645 0.000000 0.000000
# 5 0.000000 0.000000 0.000000 0.000000 0.027704 0.000000
# 6 0.000000 0.000000 0.000000 0.000000 0.000000 0.037037
#
#
# Mechanical properties :
#
#
# Convention : Reuss Voigt Hill
#
# Bulk Modulus (GPa) = 59.05351 78.06308 68.55829
# Shear Modulus (GPa) = 25.54901 29.56454 27.55677
#
# Velocity S-wave (km/s) = 3.70408 3.98455 3.84687
# Velocity P-wave (km/s) = 7.07151 7.94292 7.51985
#
# Compressibility (1/GPa) = 0.01693379
#
# Stress axis : x y z
#
# Youngs Moduli (GPa) = 43.26017 42.76854 84.70845
#
# Poissons Ratio (x) = 0.28256 0.59418
# Poissons Ratio (y) = 0.28581 0.59832
# Poissons Ratio (z) = 0.30345 0.30209
#
# Static dielectric constant tensor:
#      x y z
#    x 3.369130 0.000000 0.000000 
#    y 0.000000 3.391550 0.000000 
#    z 0.000000 0.000000 3.592470 
# 
# 
# High freq. dielectric constant tensor:
#      x y z
#    x 1.720310 0.000000 0.000000 
#    y 0.000000 1.721910 0.000000 
#    z 0.000000 0.000000 1.736400 
# 
# From -- ./inp_files/36921.got.cif
#   From: 2010.03.12/outbox.cif.g09.slc.cpg/sg51_19_cif.got.tgz:36921.got - 2010.04.16 13:43:02.
