data_PCOD8213739
_publ_section_title
;
Structure prediction by ZEFSAII (Michael W. Deem and Ramdas Pophale) SiO2 
 PCOD8213739
Probable space group: P M M A
;
_chemical_formula_sum "Si O2"
_cell_formula_units_Z 56
_cell_length_a 8.770099
_cell_length_b 19.595983
_cell_length_c 15.924554
_cell_angle_alpha 90.000000
_cell_angle_beta 90.000000
_cell_angle_gamma 90.000000
_cell_volume 2736.773322
_symmetry_space_group_name_H-M "P M M A"
_symmetry_group_IT_number 51
_symmetry_cell_setting 'orthorhombic'
loop_
_space_group_symop_operation_xyz
x,y,z
1/2-x,-y,z
1/2+x,-y,-z
-x,y,-z
-x,-y,-z
1/2+x,y,-z
1/2-x,y,z
x,-y,z
loop_
_atom_site_type_symbol
_atom_site_label
_atom_site_fract_x
_atom_site_fract_y
_atom_site_fract_z
Si Si1 0.427650 0.075792 0.248820
Si Si2 0.583085 0.922659 0.077063
Si Si3 0.076255 0.575161 0.665720
Si Si4 0.432110 0.717814 0.089527
Si Si5 0.074827 0.709352 0.584573
Si Si6 0.070809 0.424810 0.159139
Si Si7 0.929507 0.786862 0.253385
O O1 0.250000 0.088563 0.265570
O O2 0.461686 0.080257 0.150700
O O3 0.527795 0.136945 0.286925
O O4 0.475351 0.000000 0.283052
O O5 0.750000 0.889086 0.099014
O O6 0.616147 0.000000 0.050546
O O7 0.500000 0.883657 0.000000
O O8 0.250000 0.583447 0.697679
O O9 0.045494 0.500000 0.628616
O O10 0.043479 0.628268 0.590916
O O11 0.969828 0.590169 0.744715
O O12 0.250000 0.722910 0.088288
O O13 0.489365 0.639274 0.104532
O O14 0.492362 0.766965 0.164602
O O15 0.500000 0.741586 0.000000
O O16 0.250000 0.729163 0.577679
O O17 0.007628 0.740245 0.670847
O O18 0.000000 0.738565 0.500000
O O19 0.250000 0.428017 0.151148
O O20 0.003331 0.500000 0.131395
O O21 0.750000 0.779112 0.241619
#
# Coordination Sequence:
#
# PCOD8213739 Si02
#       7
#     8   8   8   8   8   8   8
#     4  10  21  37  58  84 111 142 182 227 282 348
#     4   9  16  27  45  71 104 140 177 219 266 319
#     4   9  17  32  55  83 117 155 194 238 289 341
#     4  11  23  38  58  84 117 158 203 249 296 347
#     4  10  22  38  59  88 119 154 195 238 288 346
#     4   9  18  33  54  81 113 152 199 248 296 343
#     4  11  23  41  62  86 118 152 192 241 291 346
#
# _framework density 20.462053999999998
#
# number of rings (size 3 to 8) (size 9 to 14) (size 15 to 20)
#    0.000    2.143    1.429    1.714    0.000    6.000 
#    0.000    2.857    0.000    0.429    0.000    0.000 
#    0.000    0.000    0.000    0.000    0.000    0.000 
#
# Total GULP energy -693799.966068 kJ/mol
# GULP energy per Si atom -12389.285108 kJ/mol
# Density = 2.041548 g / cm^3
# Si number density = 20.462054 Si / 1000 Ang^3
#
#
#
# Elastic Constant Matrix: (Units=GPa)
#
#
# Indices 1 2 3 4 5 6 
#
# 1 49.0100 31.3139 23.2884 0.0000 0.0000 0.0000
# 2 31.3139 111.3840 37.6209 0.0000 0.0000 0.0000
# 3 23.2884 37.6209 100.4184 0.0000 0.0000 0.0000
# 4 0.0000 0.0000 0.0000 10.8042 0.0000 0.0000
# 5 0.0000 0.0000 0.0000 0.0000 27.8222 0.0000
# 6 0.0000 0.0000 0.0000 0.0000 0.0000 25.9103
#
#
#
# Elastic Compliance Matrix: (Units=1/GPa)
#
#
# Indices 1 2 3 4 5 6 
#
# 1 0.026066 -0.006052 -0.003778 0.000000 0.000000 0.000000
# 2 -0.006052 0.011684 -0.002974 0.000000 0.000000 0.000000
# 3 -0.003778 -0.002974 0.011948 0.000000 0.000000 0.000000
# 4 0.000000 0.000000 0.000000 0.092557 0.000000 0.000000
# 5 0.000000 0.000000 0.000000 0.000000 0.035943 0.000000
# 6 0.000000 0.000000 0.000000 0.000000 0.000000 0.038595
#
#
# Mechanical properties :
#
#
# Convention : Reuss Voigt Hill
#
# Bulk Modulus (GPa) = 41.50872 49.47320 45.49096
# Shear Modulus (GPa) = 19.96570 24.14660 22.05615
#
# Velocity S-wave (km/s) = 3.12708 3.43894 3.28671
# Velocity P-wave (km/s) = 5.77649 6.32447 6.05668
#
# Compressibility (1/GPa) = 0.02409132
#
# Stress axis : x y z
#
# Youngs Moduli (GPa) = 38.36421 85.58865 83.69254
#
# Poissons Ratio (x) = 0.51799 0.31616
# Poissons Ratio (y) = 0.23218 0.24887
# Poissons Ratio (z) = 0.14493 0.25451
#
# Static dielectric constant tensor:
#      x y z
#    x 3.751320 0.000000 0.000000 
#    y 0.000000 4.318310 0.000000 
#    z 0.000000 0.000000 3.390990 
# 
# 
# High freq. dielectric constant tensor:
#      x y z
#    x 1.795960 0.000000 0.000000 
#    y 0.000000 1.813000 0.000000 
#    z 0.000000 0.000000 1.760420 
# 
# From -- ./inp_files/21769.got.cif
#   From: 2010.03.12/outbox.cif.g09.slc.cpg/sg51_11_cif.got.tgz:21769.got - 2010.04.16 13:43:02.
