data_PCOD8213359
_publ_section_title
;
Structure prediction by ZEFSAII (Michael W. Deem and Ramdas Pophale) SiO2 
 PCOD8213359
Probable space group: P M M A
;
_chemical_formula_sum "Si O2"
_cell_formula_units_Z 48
_cell_length_a 9.062047
_cell_length_b 8.976781
_cell_length_c 30.734385
_cell_angle_alpha 90.000000
_cell_angle_beta 90.000000
_cell_angle_gamma 90.000000
_cell_volume 2500.181099
_symmetry_space_group_name_H-M "P M M A"
_symmetry_group_IT_number 51
_symmetry_cell_setting 'orthorhombic'
loop_
_space_group_symop_operation_xyz
x,y,z
1/2-x,-y,z
1/2+x,-y,-z
-x,y,-z
-x,-y,-z
1/2+x,y,-z
1/2-x,y,z
x,-y,z
loop_
_atom_site_type_symbol
_atom_site_label
_atom_site_fract_x
_atom_site_fract_y
_atom_site_fract_z
Si Si1 0.424915 0.168634 0.370016
Si Si2 0.077505 0.828324 0.955140
Si Si3 0.420532 0.326977 0.708493
Si Si4 0.920892 0.673718 0.876480
Si Si5 0.076897 0.671152 0.456518
Si Si6 0.580664 0.175530 0.202396
O O1 0.250000 0.176862 0.367995
O O2 0.486048 0.268794 0.331585
O O3 0.481877 0.233386 0.415868
O O4 0.482521 0.000000 0.365192
O O5 0.250000 0.796835 0.960057
O O6 0.012861 0.724013 0.918088
O O7 0.046360 0.000000 0.942854
O O8 0.000000 0.784584 0.000000
O O9 0.250000 0.294992 0.698628
O O10 0.453132 0.500000 0.715396
O O11 0.471750 0.242373 0.751836
O O12 0.750000 0.711265 0.884409
O O13 0.947588 0.500000 0.868685
O O14 0.975576 0.761027 0.834462
O O15 0.250000 0.690363 0.462855
O O16 0.032815 0.500000 0.448028
O O17 0.000000 0.732609 0.500000
O O18 0.750000 0.220419 0.192265
O O19 0.561262 0.000000 0.204482
#
# Coordination Sequence:
#
# PCOD8213359 Si02
#       6
#     8   8   8   8   8   8
#     4  10  21  36  54  78 109 144 181 221 268 322
#     4  10  21  38  61  87 114 147 187 230 278 330
#     4  10  21  37  58  83 110 142 181 224 271 324
#     4  11  24  39  56  82 115 150 188 228 272 324
#     4   9  18  33  52  74 102 137 177 221 268 319
#     4  10  21  38  60  84 110 142 181 225 274 326
#
# _framework density 19.198609999999999
#
# number of rings (size 3 to 8) (size 9 to 14) (size 15 to 20)
#    0.000    2.000    0.000    3.000    0.000    9.333 
#    0.000    1.667    0.000    0.000    0.000    0.000 
#    0.000    0.000    0.000    0.000    0.000    0.000 
#
# Total GULP energy -595448.294124 kJ/mol
# GULP energy per Si atom -12405.172794 kJ/mol
# Density = 1.915491 g / cm^3
# Si number density = 19.198610 Si / 1000 Ang^3
#
#
#
# Elastic Constant Matrix: (Units=GPa)
#
#
# Indices 1 2 3 4 5 6 
#
# 1 58.4898 35.4736 50.7326 0.0000 0.0000 0.0000
# 2 35.4736 81.6510 53.5337 0.0000 0.0000 0.0000
# 3 50.7326 53.5337 143.0311 0.0000 0.0000 0.0000
# 4 0.0000 0.0000 0.0000 42.5250 0.0000 0.0000
# 5 0.0000 0.0000 0.0000 0.0000 38.2719 0.0000
# 6 0.0000 0.0000 0.0000 0.0000 0.0000 29.1973
#
#
#
# Elastic Compliance Matrix: (Units=1/GPa)
#
#
# Indices 1 2 3 4 5 6 
#
# 1 0.027713 -0.007415 -0.007054 0.000000 0.000000 0.000000
# 2 -0.007415 0.018214 -0.004187 0.000000 0.000000 0.000000
# 3 -0.007054 -0.004187 0.011061 0.000000 0.000000 0.000000
# 4 0.000000 0.000000 0.000000 0.023516 0.000000 0.000000
# 5 0.000000 0.000000 0.000000 0.000000 0.026129 0.000000
# 6 0.000000 0.000000 0.000000 0.000000 0.000000 0.034250
#
#
# Mechanical properties :
#
#
# Convention : Reuss Voigt Hill
#
# Bulk Modulus (GPa) = 50.82619 62.51687 56.67153
# Shear Modulus (GPa) = 27.06320 31.56096 29.31208
#
# Velocity S-wave (km/s) = 3.75860 4.05893 3.91164
# Velocity P-wave (km/s) = 6.73553 7.38921 7.06993
#
# Compressibility (1/GPa) = 0.01967490
#
# Stress axis : x y z
#
# Youngs Moduli (GPa) = 36.08431 54.90322 90.40926
#
# Poissons Ratio (x) = 0.40710 0.63779
# Poissons Ratio (y) = 0.26756 0.37855
# Poissons Ratio (z) = 0.25455 0.22988
#
# Static dielectric constant tensor:
#      x y z
#    x 3.459830 0.000000 0.000000 
#    y 0.000000 3.620260 0.000000 
#    z 0.000000 0.000000 3.768100 
# 
# 
# High freq. dielectric constant tensor:
#      x y z
#    x 1.742910 0.000000 0.000000 
#    y 0.000000 1.754060 0.000000 
#    z 0.000000 0.000000 1.761140 
# 
# From -- ./inp_files/36938.got.cif
#   From: 2010.03.12/outbox.cif.g09.slc.cpg/sg51_19_cif.got.tgz:36938.got - 2010.04.16 13:43:02.
