data_PCOD8213005
_publ_section_title
;
Structure prediction by ZEFSAII (Michael W. Deem and Ramdas Pophale) SiO2 
 PCOD8213005
Probable space group: P M M A
;
_chemical_formula_sum "Si O2"
_cell_formula_units_Z 64
_cell_length_a 22.792020
_cell_length_b 9.382393
_cell_length_c 17.860983
_cell_angle_alpha 90.000000
_cell_angle_beta 90.000000
_cell_angle_gamma 90.000000
_cell_volume 3819.458492
_symmetry_space_group_name_H-M "P M M A"
_symmetry_group_IT_number 51
_symmetry_cell_setting 'orthorhombic'
loop_
_space_group_symop_operation_xyz
x,y,z
1/2-x,-y,z
1/2+x,-y,-z
-x,y,-z
-x,-y,-z
1/2+x,y,-z
1/2-x,y,z
x,-y,z
loop_
_atom_site_type_symbol
_atom_site_label
_atom_site_fract_x
_atom_site_fract_y
_atom_site_fract_z
Si Si1 0.890320 0.831281 0.635641
Si Si2 0.819499 0.843286 0.058751
Si Si3 0.501023 0.335682 0.586099
Si Si4 0.818158 0.666817 0.758028
Si Si5 0.317269 0.837539 0.509710
Si Si6 0.682106 0.832462 0.225681
Si Si7 0.629499 0.334388 0.358316
Si Si8 0.319487 0.656619 0.074529
O O1 0.856630 0.765108 0.705299
O O2 0.856263 0.789411 0.560197
O O3 0.954713 0.763512 0.631975
O O4 0.894928 0.000000 0.646602
O O5 0.750000 0.851800 0.049743
O O6 0.834114 0.782681 0.141279
O O7 0.846889 0.000000 0.050575
O O8 0.847592 0.750609 0.991868
O O9 0.500000 0.286278 0.500000
O O10 0.521191 0.500000 0.592023
O O11 0.437955 0.310773 0.621943
O O12 0.750000 0.695936 0.741288
O O13 0.832433 0.500000 0.745849
O O14 0.834372 0.714863 0.842702
O O15 0.250000 0.821451 0.485260
O O16 0.329572 0.735400 0.579038
O O17 0.331519 0.000000 0.533396
O O18 0.750000 0.799927 0.243664
O O19 0.641128 0.740703 0.279441
O O20 0.669631 0.000000 0.236100
O O21 0.645855 0.500000 0.352969
O O22 0.250000 0.648902 0.065386
O O23 0.346718 0.500000 0.065245
#
# Coordination Sequence:
#
# PCOD8213005 Si02
#       8
#     8   8   8   8   8   8   8   8
#     4  11  22  34  52  75  97 124 165 209 246 288
#     4   8  14  25  42  65  94 130 165 192 228 281
#     4  10  21  39  56  69  92 124 161 208 255 296
#     4   9  18  32  49  71 103 139 167 195 241 295
#     4  10  21  35  49  68  98 130 155 188 240 294
#     4   9  18  32  48  69 102 137 162 192 241 295
#     4  11  22  34  51  73  93 121 164 207 243 285
#     4   8  14  25  42  66  96 130 165 197 231 276
#
# _framework density 16.756302000000002
#
# number of rings (size 3 to 8) (size 9 to 14) (size 15 to 20)
#    0.000    2.500    1.250    3.000    0.000    5.500 
#    0.000    2.500    0.000    0.000    0.000    0.875 
#    0.000    7.000    0.000    0.000    0.000    0.000 
#
# Total GULP energy -793512.047015 kJ/mol
# GULP energy per Si atom -12398.625735 kJ/mol
# Density = 1.671816 g / cm^3
# Si number density = 16.756302 Si / 1000 Ang^3
#
#
#
# Elastic Constant Matrix: (Units=GPa)
#
#
# Indices 1 2 3 4 5 6 
#
# 1 53.0281 35.7316 35.3276 0.0000 0.0000 0.0000
# 2 35.7316 82.0204 65.5701 0.0000 0.0000 0.0000
# 3 35.3276 65.5701 128.8613 0.0000 0.0000 0.0000
# 4 0.0000 0.0000 0.0000 33.9866 0.0000 0.0000
# 5 0.0000 0.0000 0.0000 0.0000 6.1915 0.0000
# 6 0.0000 0.0000 0.0000 0.0000 0.0000 23.2765
#
#
#
# Elastic Compliance Matrix: (Units=1/GPa)
#
#
# Indices 1 2 3 4 5 6 
#
# 1 0.027127 -0.009899 -0.002400 0.000000 0.000000 0.000000
# 2 -0.009899 0.024165 -0.009582 0.000000 0.000000 0.000000
# 3 -0.002400 -0.009582 0.013294 0.000000 0.000000 0.000000
# 4 0.000000 0.000000 0.000000 0.029423 0.000000 0.000000
# 5 0.000000 0.000000 0.000000 0.000000 0.161513 0.000000
# 6 0.000000 0.000000 0.000000 0.000000 0.000000 0.042962
#
#
# Mechanical properties :
#
#
# Convention : Reuss Voigt Hill
#
# Bulk Modulus (GPa) = 48.02263 59.68538 53.85400
# Shear Modulus (GPa) = 14.31894 21.17628 17.74761
#
# Velocity S-wave (km/s) = 2.92642 3.55883 3.25800
# Velocity P-wave (km/s) = 6.33563 7.25148 6.80897
#
# Compressibility (1/GPa) = 0.02082352
#
# Stress axis : x y z
#
# Youngs Moduli (GPa) = 36.86362 41.38209 75.22145
#
# Poissons Ratio (x) = 0.40965 0.18052
# Poissons Ratio (y) = 0.36492 0.72080
# Poissons Ratio (z) = 0.08847 0.39654
#
# Static dielectric constant tensor:
#      x y z
#    x 2.827690 0.000000 0.000000 
#    y 0.000000 3.309980 0.000000 
#    z 0.000000 0.000000 3.277730 
# 
# 
# High freq. dielectric constant tensor:
#      x y z
#    x 1.607070 0.000000 0.000000 
#    y 0.000000 1.649290 0.000000 
#    z 0.000000 0.000000 1.653150 
# 
# From -- ./inp_files/30560.got.cif
#   From: 2010.03.12/outbox.cif.g09.slc.cpg/sg51_16_cif.got.tgz:30560.got - 2010.04.16 13:43:02.
