data_PCOD8213861
_publ_section_title
;
Structure prediction by ZEFSAII (Michael W. Deem and Ramdas Pophale) SiO2 
 PCOD8213861
Probable space group: P M M A
;
_chemical_formula_sum "Si O2"
_cell_formula_units_Z 64
_cell_length_a 8.925594
_cell_length_b 14.075086
_cell_length_c 30.954656
_cell_angle_alpha 90.000000
_cell_angle_beta 90.000000
_cell_angle_gamma 90.000000
_cell_volume 3888.787099
_symmetry_space_group_name_H-M "P M M A"
_symmetry_group_IT_number 51
_symmetry_cell_setting 'orthorhombic'
loop_
_space_group_symop_operation_xyz
x,y,z
1/2-x,-y,z
1/2+x,-y,-z
-x,y,-z
-x,-y,-z
1/2+x,y,-z
1/2-x,y,z
x,-y,z
loop_
_atom_site_type_symbol
_atom_site_label
_atom_site_fract_x
_atom_site_fract_y
_atom_site_fract_z
Si Si1 0.576746 0.888104 0.795247
Si Si2 0.425041 0.108098 0.628255
Si Si3 0.422266 0.607790 0.155967
Si Si4 0.075071 0.109872 0.045080
Si Si5 0.426847 0.787766 0.875466
Si Si6 0.918686 0.886844 0.542313
Si Si7 0.077734 0.607621 0.256802
Si Si8 0.574336 0.211811 0.284569
O O1 0.750000 0.859641 0.801286
O O2 0.484214 0.847191 0.834910
O O3 0.518070 0.845809 0.750720
O O4 0.553931 0.000000 0.793990
O O5 0.250000 0.112238 0.619135
O O6 0.504667 0.151162 0.585991
O O7 0.471507 0.171386 0.668954
O O8 0.476729 0.000000 0.637417
O O9 0.250000 0.624916 0.142989
O O10 0.469904 0.500000 0.145308
O O11 0.528189 0.677410 0.128923
O O12 0.444544 0.629518 0.206389
O O13 0.250000 0.132937 0.042456
O O14 0.000076 0.173312 0.081349
O O15 0.046183 0.000000 0.056478
O O16 0.000000 0.137513 0.000000
O O17 0.250000 0.797620 0.878600
O O18 0.750000 0.849490 0.541524
O O19 0.000000 0.844780 0.500000
O O20 0.928047 0.000000 0.541620
O O21 0.250000 0.624090 0.269859
O O22 0.029133 0.500000 0.267432
O O23 0.971267 0.677525 0.283792
O O24 0.750000 0.199620 0.275379
#
# Coordination Sequence:
#
# PCOD8213861 Si02
#       8
#     8   8   8   8   8   8   8   8
#     4  11  23  36  49  67  96 135 173 206 240 284
#     4   9  18  31  44  61  92 131 165 198 240 290
#     4   9  18  34  55  76 100 131 166 205 249 295
#     4  10  21  38  59  81 106 136 169 205 245 290
#     4  12  23  34  53  80 106 132 165 206 248 293
#     4   9  16  26  42  63  86 116 158 204 246 286
#     4   9  18  33  52  71  94 127 165 205 248 294
#     4  11  21  32  48  71  98 129 163 204 250 294
#
# _framework density 16.457573
#
# number of rings (size 3 to 8) (size 9 to 14) (size 15 to 20)
#    0.000    2.000    1.250    4.125    0.000    6.750 
#    0.000    2.500    0.000    0.375    0.000    0.000 
#    0.000    0.500    0.000    1.625    0.000    2.375 
#
# Total GULP energy -793748.875844 kJ/mol
# GULP energy per Si atom -12402.326185 kJ/mol
# Density = 1.642012 g / cm^3
# Si number density = 16.457573 Si / 1000 Ang^3
#
#
#
# Elastic Constant Matrix: (Units=GPa)
#
#
# Indices 1 2 3 4 5 6 
#
# 1 87.5924 44.5024 58.3495 0.0000 0.0000 0.0000
# 2 44.5024 82.8822 56.1378 0.0000 0.0000 0.0000
# 3 58.3495 56.1378 120.2532 0.0000 0.0000 0.0000
# 4 0.0000 0.0000 0.0000 9.9654 0.0000 0.0000
# 5 0.0000 0.0000 0.0000 0.0000 31.4896 0.0000
# 6 0.0000 0.0000 0.0000 0.0000 0.0000 23.4688
#
#
#
# Elastic Compliance Matrix: (Units=1/GPa)
#
#
# Indices 1 2 3 4 5 6 
#
# 1 0.018511 -0.005638 -0.006350 0.000000 0.000000 0.000000
# 2 -0.005638 0.019362 -0.006303 0.000000 0.000000 0.000000
# 3 -0.006350 -0.006303 0.014339 0.000000 0.000000 0.000000
# 4 0.000000 0.000000 0.000000 0.100347 0.000000 0.000000
# 5 0.000000 0.000000 0.000000 0.000000 0.031757 0.000000
# 6 0.000000 0.000000 0.000000 0.000000 0.000000 0.042610
#
#
# Mechanical properties :
#
#
# Convention : Reuss Voigt Hill
#
# Bulk Modulus (GPa) = 63.97930 67.63414 65.80672
# Shear Modulus (GPa) = 18.60690 21.76730 20.18710
#
# Velocity S-wave (km/s) = 3.36608 3.64074 3.50611
# Velocity P-wave (km/s) = 7.35303 7.67194 7.51418
#
# Compressibility (1/GPa) = 0.01563006
#
# Stress axis : x y z
#
# Youngs Moduli (GPa) = 54.02162 51.64809 69.73900
#
# Poissons Ratio (x) = 0.29121 0.44283
# Poissons Ratio (y) = 0.30460 0.43955
# Poissons Ratio (z) = 0.34303 0.32553
#
# Static dielectric constant tensor:
#      x y z
#    x 3.163070 0.000000 0.000000 
#    y 0.000000 3.055070 0.000000 
#    z 0.000000 0.000000 2.939760 
# 
# 
# High freq. dielectric constant tensor:
#      x y z
#    x 1.643910 0.000000 0.000000 
#    y 0.000000 1.615290 0.000000 
#    z 0.000000 0.000000 1.623810 
# 
# From -- ./inp_files/37565.got.cif
#   From: 2010.03.12/outbox.cif.g09.slc.cpg/sg51_19_cif.got.tgz:37565.got - 2010.04.16 13:43:02.
