data_PCOD8213530
_publ_section_title
;
Structure prediction by ZEFSAII (Michael W. Deem and Ramdas Pophale) SiO2 
 PCOD8213530
Probable space group: P M M A
;
_chemical_formula_sum "Si O2"
_cell_formula_units_Z 44
_cell_length_a 8.943507
_cell_length_b 10.633208
_cell_length_c 24.501680
_cell_angle_alpha 90.000000
_cell_angle_beta 90.000000
_cell_angle_gamma 90.000000
_cell_volume 2330.064934
_symmetry_space_group_name_H-M "P M M A"
_symmetry_group_IT_number 51
_symmetry_cell_setting 'orthorhombic'
loop_
_space_group_symop_operation_xyz
x,y,z
1/2-x,-y,z
1/2+x,-y,-z
-x,y,-z
-x,-y,-z
1/2+x,y,-z
1/2-x,y,z
x,-y,z
loop_
_atom_site_type_symbol
_atom_site_label
_atom_site_fract_x
_atom_site_fract_y
_atom_site_fract_z
Si Si1 0.926647 0.642519 0.360313
Si Si2 0.085107 0.855836 0.948786
Si Si3 0.573623 0.857790 0.442223
Si Si4 0.573614 0.285802 0.868660
Si Si5 0.072419 0.500000 0.940562
Si Si6 0.417940 0.353268 0.249893
O O1 0.750000 0.641528 0.361677
O O2 0.986357 0.500000 0.374411
O O3 0.988353 0.749306 0.401599
O O4 0.977049 0.684189 0.300139
O O5 0.250000 0.793213 0.941864
O O6 0.981502 0.845703 0.894291
O O7 0.108374 0.000000 0.962255
O O8 0.000000 0.790360 0.000000
O O9 0.500000 0.830142 0.500000
O O10 0.750000 0.845309 0.449018
O O11 0.532123 0.000000 0.421840
O O12 0.750000 0.310902 0.873562
O O13 0.481038 0.381189 0.905858
O O14 0.525141 0.286572 0.805231
O O15 0.250000 0.500000 0.946339
O O16 0.000000 0.500000 0.000000
O O17 0.250000 0.310930 0.264865
O O18 0.424456 0.500000 0.237337
#
# Coordination Sequence:
#
# PCOD8213530 Si02
#       6
#     8   8   8   8   4   8
#     4   9  18  32  51  76 104 135 175 219 260 308
#     4  10  21  37  55  75  99 130 170 213 260 316
#     4   9  18  33  52  75 106 142 176 213 261 313
#     4  11  21  36  55  76 104 134 169 213 262 315
#     4  12  24  36  52  76 106 136 169 210 263 318
#     4   9  18  34  53  74 102 135 170 210 257 306
#
# _framework density 18.883592
#
# number of rings (size 3 to 8) (size 9 to 14) (size 15 to 20)
#    0.000    2.182    0.909    2.455    0.000    3.636 
#    0.000    0.909    0.000    3.273    0.000    0.000 
#    0.000    0.000    0.000    0.000    0.000    0.000 
#
# Total GULP energy -545286.957249 kJ/mol
# GULP energy per Si atom -12392.885392 kJ/mol
# Density = 1.884061 g / cm^3
# Si number density = 18.883592 Si / 1000 Ang^3
#
#
#
# Elastic Constant Matrix: (Units=GPa)
#
#
# Indices 1 2 3 4 5 6 
#
# 1 68.2895 30.5297 48.4409 0.0000 0.0000 0.0000
# 2 30.5297 78.8793 68.7708 0.0000 0.0000 0.0000
# 3 48.4409 68.7708 150.6045 0.0000 0.0000 0.0000
# 4 0.0000 0.0000 0.0000 26.1409 0.0000 0.0000
# 5 0.0000 0.0000 0.0000 0.0000 35.8373 0.0000
# 6 0.0000 0.0000 0.0000 0.0000 0.0000 20.4488
#
#
#
# Elastic Compliance Matrix: (Units=1/GPa)
#
#
# Indices 1 2 3 4 5 6 
#
# 1 0.019524 -0.003459 -0.004700 0.000000 0.000000 0.000000
# 2 -0.003459 0.021676 -0.008785 0.000000 0.000000 0.000000
# 3 -0.004700 -0.008785 0.012164 0.000000 0.000000 0.000000
# 4 0.000000 0.000000 0.000000 0.038254 0.000000 0.000000
# 5 0.000000 0.000000 0.000000 0.000000 0.027904 0.000000
# 6 0.000000 0.000000 0.000000 0.000000 0.000000 0.048903
#
#
# Mechanical properties :
#
#
# Convention : Reuss Voigt Hill
#
# Bulk Modulus (GPa) = 51.34954 65.91737 58.63345
# Shear Modulus (GPa) = 23.94585 26.48751 25.21668
#
# Velocity S-wave (km/s) = 3.56487 3.74929 3.65824
# Velocity P-wave (km/s) = 6.64802 7.32980 6.99721
#
# Compressibility (1/GPa) = 0.01947437
#
# Stress axis : x y z
#
# Youngs Moduli (GPa) = 51.21897 46.13444 82.21316
#
# Poissons Ratio (x) = 0.15956 0.38644
# Poissons Ratio (y) = 0.17714 0.72228
# Poissons Ratio (z) = 0.24075 0.40531
#
# Static dielectric constant tensor:
#      x y z
#    x 3.628980 0.000000 0.000000 
#    y 0.000000 4.082850 0.000000 
#    z 0.000000 0.000000 3.487730 
# 
# 
# High freq. dielectric constant tensor:
#      x y z
#    x 1.735340 0.000000 0.000000 
#    y 0.000000 1.725090 0.000000 
#    z 0.000000 0.000000 1.729830 
# 
# From -- ./inp_files/34559.got.cif
#   From: 2010.03.12/outbox.cif.g09.slc.cpg/sg51_18_cif.got.tgz:34559.got - 2010.04.16 13:43:02.
