data_PCOD8213087
_publ_section_title
;
Structure prediction by ZEFSAII (Michael W. Deem and Ramdas Pophale) SiO2 
 PCOD8213087
Probable space group: P M M A
;
_chemical_formula_sum "Si O2"
_cell_formula_units_Z 48
_cell_length_a 14.254969
_cell_length_b 9.288620
_cell_length_c 20.945532
_cell_angle_alpha 90.000000
_cell_angle_beta 90.000000
_cell_angle_gamma 90.000000
_cell_volume 2773.376740
_symmetry_space_group_name_H-M "P M M A"
_symmetry_group_IT_number 51
_symmetry_cell_setting 'orthorhombic'
loop_
_space_group_symop_operation_xyz
x,y,z
1/2-x,-y,z
1/2+x,-y,-z
-x,y,-z
-x,-y,-z
1/2+x,y,-z
1/2-x,y,z
x,-y,z
loop_
_atom_site_type_symbol
_atom_site_label
_atom_site_fract_x
_atom_site_fract_y
_atom_site_fract_z
Si Si1 0.142191 0.667290 0.342254
Si Si2 1.000000 0.833228 0.575109
Si Si3 0.642191 0.667290 0.342254
Si Si4 0.500000 0.335968 0.766841
Si Si5 0.145982 0.171143 0.000000
Si Si6 0.000000 0.170206 0.897242
O O1 0.250000 0.714189 0.336417
O O2 0.131222 0.500000 0.360627
O O3 0.093724 0.759943 0.397504
O O4 0.092425 0.698137 0.274716
O O5 0.000000 0.811220 0.500000
O O6 0.093723 0.759943 0.602496
O O7 1.000000 0.000000 0.594611
O O8 0.750000 0.714189 0.336417
O O9 0.631222 0.500000 0.360627
O O10 0.592425 0.698137 0.274716
O O11 0.500000 0.500000 0.790269
O O12 0.500000 0.235533 0.827629
O O13 0.250000 0.239129 0.000000
O O14 0.091656 0.222554 0.063607
O O15 0.150096 0.000000 1.000000
O O16 0.091656 0.222554 0.936393
O O17 0.000000 0.000000 0.889826
#
# Coordination Sequence:
#
# PCOD8213087 Si02
#       6
#     8   8   8   8   8   8
#     4   9  19  36  55  73  96 131 172 206 238 286
#     4  10  21  35  51  75 106 133 158 198 252 299
#     4   9  19  36  55  73  96 131 172 206 238 286
#     4   9  18  32  49  71 100 127 153 197 251 291
#     4   8  15  29  46  64  90 122 156 196 236 276
#     4   9  17  29  47  69  90 119 160 196 231 285
#
# _framework density 17.307421000000001
#
# number of rings (size 3 to 8) (size 9 to 14) (size 15 to 20)
#    0.000    3.000    0.000    2.500    0.000    6.667 
#    0.000    5.000    0.000    1.000    0.000    0.000 
#    0.000    0.000    0.000    0.000    0.000    0.000 
#
# Total GULP energy -595135.653913 kJ/mol
# GULP energy per Si atom -12398.659457 kJ/mol
# Density = 1.726803 g / cm^3
# Si number density = 17.307421 Si / 1000 Ang^3
#
#
#
# Elastic Constant Matrix: (Units=GPa)
#
#
# Indices 1 2 3 4 5 6 
#
# 1 182.8345 51.7516 74.0794 0.0000 0.0000 0.0000
# 2 51.7516 64.9416 61.7395 0.0000 0.0000 0.0000
# 3 74.0794 61.7395 125.5563 0.0000 0.0000 0.0000
# 4 0.0000 0.0000 0.0000 -53.1831 0.0000 0.0000
# 5 0.0000 0.0000 0.0000 0.0000 13.0590 0.0000
# 6 0.0000 0.0000 0.0000 0.0000 0.0000 10.5825
#
#
#
# Elastic Compliance Matrix: (Units=1/GPa)
#
#
# Indices 1 2 3 4 5 6 
#
# 1 0.007557 -0.003349 -0.002812 0.000000 0.000000 0.000000
# 2 -0.003349 0.030400 -0.012973 0.000000 0.000000 0.000000
# 3 -0.002812 -0.012973 0.016003 0.000000 0.000000 0.000000
# 4 0.000000 0.000000 0.000000 -0.018803 0.000000 0.000000
# 5 0.000000 0.000000 0.000000 0.000000 0.076575 0.000000
# 6 0.000000 0.000000 0.000000 0.000000 0.000000 0.094496
#
#
# Mechanical properties :
#
#
# Convention : Reuss Voigt Hill
#
# Bulk Modulus (GPa) = 63.72368 83.16370 73.44369
# Shear Modulus (GPa) = 20.02202 6.47581 13.24892
#
# Velocity S-wave (km/s) = 3.40493 1.93643 2.76978
# Velocity P-wave (km/s) = 7.23580 7.29074 7.26332
#
# Compressibility (1/GPa) = 0.01569275
#
# Stress axis : x y z
#
# Youngs Moduli (GPa) = 132.33603 32.89463 62.48943
#
# Poissons Ratio (x) = 0.11015 0.17571
# Poissons Ratio (y) = 0.44313 0.81067
# Poissons Ratio (z) = 0.37211 0.42674
#
# Static dielectric constant tensor:
#      x y z
#    x 3.702480 0.000000 0.000000 
#    y 0.000000 3.043900 0.000000 
#    z 0.000000 0.000000 3.092840 
# 
# 
# High freq. dielectric constant tensor:
#      x y z
#    x 1.677130 0.000000 0.000000 
#    y 0.000000 1.649950 0.000000 
#    z 0.000000 0.000000 1.666190 
# 
# From -- ./inp_files/33186.got.cif
#   From: 2010.03.12/outbox.cif.g09.slc.cpg/sg51_17_cif.got.tgz:33186.got - 2010.04.16 13:43:02.
