data_PCOD8213856
_publ_section_title
;
Structure prediction by ZEFSAII (Michael W. Deem and Ramdas Pophale) SiO2 
 PCOD8213856
Probable space group: P M M A
;
_chemical_formula_sum "Si O2"
_cell_formula_units_Z 36
_cell_length_a 8.671675
_cell_length_b 22.718260
_cell_length_c 9.059292
_cell_angle_alpha 90.000000
_cell_angle_beta 90.000000
_cell_angle_gamma 90.000000
_cell_volume 1784.729148
_symmetry_space_group_name_H-M "P M M A"
_symmetry_group_IT_number 51
_symmetry_cell_setting 'orthorhombic'
loop_
_space_group_symop_operation_xyz
x,y,z
1/2-x,-y,z
1/2+x,-y,-z
-x,y,-z
-x,-y,-z
1/2+x,y,-z
1/2-x,y,z
x,-y,z
loop_
_atom_site_type_symbol
_atom_site_label
_atom_site_fract_x
_atom_site_fract_y
_atom_site_fract_z
Si Si1 0.931815 0.112888 0.661072
Si Si2 0.567542 0.667241 0.340485
Si Si3 0.432908 0.000000 0.161623
Si Si4 0.069894 0.431645 0.156143
Si Si5 0.567045 0.227147 0.840018
O O1 0.750000 0.109753 0.648807
O O2 0.985304 0.172960 0.738224
O O3 0.000000 0.110287 0.500000
O O4 0.995070 0.057610 0.753882
O O5 0.500000 0.682275 0.500000
O O6 0.750000 0.669622 0.349431
O O7 0.512741 0.602918 0.288388
O O8 0.506274 0.713706 0.222640
O O9 0.250000 0.000000 0.151636
O O10 0.500000 0.000000 0.000000
O O11 0.250000 0.416952 0.155341
O O12 0.036818 0.500000 0.185084
O O13 0.000000 0.411454 0.000000
O O14 0.750000 0.234118 0.847607
O O15 0.500000 0.214479 0.000000
#
# Coordination Sequence:
#
# PCOD8213856 Si02
#       5
#     8   8   4   8   8
#     4  10  22  38  59  86 118 153 193 240 291 347
#     4  12  25  41  61  86 118 155 195 242 293 347
#     4  10  21  38  58  86 118 152 195 240 288 344
#     4  10  21  39  63  90 120 155 195 239 288 344
#     4  11  23  40  61  87 117 153 196 241 291 348
#
# _framework density 20.171129000000001
#
# number of rings (size 3 to 8) (size 9 to 14) (size 15 to 20)
#    0.000    1.333    0.000    5.667    0.000    6.222 
#    0.000    0.000    0.000    0.000    0.000    0.000 
#    0.000    0.000    0.000    0.000    0.000    0.000 
#
# Total GULP energy -446650.791630 kJ/mol
# GULP energy per Si atom -12406.966434 kJ/mol
# Density = 2.012522 g / cm^3
# Si number density = 20.171129 Si / 1000 Ang^3
#
#
#
# Elastic Constant Matrix: (Units=GPa)
#
#
# Indices 1 2 3 4 5 6 
#
# 1 101.0612 45.3095 48.0866 0.0000 0.0000 0.0000
# 2 45.3095 113.5977 58.6710 0.0000 0.0000 0.0000
# 3 48.0866 58.6710 155.3290 0.0000 0.0000 0.0000
# 4 0.0000 0.0000 0.0000 52.4302 0.0000 0.0000
# 5 0.0000 0.0000 0.0000 0.0000 43.5659 0.0000
# 6 0.0000 0.0000 0.0000 0.0000 0.0000 16.7448
#
#
#
# Elastic Compliance Matrix: (Units=1/GPa)
#
#
# Indices 1 2 3 4 5 6 
#
# 1 0.012802 -0.003801 -0.002528 0.000000 0.000000 0.000000
# 2 -0.003801 0.012065 -0.003381 0.000000 0.000000 0.000000
# 3 -0.002528 -0.003381 0.008497 0.000000 0.000000 0.000000
# 4 0.000000 0.000000 0.000000 0.019073 0.000000 0.000000
# 5 0.000000 0.000000 0.000000 0.000000 0.022954 0.000000
# 6 0.000000 0.000000 0.000000 0.000000 0.000000 0.059720
#
#
# Mechanical properties :
#
#
# Convention : Reuss Voigt Hill
#
# Bulk Modulus (GPa) = 71.70313 74.90244 73.30278
# Shear Modulus (GPa) = 31.41159 37.07623 34.24391
#
# Velocity S-wave (km/s) = 3.95049 4.29194 4.12475
# Velocity P-wave (km/s) = 7.51219 7.85971 7.68792
#
# Compressibility (1/GPa) = 0.01394639
#
# Stress axis : x y z
#
# Youngs Moduli (GPa) = 78.11530 82.88502 117.68396
#
# Poissons Ratio (x) = 0.31501 0.29745
# Poissons Ratio (y) = 0.29689 0.39784
# Poissons Ratio (z) = 0.19744 0.28020
#
# Static dielectric constant tensor:
#      x y z
#    x 3.690520 0.000000 0.000000 
#    y 0.000000 3.936830 0.000000 
#    z 0.000000 0.000000 3.401970 
# 
# 
# High freq. dielectric constant tensor:
#      x y z
#    x 1.793010 0.000000 0.000000 
#    y 0.000000 1.804910 0.000000 
#    z 0.000000 0.000000 1.799200 
# 
# From -- ./inp_files/5010.got.cif
#   From: 2010.03.12/outbox.cif.g09.slc.cpg/sg51_3_cif.got.tgz:5010.got - 2010.04.16 13:43:02.
