data_PCOD8213948
_publ_section_title
;
Structure prediction by ZEFSAII (Michael W. Deem and Ramdas Pophale) SiO2 
 PCOD8213948
Probable space group: P M M A
;
_chemical_formula_sum "Si O2"
_cell_formula_units_Z 64
_cell_length_a 8.959512
_cell_length_b 14.493950
_cell_length_c 24.962232
_cell_angle_alpha 90.000000
_cell_angle_beta 90.000000
_cell_angle_gamma 90.000000
_cell_volume 3241.563470
_symmetry_space_group_name_H-M "P M M A"
_symmetry_group_IT_number 51
_symmetry_cell_setting 'orthorhombic'
loop_
_space_group_symop_operation_xyz
x,y,z
1/2-x,-y,z
1/2+x,-y,-z
-x,y,-z
-x,-y,-z
1/2+x,y,-z
1/2-x,y,z
x,-y,z
loop_
_atom_site_type_symbol
_atom_site_label
_atom_site_fract_x
_atom_site_fract_y
_atom_site_fract_z
Si Si1 0.918538 0.397402 0.423729
Si Si2 0.924067 0.235511 0.752819
Si Si3 0.925923 0.213283 0.552978
Si Si4 0.084013 0.397190 0.702698
Si Si5 0.423679 0.102886 0.947605
Si Si6 0.925033 0.256075 0.134677
Si Si7 0.423704 0.392075 0.055286
Si Si8 0.427307 0.104688 0.342465
O O1 0.750000 0.372907 0.442193
O O2 0.963469 0.500000 0.444537
O O3 0.928177 0.397012 0.360416
O O4 0.032009 0.321591 0.446268
O O5 0.750000 0.225423 0.765865
O O6 0.979789 0.155388 0.712060
O O7 0.953696 0.333898 0.725764
O O8 0.018381 0.232560 0.806557
O O9 0.750000 0.202707 0.548938
O O10 0.988460 0.159944 0.605514
O O11 0.000000 0.168020 0.500000
O O12 0.250000 0.362898 0.720161
O O13 0.057541 0.500000 0.725207
O O14 0.250000 0.102192 0.958926
O O15 0.466222 0.164220 0.897322
O O16 0.484842 0.000000 0.936269
O O17 0.500000 0.145970 0.000000
O O18 0.750000 0.277752 0.135736
O O19 0.006303 0.342494 0.107044
O O20 0.250000 0.367723 0.051306
O O21 0.451859 0.500000 0.064003
O O22 0.500000 0.358409 0.000000
O O23 0.250000 0.104611 0.344680
O O24 0.489978 0.000000 0.342684
#
# Coordination Sequence:
#
# PCOD8213948 Si02
#       8
#     8   8   8   8   8   8   8   8
#     4   9  18  34  57  84 115 150 185 224 272 329
#     4  11  22  37  58  84 112 147 190 235 284 338
#     4  11  22  37  59  87 117 151 189 236 287 339
#     4   9  18  34  57  82 110 145 181 221 272 328
#     4   9  19  36  57  81 110 143 180 224 276 332
#     4  11  23  37  56  83 116 153 191 237 286 336
#     4  10  21  38  60  86 118 157 200 245 291 341
#     4   9  20  40  62  83 111 147 188 236 291 349
#
# _framework density 19.743558
#
# number of rings (size 3 to 8) (size 9 to 14) (size 15 to 20)
#    0.000    2.125    1.250    2.625    0.000    4.750 
#    0.000    1.250    0.000    5.250    0.000    0.000 
#    0.000    0.000    0.000    0.000    0.000    0.000 
#
# Total GULP energy -793544.234895 kJ/mol
# GULP energy per Si atom -12399.128670 kJ/mol
# Density = 1.969862 g / cm^3
# Si number density = 19.743558 Si / 1000 Ang^3
#
#
#
# Elastic Constant Matrix: (Units=GPa)
#
#
# Indices 1 2 3 4 5 6 
#
# 1 68.0670 41.3943 44.5065 0.0000 0.0000 0.0000
# 2 41.3943 107.6860 61.2734 0.0000 0.0000 0.0000
# 3 44.5065 61.2734 133.4064 0.0000 0.0000 0.0000
# 4 0.0000 0.0000 0.0000 16.7075 0.0000 0.0000
# 5 0.0000 0.0000 0.0000 0.0000 34.7139 0.0000
# 6 0.0000 0.0000 0.0000 0.0000 0.0000 18.7673
#
#
#
# Elastic Compliance Matrix: (Units=1/GPa)
#
#
# Indices 1 2 3 4 5 6 
#
# 1 0.020964 -0.005522 -0.004458 0.000000 0.000000 0.000000
# 2 -0.005522 0.014026 -0.004600 0.000000 0.000000 0.000000
# 3 -0.004458 -0.004600 0.011096 0.000000 0.000000 0.000000
# 4 0.000000 0.000000 0.000000 0.059854 0.000000 0.000000
# 5 0.000000 0.000000 0.000000 0.000000 0.028807 0.000000
# 6 0.000000 0.000000 0.000000 0.000000 0.000000 0.053284
#
#
# Mechanical properties :
#
#
# Convention : Reuss Voigt Hill
#
# Bulk Modulus (GPa) = 59.07809 67.05642 63.06725
# Shear Modulus (GPa) = 22.43831 24.83677 23.63754
#
# Velocity S-wave (km/s) = 3.37484 3.55063 3.46385
# Velocity P-wave (km/s) = 6.72114 7.13069 6.92894
#
# Compressibility (1/GPa) = 0.01692675
#
# Stress axis : x y z
#
# Youngs Moduli (GPa) = 47.69984 71.29416 90.12399
#
# Poissons Ratio (x) = 0.39370 0.40175
# Poissons Ratio (y) = 0.26341 0.41457
# Poissons Ratio (z) = 0.21263 0.32795
#
# Static dielectric constant tensor:
#      x y z
#    x 3.383080 0.000000 0.000000 
#    y 0.000000 4.065390 0.000000 
#    z 0.000000 0.000000 2.635920 
# 
# 
# High freq. dielectric constant tensor:
#      x y z
#    x 1.758080 0.000000 0.000000 
#    y 0.000000 1.770790 0.000000 
#    z 0.000000 0.000000 1.774000 
# 
# From -- ./inp_files/34996.got.cif
#   From: 2010.03.12/outbox.cif.g09.slc.cpg/sg51_18_cif.got.tgz:34996.got - 2010.04.16 13:43:02.
