data_PCOD8213677
_publ_section_title
;
Structure prediction by ZEFSAII (Michael W. Deem and Ramdas Pophale) SiO2 
 PCOD8213677
Probable space group: P M M A
;
_chemical_formula_sum "Si O2"
_cell_formula_units_Z 48
_cell_length_a 8.728316
_cell_length_b 29.992683
_cell_length_c 9.475591
_cell_angle_alpha 90.000000
_cell_angle_beta 90.000000
_cell_angle_gamma 90.000000
_cell_volume 2480.573417
_symmetry_space_group_name_H-M "P M M A"
_symmetry_group_IT_number 51
_symmetry_cell_setting 'orthorhombic'
loop_
_space_group_symop_operation_xyz
x,y,z
1/2-x,-y,z
1/2+x,-y,-z
-x,y,-z
-x,-y,-z
1/2+x,y,-z
1/2-x,y,z
x,-y,z
loop_
_atom_site_type_symbol
_atom_site_label
_atom_site_fract_x
_atom_site_fract_y
_atom_site_fract_z
Si Si1 0.926125 0.049270 0.151306
Si Si2 0.932471 0.706755 0.155522
Si Si3 0.068514 0.779063 0.350491
Si Si4 0.428670 0.881222 0.355411
Si Si5 0.931626 0.370994 0.655162
Si Si6 0.070352 0.450048 0.145588
O O1 0.750000 0.063234 0.139517
O O2 0.014366 0.087036 0.233887
O O3 0.943029 0.000000 0.221735
O O4 0.000000 0.047576 0.000000
O O5 0.750000 0.706328 0.147686
O O6 0.990823 0.752857 0.222350
O O7 0.991557 0.667161 0.253024
O O8 0.000000 0.701129 0.000000
O O9 0.250000 0.770850 0.351671
O O10 0.023689 0.830384 0.323652
O O11 0.000000 0.762529 0.500000
O O12 0.500000 0.898438 0.500000
O O13 0.250000 0.885664 0.370681
O O14 0.750000 0.363217 0.649659
O O15 0.976051 0.418293 0.725162
O O16 0.000000 0.370176 0.500000
O O17 0.250000 0.450148 0.123404
O O18 0.009106 0.500000 0.178812
O O19 0.000000 0.431619 0.000000
#
# Coordination Sequence:
#
# PCOD8213677 Si02
#       6
#     8   8   8   8   8   8
#     4  10  21  37  57  81 111 148 189 233 281 333
#     4  12  25  41  61  85 114 148 188 233 281 334
#     4  10  21  39  61  86 115 148 186 228 279 334
#     4  10  21  37  59  85 114 148 186 230 278 332
#     4  11  23  39  59  84 116 152 191 235 283 335
#     4   9  19  36  58  84 114 149 189 233 282 335
#
# _framework density 19.350366000000001
#
# number of rings (size 3 to 8) (size 9 to 14) (size 15 to 20)
#    0.000    1.667    0.000    4.500    0.000    7.000 
#    0.000    0.000    0.000    0.000    0.000    0.000 
#    0.000    0.000    0.000    0.000    0.000    0.000 
#
# Total GULP energy -595312.198922 kJ/mol
# GULP energy per Si atom -12402.337478 kJ/mol
# Density = 1.930632 g / cm^3
# Si number density = 19.350366 Si / 1000 Ang^3
#
#
#
# Elastic Constant Matrix: (Units=GPa)
#
#
# Indices 1 2 3 4 5 6 
#
# 1 82.5266 43.8446 47.0306 0.0000 0.0000 0.0000
# 2 43.8446 102.9767 69.8345 0.0000 0.0000 0.0000
# 3 47.0306 69.8345 142.6043 0.0000 0.0000 0.0000
# 4 0.0000 0.0000 0.0000 39.0541 0.0000 0.0000
# 5 0.0000 0.0000 0.0000 0.0000 41.1665 0.0000
# 6 0.0000 0.0000 0.0000 0.0000 0.0000 30.2764
#
#
#
# Elastic Compliance Matrix: (Units=1/GPa)
#
#
# Indices 1 2 3 4 5 6 
#
# 1 0.016470 -0.004984 -0.002991 0.000000 0.000000 0.000000
# 2 -0.004984 0.016048 -0.006215 0.000000 0.000000 0.000000
# 3 -0.002991 -0.006215 0.011042 0.000000 0.000000 0.000000
# 4 0.000000 0.000000 0.000000 0.025606 0.000000 0.000000
# 5 0.000000 0.000000 0.000000 0.000000 0.024292 0.000000
# 6 0.000000 0.000000 0.000000 0.000000 0.000000 0.033029
#
#
# Mechanical properties :
#
#
# Convention : Reuss Voigt Hill
#
# Bulk Modulus (GPa) = 65.87668 72.16967 69.02317
# Shear Modulus (GPa) = 31.26452 33.25927 32.26189
#
# Velocity S-wave (km/s) = 4.02395 4.15033 4.08763
# Velocity P-wave (km/s) = 7.46375 7.76816 7.61747
#
# Compressibility (1/GPa) = 0.01517988
#
# Stress axis : x y z
#
# Youngs Moduli (GPa) = 60.71764 62.31417 90.56036
#
# Poissons Ratio (x) = 0.31057 0.27086
# Poissons Ratio (y) = 0.30261 0.56283
# Poissons Ratio (z) = 0.18160 0.38728
#
# Static dielectric constant tensor:
#      x y z
#    x 3.680020 0.000000 0.000000 
#    y 0.000000 3.940560 0.000000 
#    z 0.000000 0.000000 3.588300 
# 
# 
# High freq. dielectric constant tensor:
#      x y z
#    x 1.768010 0.000000 0.000000 
#    y 0.000000 1.765940 0.000000 
#    z 0.000000 0.000000 1.754040 
# 
# From -- ./inp_files/5953.got.cif
#   From: 2010.03.12/outbox.cif.g09.slc.cpg/sg51_3_cif.got.tgz:5953.got - 2010.04.16 13:43:02.
