data_PCOD8213327
_publ_section_title
;
Structure prediction by ZEFSAII (Michael W. Deem and Ramdas Pophale) SiO2 
 PCOD8213327
Probable space group: P M M A
;
_chemical_formula_sum "Si O2"
_cell_formula_units_Z 48
_cell_length_a 16.153948
_cell_length_b 9.174179
_cell_length_c 18.000271
_cell_angle_alpha 90.000000
_cell_angle_beta 90.000000
_cell_angle_gamma 90.000000
_cell_volume 2667.625951
_symmetry_space_group_name_H-M "P M M A"
_symmetry_group_IT_number 51
_symmetry_cell_setting 'orthorhombic'
loop_
_space_group_symop_operation_xyz
x,y,z
1/2-x,-y,z
1/2+x,-y,-z
-x,y,-z
-x,-y,-z
1/2+x,y,-z
1/2-x,y,z
x,-y,z
loop_
_atom_site_type_symbol
_atom_site_label
_atom_site_fract_x
_atom_site_fract_y
_atom_site_fract_z
Si Si1 0.907952 0.670662 0.473255
Si Si2 0.156334 0.332528 0.837864
Si Si3 0.250000 0.825521 0.454121
Si Si4 0.750000 0.827416 0.716412
Si Si5 0.980818 0.827643 0.081627
Si Si6 0.421839 0.172511 0.224266
Si Si7 0.441140 0.666662 0.693085
O O1 0.893126 0.500000 0.490137
O O2 0.834460 0.762125 0.510912
O O3 0.902544 0.706796 0.386076
O O4 0.000000 0.718032 0.500000
O O5 0.250000 0.283650 0.845460
O O6 0.142094 0.500000 0.859445
O O7 0.107689 0.233696 0.895736
O O8 0.129750 0.303145 0.753322
O O9 0.250000 0.775039 0.368512
O O10 0.250000 0.000000 0.463436
O O11 0.829842 0.767518 0.760589
O O12 0.750000 0.000000 0.718279
O O13 0.049235 0.775299 0.142128
O O14 0.975302 0.000000 0.079789
O O15 0.000000 0.764892 0.000000
O O16 0.479556 0.235312 0.289083
O O17 0.426524 0.000000 0.230718
O O18 0.471572 0.500000 0.694064
#
# Coordination Sequence:
#
# PCOD8213327 Si02
#       7
#     8   8   4   4   8   8   8
#     4  10  21  36  54  77 105 139 177 218 267 318
#     4   9  18  32  51  74  97 131 170 201 243 296
#     4  11  23  35  51  77 106 137 176 222 267 311
#     4   9  18  33  51  71  96 133 174 206 245 299
#     4   9  18  33  51  76 105 130 161 202 249 296
#     4   9  17  32  53  73  98 133 171 207 246 298
#     4   9  18  32  52  73  99 132 169 208 252 301
#
# _framework density 17.993527
#
# number of rings (size 3 to 8) (size 9 to 14) (size 15 to 20)
#    0.000    2.667    0.000    1.250    1.167    1.667 
#    1.500    1.250    0.000    0.000    0.000    0.000 
#    0.000    0.000    0.000    0.000    0.000    0.000 
#
# Total GULP energy -595104.919544 kJ/mol
# GULP energy per Si atom -12398.019157 kJ/mol
# Density = 1.795257 g / cm^3
# Si number density = 17.993527 Si / 1000 Ang^3
#
#
#
# Elastic Constant Matrix: (Units=GPa)
#
#
# Indices 1 2 3 4 5 6 
#
# 1 152.7775 36.2821 77.4649 0.0000 0.0000 0.0000
# 2 36.2821 28.5143 33.1984 0.0000 0.0000 0.0000
# 3 77.4649 33.1984 133.7724 0.0000 0.0000 0.0000
# 4 0.0000 0.0000 0.0000 20.3013 0.0000 0.0000
# 5 0.0000 0.0000 0.0000 0.0000 18.9035 0.0000
# 6 0.0000 0.0000 0.0000 0.0000 0.0000 -239.5363
#
#
#
# Elastic Compliance Matrix: (Units=1/GPa)
#
#
# Indices 1 2 3 4 5 6 
#
# 1 0.010687 -0.008991 -0.003957 0.000000 0.000000 0.000000
# 2 -0.008991 0.056885 -0.008911 0.000000 0.000000 0.000000
# 3 -0.003957 -0.008911 0.011978 0.000000 0.000000 0.000000
# 4 0.000000 0.000000 0.000000 0.049258 0.000000 0.000000
# 5 0.000000 0.000000 0.000000 0.000000 0.052900 0.000000
# 6 0.000000 0.000000 0.000000 0.000000 0.000000 -0.004175
#
#
# Mechanical properties :
#
#
# Convention : Reuss Voigt Hill
#
# Bulk Modulus (GPa) = 27.90776 67.66168 47.78472
# Shear Modulus (GPa) = 21.44111 -28.85839 -3.70864
#
# Velocity S-wave (km/s) = 3.45570 -4.00912 -1.43721
# Velocity P-wave (km/s) = 5.60946 4.03166 4.88469
#
# Compressibility (1/GPa) = 0.03583233
#
# Stress axis : x y z
#
# Youngs Moduli (GPa) = 93.56858 17.57930 83.48351
#
# Poissons Ratio (x) = 0.15806 0.33038
# Poissons Ratio (y) = 0.84130 0.74389
# Poissons Ratio (z) = 0.37030 0.15664
#
# Static dielectric constant tensor:
#      x y z
#    x 3.509450 0.000000 0.000000 
#    y 0.000000 3.176510 0.000000 
#    z 0.000000 0.000000 3.543010 
# 
# 
# High freq. dielectric constant tensor:
#      x y z
#    x 1.700800 0.000000 0.000000 
#    y 0.000000 1.681000 0.000000 
#    z 0.000000 0.000000 1.701850 
# 
# From -- ./inp_files/29498.got.cif
#   From: 2010.03.12/outbox.cif.g09.slc.cpg/sg51_15_cif.got.tgz:29498.got - 2010.04.16 13:43:02.
