data_PCOD8213113
_publ_section_title
;
Structure prediction by ZEFSAII (Michael W. Deem and Ramdas Pophale) SiO2 
 PCOD8213113
Probable space group: P M M A
;
_chemical_formula_sum "Si O2"
_cell_formula_units_Z 48
_cell_length_a 8.880564
_cell_length_b 30.574013
_cell_length_c 9.164650
_cell_angle_alpha 90.000000
_cell_angle_beta 90.000000
_cell_angle_gamma 90.000000
_cell_volume 2488.335172
_symmetry_space_group_name_H-M "P M M A"
_symmetry_group_IT_number 51
_symmetry_cell_setting 'orthorhombic'
loop_
_space_group_symop_operation_xyz
x,y,z
1/2-x,-y,z
1/2+x,-y,-z
-x,y,-z
-x,-y,-z
1/2+x,y,-z
1/2-x,y,z
x,-y,z
loop_
_atom_site_type_symbol
_atom_site_label
_atom_site_fract_x
_atom_site_fract_y
_atom_site_fract_z
Si Si1 0.072160 0.500000 0.842146
Si Si2 0.930420 0.000000 0.659084
Si Si3 0.072425 0.255519 0.650947
Si Si4 0.571826 0.076942 0.157613
Si Si5 0.927708 0.416882 0.342577
Si Si6 0.925055 0.842492 0.351349
Si Si7 0.927482 0.334549 0.155605
O O1 0.250000 0.500000 0.861957
O O2 0.016538 0.457510 0.754374
O O3 0.000000 0.500000 0.000000
O O4 0.000000 0.000000 0.500000
O O5 0.989409 0.042699 0.739907
O O6 0.750000 0.000000 0.652439
O O7 0.250000 0.258196 0.630868
O O8 0.018510 0.206271 0.690997
O O9 0.018691 0.288025 0.778594
O O10 0.000000 0.271119 0.500000
O O11 0.750000 0.067239 0.151471
O O12 0.536005 0.125208 0.218947
O O13 0.500000 0.073053 0.000000
O O14 0.750000 0.417676 0.362703
O O15 0.982336 0.372643 0.263837
O O16 0.000000 0.420069 0.500000
O O17 0.750000 0.842079 0.384522
O O18 0.000000 0.859489 0.500000
O O19 0.750000 0.336150 0.135138
O O20 0.000000 0.341902 0.000000
#
# Coordination Sequence:
#
# PCOD8213113 Si02
#       7
#     4   4   8   8   8   8   8
#     4  10  21  36  54  78 108 138 175 218 264 316
#     4  12  25  42  63  86 112 144 182 224 269 320
#     4   9  18  34  54  78 106 138 177 221 265 316
#     4  11  23  39  58  83 114 147 182 223 270 320
#     4  10  21  36  54  78 105 137 177 221 264 315
#     4   9  19  35  56  80 108 141 179 221 266 316
#     4  10  21  35  52  76 107 139 176 219 266 318
#
# _framework density 19.290006000000002
#
# number of rings (size 3 to 8) (size 9 to 14) (size 15 to 20)
#    0.000    2.000    0.000    3.250    0.000    5.333 
#    0.000    0.000    0.000    0.000    0.000    0.000 
#    0.000    0.000    0.000    0.000    0.000    0.000 
#
# Total GULP energy -595304.461495 kJ/mol
# GULP energy per Si atom -12402.176281 kJ/mol
# Density = 1.924610 g / cm^3
# Si number density = 19.290006 Si / 1000 Ang^3
#
#
#
# Elastic Constant Matrix: (Units=GPa)
#
#
# Indices 1 2 3 4 5 6 
#
# 1 59.5638 47.9392 56.2542 0.0000 0.0000 0.0000
# 2 47.9392 134.9408 86.7066 0.0000 0.0000 0.0000
# 3 56.2542 86.7066 181.1417 0.0000 0.0000 0.0000
# 4 0.0000 0.0000 0.0000 45.6111 0.0000 0.0000
# 5 0.0000 0.0000 0.0000 0.0000 40.7281 0.0000
# 6 0.0000 0.0000 0.0000 0.0000 0.0000 13.4640
#
#
#
# Elastic Compliance Matrix: (Units=1/GPa)
#
#
# Indices 1 2 3 4 5 6 
#
# 1 0.026760 -0.006018 -0.005430 0.000000 0.000000 0.000000
# 2 -0.006018 0.012056 -0.003902 0.000000 0.000000 0.000000
# 3 -0.005430 -0.003902 0.009074 0.000000 0.000000 0.000000
# 4 0.000000 0.000000 0.000000 0.021925 0.000000 0.000000
# 5 0.000000 0.000000 0.000000 0.000000 0.024553 0.000000
# 6 0.000000 0.000000 0.000000 0.000000 0.000000 0.074272
#
#
# Mechanical properties :
#
#
# Convention : Reuss Voigt Hill
#
# Bulk Modulus (GPa) = 58.16894 84.16069 71.16481
# Shear Modulus (GPa) = 24.38190 32.27705 28.32947
#
# Velocity S-wave (km/s) = 3.55909 4.09498 3.83640
# Velocity P-wave (km/s) = 6.86366 8.12910 7.52304
#
# Compressibility (1/GPa) = 0.01719130
#
# Stress axis : x y z
#
# Youngs Moduli (GPa) = 37.36863 82.94849 110.19899
#
# Poissons Ratio (x) = 0.49917 0.59838
# Poissons Ratio (y) = 0.22488 0.42997
# Poissons Ratio (z) = 0.20291 0.32365
#
# Static dielectric constant tensor:
#      x y z
#    x 3.464920 0.000000 0.000000 
#    y 0.000000 4.061190 0.000000 
#    z 0.000000 0.000000 3.512360 
# 
# 
# High freq. dielectric constant tensor:
#      x y z
#    x 1.744180 0.000000 0.000000 
#    y 0.000000 1.769970 0.000000 
#    z 0.000000 0.000000 1.755410 
# 
# From -- ./inp_files/6208.got.cif
#   From: 2010.03.12/outbox.cif.g09.slc.cpg/sg51_4_cif.got.tgz:6208.got - 2010.04.16 13:43:02.
