data_PCOD8213663
_publ_section_title
;
Structure prediction by ZEFSAII (Michael W. Deem and Ramdas Pophale) SiO2 
 PCOD8213663
Probable space group: P M M A
;
_chemical_formula_sum "Si O2"
_cell_formula_units_Z 40
_cell_length_a 8.921515
_cell_length_b 24.499641
_cell_length_c 9.708909
_cell_angle_alpha 90.000000
_cell_angle_beta 90.000000
_cell_angle_gamma 90.000000
_cell_volume 2122.114247
_symmetry_space_group_name_H-M "P M M A"
_symmetry_group_IT_number 51
_symmetry_cell_setting 'orthorhombic'
loop_
_space_group_symop_operation_xyz
x,y,z
1/2-x,-y,z
1/2+x,-y,-z
-x,y,-z
-x,-y,-z
1/2+x,y,-z
1/2-x,y,z
x,-y,z
loop_
_atom_site_type_symbol
_atom_site_label
_atom_site_fract_x
_atom_site_fract_y
_atom_site_fract_z
Si Si1 0.422726 0.438908 0.645870
Si Si2 0.427709 0.153919 0.649371
Si Si3 0.077118 0.361694 0.140196
Si Si4 0.074507 0.061586 0.860064
Si Si5 0.424301 0.234152 0.143096
O O1 0.500000 0.435836 0.500000
O O2 0.250000 0.422793 0.629697
O O3 0.440214 0.500000 0.707812
O O4 0.502289 0.394844 0.738978
O O5 0.500000 0.149718 0.500000
O O6 0.250000 0.160995 0.635628
O O7 0.472568 0.099205 0.732108
O O8 0.494702 0.205490 0.729331
O O9 0.250000 0.377210 0.130190
O O10 0.052528 0.298021 0.168597
O O11 0.000000 0.380183 0.000000
O O12 0.250000 0.063757 0.885066
O O13 0.019588 0.000000 0.827585
O O14 0.000000 0.083873 0.000000
O O15 0.250000 0.217926 0.137498
O O16 0.500000 0.215586 0.000000
#
# Coordination Sequence:
#
# PCOD8213663 Si02
#       5
#     8   8   8   8   8
#     4  10  21  37  57  81 110 145 183 223 269 322
#     4  11  23  37  55  80 111 146 183 225 273 323
#     4  10  21  37  58  83 110 142 180 224 272 321
#     4   9  19  36  57  81 108 140 180 223 268 321
#     4  10  21  38  59  82 109 142 181 224 271 323
#
# _framework density 18.849126999999999
#
# number of rings (size 3 to 8) (size 9 to 14) (size 15 to 20)
#    0.000    2.000    0.000    3.000    0.000    8.400 
#    0.000    0.000    0.000    0.000    0.000    0.000 
#    0.000    0.000    0.000    0.000    0.000    0.000 
#
# Total GULP energy -496135.817912 kJ/mol
# GULP energy per Si atom -12403.395448 kJ/mol
# Density = 1.880623 g / cm^3
# Si number density = 18.849127 Si / 1000 Ang^3
#
#
#
# Elastic Constant Matrix: (Units=GPa)
#
#
# Indices 1 2 3 4 5 6 
#
# 1 127.8300 59.5412 73.4443 0.0000 0.0000 0.0000
# 2 59.5412 74.9998 63.8741 0.0000 0.0000 0.0000
# 3 73.4443 63.8741 144.9372 0.0000 0.0000 0.0000
# 4 0.0000 0.0000 0.0000 37.3406 0.0000 0.0000
# 5 0.0000 0.0000 0.0000 0.0000 42.0564 0.0000
# 6 0.0000 0.0000 0.0000 0.0000 0.0000 31.4628
#
#
#
# Elastic Compliance Matrix: (Units=1/GPa)
#
#
# Indices 1 2 3 4 5 6 
#
# 1 0.013360 -0.007749 -0.003355 0.000000 0.000000 0.000000
# 2 -0.007749 0.025839 -0.007461 0.000000 0.000000 0.000000
# 3 -0.003355 -0.007461 0.011887 0.000000 0.000000 0.000000
# 4 0.000000 0.000000 0.000000 0.026781 0.000000 0.000000
# 5 0.000000 0.000000 0.000000 0.000000 0.023778 0.000000
# 6 0.000000 0.000000 0.000000 0.000000 0.000000 0.031784
#
#
# Mechanical properties :
#
#
# Convention : Reuss Voigt Hill
#
# Bulk Modulus (GPa) = 71.64672 82.38734 77.01703
# Shear Modulus (GPa) = 28.53729 32.23244 30.38486
#
# Velocity S-wave (km/s) = 3.89522 4.13973 4.01933
# Velocity P-wave (km/s) = 7.63698 8.16416 7.90497
#
# Compressibility (1/GPa) = 0.01395737
#
# Stress axis : x y z
#
# Youngs Moduli (GPa) = 74.85187 38.70109 84.12208
#
# Poissons Ratio (x) = 0.29989 0.28222
# Poissons Ratio (y) = 0.58002 0.62761
# Poissons Ratio (z) = 0.25112 0.28874
#
# Static dielectric constant tensor:
#      x y z
#    x 3.617840 0.000000 0.000000 
#    y 0.000000 3.631470 0.000000 
#    z 0.000000 0.000000 3.416760 
# 
# 
# High freq. dielectric constant tensor:
#      x y z
#    x 1.747810 0.000000 0.000000 
#    y 0.000000 1.739730 0.000000 
#    z 0.000000 0.000000 1.731660 
# 
# From -- ./inp_files/5208.got.cif
#   From: 2010.03.12/outbox.cif.g09.slc.cpg/sg51_3_cif.got.tgz:5208.got - 2010.04.16 13:43:02.
