data_PCOD8213229
_publ_section_title
;
Structure prediction by ZEFSAII (Michael W. Deem and Ramdas Pophale) SiO2 
 PCOD8213229
Probable space group: P M M A
;
_chemical_formula_sum "Si O2"
_cell_formula_units_Z 48
_cell_length_a 9.352580
_cell_length_b 9.344605
_cell_length_c 30.944975
_cell_angle_alpha 90.000000
_cell_angle_beta 90.000000
_cell_angle_gamma 90.000000
_cell_volume 2704.472167
_symmetry_space_group_name_H-M "P M M A"
_symmetry_group_IT_number 51
_symmetry_cell_setting 'orthorhombic'
loop_
_space_group_symop_operation_xyz
x,y,z
1/2-x,-y,z
1/2+x,-y,-z
-x,y,-z
-x,-y,-z
1/2+x,y,-z
1/2-x,y,z
x,-y,z
loop_
_atom_site_type_symbol
_atom_site_label
_atom_site_fract_x
_atom_site_fract_y
_atom_site_fract_z
Si Si1 0.091185 0.329190 0.460614
Si Si2 0.913653 0.167065 0.714962
Si Si3 0.079521 0.659280 0.366578
Si Si4 0.584037 0.836333 0.957935
Si Si5 0.084442 0.668335 0.127175
Si Si6 0.418062 0.166175 0.799812
O O1 0.250000 0.266556 0.465996
O O2 0.094657 0.500000 0.462633
O O3 0.026004 0.284351 0.413667
O O4 0.000000 0.264056 0.500000
O O5 0.750000 0.214144 0.724272
O O6 0.976376 0.240722 0.671946
O O7 0.010672 0.215113 0.754992
O O8 0.924244 0.000000 0.706707
O O9 0.250000 0.657726 0.368113
O O10 0.020682 0.500000 0.357666
O O11 0.750000 0.820846 0.968610
O O12 0.538635 0.735773 0.918431
O O13 0.543847 0.000000 0.946243
O O14 0.500000 0.783058 0.000000
O O15 0.250000 0.703530 0.137486
O O16 0.056259 0.500000 0.125384
O O17 0.984985 0.737506 0.163102
O O18 0.250000 0.195054 0.797060
O O19 0.451996 0.000000 0.809429
#
# Coordination Sequence:
#
# PCOD8213229 Si02
#       6
#     8   8   8   8   8   8
#     4   8  13  22  37  57  81 109 142 180 220 264
#     4   9  17  30  49  70  90 117 155 195 234 280
#     4   8  14  25  42  64  88 114 146 185 228 273
#     4   9  18  33  53  76 102 133 169 206 241 281
#     4  10  21  36  54  77 104 134 168 205 245 289
#     4  10  21  36  53  73  98 129 164 202 245 293
#
# _framework density 17.748380000000001
#
# number of rings (size 3 to 8) (size 9 to 14) (size 15 to 20)
#    0.000    3.000    0.000    2.000    0.000    3.667 
#    0.000    4.167    0.000    1.500    0.000    0.000 
#    0.000    0.000    0.000    0.000    0.000    0.000 
#
# Total GULP energy -595065.197071 kJ/mol
# GULP energy per Si atom -12397.191606 kJ/mol
# Density = 1.770798 g / cm^3
# Si number density = 17.748380 Si / 1000 Ang^3
#
#
#
# Elastic Constant Matrix: (Units=GPa)
#
#
# Indices 1 2 3 4 5 6 
#
# 1 69.1861 38.8089 75.5764 0.0000 0.0000 0.0000
# 2 38.8089 61.6157 72.0612 0.0000 0.0000 0.0000
# 3 75.5764 72.0612 189.6009 0.0000 0.0000 0.0000
# 4 0.0000 0.0000 0.0000 35.7440 0.0000 0.0000
# 5 0.0000 0.0000 0.0000 0.0000 31.3147 0.0000
# 6 0.0000 0.0000 0.0000 0.0000 0.0000 17.4588
#
#
#
# Elastic Compliance Matrix: (Units=1/GPa)
#
#
# Indices 1 2 3 4 5 6 
#
# 1 0.027709 -0.008164 -0.007942 0.000000 0.000000 0.000000
# 2 -0.008164 0.031622 -0.008764 0.000000 0.000000 0.000000
# 3 -0.007942 -0.008764 0.011771 0.000000 0.000000 0.000000
# 4 0.000000 0.000000 0.000000 0.027977 0.000000 0.000000
# 5 0.000000 0.000000 0.000000 0.000000 0.031934 0.000000
# 6 0.000000 0.000000 0.000000 0.000000 0.000000 0.057278
#
#
# Mechanical properties :
#
#
# Convention : Reuss Voigt Hill
#
# Bulk Modulus (GPa) = 46.81428 77.03284 61.92356
# Shear Modulus (GPa) = 20.39561 25.83392 23.11477
#
# Velocity S-wave (km/s) = 3.39359 3.81933 3.61274
# Velocity P-wave (km/s) = 6.46446 7.93389 7.23657
#
# Compressibility (1/GPa) = 0.02136100
#
# Stress axis : x y z
#
# Youngs Moduli (GPa) = 36.08941 31.62385 84.95469
#
# Poissons Ratio (x) = 0.25818 0.67472
# Poissons Ratio (y) = 0.29464 0.74455
# Poissons Ratio (z) = 0.28663 0.27716
#
# Static dielectric constant tensor:
#      x y z
#    x 3.324440 0.000000 0.000000 
#    y 0.000000 3.132390 0.000000 
#    z 0.000000 0.000000 3.587940 
# 
# 
# High freq. dielectric constant tensor:
#      x y z
#    x 1.663390 0.000000 0.000000 
#    y 0.000000 1.662550 0.000000 
#    z 0.000000 0.000000 1.702440 
# 
# From -- ./inp_files/36997.got.cif
#   From: 2010.03.12/outbox.cif.g09.slc.cpg/sg51_19_cif.got.tgz:36997.got - 2010.04.16 13:43:02.
