data_PCOD8213293
_publ_section_title
;
Structure prediction by ZEFSAII (Michael W. Deem and Ramdas Pophale) SiO2 
 PCOD8213293
Probable space group: P M M A
;
_chemical_formula_sum "Si O2"
_cell_formula_units_Z 40
_cell_length_a 9.357885
_cell_length_b 9.048674
_cell_length_c 25.582014
_cell_angle_alpha 90.000000
_cell_angle_beta 90.000000
_cell_angle_gamma 90.000000
_cell_volume 2166.194147
_symmetry_space_group_name_H-M "P M M A"
_symmetry_group_IT_number 51
_symmetry_cell_setting 'orthorhombic'
loop_
_space_group_symop_operation_xyz
x,y,z
1/2-x,-y,z
1/2+x,-y,-z
-x,y,-z
-x,-y,-z
1/2+x,y,-z
1/2-x,y,z
x,-y,z
loop_
_atom_site_type_symbol
_atom_site_label
_atom_site_fract_x
_atom_site_fract_y
_atom_site_fract_z
Si Si1 0.914189 0.171384 0.248841
Si Si2 0.413331 0.674369 0.857565
Si Si3 0.592561 0.675323 0.546938
Si Si4 0.583524 0.171934 0.947992
Si Si5 0.919680 0.332282 0.662714
O O1 0.750000 0.205498 0.262263
O O2 0.963012 0.260063 0.197679
O O3 0.008710 0.220312 0.297467
O O4 0.940670 0.000000 0.237648
O O5 0.250000 0.722310 0.870269
O O6 0.428365 0.500000 0.854758
O O7 0.520003 0.734581 0.900906
O O8 0.500000 0.745159 0.500000
O O9 0.750000 0.744134 0.541475
O O10 0.601073 0.500000 0.541276
O O11 0.529235 0.713367 0.604244
O O12 0.750000 0.210286 0.955271
O O13 0.559966 0.000000 0.935679
O O14 0.500000 0.219290 0.000000
O O15 0.750000 0.318694 0.666672
O O16 0.967744 0.500000 0.675399
#
# Coordination Sequence:
#
# PCOD8213293 Si02
#       5
#     8   8   8   8   8
#     4  10  21  36  54  76 102 134 173 215 258 306
#     4  10  21  37  57  80 106 137 173 214 260 307
#     4   8  14  25  42  67  98 129 162 202 249 300
#     4  10  21  37  58  83 110 142 178 213 252 300
#     4   9  18  32  50  74 104 135 168 209 256 306
#
# _framework density 18.465565000000002
#
# number of rings (size 3 to 8) (size 9 to 14) (size 15 to 20)
#    0.000    2.600    0.000    3.000    0.000    6.000 
#    0.000    2.000    0.000    0.600    0.000    0.000 
#    0.000    0.000    0.000    0.000    0.000    0.000 
#
# Total GULP energy -496000.557025 kJ/mol
# GULP energy per Si atom -12400.013926 kJ/mol
# Density = 1.842354 g / cm^3
# Si number density = 18.465565 Si / 1000 Ang^3
#
#
#
# Elastic Constant Matrix: (Units=GPa)
#
#
# Indices 1 2 3 4 5 6 
#
# 1 79.8262 37.0799 70.4987 0.0000 0.0000 0.0000
# 2 37.0799 56.8223 50.6050 0.0000 0.0000 0.0000
# 3 70.4987 50.6050 152.0499 0.0000 0.0000 0.0000
# 4 0.0000 0.0000 0.0000 -62.4108 0.0000 0.0000
# 5 0.0000 0.0000 0.0000 0.0000 36.2686 0.0000
# 6 0.0000 0.0000 0.0000 0.0000 0.0000 26.8880
#
#
#
# Elastic Compliance Matrix: (Units=1/GPa)
#
#
# Indices 1 2 3 4 5 6 
#
# 1 0.023529 -0.008014 -0.008242 0.000000 0.000000 0.000000
# 2 -0.008014 0.027742 -0.005517 0.000000 0.000000 0.000000
# 3 -0.008242 -0.005517 0.012235 0.000000 0.000000 0.000000
# 4 0.000000 0.000000 0.000000 -0.016023 0.000000 0.000000
# 5 0.000000 0.000000 0.000000 0.000000 0.027572 0.000000
# 6 0.000000 0.000000 0.000000 0.000000 0.000000 0.037191
#
#
# Mechanical properties :
#
#
# Convention : Reuss Voigt Hill
#
# Bulk Modulus (GPa) = 50.10322 67.22951 58.66637
# Shear Modulus (GPa) = 30.77974 8.85016 19.81495
#
# Velocity S-wave (km/s) = 4.08716 2.19162 3.27934
# Velocity P-wave (km/s) = 7.03317 6.54915 6.79547
#
# Compressibility (1/GPa) = 0.01995880
#
# Stress axis : x y z
#
# Youngs Moduli (GPa) = 42.50145 36.04675 81.73542
#
# Poissons Ratio (x) = 0.28886 0.67367
# Poissons Ratio (y) = 0.34059 0.45097
# Poissons Ratio (z) = 0.35030 0.19889
#
# Static dielectric constant tensor:
#      x y z
#    x 3.064050 0.000000 0.000000 
#    y 0.000000 3.164370 0.000000 
#    z 0.000000 0.000000 3.565300 
# 
# 
# High freq. dielectric constant tensor:
#      x y z
#    x 1.712450 0.000000 0.000000 
#    y 0.000000 1.694220 0.000000 
#    z 0.000000 0.000000 1.729300 
# 
# From -- ./inp_files/34309.got.cif
#   From: 2010.03.12/outbox.cif.g09.slc.cpg/sg51_18_cif.got.tgz:34309.got - 2010.04.16 13:43:02.
