data_PCOD8213598
_publ_section_title
;
Structure prediction by ZEFSAII (Michael W. Deem and Ramdas Pophale) SiO2 
 PCOD8213598
Probable space group: P M M A
;
_chemical_formula_sum "Si O2"
_cell_formula_units_Z 64
_cell_length_a 28.955049
_cell_length_b 9.272296
_cell_length_c 12.106555
_cell_angle_alpha 90.000000
_cell_angle_beta 90.000000
_cell_angle_gamma 90.000000
_cell_volume 3250.365284
_symmetry_space_group_name_H-M "P M M A"
_symmetry_group_IT_number 51
_symmetry_cell_setting 'orthorhombic'
loop_
_space_group_symop_operation_xyz
x,y,z
1/2-x,-y,z
1/2+x,-y,-z
-x,y,-z
-x,-y,-z
1/2+x,y,-z
1/2-x,y,z
x,-y,z
loop_
_atom_site_type_symbol
_atom_site_label
_atom_site_fract_x
_atom_site_fract_y
_atom_site_fract_z
Si Si1 0.537066 0.831804 0.590871
Si Si2 0.304620 0.664710 0.289836
Si Si3 0.697552 0.161370 0.317260
Si Si4 0.521549 0.328793 0.821365
Si Si5 0.697707 0.157320 0.912027
Si Si6 0.141470 0.162320 0.464409
Si Si7 0.566117 0.329775 0.044739
Si Si8 0.166841 0.329341 0.889267
O O1 0.500000 0.776728 0.500000
O O2 0.532093 0.748437 0.706206
O O3 0.587344 0.800446 0.539462
O O4 0.529336 0.000000 0.615396
O O5 0.250000 0.682509 0.304571
O O6 0.318536 0.500000 0.270591
O O7 0.325898 0.752679 0.186521
O O8 0.329577 0.721826 0.397570
O O9 0.750000 0.189249 0.360240
O O10 0.659707 0.176344 0.411952
O O11 0.684218 0.282606 0.229847
O O12 0.694593 0.000000 0.265712
O O13 0.522910 0.500000 0.800565
O O14 0.472165 0.274562 0.868436
O O15 0.557896 0.280719 0.917383
O O16 0.750000 0.132020 0.876391
O O17 0.673569 0.000000 0.926675
O O18 0.698768 0.250474 0.022607
O O19 0.150400 0.000000 0.419250
O O20 0.563206 0.500000 0.045639
O O21 0.615072 0.273399 0.087761
O O22 0.171843 0.500000 0.901498
#
# Coordination Sequence:
#
# PCOD8213598 Si02
#       8
#     8   8   8   8   8   8   8   8
#     4  10  23  40  58  86 123 153 187 242 297 341
#     4  10  21  37  59  88 119 149 188 242 295 342
#     4  10  22  40  60  82 111 153 203 246 287 347
#     4   9  18  38  63  83 111 151 194 232 282 347
#     4  10  21  37  56  80 114 154 191 226 275 345
#     4  10  22  40  61  84 114 156 199 239 291 354
#     4   8  18  36  58  85 115 148 185 234 286 344
#     4  11  22  35  56  86 118 149 189 241 297 344
#
# _framework density 19.690094999999999
#
# number of rings (size 3 to 8) (size 9 to 14) (size 15 to 20)
#    0.000    2.250    0.000    2.625    3.500    5.000 
#    0.000    2.500    0.000    0.000    0.000    0.000 
#    0.000    0.000    0.000    0.000    0.000    0.000 
#
# Total GULP energy -793412.498748 kJ/mol
# GULP energy per Si atom -12397.070293 kJ/mol
# Density = 1.964528 g / cm^3
# Si number density = 19.690095 Si / 1000 Ang^3
#
#
#
# Elastic Constant Matrix: (Units=GPa)
#
#
# Indices 1 2 3 4 5 6 
#
# 1 81.0199 43.7175 46.7103 0.0000 0.0000 0.0000
# 2 43.7175 107.0045 57.5742 0.0000 0.0000 0.0000
# 3 46.7103 57.5742 117.5417 0.0000 0.0000 0.0000
# 4 0.0000 0.0000 0.0000 34.1524 0.0000 0.0000
# 5 0.0000 0.0000 0.0000 0.0000 27.9466 0.0000
# 6 0.0000 0.0000 0.0000 0.0000 0.0000 13.9028
#
#
#
# Elastic Compliance Matrix: (Units=1/GPa)
#
#
# Indices 1 2 3 4 5 6 
#
# 1 0.017560 -0.004643 -0.004704 0.000000 0.000000 0.000000
# 2 -0.004643 0.013918 -0.004972 0.000000 0.000000 0.000000
# 3 -0.004704 -0.004972 0.012812 0.000000 0.000000 0.000000
# 4 0.000000 0.000000 0.000000 0.029281 0.000000 0.000000
# 5 0.000000 0.000000 0.000000 0.000000 0.035782 0.000000
# 6 0.000000 0.000000 0.000000 0.000000 0.000000 0.071928
#
#
# Mechanical properties :
#
#
# Convention : Reuss Voigt Hill
#
# Bulk Modulus (GPa) = 63.89072 66.84112 65.36592
# Shear Modulus (GPa) = 23.24111 25.70465 24.47288
#
# Velocity S-wave (km/s) = 3.43934 3.61704 3.52931
# Velocity P-wave (km/s) = 6.94915 7.17385 7.06240
#
# Compressibility (1/GPa) = 0.01565173
#
# Stress axis : x y z
#
# Youngs Moduli (GPa) = 56.94740 71.85130 78.05057
#
# Poissons Ratio (x) = 0.33363 0.36714
# Poissons Ratio (y) = 0.26443 0.38806
# Poissons Ratio (z) = 0.26787 0.35724
#
# Static dielectric constant tensor:
#      x y z
#    x 3.954760 0.000000 0.000000 
#    y 0.000000 3.587450 0.000000 
#    z 0.000000 0.000000 3.502020 
# 
# 
# High freq. dielectric constant tensor:
#      x y z
#    x 1.769350 0.000000 0.000000 
#    y 0.000000 1.758960 0.000000 
#    z 0.000000 0.000000 1.768260 
# 
# From -- ./inp_files/19574.got.cif
#   From: 2010.03.12/outbox.cif.g09.slc.cpg/sg51_10_cif.got.tgz:19574.got - 2010.04.16 13:43:02.
