data_PCOD8213013
_publ_section_title
;
Structure prediction by ZEFSAII (Michael W. Deem and Ramdas Pophale) SiO2 
 PCOD8213013
Probable space group: P M M A
;
_chemical_formula_sum "Si O2"
_cell_formula_units_Z 64
_cell_length_a 9.405324
_cell_length_b 14.196707
_cell_length_c 30.879368
_cell_angle_alpha 90.000000
_cell_angle_beta 90.000000
_cell_angle_gamma 90.000000
_cell_volume 4123.156158
_symmetry_space_group_name_H-M "P M M A"
_symmetry_group_IT_number 51
_symmetry_cell_setting 'orthorhombic'
loop_
_space_group_symop_operation_xyz
x,y,z
1/2-x,-y,z
1/2+x,-y,-z
-x,y,-z
-x,-y,-z
1/2+x,y,-z
1/2-x,y,z
x,-y,z
loop_
_atom_site_type_symbol
_atom_site_label
_atom_site_fract_x
_atom_site_fract_y
_atom_site_fract_z
Si Si1 0.416009 0.203770 0.707762
Si Si2 0.907413 0.888251 0.880090
Si Si3 0.410121 0.112363 0.959251
Si Si4 0.587415 0.604443 0.332095
Si Si5 0.585446 0.206352 0.541220
Si Si6 0.584081 0.890874 0.782708
Si Si7 0.085647 0.395646 0.417103
Si Si8 0.913448 0.888910 0.630323
O O1 0.250000 0.177404 0.708744
O O2 0.439725 0.316627 0.704361
O O3 0.488330 0.172735 0.752115
O O4 0.486549 0.151624 0.667384
O O5 0.750000 0.847869 0.890336
O O6 0.954325 0.859825 0.831670
O O7 0.018509 0.848185 0.915181
O O8 0.900430 0.000000 0.883172
O O9 0.250000 0.151929 0.962245
O O10 0.408680 0.000000 0.959145
O O11 0.500000 0.150198 0.000000
O O12 0.750000 0.606745 0.347445
O O13 0.547199 0.500000 0.314100
O O14 0.496356 0.631042 0.373747
O O15 0.500000 0.167617 0.500000
O O16 0.750000 0.187498 0.531961
O O17 0.551447 0.317796 0.546658
O O18 0.536168 0.151337 0.584114
O O19 0.750000 0.873560 0.772993
O O20 0.546512 0.000000 0.774747
O O21 0.250000 0.391455 0.404322
O O22 0.042632 0.500000 0.434253
O O23 0.750000 0.859651 0.639650
O O24 0.931088 0.000000 0.629437
#
# Coordination Sequence:
#
# PCOD8213013 Si02
#       8
#     8   8   8   8   8   8   8   8
#     4  11  21  31  48  72  92 110 139 178 214 249
#     4   8  14  25  38  51  71 102 141 181 218 257
#     4   9  15  21  31  48  70  99 137 182 228 267
#     4   9  18  32  49  69  92 115 137 165 206 252
#     4  10  21  35  50  69  91 114 140 169 203 247
#     4   9  18  31  45  61  85 119 151 179 218 264
#     4   9  17  31  51  72  91 111 137 168 201 242
#     4  10  21  37  53  67  87 116 145 173 209 250
#
# _framework density 15.52209
#
# number of rings (size 3 to 8) (size 9 to 14) (size 15 to 20)
#    0.000    2.625    1.250    1.875    0.000    6.000 
#    0.000    1.250    0.000    0.000    0.000    0.000 
#    0.000    0.000    0.000    0.000    0.000    0.625 
#
# Total GULP energy -793389.747549 kJ/mol
# GULP energy per Si atom -12396.714805 kJ/mol
# Density = 1.548676 g / cm^3
# Si number density = 15.522090 Si / 1000 Ang^3
#
#
#
# Elastic Constant Matrix: (Units=GPa)
#
#
# Indices 1 2 3 4 5 6 
#
# 1 85.9521 27.5064 68.3385 0.0000 0.0000 0.0000
# 2 27.5064 44.8487 32.1273 0.0000 0.0000 0.0000
# 3 68.3385 32.1273 122.7808 0.0000 0.0000 0.0000
# 4 0.0000 0.0000 0.0000 6.8744 0.0000 0.0000
# 5 0.0000 0.0000 0.0000 0.0000 30.1479 0.0000
# 6 0.0000 0.0000 0.0000 0.0000 0.0000 15.9815
#
#
#
# Elastic Compliance Matrix: (Units=1/GPa)
#
#
# Indices 1 2 3 4 5 6 
#
# 1 0.022039 -0.005821 -0.010744 0.000000 0.000000 0.000000
# 2 -0.005821 0.028978 -0.004343 0.000000 0.000000 0.000000
# 3 -0.010744 -0.004343 0.015261 0.000000 0.000000 0.000000
# 4 0.000000 0.000000 0.000000 0.145467 0.000000 0.000000
# 5 0.000000 0.000000 0.000000 0.000000 0.033170 0.000000
# 6 0.000000 0.000000 0.000000 0.000000 0.000000 0.062572
#
#
# Mechanical properties :
#
#
# Convention : Reuss Voigt Hill
#
# Bulk Modulus (GPa) = 40.87697 56.61400 48.74549
# Shear Modulus (GPa) = 13.98775 18.97473 16.48124
#
# Velocity S-wave (km/s) = 3.00517 3.50013 3.26205
# Velocity P-wave (km/s) = 6.19946 7.27234 6.75723
#
# Compressibility (1/GPa) = 0.02446365
#
# Stress axis : x y z
#
# Youngs Moduli (GPa) = 45.37375 34.50882 65.52755
#
# Poissons Ratio (x) = 0.20087 0.70401
# Poissons Ratio (y) = 0.26411 0.28457
# Poissons Ratio (z) = 0.48748 0.14986
#
# Static dielectric constant tensor:
#      x y z
#    x 3.103570 0.000000 0.000000 
#    y 0.000000 2.877030 0.000000 
#    z 0.000000 0.000000 2.960620 
# 
# 
# High freq. dielectric constant tensor:
#      x y z
#    x 1.603150 0.000000 0.000000 
#    y 0.000000 1.559240 0.000000 
#    z 0.000000 0.000000 1.585160 
# 
# From -- ./inp_files/37551.got.cif
#   From: 2010.03.12/outbox.cif.g09.slc.cpg/sg51_19_cif.got.tgz:37551.got - 2010.04.16 13:43:02.
