data_PCOD8213391
_publ_section_title
;
Structure prediction by ZEFSAII (Michael W. Deem and Ramdas Pophale) SiO2 
 PCOD8213391
Probable space group: P M M A
;
_chemical_formula_sum "Si O2"
_cell_formula_units_Z 56
_cell_length_a 17.661790
_cell_length_b 14.241435
_cell_length_c 12.447636
_cell_angle_alpha 90.000000
_cell_angle_beta 90.000000
_cell_angle_gamma 90.000000
_cell_volume 3130.944352
_symmetry_space_group_name_H-M "P M M A"
_symmetry_group_IT_number 51
_symmetry_cell_setting 'orthorhombic'
loop_
_space_group_symop_operation_xyz
x,y,z
1/2-x,-y,z
1/2+x,-y,-z
-x,y,-z
-x,-y,-z
1/2+x,y,-z
1/2-x,y,z
x,-y,z
loop_
_atom_site_type_symbol
_atom_site_label
_atom_site_fract_x
_atom_site_fract_y
_atom_site_fract_z
Si Si1 0.582645 0.217844 0.949397
Si Si2 0.161847 0.794763 0.462272
Si Si3 0.585988 0.108067 0.726753
Si Si4 0.338010 0.892868 0.870240
Si Si5 0.337846 0.393548 0.128949
Si Si6 0.082070 0.107581 0.657266
Si Si7 0.839710 0.398501 0.627961
O O1 0.583758 0.168030 0.834573
O O2 0.610510 0.325106 0.942284
O O3 0.500000 0.213865 0.000000
O O4 0.641702 0.164946 0.024766
O O5 0.250000 0.799629 0.493165
O O6 0.150721 0.853265 0.352434
O O7 0.111920 0.833227 0.558251
O O8 0.132909 0.687475 0.445725
O O9 0.507858 0.117429 0.661934
O O10 0.602926 0.000000 0.756507
O O11 0.250000 0.883728 0.845654
O O12 0.382396 0.852515 0.767234
O O13 0.362918 0.000000 0.890787
O O14 0.250000 0.363253 0.120468
O O15 0.348348 0.500000 0.086791
O O16 0.368354 0.384855 0.250542
O O17 0.107378 0.000000 0.639961
O O18 0.750000 0.399311 0.632546
O O19 0.868842 0.500000 0.583083
#
# Coordination Sequence:
#
# PCOD8213391 Si02
#       7
#     8   8   8   8   8   8   8
#     4  12  22  35  57  82 111 147 186 231 279 328
#     4  11  21  34  57  85 109 136 181 236 281 326
#     4  11  23  37  54  78 112 149 184 227 280 334
#     4  10  21  36  55  79 109 149 195 232 266 323
#     4   9  18  35  58  82 110 142 178 225 280 334
#     4  10  21  38  55  74 108 154 191 219 267 337
#     4   8  15  30  53  79 105 133 167 212 272 334
#
# _framework density 17.885977
#
# number of rings (size 3 to 8) (size 9 to 14) (size 15 to 20)
#    0.000    1.857    2.857    3.000    0.000    4.286 
#    0.000    0.000    0.000    3.429    0.000    2.000 
#    0.000    0.000    0.000    0.000    0.000    0.000 
#
# Total GULP energy -694423.261994 kJ/mol
# GULP energy per Si atom -12400.415393 kJ/mol
# Density = 1.784527 g / cm^3
# Si number density = 17.885977 Si / 1000 Ang^3
#
#
#
# Elastic Constant Matrix: (Units=GPa)
#
#
# Indices 1 2 3 4 5 6 
#
# 1 33.0698 22.0217 11.4258 0.0000 0.0000 0.0000
# 2 22.0217 111.7526 46.4144 0.0000 0.0000 0.0000
# 3 11.4258 46.4144 86.3034 0.0000 0.0000 0.0000
# 4 0.0000 0.0000 0.0000 16.8818 0.0000 0.0000
# 5 0.0000 0.0000 0.0000 0.0000 24.0609 0.0000
# 6 0.0000 0.0000 0.0000 0.0000 0.0000 18.6752
#
#
#
# Elastic Compliance Matrix: (Units=1/GPa)
#
#
# Indices 1 2 3 4 5 6 
#
# 1 0.034901 -0.006384 -0.001187 0.000000 0.000000 0.000000
# 2 -0.006384 0.012690 -0.005979 0.000000 0.000000 0.000000
# 3 -0.001187 -0.005979 0.014960 0.000000 0.000000 0.000000
# 4 0.000000 0.000000 0.000000 0.059236 0.000000 0.000000
# 5 0.000000 0.000000 0.000000 0.000000 0.041561 0.000000
# 6 0.000000 0.000000 0.000000 0.000000 0.000000 0.053547
#
#
# Mechanical properties :
#
#
# Convention : Reuss Voigt Hill
#
# Bulk Modulus (GPa) = 28.20972 43.42775 35.81873
# Shear Modulus (GPa) = 19.54558 22.00782 20.77670
#
# Velocity S-wave (km/s) = 3.30932 3.51158 3.41195
# Velocity P-wave (km/s) = 5.51438 6.38550 5.96586
#
# Compressibility (1/GPa) = 0.03544878
#
# Stress axis : x y z
#
# Youngs Moduli (GPa) = 28.65277 78.80284 66.84520
#
# Poissons Ratio (x) = 0.50311 0.07934
# Poissons Ratio (y) = 0.18293 0.39970
# Poissons Ratio (z) = 0.03401 0.47120
#
# Static dielectric constant tensor:
#      x y z
#    x 3.166440 0.000000 0.000000 
#    y 0.000000 3.668220 0.000000 
#    z 0.000000 0.000000 3.261340 
# 
# 
# High freq. dielectric constant tensor:
#      x y z
#    x 1.682430 0.000000 0.000000 
#    y 0.000000 1.695060 0.000000 
#    z 0.000000 0.000000 1.685640 
# 
# From -- ./inp_files/16666.got.cif
#   From: 2010.03.12/outbox.cif.g09.slc.cpg/sg51_9_cif.got.tgz:16666.got - 2010.04.16 13:43:02.
