data_PCOD8213132
_publ_section_title
;
Structure prediction by ZEFSAII (Michael W. Deem and Ramdas Pophale) SiO2 
 PCOD8213132
Probable space group: P M M A
;
_chemical_formula_sum "Si O2"
_cell_formula_units_Z 56
_cell_length_a 14.286594
_cell_length_b 9.195331
_cell_length_c 23.316345
_cell_angle_alpha 90.000000
_cell_angle_beta 90.000000
_cell_angle_gamma 90.000000
_cell_volume 3063.067326
_symmetry_space_group_name_H-M "P M M A"
_symmetry_group_IT_number 51
_symmetry_cell_setting 'orthorhombic'
loop_
_space_group_symop_operation_xyz
x,y,z
1/2-x,-y,z
1/2+x,-y,-z
-x,y,-z
-x,-y,-z
1/2+x,y,-z
1/2-x,y,z
x,-y,z
loop_
_atom_site_type_symbol
_atom_site_label
_atom_site_fract_x
_atom_site_fract_y
_atom_site_fract_z
Si Si1 0.643195 0.167690 0.449624
Si Si2 0.491331 0.169984 0.356916
Si Si3 0.139638 0.666056 0.438039
Si Si4 0.997914 0.665616 0.240761
Si Si5 0.642601 0.669283 0.855937
Si Si6 0.357092 0.667908 0.858670
Si Si7 0.001439 0.830743 0.067108
O O1 0.750000 0.207946 0.434894
O O2 0.583583 0.206350 0.393711
O O3 0.605013 0.260569 0.503006
O O4 0.632496 0.000000 0.467348
O O5 0.403051 0.252297 0.383621
O O6 0.508542 0.224173 0.292997
O O7 0.469202 0.000000 0.355818
O O8 0.250000 0.680393 0.431946
O O9 0.106097 0.500000 0.438262
O O10 0.001322 0.500000 0.263438
O O11 0.090769 0.701368 0.204035
O O12 0.906040 0.692433 0.202525
O O13 0.750000 0.718477 0.849852
O O14 0.633412 0.500000 0.871614
O O15 0.594572 0.758408 0.906974
O O16 0.250000 0.718408 0.853428
O O17 0.365650 0.500000 0.877080
O O18 0.407116 0.762922 0.907062
O O19 0.003554 0.000000 0.082077
O O20 0.000000 0.800658 0.000000
#
# Coordination Sequence:
#
# PCOD8213132 Si02
#       7
#     8   8   8   8   8   8   8
#     4   9  19  36  54  73 102 136 167 204 253 309
#     4  11  22  34  52  78 105 136 172 208 253 309
#     4  10  21  36  54  76 101 131 169 213 260 308
#     4   9  19  35  53  76 106 136 170 216 263 305
#     4   9  19  37  59  79 102 138 181 222 265 310
#     4   9  19  37  59  80 104 139 181 221 262 308
#     4  10  21  35  52  80 116 146 174 213 260 311
#
# _framework density 18.282326999999999
#
# number of rings (size 3 to 8) (size 9 to 14) (size 15 to 20)
#    0.000    2.429    0.000    2.571    0.000    9.429 
#    0.000    4.286    0.000    0.000    0.000    0.000 
#    0.000    0.000    0.000    0.000    0.000    0.000 
#
# Total GULP energy -694602.034969 kJ/mol
# GULP energy per Si atom -12403.607767 kJ/mol
# Density = 1.824072 g / cm^3
# Si number density = 18.282327 Si / 1000 Ang^3
#
#
#
# Elastic Constant Matrix: (Units=GPa)
#
#
# Indices 1 2 3 4 5 6 
#
# 1 128.8889 54.4428 59.4327 0.0000 0.0000 0.0000
# 2 54.4428 102.8062 72.7845 0.0000 0.0000 0.0000
# 3 59.4327 72.7845 120.7276 0.0000 0.0000 0.0000
# 4 0.0000 0.0000 0.0000 38.2263 0.0000 0.0000
# 5 0.0000 0.0000 0.0000 0.0000 15.6990 0.0000
# 6 0.0000 0.0000 0.0000 0.0000 0.0000 17.1181
#
#
#
# Elastic Compliance Matrix: (Units=1/GPa)
#
#
# Indices 1 2 3 4 5 6 
#
# 1 0.010666 -0.003369 -0.003220 0.000000 0.000000 0.000000
# 2 -0.003369 0.018035 -0.009214 0.000000 0.000000 0.000000
# 3 -0.003220 -0.009214 0.015423 0.000000 0.000000 0.000000
# 4 0.000000 0.000000 0.000000 0.026160 0.000000 0.000000
# 5 0.000000 0.000000 0.000000 0.000000 0.063698 0.000000
# 6 0.000000 0.000000 0.000000 0.000000 0.000000 0.058418
#
#
# Mechanical properties :
#
#
# Convention : Reuss Voigt Hill
#
# Bulk Modulus (GPa) = 79.88379 80.63807 80.26093
# Shear Modulus (GPa) = 21.91259 25.25952 23.58606
#
# Velocity S-wave (km/s) = 3.46579 3.72107 3.59569
# Velocity P-wave (km/s) = 7.73337 7.91610 7.82527
#
# Compressibility (1/GPa) = 0.01251818
#
# Stress axis : x y z
#
# Youngs Moduli (GPa) = 93.75230 55.44893 64.83707
#
# Poissons Ratio (x) = 0.18681 0.20876
# Poissons Ratio (y) = 0.31585 0.59742
# Poissons Ratio (z) = 0.30187 0.51092
#
# Static dielectric constant tensor:
#      x y z
#    x 3.561740 0.000000 0.000000 
#    y 0.000000 3.427590 0.000000 
#    z 0.000000 0.000000 3.233670 
# 
# 
# High freq. dielectric constant tensor:
#      x y z
#    x 1.716110 0.000000 0.000000 
#    y 0.000000 1.712330 0.000000 
#    z 0.000000 0.000000 1.702790 
# 
# From -- ./inp_files/33318.got.cif
#   From: 2010.03.12/outbox.cif.g09.slc.cpg/sg51_17_cif.got.tgz:33318.got - 2010.04.16 13:43:02.
