data_PCOD8213516
_publ_section_title
;
Structure prediction by ZEFSAII (Michael W. Deem and Ramdas Pophale) SiO2 
 PCOD8213516
Probable space group: P M M A
;
_chemical_formula_sum "Si O2"
_cell_formula_units_Z 56
_cell_length_a 20.062723
_cell_length_b 9.325546
_cell_length_c 17.647057
_cell_angle_alpha 90.000000
_cell_angle_beta 90.000000
_cell_angle_gamma 90.000000
_cell_volume 3301.691063
_symmetry_space_group_name_H-M "P M M A"
_symmetry_group_IT_number 51
_symmetry_cell_setting 'orthorhombic'
loop_
_space_group_symop_operation_xyz
x,y,z
1/2-x,-y,z
1/2+x,-y,-z
-x,y,-z
-x,-y,-z
1/2+x,y,-z
1/2-x,y,z
x,-y,z
loop_
_atom_site_type_symbol
_atom_site_label
_atom_site_fract_x
_atom_site_fract_y
_atom_site_fract_z
Si Si1 0.569421 0.669298 0.961829
Si Si2 0.078058 0.659561 0.480767
Si Si3 0.411040 0.331751 0.644777
Si Si4 0.887060 0.164917 0.217332
Si Si5 0.461204 0.837445 0.181781
Si Si6 0.173384 0.835841 0.939646
Si Si7 0.451686 0.164709 0.348428
O O1 0.576744 0.500000 0.957441
O O2 0.573768 0.731876 0.877245
O O3 0.500000 0.716444 0.000000
O O4 0.630218 0.730215 0.009834
O O5 0.096050 0.500000 0.452685
O O6 0.117689 0.694288 0.559376
O O7 0.097498 0.769065 0.412794
O O8 0.000000 0.670440 0.500000
O O9 0.420018 0.500000 0.660320
O O10 0.364896 0.261609 0.710219
O O11 0.481455 0.254899 0.650748
O O12 0.836796 0.198842 0.149107
O O13 0.961365 0.205109 0.190023
O O14 0.884018 0.000000 0.243176
O O15 0.422901 0.823076 0.262886
O O16 0.455331 0.000000 0.151414
O O17 0.250000 0.809958 0.960441
O O18 0.151845 0.000000 0.955721
O O19 0.466651 0.000000 0.369068
#
# Coordination Sequence:
#
# PCOD8213516 Si02
#       7
#     8   8   8   8   8   8   8
#     4  11  22  33  49  74  98 124 161 201 244 293
#     4   8  14  23  33  50  79 116 151 182 222 273
#     4   9  16  24  36  55  82 117 153 185 223 273
#     4   9  17  29  45  66  89 116 155 196 233 277
#     4   9  17  29  45  65  90 122 157 197 238 282
#     4  10  21  37  55  72  94 127 162 199 247 296
#     4   9  16  24  36  57  83 114 151 190 231 272
#
# _framework density 16.961006999999999
#
# number of rings (size 3 to 8) (size 9 to 14) (size 15 to 20)
#    0.000    2.714    1.429    3.000    0.000    7.429 
#    0.000    0.000    0.000    0.000    0.000    0.000 
#    0.000    1.143    0.000    6.286    0.000    6.143 
#
# Total GULP energy -693984.626876 kJ/mol
# GULP energy per Si atom -12392.582623 kJ/mol
# Density = 1.692240 g / cm^3
# Si number density = 16.961007 Si / 1000 Ang^3
#
#
#
# Elastic Constant Matrix: (Units=GPa)
#
#
# Indices 1 2 3 4 5 6 
#
# 1 35.7496 26.4010 28.7876 0.0000 0.0000 0.0000
# 2 26.4010 103.6571 73.0033 0.0000 0.0000 0.0000
# 3 28.7876 73.0033 121.3584 0.0000 0.0000 0.0000
# 4 0.0000 0.0000 0.0000 32.5398 0.0000 0.0000
# 5 0.0000 0.0000 0.0000 0.0000 12.2106 0.0000
# 6 0.0000 0.0000 0.0000 0.0000 0.0000 11.0835
#
#
#
# Elastic Compliance Matrix: (Units=1/GPa)
#
#
# Indices 1 2 3 4 5 6 
#
# 1 0.036311 -0.005521 -0.005292 0.000000 0.000000 0.000000
# 2 -0.005521 0.017578 -0.009264 0.000000 0.000000 0.000000
# 3 -0.005292 -0.009264 0.015068 0.000000 0.000000 0.000000
# 4 0.000000 0.000000 0.000000 0.030732 0.000000 0.000000
# 5 0.000000 0.000000 0.000000 0.000000 0.081896 0.000000
# 6 0.000000 0.000000 0.000000 0.000000 0.000000 0.090224
#
#
# Mechanical properties :
#
#
# Convention : Reuss Voigt Hill
#
# Bulk Modulus (GPa) = 34.71950 57.46099 46.09025
# Shear Modulus (GPa) = 15.54891 20.00499 17.77695
#
# Velocity S-wave (km/s) = 3.03106 3.43807 3.24096
# Velocity P-wave (km/s) = 5.72402 7.05069 6.42171
#
# Compressibility (1/GPa) = 0.02880226
#
# Stress axis : x y z
#
# Youngs Moduli (GPa) = 27.53966 56.88874 66.36371
#
# Poissons Ratio (x) = 0.31409 0.35121
# Poissons Ratio (y) = 0.15205 0.61483
# Poissons Ratio (z) = 0.14575 0.52704
#
# Static dielectric constant tensor:
#      x y z
#    x 2.584370 0.000000 0.000000 
#    y 0.000000 3.323750 0.000000 
#    z 0.000000 0.000000 3.905760 
# 
# 
# High freq. dielectric constant tensor:
#      x y z
#    x 1.571870 0.000000 0.000000 
#    y 0.000000 1.662700 0.000000 
#    z 0.000000 0.000000 1.674160 
# 
# From -- ./inp_files/30415.got.cif
#   From: 2010.03.12/outbox.cif.g09.slc.cpg/sg51_16_cif.got.tgz:30415.got - 2010.04.16 13:43:02.
