data_PCOD8213196
_publ_section_title
;
Structure prediction by ZEFSAII (Michael W. Deem and Ramdas Pophale) SiO2 
 PCOD8213196
Probable space group: P M M A
;
_chemical_formula_sum "Si O2"
_cell_formula_units_Z 64
_cell_length_a 9.195185
_cell_length_b 15.368722
_cell_length_c 30.150582
_cell_angle_alpha 90.000000
_cell_angle_beta 90.000000
_cell_angle_gamma 90.000000
_cell_volume 4260.827244
_symmetry_space_group_name_H-M "P M M A"
_symmetry_group_IT_number 51
_symmetry_cell_setting 'orthorhombic'
loop_
_space_group_symop_operation_xyz
x,y,z
1/2-x,-y,z
1/2+x,-y,-z
-x,y,-z
-x,-y,-z
1/2+x,y,-z
1/2-x,y,z
x,-y,z
loop_
_atom_site_type_symbol
_atom_site_label
_atom_site_fract_x
_atom_site_fract_y
_atom_site_fract_z
Si Si1 0.085355 0.092688 0.118160
Si Si2 0.414260 0.396500 0.628404
Si Si3 0.915990 0.719972 0.890012
Si Si4 0.919860 0.599646 0.715483
Si Si5 0.081533 0.261329 0.213191
Si Si6 0.919267 0.399257 0.044269
Si Si7 0.919235 0.904858 0.207922
Si Si8 0.914793 0.396247 0.543044
O O1 0.250000 0.099404 0.137857
O O2 0.059706 0.181489 0.090141
O O3 0.971018 0.090965 0.157443
O O4 0.069344 0.000000 0.091288
O O5 0.250000 0.360019 0.626992
O O6 0.413913 0.500000 0.626552
O O7 0.491955 0.364801 0.673247
O O8 0.503214 0.359585 0.586428
O O9 0.750000 0.689134 0.897451
O O10 0.956735 0.719437 0.838005
O O11 0.023387 0.654324 0.914013
O O12 0.750000 0.609005 0.704487
O O13 0.960242 0.500000 0.726400
O O14 0.967377 0.655747 0.758046
O O15 0.250000 0.242709 0.219322
O O16 0.000746 0.175051 0.231893
O O17 0.750000 0.381050 0.037741
O O18 0.952273 0.500000 0.053765
O O19 0.000000 0.367486 0.000000
O O20 0.750000 0.883779 0.208528
O O21 0.950707 0.000000 0.230228
O O22 0.750000 0.360443 0.542330
O O23 0.913697 0.500000 0.543411
O O24 0.000000 0.361294 0.500000
#
# Coordination Sequence:
#
# PCOD8213196 Si02
#       8
#     8   8   8   8   8   8   8   8
#     4   8  14  26  44  65  89 115 138 158 186 229
#     4   9  16  25  36  50  69  96 131 168 207 249
#     4   9  17  29  47  70  91 110 133 164 201 238
#     4   9  17  29  42  55  75 106 143 177 205 238
#     4   9  18  30  44  63  85 111 141 169 201 241
#     4  10  21  36  52  68  85 107 135 167 204 244
#     4   9  16  25  39  60  84 108 134 167 205 240
#     4   9  15  22  33  49  68  90 120 163 211 252
#
# _framework density 15.020557
#
# number of rings (size 3 to 8) (size 9 to 14) (size 15 to 20)
#    0.000    3.000    0.000    2.250    0.000    7.500 
#    0.000    1.250    0.000    1.875    0.000    0.000 
#    0.000    0.000    0.000    0.000    0.000    0.625 
#
# Total GULP energy -793057.081328 kJ/mol
# GULP energy per Si atom -12391.516896 kJ/mol
# Density = 1.498637 g / cm^3
# Si number density = 15.020557 Si / 1000 Ang^3
#
#
#
# Elastic Constant Matrix: (Units=GPa)
#
#
# Indices 1 2 3 4 5 6 
#
# 1 85.6270 45.0713 47.2079 0.0000 0.0000 0.0000
# 2 45.0713 78.4692 46.6606 0.0000 0.0000 0.0000
# 3 47.2079 46.6606 76.6241 0.0000 0.0000 0.0000
# 4 0.0000 0.0000 0.0000 1.2097 0.0000 0.0000
# 5 0.0000 0.0000 0.0000 0.0000 23.9087 0.0000
# 6 0.0000 0.0000 0.0000 0.0000 0.0000 20.1346
#
#
#
# Elastic Compliance Matrix: (Units=1/GPa)
#
#
# Indices 1 2 3 4 5 6 
#
# 1 0.019524 -0.006367 -0.008151 0.000000 0.000000 0.000000
# 2 -0.006367 0.022054 -0.009507 0.000000 0.000000 0.000000
# 3 -0.008151 -0.009507 0.023862 0.000000 0.000000 0.000000
# 4 0.000000 0.000000 0.000000 0.826646 0.000000 0.000000
# 5 0.000000 0.000000 0.000000 0.000000 0.041826 0.000000
# 6 0.000000 0.000000 0.000000 0.000000 0.000000 0.049666
#
#
# Mechanical properties :
#
#
# Convention : Reuss Voigt Hill
#
# Bulk Modulus (GPa) = 57.50768 57.62222 57.56495
# Shear Modulus (GPa) = 4.81962 15.83596 10.32779
#
# Velocity S-wave (km/s) = 1.79322 3.25050 2.62501
# Velocity P-wave (km/s) = 6.53120 7.24798 6.89891
#
# Compressibility (1/GPa) = 0.01738898
#
# Stress axis : x y z
#
# Youngs Moduli (GPa) = 51.21883 45.34232 41.90709
#
# Poissons Ratio (x) = 0.28870 0.34160
# Poissons Ratio (y) = 0.32612 0.39843
# Poissons Ratio (z) = 0.41751 0.43109
#
# Static dielectric constant tensor:
#      x y z
#    x 2.996140 0.000000 0.000000 
#    y 0.000000 2.979190 0.000000 
#    z 0.000000 0.000000 2.718300 
# 
# 
# High freq. dielectric constant tensor:
#      x y z
#    x 1.587030 0.000000 0.000000 
#    y 0.000000 1.549670 0.000000 
#    z 0.000000 0.000000 1.541270 
# 
# From -- ./inp_files/37620.got.cif
#   From: 2010.03.12/outbox.cif.g09.slc.cpg/sg51_19_cif.got.tgz:37620.got - 2010.04.16 13:43:02.
