data_PCOD8213600
_publ_section_title
;
Structure prediction by ZEFSAII (Michael W. Deem and Ramdas Pophale) SiO2 
 PCOD8213600
Probable space group: P M M A
;
_chemical_formula_sum "Si O2"
_cell_formula_units_Z 64
_cell_length_a 8.808764
_cell_length_b 14.163427
_cell_length_c 26.020706
_cell_angle_alpha 90.000000
_cell_angle_beta 90.000000
_cell_angle_gamma 90.000000
_cell_volume 3246.402761
_symmetry_space_group_name_H-M "P M M A"
_symmetry_group_IT_number 51
_symmetry_cell_setting 'orthorhombic'
loop_
_space_group_symop_operation_xyz
x,y,z
1/2-x,-y,z
1/2+x,-y,-z
-x,y,-z
-x,-y,-z
1/2+x,y,-z
1/2-x,y,z
x,-y,z
loop_
_atom_site_type_symbol
_atom_site_label
_atom_site_fract_x
_atom_site_fract_y
_atom_site_fract_z
Si Si1 0.570858 0.107574 0.813269
Si Si2 0.929326 0.284487 0.148176
Si Si3 0.071307 0.890995 0.395729
Si Si4 0.074658 0.610880 0.053262
Si Si5 0.429597 0.274294 0.552003
Si Si6 0.072796 0.391064 0.650880
Si Si7 0.426623 0.389044 0.243820
Si Si8 0.079971 0.888201 0.708467
O O1 0.750000 0.116388 0.816988
O O2 0.492738 0.177142 0.854142
O O3 0.518736 0.143503 0.757158
O O4 0.517614 0.000000 0.824019
O O5 0.750000 0.281920 0.147230
O O6 0.988206 0.337706 0.098536
O O7 0.984125 0.336935 0.199089
O O8 0.250000 0.875718 0.393631
O O9 0.997015 0.831142 0.441532
O O10 0.999560 0.850774 0.342959
O O11 0.029013 0.000000 0.404916
O O12 0.250000 0.640622 0.053266
O O13 0.054591 0.500000 0.061923
O O14 0.000000 0.643245 0.000000
O O15 0.500000 0.318049 0.500000
O O16 0.250000 0.270405 0.547022
O O17 0.483445 0.337529 0.599961
O O18 0.250000 0.375034 0.660480
O O19 0.032645 0.500000 0.642036
O O20 0.985327 0.351691 0.700975
O O21 0.250000 0.365534 0.238082
O O22 0.459632 0.500000 0.238661
O O23 0.250000 0.845631 0.712380
O O24 0.086392 0.000000 0.706400
#
# Coordination Sequence:
#
# PCOD8213600 Si02
#       8
#     8   8   8   8   8   8   8   8
#     4  10  21  37  56  80 114 156 201 248 295 344
#     4  12  24  36  57  88 123 163 203 245 295 350
#     4  10  21  37  57  80 108 144 183 225 277 336
#     4  10  21  39  63  91 125 163 205 252 299 350
#     4  11  24  40  59  82 108 139 181 231 283 342
#     4   9  20  40  62  83 110 144 181 226 283 346
#     4  10  21  37  58  86 119 153 190 235 288 348
#     4   9  17  31  52  78 108 142 182 227 277 337
#
# _framework density 19.714129
#
# number of rings (size 3 to 8) (size 9 to 14) (size 15 to 20)
#    0.000    1.875    0.000    3.750    1.750    7.500 
#    0.000    0.000    0.000    0.375    0.000    0.000 
#    0.000    0.000    0.000    0.000    0.000    0.000 
#
# Total GULP energy -793829.035729 kJ/mol
# GULP energy per Si atom -12403.578683 kJ/mol
# Density = 1.966926 g / cm^3
# Si number density = 19.714129 Si / 1000 Ang^3
#
#
#
# Elastic Constant Matrix: (Units=GPa)
#
#
# Indices 1 2 3 4 5 6 
#
# 1 126.5381 44.1959 63.5946 0.0000 0.0000 0.0000
# 2 44.1959 60.0410 54.3725 0.0000 0.0000 0.0000
# 3 63.5946 54.3725 128.6266 0.0000 0.0000 0.0000
# 4 0.0000 0.0000 0.0000 31.3871 0.0000 0.0000
# 5 0.0000 0.0000 0.0000 0.0000 39.7045 0.0000
# 6 0.0000 0.0000 0.0000 0.0000 0.0000 27.8252
#
#
#
# Elastic Compliance Matrix: (Units=1/GPa)
#
#
# Indices 1 2 3 4 5 6 
#
# 1 0.011493 -0.005370 -0.003413 0.000000 0.000000 0.000000
# 2 -0.005370 0.029494 -0.009813 0.000000 0.000000 0.000000
# 3 -0.003413 -0.009813 0.013610 0.000000 0.000000 0.000000
# 4 0.000000 0.000000 0.000000 0.031860 0.000000 0.000000
# 5 0.000000 0.000000 0.000000 0.000000 0.025186 0.000000
# 6 0.000000 0.000000 0.000000 0.000000 0.000000 0.035939
#
#
# Mechanical properties :
#
#
# Convention : Reuss Voigt Hill
#
# Bulk Modulus (GPa) = 57.44816 71.05907 64.25362
# Shear Modulus (GPa) = 26.23641 29.98622 28.11131
#
# Velocity S-wave (km/s) = 3.65203 3.90430 3.78027
# Velocity P-wave (km/s) = 6.85470 7.51317 7.19148
#
# Compressibility (1/GPa) = 0.01740700
#
# Stress axis : x y z
#
# Youngs Moduli (GPa) = 87.00710 33.90483 73.47714
#
# Poissons Ratio (x) = 0.18206 0.25074
# Poissons Ratio (y) = 0.46721 0.72102
# Poissons Ratio (z) = 0.29692 0.33270
#
# Static dielectric constant tensor:
#      x y z
#    x 3.666110 0.000000 0.000000 
#    y 0.000000 3.708240 0.000000 
#    z 0.000000 0.000000 3.589450 
# 
# 
# High freq. dielectric constant tensor:
#      x y z
#    x 1.779820 0.000000 0.000000 
#    y 0.000000 1.769900 0.000000 
#    z 0.000000 0.000000 1.757540 
# 
# From -- ./inp_files/35036.got.cif
#   From: 2010.03.12/outbox.cif.g09.slc.cpg/sg51_18_cif.got.tgz:35036.got - 2010.04.16 13:43:02.
