data_PCOD8213573
_publ_section_title
;
Structure prediction by ZEFSAII (Michael W. Deem and Ramdas Pophale) SiO2 
 PCOD8213573
Probable space group: P M M A
;
_chemical_formula_sum "Si O2"
_cell_formula_units_Z 56
_cell_length_a 8.914995
_cell_length_b 14.295266
_cell_length_c 23.708309
_cell_angle_alpha 90.000000
_cell_angle_beta 90.000000
_cell_angle_gamma 90.000000
_cell_volume 3021.439648
_symmetry_space_group_name_H-M "P M M A"
_symmetry_group_IT_number 51
_symmetry_cell_setting 'orthorhombic'
loop_
_space_group_symop_operation_xyz
x,y,z
1/2-x,-y,z
1/2+x,-y,-z
-x,y,-z
-x,-y,-z
1/2+x,y,-z
1/2-x,y,z
x,-y,z
loop_
_atom_site_type_symbol
_atom_site_label
_atom_site_fract_x
_atom_site_fract_y
_atom_site_fract_z
Si Si1 0.078860 0.110656 0.942881
Si Si2 0.926222 0.392515 0.655966
Si Si3 0.073454 0.892483 0.348563
Si Si4 0.074718 0.394880 0.056744
Si Si5 0.572878 0.238227 0.856072
Si Si6 0.576331 0.253462 0.559777
Si Si7 0.572112 0.753569 0.265143
O O1 0.250000 0.147239 0.942317
O O2 0.986790 0.148662 0.889747
O O3 0.073224 0.000000 0.938595
O O4 0.000000 0.146246 0.000000
O O5 0.750000 0.381850 0.668347
O O6 0.976978 0.500000 0.653496
O O7 0.967880 0.344582 0.596408
O O8 0.014086 0.341382 0.705923
O O9 0.250000 0.881128 0.337115
O O10 0.027720 0.839881 0.406333
O O11 0.986994 0.846019 0.296632
O O12 0.024622 0.000000 0.354055
O O13 0.250000 0.392512 0.046168
O O14 0.017637 0.500000 0.069627
O O15 0.029574 0.331325 0.109501
O O16 0.000000 0.355000 0.000000
O O17 0.750000 0.228522 0.846039
O O18 0.487591 0.244228 0.797711
O O19 0.500000 0.257979 0.500000
O O20 0.750000 0.251578 0.547094
O O21 0.750000 0.754314 0.265504
#
# Coordination Sequence:
#
# PCOD8213573 Si02
#       7
#     8   8   8   8   8   8   8
#     4  10  21  37  56  79 108 140 175 219 271 325
#     4   9  19  38  60  78 104 146 188 223 264 316
#     4   9  19  38  60  78 103 144 187 222 262 317
#     4   9  19  35  54  77 104 134 169 209 255 308
#     4  11  22  36  56  79 105 141 181 219 264 320
#     4   9  18  32  52  82 115 144 177 218 264 314
#     4  11  23  37  54  80 111 138 174 227 278 324
#
# _framework density 18.534210000000002
#
# number of rings (size 3 to 8) (size 9 to 14) (size 15 to 20)
#    0.000    2.286    0.000    3.429    0.000    7.714 
#    0.000    1.429    0.000    0.000    0.000    0.000 
#    0.000    0.000    0.000    0.000    0.000    0.000 
#
# Total GULP energy -694504.387239 kJ/mol
# GULP energy per Si atom -12401.864058 kJ/mol
# Density = 1.849203 g / cm^3
# Si number density = 18.534210 Si / 1000 Ang^3
#
#
#
# Elastic Constant Matrix: (Units=GPa)
#
#
# Indices 1 2 3 4 5 6 
#
# 1 73.2300 48.8573 57.7764 0.0000 0.0000 0.0000
# 2 48.8573 123.3357 63.8805 0.0000 0.0000 0.0000
# 3 57.7764 63.8805 159.9953 0.0000 0.0000 0.0000
# 4 0.0000 0.0000 0.0000 -4.2328 0.0000 0.0000
# 5 0.0000 0.0000 0.0000 0.0000 39.3557 0.0000
# 6 0.0000 0.0000 0.0000 0.0000 0.0000 19.2129
#
#
#
# Elastic Compliance Matrix: (Units=1/GPa)
#
#
# Indices 1 2 3 4 5 6 
#
# 1 0.021945 -0.005785 -0.005615 0.000000 0.000000 0.000000
# 2 -0.005785 0.011747 -0.002601 0.000000 0.000000 0.000000
# 3 -0.005615 -0.002601 0.009316 0.000000 0.000000 0.000000
# 4 0.000000 0.000000 0.000000 -0.236249 0.000000 0.000000
# 5 0.000000 0.000000 0.000000 0.000000 0.025409 0.000000
# 6 0.000000 0.000000 0.000000 0.000000 0.000000 0.052048
#
#
# Mechanical properties :
#
#
# Convention : Reuss Voigt Hill
#
# Bulk Modulus (GPa) = 66.63852 77.50994 72.07423
# Shear Modulus (GPa) = -60.40195 23.27028 -18.56584
#
# Velocity S-wave (km/s) = -5.71491 3.54719 -3.16841
# Velocity P-wave (km/s) = 2.74126 7.66078 5.05831
#
# Compressibility (1/GPa) = 0.01500634
#
# Stress axis : x y z
#
# Youngs Moduli (GPa) = 45.56779 85.12987 107.33846
#
# Poissons Ratio (x) = 0.49248 0.60270
# Poissons Ratio (y) = 0.26361 0.27919
# Poissons Ratio (z) = 0.25586 0.22142
#
# Static dielectric constant tensor:
#      x y z
#    x 3.387550 0.000000 0.000000 
#    y 0.000000 19.314470 0.000000 
#    z 0.000000 0.000000 3.423300 
# 
# 
# High freq. dielectric constant tensor:
#      x y z
#    x 1.718900 0.000000 0.000000 
#    y 0.000000 1.726320 0.000000 
#    z 0.000000 0.000000 1.719700 
# 
# From -- ./inp_files/31875.got.cif
#   From: 2010.03.12/outbox.cif.g09.slc.cpg/sg51_16_cif.got.tgz:31875.got - 2010.04.16 13:43:02.
