data_PCOD8213065
_publ_section_title
;
Structure prediction by ZEFSAII (Michael W. Deem and Ramdas Pophale) SiO2 
 PCOD8213065
Probable space group: P M M A
;
_chemical_formula_sum "Si O2"
_cell_formula_units_Z 64
_cell_length_a 9.168441
_cell_length_b 14.571148
_cell_length_c 23.878624
_cell_angle_alpha 90.000000
_cell_angle_beta 90.000000
_cell_angle_gamma 90.000000
_cell_volume 3190.057866
_symmetry_space_group_name_H-M "P M M A"
_symmetry_group_IT_number 51
_symmetry_cell_setting 'orthorhombic'
loop_
_space_group_symop_operation_xyz
x,y,z
1/2-x,-y,z
1/2+x,-y,-z
-x,y,-z
-x,-y,-z
1/2+x,y,-z
1/2-x,y,z
x,-y,z
loop_
_atom_site_type_symbol
_atom_site_label
_atom_site_fract_x
_atom_site_fract_y
_atom_site_fract_z
Si Si1 0.079061 0.895744 0.558813
Si Si2 0.094383 0.160051 0.047895
Si Si3 0.919688 0.776004 0.648684
Si Si4 0.413537 0.392437 0.834629
Si Si5 0.088526 0.892347 0.730210
Si Si6 0.912140 0.103384 0.144685
Si Si7 0.079466 0.605943 0.277436
Si Si8 0.410538 0.367048 0.051086
O O1 0.250000 0.878007 0.550567
O O2 0.000000 0.887415 0.500000
O O3 0.015365 0.813857 0.597121
O O4 0.053226 0.000000 0.583320
O O5 0.250000 0.109234 0.052180
O O6 0.117608 0.264366 0.030458
O O7 0.017719 0.163928 0.107729
O O8 0.000000 0.108556 0.000000
O O9 0.750000 0.783681 0.632864
O O10 0.959479 0.671965 0.669125
O O11 0.956212 0.843260 0.699664
O O12 0.250000 0.348519 0.838125
O O13 0.398762 0.500000 0.829839
O O14 0.493286 0.358653 0.777632
O O15 0.503668 0.369461 0.890334
O O16 0.250000 0.870943 0.704005
O O17 0.085889 0.855556 0.793375
O O18 0.060635 0.000000 0.728681
O O19 0.750000 0.108077 0.119469
O O20 0.970837 0.000000 0.144008
O O21 0.250000 0.615248 0.263376
O O22 0.040277 0.500000 0.293184
O O23 0.250000 0.413820 0.058423
O O24 0.500000 0.415976 0.000000
#
# Coordination Sequence:
#
# PCOD8213065 Si02
#       8
#     8   8   8   8   8   8   8   8
#     4  10  21  38  61  90 127 167 202 238 281 329
#     4  10  21  35  51  70  92 121 162 209 259 317
#     4  11  22  34  56  88 117 152 197 238 281 331
#     4  10  21  36  55  79 104 133 173 221 276 338
#     4   9  19  35  52  75 110 148 183 221 272 334
#     4   9  19  35  52  70  95 129 167 209 262 320
#     4   9  20  39  58  79 113 154 194 239 289 339
#     4  10  21  36  53  74 100 130 167 213 269 336
#
# _framework density 20.062332000000001
#
# number of rings (size 3 to 8) (size 9 to 14) (size 15 to 20)
#    0.000    2.250    0.000    3.000    1.750    7.000 
#    0.000    1.250    0.000    0.375    0.000    0.000 
#    0.000    0.000    0.000    0.000    0.000    0.000 
#
# Total GULP energy -792995.381085 kJ/mol
# GULP energy per Si atom -12390.552829 kJ/mol
# Density = 2.001667 g / cm^3
# Si number density = 20.062332 Si / 1000 Ang^3
#
#
#
# Elastic Constant Matrix: (Units=GPa)
#
#
# Indices 1 2 3 4 5 6 
#
# 1 137.8015 37.4625 68.3848 0.0000 0.0000 0.0000
# 2 37.4625 64.7804 42.7701 0.0000 0.0000 0.0000
# 3 68.3848 42.7701 109.0980 0.0000 0.0000 0.0000
# 4 0.0000 0.0000 0.0000 30.9704 0.0000 0.0000
# 5 0.0000 0.0000 0.0000 0.0000 38.7893 0.0000
# 6 0.0000 0.0000 0.0000 0.0000 0.0000 19.1790
#
#
#
# Elastic Compliance Matrix: (Units=1/GPa)
#
#
# Indices 1 2 3 4 5 6 
#
# 1 0.010802 -0.002397 -0.005831 0.000000 0.000000 0.000000
# 2 -0.002397 0.021360 -0.006871 0.000000 0.000000 0.000000
# 3 -0.005831 -0.006871 0.015515 0.000000 0.000000 0.000000
# 4 0.000000 0.000000 0.000000 0.032289 0.000000 0.000000
# 5 0.000000 0.000000 0.000000 0.000000 0.025780 0.000000
# 6 0.000000 0.000000 0.000000 0.000000 0.000000 0.052140
#
#
# Mechanical properties :
#
#
# Convention : Reuss Voigt Hill
#
# Bulk Modulus (GPa) = 57.21546 67.65719 62.43632
# Shear Modulus (GPa) = 25.78497 28.65858 27.22177
#
# Velocity S-wave (km/s) = 3.58892 3.78362 3.68755
# Velocity P-wave (km/s) = 6.76421 7.27217 7.02278
#
# Compressibility (1/GPa) = 0.01747779
#
# Stress axis : x y z
#
# Youngs Moduli (GPa) = 92.57273 46.81757 64.45330
#
# Poissons Ratio (x) = 0.11222 0.37586
# Poissons Ratio (y) = 0.22188 0.44287
# Poissons Ratio (z) = 0.53983 0.32170
#
# Static dielectric constant tensor:
#      x y z
#    x 4.028460 0.000000 0.000000 
#    y 0.000000 3.604900 0.000000 
#    z 0.000000 0.000000 3.531930 
# 
# 
# High freq. dielectric constant tensor:
#      x y z
#    x 1.794140 0.000000 0.000000 
#    y 0.000000 1.772870 0.000000 
#    z 0.000000 0.000000 1.765830 
# 
# From -- ./inp_files/35008.got.cif
#   From: 2010.03.12/outbox.cif.g09.slc.cpg/sg51_18_cif.got.tgz:35008.got - 2010.04.16 13:43:02.
