data_PCOD8213266
_publ_section_title
;
Structure prediction by ZEFSAII (Michael W. Deem and Ramdas Pophale) SiO2 
 PCOD8213266
Probable space group: P M M A
;
_chemical_formula_sum "Si O2"
_cell_formula_units_Z 44
_cell_length_a 9.275468
_cell_length_b 7.824791
_cell_length_c 30.177233
_cell_angle_alpha 90.000000
_cell_angle_beta 90.000000
_cell_angle_gamma 90.000000
_cell_volume 2190.221279
_symmetry_space_group_name_H-M "P M M A"
_symmetry_group_IT_number 51
_symmetry_cell_setting 'orthorhombic'
loop_
_space_group_symop_operation_xyz
x,y,z
1/2-x,-y,z
1/2+x,-y,-z
-x,y,-z
-x,-y,-z
1/2+x,y,-z
1/2-x,y,z
x,-y,z
loop_
_atom_site_type_symbol
_atom_site_label
_atom_site_fract_x
_atom_site_fract_y
_atom_site_fract_z
Si Si1 0.411281 0.701428 0.195831
Si Si2 0.918978 0.304418 0.110035
Si Si3 0.088337 0.701108 0.458580
Si Si4 0.080636 0.000000 0.954002
Si Si5 0.589323 0.801138 0.709130
Si Si6 0.588848 0.201994 0.372626
O O1 0.250000 0.775875 0.189552
O O2 0.408916 0.500000 0.197237
O O3 0.507724 0.763479 0.154953
O O4 0.477547 0.768388 0.242146
O O5 0.750000 0.295978 0.118426
O O6 0.966192 0.500000 0.097787
O O7 0.965719 0.173134 0.071623
O O8 0.250000 0.779982 0.457706
O O9 0.099216 0.500000 0.464171
O O10 0.000000 0.780181 0.500000
O O11 0.006747 0.745768 0.413947
O O12 0.250000 0.000000 0.962917
O O13 0.000000 0.000000 0.000000
O O14 0.750000 0.717963 0.706295
O O15 0.485812 0.720410 0.671632
O O16 0.602023 0.000000 0.699864
O O17 0.750000 0.279727 0.377037
O O18 0.598871 0.000000 0.369375
#
# Coordination Sequence:
#
# PCOD8213266 Si02
#       6
#     8   8   8   4   8   8
#     4   9  18  32  51  77 106 137 177 220 262 312
#     4   9  19  36  55  77 109 144 178 222 274 325
#     4  10  21  37  57  79 102 131 169 214 265 319
#     4  10  22  38  56  82 110 142 184 226 271 326
#     4   9  18  32  49  71 102 139 174 213 261 309
#     4  10  21  36  53  76 106 139 176 216 260 314
#
# _framework density 20.089293999999999
#
# number of rings (size 3 to 8) (size 9 to 14) (size 15 to 20)
#    0.000    2.545    0.000    1.091    1.273    5.091 
#    0.000    1.818    0.000    0.000    0.000    0.000 
#    0.000    0.000    0.000    0.000    0.000    0.000 
#
# Total GULP energy -545483.493863 kJ/mol
# GULP energy per Si atom -12397.352133 kJ/mol
# Density = 2.004357 g / cm^3
# Si number density = 20.089294 Si / 1000 Ang^3
#
#
#
# Elastic Constant Matrix: (Units=GPa)
#
#
# Indices 1 2 3 4 5 6 
#
# 1 123.8593 26.6530 95.1249 0.0000 0.0000 0.0000
# 2 26.6530 44.2140 41.5864 0.0000 0.0000 0.0000
# 3 95.1249 41.5864 202.8365 0.0000 0.0000 0.0000
# 4 0.0000 0.0000 0.0000 33.4905 0.0000 0.0000
# 5 0.0000 0.0000 0.0000 0.0000 44.0491 0.0000
# 6 0.0000 0.0000 0.0000 0.0000 0.0000 18.8277
#
#
#
# Elastic Compliance Matrix: (Units=1/GPa)
#
#
# Indices 1 2 3 4 5 6 
#
# 1 0.012851 -0.002575 -0.005499 0.000000 0.000000 0.000000
# 2 -0.002575 0.028537 -0.004643 0.000000 0.000000 0.000000
# 3 -0.005499 -0.004643 0.008461 0.000000 0.000000 0.000000
# 4 0.000000 0.000000 0.000000 0.029859 0.000000 0.000000
# 5 0.000000 0.000000 0.000000 0.000000 0.022702 0.000000
# 6 0.000000 0.000000 0.000000 0.000000 0.000000 0.053113
#
#
# Mechanical properties :
#
#
# Convention : Reuss Voigt Hill
#
# Bulk Modulus (GPa) = 40.95869 77.51538 59.23703
# Shear Modulus (GPa) = 26.44178 33.10983 29.77581
#
# Velocity S-wave (km/s) = 3.63190 4.06413 3.85408
# Velocity P-wave (km/s) = 6.16605 7.79051 7.02539
#
# Compressibility (1/GPa) = 0.02441484
#
# Stress axis : x y z
#
# Youngs Moduli (GPa) = 77.81577 35.04263 118.19119
#
# Poissons Ratio (x) = 0.09022 0.64991
# Poissons Ratio (y) = 0.20035 0.54879
# Poissons Ratio (z) = 0.42790 0.16271
#
# Static dielectric constant tensor:
#      x y z
#    x 3.990850 0.000000 0.000000 
#    y 0.000000 3.578860 0.000000 
#    z 0.000000 0.000000 3.756630 
# 
# 
# High freq. dielectric constant tensor:
#      x y z
#    x 1.782150 0.000000 0.000000 
#    y 0.000000 1.771600 0.000000 
#    z 0.000000 0.000000 1.788010 
# 
# From -- ./inp_files/36775.got.cif
#   From: 2010.03.12/outbox.cif.g09.slc.cpg/sg51_19_cif.got.tgz:36775.got - 2010.04.16 13:43:02.
