data_PCOD8213221
_publ_section_title
;
Structure prediction by ZEFSAII (Michael W. Deem and Ramdas Pophale) SiO2 
 PCOD8213221
Probable space group: P M M A
;
_chemical_formula_sum "Si O2"
_cell_formula_units_Z 40
_cell_length_a 9.230760
_cell_length_b 9.419476
_cell_length_c 25.798462
_cell_angle_alpha 90.000000
_cell_angle_beta 90.000000
_cell_angle_gamma 90.000000
_cell_volume 2243.148467
_symmetry_space_group_name_H-M "P M M A"
_symmetry_group_IT_number 51
_symmetry_cell_setting 'orthorhombic'
loop_
_space_group_symop_operation_xyz
x,y,z
1/2-x,-y,z
1/2+x,-y,-z
-x,y,-z
-x,-y,-z
1/2+x,y,-z
1/2-x,y,z
x,-y,z
loop_
_atom_site_type_symbol
_atom_site_label
_atom_site_fract_x
_atom_site_fract_y
_atom_site_fract_z
Si Si1 0.582069 0.665652 0.637772
Si Si2 0.918267 0.834425 0.448713
Si Si3 0.587315 0.330578 0.149326
Si Si4 0.089548 0.331480 0.246047
Si Si5 0.413843 0.669226 0.049889
O O1 0.750000 0.701168 0.626773
O O2 0.552235 0.500000 0.629128
O O3 0.479071 0.752935 0.600510
O O4 0.539700 0.712301 0.696250
O O5 0.750000 0.799076 0.455524
O O6 0.000000 0.780400 0.500000
O O7 0.946645 0.000000 0.439697
O O8 0.750000 0.271538 0.144083
O O9 0.587602 0.500000 0.149403
O O10 0.520249 0.270881 0.202968
O O11 0.492954 0.273145 0.101329
O O12 0.250000 0.270592 0.234589
O O13 0.096092 0.500000 0.242715
O O14 0.250000 0.728021 0.048628
O O15 0.412809 0.500000 0.049638
O O16 0.500000 0.727340 0.000000
#
# Coordination Sequence:
#
# PCOD8213221 Si02
#       5
#     8   8   8   8   8
#     4   9  18  32  50  72  96 121 151 188 229 272
#     4  10  21  36  53  72  94 122 155 188 224 269
#     4   9  15  21  30  45  65  91 125 164 206 252
#     4   8  14  25  39  55  77 104 133 167 209 256
#     4   9  15  21  28  38  55  82 119 164 210 253
#
# _framework density 17.832077000000002
#
# number of rings (size 3 to 8) (size 9 to 14) (size 15 to 20)
#    0.000    3.000    0.000    3.000    0.000    7.600 
#    0.000    2.000    0.000    0.000    0.000    0.000 
#    0.000    0.000    0.000    0.000    0.000    1.000 
#
# Total GULP energy -495886.205680 kJ/mol
# GULP energy per Si atom -12397.155142 kJ/mol
# Density = 1.779149 g / cm^3
# Si number density = 17.832077 Si / 1000 Ang^3
#
#
#
# Elastic Constant Matrix: (Units=GPa)
#
#
# Indices 1 2 3 4 5 6 
#
# 1 158.5161 25.3868 104.3297 0.0000 0.0000 0.0000
# 2 25.3868 15.4774 27.2502 0.0000 0.0000 0.0000
# 3 104.3297 27.2502 172.3680 0.0000 0.0000 0.0000
# 4 0.0000 0.0000 0.0000 -3.0336 0.0000 0.0000
# 5 0.0000 0.0000 0.0000 0.0000 42.1831 0.0000
# 6 0.0000 0.0000 0.0000 0.0000 0.0000 14.9001
#
#
#
# Elastic Compliance Matrix: (Units=1/GPa)
#
#
# Indices 1 2 3 4 5 6 
#
# 1 0.011327 -0.009018 -0.005430 0.000000 0.000000 0.000000
# 2 -0.009018 0.096711 -0.009831 0.000000 0.000000 0.000000
# 3 -0.005430 -0.009831 0.010642 0.000000 0.000000 0.000000
# 4 0.000000 0.000000 0.000000 -0.329639 0.000000 0.000000
# 5 0.000000 0.000000 0.000000 0.000000 0.023706 0.000000
# 6 0.000000 0.000000 0.000000 0.000000 0.000000 0.067114
#
#
# Mechanical properties :
#
#
# Convention : Reuss Voigt Hill
#
# Bulk Modulus (GPa) = 14.26089 73.36609 43.81349
# Shear Modulus (GPa) = -103.71835 23.43624 -40.14106
#
# Velocity S-wave (km/s) = -7.63480 3.62923 -4.74968
# Velocity P-wave (km/s) = 8.34899 7.66771 2.33579
#
# Compressibility (1/GPa) = 0.07012187
#
# Stress axis : x y z
#
# Youngs Moduli (GPa) = 88.28761 10.34009 93.96409
#
# Poissons Ratio (x) = 0.09325 0.51022
# Poissons Ratio (y) = 0.79619 0.92375
# Poissons Ratio (z) = 0.47940 0.10165
#
# Static dielectric constant tensor:
#      x y z
#    x 3.518180 0.000000 0.000000 
#    y 0.000000 2.579650 0.000000 
#    z 0.000000 0.000000 3.559230 
# 
# 
# High freq. dielectric constant tensor:
#      x y z
#    x 1.701010 0.000000 0.000000 
#    y 0.000000 1.607820 0.000000 
#    z 0.000000 0.000000 1.708730 
# 
# From -- ./inp_files/34315.got.cif
#   From: 2010.03.12/outbox.cif.g09.slc.cpg/sg51_18_cif.got.tgz:34315.got - 2010.04.16 13:43:02.
