data_PCOD8213496
_publ_section_title
;
Structure prediction by ZEFSAII (Michael W. Deem and Ramdas Pophale) SiO2 
 PCOD8213496
Probable space group: P M M A
;
_chemical_formula_sum "Si O2"
_cell_formula_units_Z 64
_cell_length_a 15.674011
_cell_length_b 23.176575
_cell_length_c 8.802596
_cell_angle_alpha 90.000000
_cell_angle_beta 90.000000
_cell_angle_gamma 90.000000
_cell_volume 3197.718094
_symmetry_space_group_name_H-M "P M M A"
_symmetry_group_IT_number 51
_symmetry_cell_setting 'orthorhombic'
loop_
_space_group_symop_operation_xyz
x,y,z
1/2-x,-y,z
1/2+x,-y,-z
-x,y,-z
-x,-y,-z
1/2+x,y,-z
1/2-x,y,z
x,-y,z
loop_
_atom_site_type_symbol
_atom_site_label
_atom_site_fract_x
_atom_site_fract_y
_atom_site_fract_z
Si Si1 0.463797 0.126954 0.157850
Si Si2 0.154792 0.749915 0.780970
Si Si3 0.999274 0.567836 0.823327
Si Si4 0.580246 0.254968 0.908608
Si Si5 0.922018 0.851304 0.406248
Si Si6 0.150285 0.643599 0.299333
Si Si7 0.649407 0.632722 0.340848
Si Si8 0.651969 0.063354 0.642785
O O1 0.451074 0.196387 0.172564
O O2 0.535794 0.108320 0.278286
O O3 0.379543 0.091522 0.199050
O O4 0.500000 0.106191 0.000000
O O5 0.250000 0.735769 0.738594
O O6 0.130990 0.801364 0.670908
O O7 0.109682 0.689634 0.740112
O O8 0.146332 0.764371 0.959727
O O9 0.991503 0.500000 0.805623
O O10 0.911214 0.593181 0.757404
O O11 0.085214 0.584780 0.728412
O O12 0.000000 0.586377 0.000000
O O13 0.621270 0.296552 0.782297
O O14 0.500000 0.283525 0.000000
O O15 0.863243 0.892741 0.505245
O O16 0.000000 0.823003 0.500000
O O17 0.250000 0.631906 0.256889
O O18 0.139057 0.644865 0.480259
O O19 0.750000 0.617687 0.303598
O O20 0.750000 0.054667 0.666218
O O21 0.610272 0.000000 0.613572
#
# Coordination Sequence:
#
# PCOD8213496 Si02
#       8
#     8   8   8   8   8   8   8   8
#     4  10  21  39  60  89 120 158 204 256 315 374
#     4  11  21  35  57  87 122 159 199 248 308 371
#     4  11  25  44  67  92 122 167 215 264 315 368
#     4  11  21  37  59  88 128 165 202 252 314 378
#     4  10  21  36  60  86 118 161 204 249 303 364
#     4  11  24  40  62  94 128 167 210 258 318 377
#     4  10  24  41  62  94 128 165 209 260 317 377
#     4  10  23  42  62  86 120 162 208 260 314 371
#
# _framework density 20.014271000000001
#
# number of rings (size 3 to 8) (size 9 to 14) (size 15 to 20)
#    0.000    1.500    2.500    3.000    3.500    6.500 
#    0.000    2.500    0.000    1.500    0.000    0.000 
#    0.000    0.000    0.000    0.000    0.000    0.000 
#
# Total GULP energy -792913.587779 kJ/mol
# GULP energy per Si atom -12389.274809 kJ/mol
# Density = 1.996872 g / cm^3
# Si number density = 20.014271 Si / 1000 Ang^3
#
#
#
# Elastic Constant Matrix: (Units=GPa)
#
#
# Indices 1 2 3 4 5 6 
#
# 1 107.5653 41.8344 52.1406 0.0000 0.0000 0.0000
# 2 41.8344 98.9559 47.3519 0.0000 0.0000 0.0000
# 3 52.1406 47.3519 134.5231 0.0000 0.0000 0.0000
# 4 0.0000 0.0000 0.0000 21.3304 0.0000 0.0000
# 5 0.0000 0.0000 0.0000 0.0000 33.3137 0.0000
# 6 0.0000 0.0000 0.0000 0.0000 0.0000 15.4926
#
#
#
# Elastic Compliance Matrix: (Units=1/GPa)
#
#
# Indices 1 2 3 4 5 6 
#
# 1 0.012398 -0.003538 -0.003560 0.000000 0.000000 0.000000
# 2 -0.003538 0.013162 -0.003262 0.000000 0.000000 0.000000
# 3 -0.003560 -0.003262 0.009962 0.000000 0.000000 0.000000
# 4 0.000000 0.000000 0.000000 0.046881 0.000000 0.000000
# 5 0.000000 0.000000 0.000000 0.000000 0.030018 0.000000
# 6 0.000000 0.000000 0.000000 0.000000 0.000000 0.064547
#
#
# Mechanical properties :
#
#
# Convention : Reuss Voigt Hill
#
# Bulk Modulus (GPa) = 67.55663 69.29978 68.42820
# Shear Modulus (GPa) = 24.67650 27.34183 26.00917
#
# Velocity S-wave (km/s) = 3.51514 3.70011 3.60881
# Velocity P-wave (km/s) = 7.09242 7.27700 7.18531
#
# Compressibility (1/GPa) = 0.01480240
#
# Stress axis : x y z
#
# Youngs Moduli (GPa) = 80.65552 75.97644 100.38432
#
# Poissons Ratio (x) = 0.26880 0.35739
# Poissons Ratio (y) = 0.28535 0.32743
# Poissons Ratio (z) = 0.28715 0.24781
#
# Static dielectric constant tensor:
#      x y z
#    x 3.828950 0.000000 0.000000 
#    y 0.000000 3.614030 0.000000 
#    z 0.000000 0.000000 2.315510 
# 
# 
# High freq. dielectric constant tensor:
#      x y z
#    x 1.788770 0.000000 0.000000 
#    y 0.000000 1.770450 0.000000 
#    z 0.000000 0.000000 1.795240 
# 
# From -- ./inp_files/8700.got.cif
#   From: 2010.03.12/outbox.cif.g09.slc.cpg/sg51_5_cif.got.tgz:8700.got - 2010.04.16 13:43:02.
