data_PCOD8213744
_publ_section_title
;
Structure prediction by ZEFSAII (Michael W. Deem and Ramdas Pophale) SiO2 
 PCOD8213744
Probable space group: P M M A
;
_chemical_formula_sum "Si O2"
_cell_formula_units_Z 64
_cell_length_a 14.621492
_cell_length_b 9.044448
_cell_length_c 24.245369
_cell_angle_alpha 90.000000
_cell_angle_beta 90.000000
_cell_angle_gamma 90.000000
_cell_volume 3206.288190
_symmetry_space_group_name_H-M "P M M A"
_symmetry_group_IT_number 51
_symmetry_cell_setting 'orthorhombic'
loop_
_space_group_symop_operation_xyz
x,y,z
1/2-x,-y,z
1/2+x,-y,-z
-x,y,-z
-x,-y,-z
1/2+x,y,-z
1/2-x,y,z
x,-y,z
loop_
_atom_site_type_symbol
_atom_site_label
_atom_site_fract_x
_atom_site_fract_y
_atom_site_fract_z
Si Si1 0.485499 0.175826 0.061100
Si Si2 0.647418 0.831034 0.422317
Si Si3 0.644048 0.174901 0.842131
Si Si4 0.961423 0.828672 0.629946
Si Si5 0.652316 0.826795 0.126170
Si Si6 0.348407 0.664987 0.763213
Si Si7 0.450386 0.329562 0.262174
Si Si8 0.355565 0.330100 0.465078
O O1 0.396078 0.221663 0.097327
O O2 0.571237 0.248122 0.092624
O O3 0.487788 0.000000 0.056772
O O4 0.500000 0.243699 0.000000
O O5 0.750000 0.800582 0.398597
O O6 0.571414 0.802063 0.375058
O O7 0.626484 0.722697 0.472861
O O8 0.639991 0.000000 0.443499
O O9 0.750000 0.223517 0.840245
O O10 0.587976 0.253031 0.793025
O O11 0.632894 0.000000 0.833551
O O12 0.914247 0.747160 0.682244
O O13 0.915286 0.769643 0.574886
O O14 0.938653 0.000000 0.637024
O O15 0.750000 0.780076 0.100076
O O16 0.647621 0.784318 0.189237
O O17 0.638448 0.000000 0.123061
O O18 0.250000 0.685672 0.731007
O O19 0.351178 0.500000 0.788882
O O20 0.440119 0.688810 0.728514
O O21 0.419805 0.500000 0.260444
O O22 0.250000 0.310400 0.448949
O O23 0.386561 0.500000 0.460278
#
# Coordination Sequence:
#
# PCOD8213744 Si02
#       8
#     8   8   8   8   8   8   8   8
#     4   9  17  30  51  81 114 142 174 222 275 327
#     4   9  19  37  59  84 116 152 187 226 278 338
#     4  10  21  38  59  81 109 148 190 230 275 329
#     4  11  23  37  57  84 114 149 189 234 282 333
#     4   9  16  27  48  76 103 132 168 212 260 313
#     4   9  18  33  53  76 102 134 171 212 265 326
#     4  11  23  38  57  80 109 146 186 232 281 330
#     4  10  21  37  58  84 114 149 190 236 284 333
#
# _framework density 19.960775999999999
#
# number of rings (size 3 to 8) (size 9 to 14) (size 15 to 20)
#    0.000    2.250    1.250    1.500    0.000    5.500 
#    0.000    2.500    0.000    1.500    0.000    1.750 
#    0.000    0.000    0.000    0.000    0.000    0.000 
#
# Total GULP energy -792893.630979 kJ/mol
# GULP energy per Si atom -12388.962984 kJ/mol
# Density = 1.991534 g / cm^3
# Si number density = 19.960776 Si / 1000 Ang^3
#
#
#
# Elastic Constant Matrix: (Units=GPa)
#
#
# Indices 1 2 3 4 5 6 
#
# 1 89.3834 37.3188 29.4890 0.0000 0.0000 0.0000
# 2 37.3188 52.0601 36.4808 0.0000 0.0000 0.0000
# 3 29.4890 36.4808 87.6764 0.0000 0.0000 0.0000
# 4 0.0000 0.0000 0.0000 -380.8136 0.0000 0.0000
# 5 0.0000 0.0000 0.0000 0.0000 16.6230 0.0000
# 6 0.0000 0.0000 0.0000 0.0000 0.0000 23.5485
#
#
#
# Elastic Compliance Matrix: (Units=1/GPa)
#
#
# Indices 1 2 3 4 5 6 
#
# 1 0.016012 -0.010875 -0.000861 0.000000 0.000000 0.000000
# 2 -0.010875 0.034500 -0.010697 0.000000 0.000000 0.000000
# 3 -0.000861 -0.010697 0.016146 0.000000 0.000000 0.000000
# 4 0.000000 0.000000 0.000000 -0.002626 0.000000 0.000000
# 5 0.000000 0.000000 0.000000 0.000000 0.060157 0.000000
# 6 0.000000 0.000000 0.000000 0.000000 0.000000 0.042466
#
#
# Mechanical properties :
#
#
# Convention : Reuss Voigt Hill
#
# Bulk Modulus (GPa) = 45.88732 48.41080 47.14906
# Shear Modulus (GPa) = 22.85339 -59.73965 -18.44313
#
# Velocity S-wave (km/s) = 3.38733 -5.47663 -3.04298
# Velocity P-wave (km/s) = 6.19171 3.96052 3.36538
#
# Compressibility (1/GPa) = 0.02179251
#
# Stress axis : x y z
#
# Youngs Moduli (GPa) = 62.45242 28.98518 61.93478
#
# Poissons Ratio (x) = 0.31522 0.05330
# Poissons Ratio (y) = 0.67918 0.66254
# Poissons Ratio (z) = 0.05374 0.31006
#
# Static dielectric constant tensor:
#      x y z
#    x 4.033160 0.000000 0.000000 
#    y 0.000000 3.486850 0.000000 
#    z 0.000000 0.000000 3.472010 
# 
# 
# High freq. dielectric constant tensor:
#      x y z
#    x 1.792150 0.000000 0.000000 
#    y 0.000000 1.763090 0.000000 
#    z 0.000000 0.000000 1.760900 
# 
# From -- ./inp_files/35659.got.cif
#   From: 2010.03.12/outbox.cif.g09.slc.cpg/sg51_18_cif.got.tgz:35659.got - 2010.04.16 13:43:02.
