data_PCOD8213398
_publ_section_title
;
Structure prediction by ZEFSAII (Michael W. Deem and Ramdas Pophale) SiO2 
 PCOD8213398
Probable space group: P M M A
;
_chemical_formula_sum "Si O2"
_cell_formula_units_Z 56
_cell_length_a 14.219229
_cell_length_b 9.024876
_cell_length_c 23.150461
_cell_angle_alpha 90.000000
_cell_angle_beta 90.000000
_cell_angle_gamma 90.000000
_cell_volume 2970.824082
_symmetry_space_group_name_H-M "P M M A"
_symmetry_group_IT_number 51
_symmetry_cell_setting 'orthorhombic'
loop_
_space_group_symop_operation_xyz
x,y,z
1/2-x,-y,z
1/2+x,-y,-z
-x,y,-z
-x,-y,-z
1/2+x,y,-z
1/2-x,y,z
x,-y,z
loop_
_atom_site_type_symbol
_atom_site_label
_atom_site_fract_x
_atom_site_fract_y
_atom_site_fract_z
Si Si1 0.143910 0.167428 0.020218
Si Si2 0.034343 0.827074 0.135436
Si Si3 0.250000 0.335399 0.407596
Si Si4 0.584538 0.830429 0.650794
Si Si5 0.357121 0.326514 0.902508
Si Si6 0.860064 0.674063 0.762671
Si Si7 0.750000 0.663032 0.456985
Si Si8 0.438430 0.831159 0.553415
O O1 0.250000 0.185447 0.043898
O O2 0.072391 0.203797 0.071325
O O3 0.127517 0.000000 0.997171
O O4 0.124296 0.279757 0.968447
O O5 0.105400 0.746412 0.178342
O O6 0.929148 0.759612 0.139623
O O7 0.031272 0.000000 0.150738
O O8 0.250000 0.500000 0.378487
O O9 0.159939 0.244179 0.390145
O O10 0.250000 0.350999 0.475068
O O11 0.578289 0.742968 0.710981
O O12 0.488154 0.819636 0.615525
O O13 0.612172 0.000000 0.663599
O O14 0.250000 0.285907 0.884471
O O15 0.375977 0.500000 0.896730
O O16 0.750000 0.710826 0.752579
O O17 0.878068 0.500000 0.765634
O O18 0.750000 0.500000 0.428860
O O19 0.657469 0.745665 0.436163
O O20 0.500000 0.763863 0.500000
O O21 0.414699 0.000000 0.536941
#
# Coordination Sequence:
#
# PCOD8213398 Si02
#       8
#     8   8   4   8   8   8   4   8
#     4   9  18  33  53  80 114 148 183 226 276 334
#     4  11  22  36  57  83 112 148 190 233 279 331
#     4  11  21  33  53  85 121 153 187 230 279 334
#     4  11  22  37  60  85 112 151 194 234 277 332
#     4  10  21  36  55  80 111 148 188 232 284 338
#     4  11  24  40  59  85 117 149 183 228 282 336
#     4  11  23  35  55  87 121 155 187 230 285 336
#     4  10  21  37  58  85 116 152 192 234 281 332
#
# _framework density 18.849988
#
# number of rings (size 3 to 8) (size 9 to 14) (size 15 to 20)
#    0.000    1.571    2.143    3.000    0.000    7.143 
#    0.000    1.429    1.571    0.000    0.000    0.000 
#    0.000    0.000    0.000    0.000    0.000    0.000 
#
# Total GULP energy -694522.591797 kJ/mol
# GULP energy per Si atom -12402.189139 kJ/mol
# Density = 1.880708 g / cm^3
# Si number density = 18.849988 Si / 1000 Ang^3
#
#
#
# Elastic Constant Matrix: (Units=GPa)
#
#
# Indices 1 2 3 4 5 6 
#
# 1 108.4763 62.8920 23.5445 0.0000 0.0000 0.0000
# 2 62.8920 125.4006 38.6457 0.0000 0.0000 0.0000
# 3 23.5445 38.6457 51.4109 0.0000 0.0000 0.0000
# 4 0.0000 0.0000 0.0000 30.6784 0.0000 0.0000
# 5 0.0000 0.0000 0.0000 0.0000 30.6291 0.0000
# 6 0.0000 0.0000 0.0000 0.0000 0.0000 30.6293
#
#
#
# Elastic Compliance Matrix: (Units=1/GPa)
#
#
# Indices 1 2 3 4 5 6 
#
# 1 0.013073 -0.006132 -0.001378 0.000000 0.000000 0.000000
# 2 -0.006132 0.013255 -0.007156 0.000000 0.000000 0.000000
# 3 -0.001378 -0.007156 0.025461 0.000000 0.000000 0.000000
# 4 0.000000 0.000000 0.000000 0.032596 0.000000 0.000000
# 5 0.000000 0.000000 0.000000 0.000000 0.032649 0.000000
# 6 0.000000 0.000000 0.000000 0.000000 0.000000 0.032648
#
#
# Mechanical properties :
#
#
# Convention : Reuss Voigt Hill
#
# Bulk Modulus (GPa) = 44.52647 59.49468 52.01057
# Shear Modulus (GPa) = 26.80996 29.06773 27.93884
#
# Velocity S-wave (km/s) = 3.77540 3.93116 3.85407
# Velocity P-wave (km/s) = 6.53281 7.22745 6.88889
#
# Compressibility (1/GPa) = 0.02245855
#
# Stress axis : x y z
#
# Youngs Moduli (GPa) = 76.49552 75.44389 39.27597
#
# Poissons Ratio (x) = 0.46260 0.05411
# Poissons Ratio (y) = 0.46905 0.28104
# Poissons Ratio (z) = 0.10538 0.53984
#
# Static dielectric constant tensor:
#      x y z
#    x 3.502370 0.000000 0.000000 
#    y 0.000000 3.640940 0.000000 
#    z 0.000000 0.000000 3.254840 
# 
# 
# High freq. dielectric constant tensor:
#      x y z
#    x 1.735560 0.000000 0.000000 
#    y 0.000000 1.744180 0.000000 
#    z 0.000000 0.000000 1.711680 
# 
# From -- ./inp_files/33554.got.cif
#   From: 2010.03.12/outbox.cif.g09.slc.cpg/sg51_17_cif.got.tgz:33554.got - 2010.04.16 13:43:02.
