data_PCOD8213129
_publ_section_title
;
Structure prediction by ZEFSAII (Michael W. Deem and Ramdas Pophale) SiO2 
 PCOD8213129
Probable space group: P M M A
;
_chemical_formula_sum "Si O2"
_cell_formula_units_Z 48
_cell_length_a 24.811759
_cell_length_b 8.979432
_cell_length_c 11.683525
_cell_angle_alpha 90.000000
_cell_angle_beta 90.000000
_cell_angle_gamma 90.000000
_cell_volume 2603.036826
_symmetry_space_group_name_H-M "P M M A"
_symmetry_group_IT_number 51
_symmetry_cell_setting 'orthorhombic'
loop_
_space_group_symop_operation_xyz
x,y,z
1/2-x,-y,z
1/2+x,-y,-z
-x,y,-z
-x,-y,-z
1/2+x,y,-z
1/2-x,y,z
x,-y,z
loop_
_atom_site_type_symbol
_atom_site_label
_atom_site_fract_x
_atom_site_fract_y
_atom_site_fract_z
Si Si1 0.899478 0.827747 0.743260
Si Si2 0.602982 0.674265 0.270614
Si Si3 0.312588 0.173447 0.881852
Si Si4 0.561603 0.827576 0.490823
Si Si5 0.503678 0.328150 0.866802
Si Si6 0.687883 0.673996 0.883586
O O1 0.908404 0.799388 0.609678
O O2 0.950906 0.774855 0.813749
O O3 0.846365 0.737537 0.778605
O O4 0.890134 0.000000 0.770277
O O5 0.614954 0.500000 0.271864
O O6 0.655379 0.758092 0.224124
O O7 0.592374 0.728642 0.398688
O O8 0.552719 0.714904 0.190397
O O9 0.250000 0.205347 0.858843
O O10 0.325229 0.000000 0.892339
O O11 0.331699 0.250534 0.999079
O O12 0.500000 0.772854 0.500000
O O13 0.563282 0.000000 0.453510
O O14 0.518659 0.500000 0.844019
O O15 0.500000 0.292638 0.000000
O O16 0.750000 0.710748 0.857874
O O17 0.677110 0.500000 0.896485
#
# Coordination Sequence:
#
# PCOD8213129 Si02
#       6
#     8   8   8   8   8   8
#     4  11  22  36  58  84 110 148 192 236 284 336
#     4  11  22  35  57  86 115 151 192 235 285 339
#     4  10  21  38  61  87 116 151 190 233 282 339
#     4  10  21  39  58  79 113 155 196 237 284 338
#     4  10  21  35  52  79 115 148 180 227 285 343
#     4  10  21  38  60  85 116 151 185 230 287 342
#
# _framework density 18.440000000000001
#
# number of rings (size 3 to 8) (size 9 to 14) (size 15 to 20)
#    0.000    1.667    1.667    3.000    0.000    6.000 
#    0.000    0.833    0.000    1.000    0.000    0.000 
#    0.000    0.000    0.000    0.000    0.000    0.000 
#
# Total GULP energy -595528.913449 kJ/mol
# GULP energy per Si atom -12406.852364 kJ/mol
# Density = 1.839803 g / cm^3
# Si number density = 18.440000 Si / 1000 Ang^3
#
#
#
# Elastic Constant Matrix: (Units=GPa)
#
#
# Indices 1 2 3 4 5 6 
#
# 1 93.9230 60.9941 56.9368 0.0000 0.0000 0.0000
# 2 60.9941 99.1123 57.8846 0.0000 0.0000 0.0000
# 3 56.9368 57.8846 111.7233 0.0000 0.0000 0.0000
# 4 0.0000 0.0000 0.0000 27.4080 0.0000 0.0000
# 5 0.0000 0.0000 0.0000 0.0000 15.5414 0.0000
# 6 0.0000 0.0000 0.0000 0.0000 0.0000 33.7737
#
#
#
# Elastic Compliance Matrix: (Units=1/GPa)
#
#
# Indices 1 2 3 4 5 6 
#
# 1 0.019780 -0.009013 -0.005411 0.000000 0.000000 0.000000
# 2 -0.009013 0.018574 -0.005030 0.000000 0.000000 0.000000
# 3 -0.005411 -0.005030 0.014314 0.000000 0.000000 0.000000
# 4 0.000000 0.000000 0.000000 0.036486 0.000000 0.000000
# 5 0.000000 0.000000 0.000000 0.000000 0.064344 0.000000
# 6 0.000000 0.000000 0.000000 0.000000 0.000000 0.029609
#
#
# Mechanical properties :
#
#
# Convention : Reuss Voigt Hill
#
# Bulk Modulus (GPa) = 72.66992 72.93218 72.80105
# Shear Modulus (GPa) = 22.06525 23.94083 23.00304
#
# Velocity S-wave (km/s) = 3.46294 3.60712 3.53576
# Velocity P-wave (km/s) = 7.44874 7.54886 7.49897
#
# Compressibility (1/GPa) = 0.01376085
#
# Stress axis : x y z
#
# Youngs Moduli (GPa) = 50.55642 53.83962 69.86004
#
# Poissons Ratio (x) = 0.48523 0.37800
# Poissons Ratio (y) = 0.45564 0.35141
# Poissons Ratio (z) = 0.27355 0.27082
#
# Static dielectric constant tensor:
#      x y z
#    x 3.939820 0.000000 0.000000 
#    y 0.000000 3.467040 0.000000 
#    z 0.000000 0.000000 3.508330 
# 
# 
# High freq. dielectric constant tensor:
#      x y z
#    x 1.715760 0.000000 0.000000 
#    y 0.000000 1.726480 0.000000 
#    z 0.000000 0.000000 1.716220 
# 
# From -- ./inp_files/18578.got.cif
#   From: 2010.03.12/outbox.cif.g09.slc.cpg/sg51_10_cif.got.tgz:18578.got - 2010.04.16 13:43:02.
