data_PCOD8213388
_publ_section_title
;
Structure prediction by ZEFSAII (Michael W. Deem and Ramdas Pophale) SiO2 
 PCOD8213388
Probable space group: P M M A
;
_chemical_formula_sum "Si O2"
_cell_formula_units_Z 64
_cell_length_a 9.268109
_cell_length_b 23.337001
_cell_length_c 15.439075
_cell_angle_alpha 90.000000
_cell_angle_beta 90.000000
_cell_angle_gamma 90.000000
_cell_volume 3339.315509
_symmetry_space_group_name_H-M "P M M A"
_symmetry_group_IT_number 51
_symmetry_cell_setting 'orthorhombic'
loop_
_space_group_symop_operation_xyz
x,y,z
1/2-x,-y,z
1/2+x,-y,-z
-x,y,-z
-x,-y,-z
1/2+x,y,-z
1/2-x,y,z
x,-y,z
loop_
_atom_site_type_symbol
_atom_site_label
_atom_site_fract_x
_atom_site_fract_y
_atom_site_fract_z
Si Si1 0.417803 0.679398 0.083231
Si Si2 0.084303 0.126327 0.259956
Si Si3 0.915530 0.738487 0.739744
Si Si4 0.085033 0.436607 0.664379
Si Si5 0.918154 0.680541 0.414992
Si Si6 0.418293 0.563173 0.162086
Si Si7 0.082117 0.933943 0.084615
Si Si8 0.581740 0.066796 0.413263
O O1 0.250000 0.688115 0.066043
O O2 0.466863 0.713970 0.167981
O O3 0.459678 0.612099 0.093428
O O4 0.500000 0.704170 0.000000
O O5 0.250000 0.107821 0.277858
O O6 0.067239 0.193914 0.257973
O O7 0.031386 0.101830 0.167923
O O8 0.982073 0.101697 0.333677
O O9 0.750000 0.720278 0.720860
O O10 0.019374 0.713345 0.667195
O O11 0.250000 0.434524 0.695075
O O12 0.046398 0.500000 0.626870
O O13 0.055612 0.387951 0.592975
O O14 0.991426 0.421891 0.747561
O O15 0.750000 0.695574 0.423685
O O16 0.000000 0.702717 0.500000
O O17 0.250000 0.565114 0.181767
O O18 0.465847 0.500000 0.127733
O O19 0.250000 0.925191 0.066713
O O20 0.042650 0.000000 0.102150
O O21 0.000000 0.910564 0.000000
O O22 0.500000 0.086495 0.500000
O O23 0.750000 0.081326 0.424031
O O24 0.555723 0.000000 0.395282
#
# Coordination Sequence:
#
# PCOD8213388 Si02
#       8
#     8   8   8   8   8   8   8   8
#     4  10  21  36  55  79 109 144 185 231 279 334
#     4  10  21  37  59  83 111 150 192 233 278 326
#     4  10  22  41  59  79 110 147 190 238 280 322
#     4   9  18  33  54  81 110 138 173 221 276 334
#     4  11  23  38  59  83 109 144 184 227 279 336
#     4   9  17  31  53  79 107 141 179 222 276 334
#     4   9  18  33  54  82 115 148 182 222 270 323
#     4  10  21  37  59  88 120 151 184 225 274 328
#
# _framework density 19.165603999999998
#
# number of rings (size 3 to 8) (size 9 to 14) (size 15 to 20)
#    0.000    2.250    1.250    1.125    0.000    5.250 
#    0.000    1.250    0.000    0.000    0.000    0.000 
#    0.000    0.000    0.000    0.000    0.000    0.000 
#
# Total GULP energy -793638.217105 kJ/mol
# GULP energy per Si atom -12400.597142 kJ/mol
# Density = 1.912198 g / cm^3
# Si number density = 19.165604 Si / 1000 Ang^3
#
#
#
# Elastic Constant Matrix: (Units=GPa)
#
#
# Indices 1 2 3 4 5 6 
#
# 1 82.9895 44.9369 75.1702 0.0000 0.0000 0.0000
# 2 44.9369 75.2481 58.9698 0.0000 0.0000 0.0000
# 3 75.1702 58.9698 154.9437 0.0000 0.0000 0.0000
# 4 0.0000 0.0000 0.0000 8.6943 0.0000 0.0000
# 5 0.0000 0.0000 0.0000 0.0000 39.0896 0.0000
# 6 0.0000 0.0000 0.0000 0.0000 0.0000 -19.1477
#
#
#
# Elastic Compliance Matrix: (Units=1/GPa)
#
#
# Indices 1 2 3 4 5 6 
#
# 1 0.024113 -0.007456 -0.008860 0.000000 0.000000 0.000000
# 2 -0.007456 0.021243 -0.004468 0.000000 0.000000 0.000000
# 3 -0.008860 -0.004468 0.012453 0.000000 0.000000 0.000000
# 4 0.000000 0.000000 0.000000 0.115018 0.000000 0.000000
# 5 0.000000 0.000000 0.000000 0.000000 0.025582 0.000000
# 6 0.000000 0.000000 0.000000 0.000000 0.000000 -0.052226
#
#
# Mechanical properties :
#
#
# Convention : Reuss Voigt Hill
#
# Bulk Modulus (GPa) = 61.57457 74.59277 68.08367
# Shear Modulus (GPa) = 25.88459 14.66752 20.27605
#
# Velocity S-wave (km/s) = 3.67900 2.76941 3.25613
# Velocity P-wave (km/s) = 7.08831 7.01647 7.05248
#
# Compressibility (1/GPa) = 0.01624047
#
# Stress axis : x y z
#
# Youngs Moduli (GPa) = 41.47223 47.07408 80.30261
#
# Poissons Ratio (x) = 0.35098 0.71152
# Poissons Ratio (y) = 0.30921 0.35877
# Poissons Ratio (z) = 0.36746 0.21031
#
# Static dielectric constant tensor:
#      x y z
#    x 3.325720 0.000000 0.000000 
#    y 0.000000 3.619540 0.000000 
#    z 0.000000 0.000000 3.402580 
# 
# 
# High freq. dielectric constant tensor:
#      x y z
#    x 1.743180 0.000000 0.000000 
#    y 0.000000 1.747680 0.000000 
#    z 0.000000 0.000000 1.740900 
# 
# From -- ./inp_files/22333.got.cif
#   From: 2010.03.12/outbox.cif.g09.slc.cpg/sg51_12_cif.got.tgz:22333.got - 2010.04.16 13:43:02.
