data_PCOD8213120
_publ_section_title
;
Structure prediction by ZEFSAII (Michael W. Deem and Ramdas Pophale) SiO2 
 PCOD8213120
Probable space group: P M M A
;
_chemical_formula_sum "Si O2"
_cell_formula_units_Z 48
_cell_length_a 7.697941
_cell_length_b 8.968134
_cell_length_c 34.627814
_cell_angle_alpha 90.000000
_cell_angle_beta 90.000000
_cell_angle_gamma 90.000000
_cell_volume 2390.571530
_symmetry_space_group_name_H-M "P M M A"
_symmetry_group_IT_number 51
_symmetry_cell_setting 'orthorhombic'
loop_
_space_group_symop_operation_xyz
x,y,z
1/2-x,-y,z
1/2+x,-y,-z
-x,y,-z
-x,-y,-z
1/2+x,y,-z
1/2-x,y,z
x,-y,z
loop_
_atom_site_type_symbol
_atom_site_label
_atom_site_fract_x
_atom_site_fract_y
_atom_site_fract_z
Si Si1 0.050589 0.662648 0.386101
Si Si2 0.443788 0.822388 0.958084
Si Si3 0.546404 0.168384 0.310774
Si Si4 0.750000 0.177052 0.904706
Si Si5 0.250000 0.177640 0.183416
Si Si6 0.454216 0.833915 0.458623
Si Si7 0.451737 0.324347 0.767948
O O1 0.250000 0.638692 0.396089
O O2 0.963219 0.500000 0.378811
O O3 0.961339 0.739587 0.423487
O O4 0.039386 0.765520 0.348717
O O5 0.250000 0.764666 0.948017
O O6 0.577757 0.760473 0.926050
O O7 0.447367 0.000000 0.958696
O O8 0.500000 0.761317 0.000000
O O9 0.750000 0.171452 0.316985
O O10 0.492004 0.267643 0.274237
O O11 0.478685 0.000000 0.304261
O O12 0.750000 0.231354 0.860797
O O13 0.750000 0.000000 0.906906
O O14 0.426253 0.242437 0.201446
O O15 0.250000 0.000000 0.187833
O O16 0.500000 0.759298 0.500000
O O17 0.250000 0.843224 0.452890
O O18 0.536091 0.000000 0.457162
O O19 0.250000 0.284245 0.776659
O O20 0.484180 0.500000 0.769884
#
# Coordination Sequence:
#
# PCOD8213120 Si02
#       7
#     8   8   8   4   4   8   8
#     4  10  21  35  52  77 109 142 177 218 264 322
#     4   9  14  22  39  62  95 142 191 235 281 339
#     4  10  21  37  58  84 111 139 175 222 279 338
#     4   9  18  29  41  69 107 147 193 235 283 347
#     4  11  23  37  57  85 121 161 199 241 297 363
#     4   9  18  33  51  71  98 134 176 221 268 319
#     4  10  22  41  63  85 113 150 196 247 295 349
#
# _framework density 20.078882
#
# number of rings (size 3 to 8) (size 9 to 14) (size 15 to 20)
#    0.000    2.333    0.833    1.750    1.167    4.667 
#    0.000    3.333    0.000    0.000    0.000    0.000 
#    0.000    2.667    0.000    0.000    0.000    0.000 
#
# Total GULP energy -595082.152137 kJ/mol
# GULP energy per Si atom -12397.544836 kJ/mol
# Density = 2.003318 g / cm^3
# Si number density = 20.078882 Si / 1000 Ang^3
#
#
#
# Elastic Constant Matrix: (Units=GPa)
#
#
# Indices 1 2 3 4 5 6 
#
# 1 95.8062 32.8623 66.1438 0.0000 0.0000 0.0000
# 2 32.8623 92.4641 53.5807 0.0000 0.0000 0.0000
# 3 66.1438 53.5807 181.3581 0.0000 0.0000 0.0000
# 4 0.0000 0.0000 0.0000 3.0680 0.0000 0.0000
# 5 0.0000 0.0000 0.0000 0.0000 32.9810 0.0000
# 6 0.0000 0.0000 0.0000 0.0000 0.0000 15.2871
#
#
#
# Elastic Compliance Matrix: (Units=1/GPa)
#
#
# Indices 1 2 3 4 5 6 
#
# 1 0.014416 -0.002506 -0.004517 0.000000 0.000000 0.000000
# 2 -0.002506 0.013485 -0.003070 0.000000 0.000000 0.000000
# 3 -0.004517 -0.003070 0.008069 0.000000 0.000000 0.000000
# 4 0.000000 0.000000 0.000000 0.325943 0.000000 0.000000
# 5 0.000000 0.000000 0.000000 0.000000 0.030320 0.000000
# 6 0.000000 0.000000 0.000000 0.000000 0.000000 0.065415
#
#
# Mechanical properties :
#
#
# Convention : Reuss Voigt Hill
#
# Bulk Modulus (GPa) = 63.36057 74.97800 69.16929
# Shear Modulus (GPa) = 10.34993 24.73666 17.54330
#
# Velocity S-wave (km/s) = 2.27285 3.51376 2.95908
# Velocity P-wave (km/s) = 6.20581 7.34062 6.79694
#
# Compressibility (1/GPa) = 0.01578269
#
# Stress axis : x y z
#
# Youngs Moduli (GPa) = 69.36718 74.15875 123.93851
#
# Poissons Ratio (x) = 0.18583 0.55988
# Poissons Ratio (y) = 0.17382 0.38049
# Poissons Ratio (z) = 0.31336 0.22767
#
# Static dielectric constant tensor:
#      x y z
#    x 3.601870 0.000000 0.000000 
#    y 0.000000 3.644100 0.000000 
#    z 0.000000 0.000000 3.729040 
# 
# 
# High freq. dielectric constant tensor:
#      x y z
#    x 1.782550 0.000000 0.000000 
#    y 0.000000 1.758660 0.000000 
#    z 0.000000 0.000000 1.786080 
# 
# From -- ./inp_files/37081.got.cif
#   From: 2010.03.12/outbox.cif.g09.slc.cpg/sg51_19_cif.got.tgz:37081.got - 2010.04.16 13:43:02.
