data_PCOD8213040
_publ_section_title
;
Structure prediction by ZEFSAII (Michael W. Deem and Ramdas Pophale) SiO2 
 PCOD8213040
Probable space group: P M M A
;
_chemical_formula_sum "Si O2"
_cell_formula_units_Z 48
_cell_length_a 9.266901
_cell_length_b 9.463411
_cell_length_c 30.854658
_cell_angle_alpha 90.000000
_cell_angle_beta 90.000000
_cell_angle_gamma 90.000000
_cell_volume 2705.845295
_symmetry_space_group_name_H-M "P M M A"
_symmetry_group_IT_number 51
_symmetry_cell_setting 'orthorhombic'
loop_
_space_group_symop_operation_xyz
x,y,z
1/2-x,-y,z
1/2+x,-y,-z
-x,y,-z
-x,-y,-z
1/2+x,y,-z
1/2-x,y,z
x,-y,z
loop_
_atom_site_type_symbol
_atom_site_label
_atom_site_fract_x
_atom_site_fract_y
_atom_site_fract_z
Si Si1 0.080654 0.163159 0.709596
Si Si2 0.921376 0.343716 0.878257
Si Si3 0.917831 0.663544 0.374282
Si Si4 0.587094 0.668111 0.541106
Si Si5 0.418435 0.163795 0.042163
Si Si6 0.419296 0.336812 0.218645
O O1 0.250000 0.180865 0.716740
O O2 0.031214 0.243588 0.666267
O O3 0.002895 0.232139 0.750218
O O4 0.035161 0.000000 0.705634
O O5 0.750000 0.345683 0.879374
O O6 0.981613 0.500000 0.888251
O O7 0.981787 0.239205 0.915012
O O8 0.969379 0.296410 0.830143
O O9 0.750000 0.685963 0.385106
O O10 0.950755 0.500000 0.363683
O O11 0.008420 0.718422 0.415237
O O12 0.500000 0.729767 0.500000
O O13 0.750000 0.727775 0.540378
O O14 0.588199 0.500000 0.538893
O O15 0.250000 0.194603 0.035844
O O16 0.451858 0.000000 0.048526
O O17 0.500000 0.223597 0.000000
O O18 0.250000 0.312022 0.224841
O O19 0.458530 0.500000 0.228600
#
# Coordination Sequence:
#
# PCOD8213040 Si02
#       6
#     8   8   8   8   8   8
#     4  10  21  35  50  71 100 132 164 199 242 291
#     4   8  15  29  48  69  92 118 150 190 234 279
#     4   9  17  30  48  68  92 125 161 195 235 282
#     4   9  16  26  43  69  98 124 153 193 238 282
#     4   9  17  29  45  65  90 121 155 189 227 273
#     4   9  18  33  53  75  97 123 159 202 245 290
#
# _framework density 17.739371999999999
#
# number of rings (size 3 to 8) (size 9 to 14) (size 15 to 20)
#    0.000    3.000    0.000    2.000    0.000    5.000 
#    0.000    4.167    0.000    3.500    0.000    0.000 
#    0.000    0.000    0.000    0.000    0.000    0.000 
#
# Total GULP energy -595114.067453 kJ/mol
# GULP energy per Si atom -12398.209739 kJ/mol
# Density = 1.769900 g / cm^3
# Si number density = 17.739372 Si / 1000 Ang^3
#
#
#
# Elastic Constant Matrix: (Units=GPa)
#
#
# Indices 1 2 3 4 5 6 
#
# 1 56.1986 36.9090 63.5937 0.0000 0.0000 0.0000
# 2 36.9090 81.9367 83.4202 0.0000 0.0000 0.0000
# 3 63.5937 83.4202 185.7378 0.0000 0.0000 0.0000
# 4 0.0000 0.0000 0.0000 7.5383 0.0000 0.0000
# 5 0.0000 0.0000 0.0000 0.0000 34.6918 0.0000
# 6 0.0000 0.0000 0.0000 0.0000 0.0000 18.7263
#
#
#
# Elastic Compliance Matrix: (Units=1/GPa)
#
#
# Indices 1 2 3 4 5 6 
#
# 1 0.030434 -0.005712 -0.007854 0.000000 0.000000 0.000000
# 2 -0.005712 0.023559 -0.008625 0.000000 0.000000 0.000000
# 3 -0.007854 -0.008625 0.011947 0.000000 0.000000 0.000000
# 4 0.000000 0.000000 0.000000 0.132656 0.000000 0.000000
# 5 0.000000 0.000000 0.000000 0.000000 0.028825 0.000000
# 6 0.000000 0.000000 0.000000 0.000000 0.000000 0.053401
#
#
# Mechanical properties :
#
#
# Convention : Reuss Voigt Hill
#
# Bulk Modulus (GPa) = 46.39156 76.85765 61.62461
# Shear Modulus (GPa) = 15.04251 21.52130 18.28190
#
# Velocity S-wave (km/s) = 2.91516 3.48687 3.21375
# Velocity P-wave (km/s) = 6.12694 7.72212 6.97031
#
# Compressibility (1/GPa) = 0.02155564
#
# Stress axis : x y z
#
# Youngs Moduli (GPa) = 32.85833 42.44631 83.70308
#
# Poissons Ratio (x) = 0.24247 0.65744
# Poissons Ratio (y) = 0.18770 0.72196
# Poissons Ratio (z) = 0.25808 0.36611
#
# Static dielectric constant tensor:
#      x y z
#    x 3.169610 0.000000 0.000000 
#    y 0.000000 3.172890 0.000000 
#    z 0.000000 0.000000 3.536020 
# 
# 
# High freq. dielectric constant tensor:
#      x y z
#    x 1.665940 0.000000 0.000000 
#    y 0.000000 1.662550 0.000000 
#    z 0.000000 0.000000 1.701030 
# 
# From -- ./inp_files/37047.got.cif
#   From: 2010.03.12/outbox.cif.g09.slc.cpg/sg51_19_cif.got.tgz:37047.got - 2010.04.16 13:43:02.
