data_PCOD8213777
_publ_section_title
;
Structure prediction by ZEFSAII (Michael W. Deem and Ramdas Pophale) SiO2 
 PCOD8213777
Probable space group: P M M A
;
_chemical_formula_sum "Si O2"
_cell_formula_units_Z 30
_cell_length_a 14.861451
_cell_length_b 7.663352
_cell_length_c 12.889401
_cell_angle_alpha 90.000000
_cell_angle_beta 90.000000
_cell_angle_gamma 90.000000
_cell_volume 1467.954936
_symmetry_space_group_name_H-M "P M M A"
_symmetry_group_IT_number 51
_symmetry_cell_setting 'orthorhombic'
loop_
_space_group_symop_operation_xyz
x,y,z
1/2-x,-y,z
1/2+x,-y,-z
-x,y,-z
-x,-y,-z
1/2+x,y,-z
1/2-x,y,z
x,-y,z
loop_
_atom_site_type_symbol
_atom_site_label
_atom_site_fract_x
_atom_site_fract_y
_atom_site_fract_z
Si Si1 0.250000 0.307028 0.387231
Si Si2 0.345552 0.500000 0.912484
Si Si3 0.428904 0.802633 0.284813
Si Si4 0.097666 0.193297 0.048464
Si Si5 0.938382 0.500000 0.295355
Si Si6 0.250000 0.500000 0.586166
O O1 0.250000 0.500000 0.334726
O O2 0.160826 0.204743 0.353703
O O3 0.250000 0.327559 0.512682
O O4 0.250000 0.500000 0.852757
O O5 0.425754 0.500000 0.829384
O O6 0.344462 0.669794 0.984762
O O7 0.404651 0.748273 0.167951
O O8 0.505201 0.671513 0.328575
O O9 0.467456 0.000000 0.289019
O O10 0.141070 0.000000 0.039127
O O11 0.000000 0.192365 0.000000
O O12 0.840930 0.500000 0.347360
#
# Coordination Sequence:
#
# PCOD8213777 Si02
#       6
#     4   4   8   8   4   2
#     4  10  23  43  67  92 121 164 202 266 325 374
#     4  12  24  34  58  90 128 174 211 244 296 372
#     4  11  23  40  67  98 130 166 206 255 314 380
#     4  10  21  37  58  90 129 165 204 247 294 363
#     4  12  22  44  65  91 127 167 214 261 318 367
#     4  10  26  46  70  88 122 166 208 280 326 366
#
# _framework density 20.436595000000001
#
# number of rings (size 3 to 8) (size 9 to 14) (size 15 to 20)
#    0.400    0.800    4.667    1.600    1.867    2.667 
#    0.000    4.667    0.000    0.000    0.000    0.000 
#    0.000    0.000    0.000    0.000    0.000    0.000 
#
# Total GULP energy -371921.437226 kJ/mol
# GULP energy per Si atom -12397.381241 kJ/mol
# Density = 2.039008 g / cm^3
# Si number density = 20.436595 Si / 1000 Ang^3
#
#
#
# Elastic Constant Matrix: (Units=GPa)
#
#
# Indices 1 2 3 4 5 6 
#
# 1 135.7446 55.0463 41.9267 0.0000 0.0000 0.0000
# 2 55.0463 121.2435 33.6316 0.0000 0.0000 0.0000
# 3 41.9267 33.6316 90.3150 0.0000 0.0000 0.0000
# 4 0.0000 0.0000 0.0000 46.3543 0.0000 0.0000
# 5 0.0000 0.0000 0.0000 0.0000 29.2317 0.0000
# 6 0.0000 0.0000 0.0000 0.0000 0.0000 -43.7889
#
#
#
# Elastic Compliance Matrix: (Units=1/GPa)
#
#
# Indices 1 2 3 4 5 6 
#
# 1 0.009806 -0.003557 -0.003228 0.000000 0.000000 0.000000
# 2 -0.003557 0.010488 -0.002254 0.000000 0.000000 0.000000
# 3 -0.003228 -0.002254 0.013410 0.000000 0.000000 0.000000
# 4 0.000000 0.000000 0.000000 0.021573 0.000000 0.000000
# 5 0.000000 0.000000 0.000000 0.000000 0.034209 0.000000
# 6 0.000000 0.000000 0.000000 0.000000 0.000000 -0.022837
#
#
# Mechanical properties :
#
#
# Convention : Reuss Voigt Hill
#
# Bulk Modulus (GPa) = 63.99383 67.61249 65.80316
# Shear Modulus (GPa) = 55.59475 20.80598 38.20037
#
# Velocity S-wave (km/s) = 5.22136 3.19419 4.32813
# Velocity P-wave (km/s) = 8.22991 6.83810 7.56608
#
# Compressibility (1/GPa) = 0.01562651
#
# Stress axis : x y z
#
# Youngs Moduli (GPa) = 101.97820 95.34685 74.56964
#
# Poissons Ratio (x) = 0.33912 0.24069
# Poissons Ratio (y) = 0.36271 0.16811
# Poissons Ratio (z) = 0.32916 0.21495
#
# Static dielectric constant tensor:
#      x y z
#    x 3.473800 0.000000 0.000000 
#    y 0.000000 3.991010 0.000000 
#    z 0.000000 0.000000 3.588690 
# 
# 
# High freq. dielectric constant tensor:
#      x y z
#    x 1.796930 0.000000 0.000000 
#    y 0.000000 1.803910 0.000000 
#    z 0.000000 0.000000 1.784190 
# 
# From -- ./inp_files/15865.got.cif
#   From: 2010.03.12/outbox.cif.g09.slc.cpg/sg51_8_cif.got.tgz:15865.got - 2010.04.16 13:43:02.
