data_PCOD8213880
_publ_section_title
;
Structure prediction by ZEFSAII (Michael W. Deem and Ramdas Pophale) SiO2 
 PCOD8213880
Probable space group: P M M A
;
_chemical_formula_sum "Si O2"
_cell_formula_units_Z 48
_cell_length_a 15.548442
_cell_length_b 9.108397
_cell_length_c 16.929559
_cell_angle_alpha 90.000000
_cell_angle_beta 90.000000
_cell_angle_gamma 90.000000
_cell_volume 2397.587550
_symmetry_space_group_name_H-M "P M M A"
_symmetry_group_IT_number 51
_symmetry_cell_setting 'orthorhombic'
loop_
_space_group_symop_operation_xyz
x,y,z
1/2-x,-y,z
1/2+x,-y,-z
-x,y,-z
-x,-y,-z
1/2+x,y,-z
1/2-x,y,z
x,-y,z
loop_
_atom_site_type_symbol
_atom_site_label
_atom_site_fract_x
_atom_site_fract_y
_atom_site_fract_z
Si Si1 0.081410 0.162347 0.640796
Si Si2 0.250000 0.669818 0.903541
Si Si3 0.406267 0.173534 0.176594
Si Si4 0.750000 0.174001 0.931239
Si Si5 0.584546 0.672803 0.201200
Si Si6 0.153962 0.662212 0.499628
Si Si7 0.880131 0.839613 0.649807
O O1 0.111473 0.262541 0.713625
O O2 0.101920 0.232245 0.556580
O O3 0.980805 0.146374 0.640880
O O4 0.123893 0.000000 0.647425
O O5 0.250000 0.500000 0.927556
O O6 0.335909 0.709382 0.855517
O O7 0.250000 0.766744 0.981106
O O8 0.337617 0.228242 0.111593
O O9 0.497451 0.256198 0.165774
O O10 0.361844 0.211907 0.260612
O O11 0.425727 0.000000 0.171074
O O12 0.750000 0.000000 0.931772
O O13 0.569650 0.500000 0.210828
O O14 0.250000 0.652510 0.532913
O O15 0.111771 0.500000 0.498638
O O16 0.157734 0.722524 0.410574
O O17 0.838188 0.000000 0.634102
#
# Coordination Sequence:
#
# PCOD8213880 Si02
#       7
#     8   4   8   4   8   8   8
#     4  10  21  38  59  83 109 145 194 242 287 340
#     4  10  24  42  60  87 122 157 192 235 294 359
#     4   9  20  39  62  90 120 153 196 244 293 347
#     4  10  22  40  64  91 120 155 194 241 294 347
#     4  10  21  39  62  87 119 158 195 240 296 352
#     4  11  24  36  49  78 117 152 190 235 282 336
#     4   9  19  36  58  80 108 145 189 237 285 337
#
# _framework density 20.020123999999999
#
# number of rings (size 3 to 8) (size 9 to 14) (size 15 to 20)
#    0.000    2.167    0.000    3.000    2.333    9.333 
#    0.000    3.333    0.000    0.000    0.000    0.000 
#    0.000    0.000    0.000    0.000    0.000    0.000 
#
# Total GULP energy -595109.291161 kJ/mol
# GULP energy per Si atom -12398.110233 kJ/mol
# Density = 1.997456 g / cm^3
# Si number density = 20.020124 Si / 1000 Ang^3
#
#
#
# Elastic Constant Matrix: (Units=GPa)
#
#
# Indices 1 2 3 4 5 6 
#
# 1 73.6026 45.0334 53.6357 0.0000 0.0000 0.0000
# 2 45.0334 110.9887 53.7360 0.0000 0.0000 0.0000
# 3 53.6357 53.7360 115.1239 0.0000 0.0000 0.0000
# 4 0.0000 0.0000 0.0000 43.3619 0.0000 0.0000
# 5 0.0000 0.0000 0.0000 0.0000 32.0095 0.0000
# 6 0.0000 0.0000 0.0000 0.0000 0.0000 41.6697
#
#
#
# Elastic Compliance Matrix: (Units=1/GPa)
#
#
# Indices 1 2 3 4 5 6 
#
# 1 0.022749 -0.005296 -0.008127 0.000000 0.000000 0.000000
# 2 -0.005296 0.012873 -0.003542 0.000000 0.000000 0.000000
# 3 -0.008127 -0.003542 0.014126 0.000000 0.000000 0.000000
# 4 0.000000 0.000000 0.000000 0.023062 0.000000 0.000000
# 5 0.000000 0.000000 0.000000 0.000000 0.031241 0.000000
# 6 0.000000 0.000000 0.000000 0.000000 0.000000 0.023998
#
#
# Mechanical properties :
#
#
# Convention : Reuss Voigt Hill
#
# Bulk Modulus (GPa) = 63.21229 67.16948 65.19089
# Shear Modulus (GPa) = 29.89548 33.22891 31.56219
#
# Velocity S-wave (km/s) = 3.86848 4.07845 3.97485
# Velocity P-wave (km/s) = 7.18307 7.47009 7.32798
#
# Compressibility (1/GPa) = 0.01581971
#
# Stress axis : x y z
#
# Youngs Moduli (GPa) = 43.95859 77.67999 70.79347
#
# Poissons Ratio (x) = 0.41137 0.57532
# Poissons Ratio (y) = 0.23279 0.25072
# Poissons Ratio (z) = 0.35724 0.27511
#
# Static dielectric constant tensor:
#      x y z
#    x 3.588380 0.000000 0.000000 
#    y 0.000000 3.824400 0.000000 
#    z 0.000000 0.000000 3.808590 
# 
# 
# High freq. dielectric constant tensor:
#      x y z
#    x 1.784980 0.000000 0.000000 
#    y 0.000000 1.782660 0.000000 
#    z 0.000000 0.000000 1.778730 
# 
# From -- ./inp_files/29642.got.cif
#   From: 2010.03.12/outbox.cif.g09.slc.cpg/sg51_15_cif.got.tgz:29642.got - 2010.04.16 13:43:02.
