data_PCOD8213396
_publ_section_title
;
Structure prediction by ZEFSAII (Michael W. Deem and Ramdas Pophale) SiO2 
 PCOD8213396
Probable space group: P M M A
;
_chemical_formula_sum "Si O2"
_cell_formula_units_Z 64
_cell_length_a 14.593540
_cell_length_b 9.190558
_cell_length_c 24.239083
_cell_angle_alpha 90.000000
_cell_angle_beta 90.000000
_cell_angle_gamma 90.000000
_cell_volume 3251.013095
_symmetry_space_group_name_H-M "P M M A"
_symmetry_group_IT_number 51
_symmetry_cell_setting 'orthorhombic'
loop_
_space_group_symop_operation_xyz
x,y,z
1/2-x,-y,z
1/2+x,-y,-z
-x,y,-z
-x,-y,-z
1/2+x,y,-z
1/2-x,y,z
x,-y,z
loop_
_atom_site_type_symbol
_atom_site_label
_atom_site_fract_x
_atom_site_fract_y
_atom_site_fract_z
Si Si1 0.503343 0.668088 0.259726
Si Si2 0.143611 0.169274 0.935576
Si Si3 0.859055 0.335839 0.438099
Si Si4 0.640754 0.835638 0.543636
Si Si5 0.497291 0.668387 0.866390
Si Si6 0.143237 0.169495 0.670773
Si Si7 0.354421 0.668882 0.045058
Si Si8 0.854629 0.331391 0.651141
O O1 0.531299 0.500000 0.267686
O O2 0.478696 0.703492 0.196730
O O3 0.588895 0.767507 0.277086
O O4 0.413800 0.707706 0.295249
O O5 0.250000 0.201580 0.925299
O O6 0.089858 0.237330 0.884271
O O7 0.122040 0.000000 0.939478
O O8 0.109808 0.242407 0.992320
O O9 0.750000 0.336919 0.440650
O O10 0.897867 0.500000 0.437029
O O11 0.899163 0.251542 0.491141
O O12 0.892501 0.252757 0.383518
O O13 0.750000 0.832796 0.541744
O O14 0.606087 0.759139 0.599474
O O15 0.603403 0.000000 0.541785
O O16 0.472212 0.500000 0.874779
O O17 0.585723 0.712864 0.902150
O O18 0.250000 0.198334 0.681549
O O19 0.122556 0.000000 0.662955
O O20 0.250000 0.710092 0.059448
O O21 0.364647 0.500000 0.030194
O O22 0.750000 0.287985 0.664662
O O23 0.861798 0.500000 0.635007
#
# Coordination Sequence:
#
# PCOD8213396 Si02
#       8
#     8   8   8   8   8   8   8   8
#     4  10  22  38  55  78 107 140 181 224 263 309
#     4  10  21  36  55  81 112 144 178 217 263 314
#     4   9  16  28  50  78 105 134 170 214 267 325
#     4   9  16  27  47  76 107 137 171 213 263 319
#     4  10  21  36  55  80 109 142 180 221 264 310
#     4  10  21  37  56  77 104 139 177 220 270 320
#     4   9  18  34  57  84 113 143 175 214 262 315
#     4   9  18  34  55  77 104 139 176 216 264 316
#
# _framework density 19.686171999999999
#
# number of rings (size 3 to 8) (size 9 to 14) (size 15 to 20)
#    0.000    2.500    0.000    1.875    0.000    8.500 
#    0.000    5.625    0.000    3.750    0.000    5.250 
#    0.000    0.000    0.000    0.000    0.000    0.000 
#
# Total GULP energy -793851.880181 kJ/mol
# GULP energy per Si atom -12403.935628 kJ/mol
# Density = 1.964137 g / cm^3
# Si number density = 19.686172 Si / 1000 Ang^3
#
#
#
# Elastic Constant Matrix: (Units=GPa)
#
#
# Indices 1 2 3 4 5 6 
#
# 1 54.3459 33.3001 36.9953 0.0000 0.0000 0.0000
# 2 33.3001 94.5294 47.7982 0.0000 0.0000 0.0000
# 3 36.9953 47.7982 121.3384 0.0000 0.0000 0.0000
# 4 0.0000 0.0000 0.0000 13.4385 0.0000 0.0000
# 5 0.0000 0.0000 0.0000 0.0000 24.3803 0.0000
# 6 0.0000 0.0000 0.0000 0.0000 0.0000 22.6351
#
#
#
# Elastic Compliance Matrix: (Units=1/GPa)
#
#
# Indices 1 2 3 4 5 6 
#
# 1 0.026019 -0.006437 -0.005397 0.000000 0.000000 0.000000
# 2 -0.006437 0.014802 -0.003869 0.000000 0.000000 0.000000
# 3 -0.005397 -0.003869 0.011411 0.000000 0.000000 0.000000
# 4 0.000000 0.000000 0.000000 0.074413 0.000000 0.000000
# 5 0.000000 0.000000 0.000000 0.000000 0.041017 0.000000
# 6 0.000000 0.000000 0.000000 0.000000 0.000000 0.044179
#
#
# Mechanical properties :
#
#
# Convention : Reuss Voigt Hill
#
# Bulk Modulus (GPa) = 48.01451 56.26677 52.14064
# Shear Modulus (GPa) = 19.98494 22.23212 21.10853
#
# Velocity S-wave (km/s) = 3.18964 3.36419 3.27808
# Velocity P-wave (km/s) = 6.16506 6.61319 6.39305
#
# Compressibility (1/GPa) = 0.02082704
#
# Stress axis : x y z
#
# Youngs Moduli (GPa) = 38.43364 67.55749 87.63489
#
# Poissons Ratio (x) = 0.43484 0.47301
# Poissons Ratio (y) = 0.24738 0.33902
# Poissons Ratio (z) = 0.20745 0.26135
#
# Static dielectric constant tensor:
#      x y z
#    x 3.464620 0.000000 0.000000 
#    y 0.000000 3.625340 0.000000 
#    z 0.000000 0.000000 3.580610 
# 
# 
# High freq. dielectric constant tensor:
#      x y z
#    x 1.761020 0.000000 0.000000 
#    y 0.000000 1.767080 0.000000 
#    z 0.000000 0.000000 1.763190 
# 
# From -- ./inp_files/35651.got.cif
#   From: 2010.03.12/outbox.cif.g09.slc.cpg/sg51_18_cif.got.tgz:35651.got - 2010.04.16 13:43:02.
