data_PCOD8213438
_publ_section_title
;
Structure prediction by ZEFSAII (Michael W. Deem and Ramdas Pophale) SiO2 
 PCOD8213438
Probable space group: P M M A
;
_chemical_formula_sum "Si O2"
_cell_formula_units_Z 44
_cell_length_a 9.612048
_cell_length_b 14.420190
_cell_length_c 15.712340
_cell_angle_alpha 90.000000
_cell_angle_beta 90.000000
_cell_angle_gamma 90.000000
_cell_volume 2177.849085
_symmetry_space_group_name_H-M "P M M A"
_symmetry_group_IT_number 51
_symmetry_cell_setting 'orthorhombic'
loop_
_space_group_symop_operation_xyz
x,y,z
1/2-x,-y,z
1/2+x,-y,-z
-x,y,-z
-x,-y,-z
1/2+x,y,-z
1/2-x,y,z
x,-y,z
loop_
_atom_site_type_symbol
_atom_site_label
_atom_site_fract_x
_atom_site_fract_y
_atom_site_fract_z
Si Si1 0.250000 0.392376 0.064940
Si Si2 0.908423 0.148341 0.578599
Si Si3 0.099510 0.654821 0.356111
Si Si4 0.250000 0.393382 0.863168
Si Si5 0.028337 0.292599 0.173238
Si Si6 0.914380 0.102619 0.767207
Si Si7 0.415064 0.500000 0.586365
O O1 0.250000 0.500000 0.096925
O O2 0.386628 0.337889 0.095666
O O3 0.250000 0.389367 0.964192
O O4 0.750000 0.115240 0.563933
O O5 0.918949 0.259764 0.579817
O O6 0.965586 0.110139 0.668878
O O7 0.000000 0.110059 0.500000
O O8 0.250000 0.606584 0.376746
O O9 0.110996 0.688980 0.259747
O O10 0.965179 0.589754 0.362633
O O11 0.250000 0.500000 0.831312
O O12 0.120505 0.339815 0.824320
O O13 0.015644 0.179777 0.170079
O O14 0.750000 0.118665 0.769877
O O15 0.954891 0.000000 0.801145
O O16 0.250000 0.500000 0.574032
O O17 0.500000 0.500000 0.500000
#
# Coordination Sequence:
#
# PCOD8213438 Si02
#       7
#     4   8   8   4   8   8   4
#     4  11  22  40  65  93 121 162 200 240 295 370
#     4   9  18  33  52  79 111 147 192 244 297 349
#     4  10  21  36  56  78 108 155 204 247 292 354
#     4  11  26  40  59  93 135 158 188 244 309 364
#     4  11  21  39  63  90 121 162 201 243 300 362
#     4   9  18  37  63  87 113 157 210 252 298 354
#     4  12  26  38  52  78 113 154 203 251 301 350
#
# _framework density 20.203420999999999
#
# number of rings (size 3 to 8) (size 9 to 14) (size 15 to 20)
#    0.000    1.818    1.818    3.545    3.818    4.000 
#    4.909    0.455    0.000    3.273    0.000    0.000 
#    0.000    0.000    0.000    0.000    0.000    0.000 
#
# Total GULP energy -545392.626528 kJ/mol
# GULP energy per Si atom -12395.286967 kJ/mol
# Density = 2.015744 g / cm^3
# Si number density = 20.203421 Si / 1000 Ang^3
#
#
#
# Elastic Constant Matrix: (Units=GPa)
#
#
# Indices 1 2 3 4 5 6 
#
# 1 120.5527 53.4103 14.1178 0.0000 0.0000 0.0000
# 2 53.4103 160.5405 30.5097 0.0000 0.0000 0.0000
# 3 14.1178 30.5097 47.9564 0.0000 0.0000 0.0000
# 4 0.0000 0.0000 0.0000 18.0006 0.0000 0.0000
# 5 0.0000 0.0000 0.0000 0.0000 24.7607 0.0000
# 6 0.0000 0.0000 0.0000 0.0000 0.0000 22.8129
#
#
#
# Elastic Compliance Matrix: (Units=1/GPa)
#
#
# Indices 1 2 3 4 5 6 
#
# 1 0.009765 -0.003074 -0.000919 0.000000 0.000000 0.000000
# 2 -0.003074 0.008053 -0.004219 0.000000 0.000000 0.000000
# 3 -0.000919 -0.004219 0.023807 0.000000 0.000000 0.000000
# 4 0.000000 0.000000 0.000000 0.055554 0.000000 0.000000
# 5 0.000000 0.000000 0.000000 0.000000 0.040387 0.000000
# 6 0.000000 0.000000 0.000000 0.000000 0.000000 0.043835
#
#
# Mechanical properties :
#
#
# Convention : Reuss Voigt Hill
#
# Bulk Modulus (GPa) = 39.67992 58.34725 49.01358
# Shear Modulus (GPa) = 24.24556 28.51562 26.38059
#
# Velocity S-wave (km/s) = 3.46796 3.76097 3.61743
# Velocity P-wave (km/s) = 5.97650 6.91393 6.46224
#
# Compressibility (1/GPa) = 0.02520167
#
# Stress axis : x y z
#
# Youngs Moduli (GPa) = 102.41017 124.17181 42.00509
#
# Poissons Ratio (x) = 0.38170 0.03860
# Poissons Ratio (y) = 0.31481 0.17720
# Poissons Ratio (z) = 0.09411 0.52383
#
# Static dielectric constant tensor:
#      x y z
#    x 3.633390 0.000000 0.000000 
#    y 0.000000 3.833320 0.000000 
#    z 0.000000 0.000000 3.449170 
# 
# 
# High freq. dielectric constant tensor:
#      x y z
#    x 1.776720 0.000000 0.000000 
#    y 0.000000 1.793600 0.000000 
#    z 0.000000 0.000000 1.770830 
# 
# From -- ./inp_files/27470.got.cif
#   From: 2010.03.12/outbox.cif.g09.slc.cpg/sg51_14_cif.got.tgz:27470.got - 2010.04.16 13:43:02.
