data_PCOD8213149
_publ_section_title
;
Structure prediction by ZEFSAII (Michael W. Deem and Ramdas Pophale) SiO2 
 PCOD8213149
Probable space group: P M M A
;
_chemical_formula_sum "Si O2"
_cell_formula_units_Z 64
_cell_length_a 18.178404
_cell_length_b 9.006570
_cell_length_c 21.244865
_cell_angle_alpha 90.000000
_cell_angle_beta 90.000000
_cell_angle_gamma 90.000000
_cell_volume 3478.316969
_symmetry_space_group_name_H-M "P M M A"
_symmetry_group_IT_number 51
_symmetry_cell_setting 'orthorhombic'
loop_
_space_group_symop_operation_xyz
x,y,z
1/2-x,-y,z
1/2+x,-y,-z
-x,y,-z
-x,-y,-z
1/2+x,y,-z
1/2-x,y,z
x,-y,z
loop_
_atom_site_type_symbol
_atom_site_label
_atom_site_fract_x
_atom_site_fract_y
_atom_site_fract_z
Si Si1 0.477112 0.325603 0.432129
Si Si2 0.459386 0.827621 0.685308
Si Si3 0.108242 0.173733 0.247192
Si Si4 0.834343 0.669590 0.244199
Si Si5 0.334876 0.332624 0.900765
Si Si6 0.168338 0.329347 0.364769
Si Si7 0.085012 0.172545 0.007057
Si Si8 0.665066 0.324135 0.877641
O O1 0.500000 0.260272 0.500000
O O2 0.490382 0.500000 0.430633
O O3 0.529963 0.255424 0.380348
O O4 0.391800 0.284342 0.417422
O O5 0.524274 0.788684 0.734353
O O6 0.382251 0.779033 0.714017
O O7 0.457859 0.000000 0.670085
O O8 0.161231 0.229620 0.302675
O O9 0.126281 0.257234 0.183263
O O10 0.121307 0.000000 0.237154
O O11 0.750000 0.693348 0.263688
O O12 0.858227 0.500000 0.256429
O O13 0.846098 0.710759 0.171576
O O14 0.250000 0.324003 0.919981
O O15 0.363791 0.500000 0.913610
O O16 0.378739 0.212484 0.940678
O O17 0.250000 0.304731 0.393281
O O18 0.156474 0.500000 0.344286
O O19 0.122081 0.268587 0.061411
O O20 0.097048 0.000000 0.022270
O O21 0.000000 0.213242 0.000000
O O22 0.750000 0.272828 0.881045
O O23 0.658953 0.500000 0.874430
#
# Coordination Sequence:
#
# PCOD8213149 Si02
#       8
#     8   8   8   8   8   8   8   8
#     4   9  18  34  55  78 107 146 188 225 267 319
#     4  10  21  35  54  81 113 145 178 220 269 322
#     4  10  21  35  53  80 112 143 175 216 268 324
#     4   9  19  36  58  83 109 139 179 226 272 320
#     4   9  19  37  59  81 104 134 177 225 271 322
#     4   9  17  31  52  78 107 139 180 226 267 313
#     4  11  25  40  54  77 109 141 177 221 268 323
#     4  11  24  40  58  80 106 139 180 223 268 320
#
# _framework density 18.399704
#
# number of rings (size 3 to 8) (size 9 to 14) (size 15 to 20)
#    0.000    2.250    0.000    3.000    1.750    8.000 
#    0.000    1.875    0.000    2.250    0.000    0.000 
#    0.000    0.000    0.000    0.000    0.000    0.000 
#
# Total GULP energy -793744.071878 kJ/mol
# GULP energy per Si atom -12402.251123 kJ/mol
# Density = 1.835783 g / cm^3
# Si number density = 18.399704 Si / 1000 Ang^3
#
#
#
# Elastic Constant Matrix: (Units=GPa)
#
#
# Indices 1 2 3 4 5 6 
#
# 1 96.7197 34.9878 59.9037 0.0000 0.0000 0.0000
# 2 34.9878 52.6853 37.7175 0.0000 0.0000 0.0000
# 3 59.9037 37.7175 101.4926 0.0000 0.0000 0.0000
# 4 0.0000 0.0000 0.0000 7.3345 0.0000 0.0000
# 5 0.0000 0.0000 0.0000 0.0000 24.9072 0.0000
# 6 0.0000 0.0000 0.0000 0.0000 0.0000 22.1755
#
#
#
# Elastic Compliance Matrix: (Units=1/GPa)
#
#
# Indices 1 2 3 4 5 6 
#
# 1 0.017490 -0.005756 -0.008184 0.000000 0.000000 0.000000
# 2 -0.005756 0.027755 -0.006917 0.000000 0.000000 0.000000
# 3 -0.008184 -0.006917 0.017254 0.000000 0.000000 0.000000
# 4 0.000000 0.000000 0.000000 0.136342 0.000000 0.000000
# 5 0.000000 0.000000 0.000000 0.000000 0.040149 0.000000
# 6 0.000000 0.000000 0.000000 0.000000 0.000000 0.045095
#
#
# Mechanical properties :
#
#
# Convention : Reuss Voigt Hill
#
# Bulk Modulus (GPa) = 48.11228 57.34618 52.72923
# Shear Modulus (GPa) = 15.02730 18.76936 16.89833
#
# Velocity S-wave (km/s) = 2.86092 3.19735 3.03380
# Velocity P-wave (km/s) = 6.09248 6.69816 6.40248
#
# Compressibility (1/GPa) = 0.02078471
#
# Stress axis : x y z
#
# Youngs Moduli (GPa) = 57.17471 36.02921 57.95746
#
# Poissons Ratio (x) = 0.20739 0.47433
# Poissons Ratio (y) = 0.32910 0.40090
# Poissons Ratio (z) = 0.46792 0.24922
#
# Static dielectric constant tensor:
#      x y z
#    x 3.484790 0.000000 0.000000 
#    y 0.000000 3.364320 0.000000 
#    z 0.000000 0.000000 3.375380 
# 
# 
# High freq. dielectric constant tensor:
#      x y z
#    x 1.718720 0.000000 0.000000 
#    y 0.000000 1.715300 0.000000 
#    z 0.000000 0.000000 1.706330 
# 
# From -- ./inp_files/33751.got.cif
#   From: 2010.03.12/outbox.cif.g09.slc.cpg/sg51_17_cif.got.tgz:33751.got - 2010.04.16 13:43:02.
