data_PCOD8213338
_publ_section_title
;
Structure prediction by ZEFSAII (Michael W. Deem and Ramdas Pophale) SiO2 
 PCOD8213338
Probable space group: P M M A
;
_chemical_formula_sum "Si O2"
_cell_formula_units_Z 56
_cell_length_a 14.101632
_cell_length_b 9.015119
_cell_length_c 21.790476
_cell_angle_alpha 90.000000
_cell_angle_beta 90.000000
_cell_angle_gamma 90.000000
_cell_volume 2770.177248
_symmetry_space_group_name_H-M "P M M A"
_symmetry_group_IT_number 51
_symmetry_cell_setting 'orthorhombic'
loop_
_space_group_symop_operation_xyz
x,y,z
1/2-x,-y,z
1/2+x,-y,-z
-x,y,-z
-x,-y,-z
1/2+x,y,-z
1/2-x,y,z
x,-y,z
loop_
_atom_site_type_symbol
_atom_site_label
_atom_site_fract_x
_atom_site_fract_y
_atom_site_fract_z
Si Si1 0.363161 0.167785 0.956071
Si Si2 0.136925 0.332875 0.075585
Si Si3 0.359775 0.171720 0.197158
Si Si4 0.142229 0.673205 0.835343
Si Si5 0.480995 0.675074 0.587369
Si Si6 0.504692 0.671666 0.272655
Si Si7 0.139597 0.175587 0.487177
O O1 0.250000 0.178455 0.956779
O O2 0.402748 0.246053 0.894701
O O3 0.399166 0.000000 0.956840
O O4 0.404823 0.247737 0.016537
O O5 0.250000 0.327376 0.074143
O O6 0.098499 0.500000 0.074740
O O7 0.099680 0.256059 0.137526
O O8 0.250000 0.204880 0.207474
O O9 0.412105 0.231892 0.257481
O O10 0.380343 0.000000 0.187405
O O11 0.250000 0.724805 0.825114
O O12 0.135705 0.500000 0.848757
O O13 0.087956 0.719250 0.773627
O O14 0.483565 0.500000 0.572832
O O15 0.461913 0.706882 0.658670
O O16 0.395118 0.752433 0.550996
O O17 0.581052 0.748346 0.567938
O O18 0.477767 0.500000 0.265127
O O19 0.250000 0.211056 0.477526
O O20 0.120030 0.000000 0.488196
#
# Coordination Sequence:
#
# PCOD8213338 Si02
#       7
#     8   8   8   8   8   8   8
#     4   9  16  27  46  73 103 134 173 223 276 328
#     4   9  16  28  49  74 100 134 176 224 279 333
#     4  10  21  36  54  77 106 142 183 227 276 328
#     4   9  18  34  54  75 103 140 180 221 269 326
#     4  10  21  37  59  87 117 149 186 229 273 318
#     4  10  22  38  56  81 112 146 183 223 268 318
#     4  10  21  38  61  88 118 151 185 223 269 321
#
# _framework density 20.215312999999998
#
# number of rings (size 3 to 8) (size 9 to 14) (size 15 to 20)
#    0.000    2.429    0.000    3.000    0.000    8.286 
#    0.000    5.000    0.000    6.000    0.000    0.000 
#    0.000    0.000    0.000    0.000    0.000    0.000 
#
# Total GULP energy -694525.338202 kJ/mol
# GULP energy per Si atom -12402.238182 kJ/mol
# Density = 2.016930 g / cm^3
# Si number density = 20.215313 Si / 1000 Ang^3
#
#
#
# Elastic Constant Matrix: (Units=GPa)
#
#
# Indices 1 2 3 4 5 6 
#
# 1 42.2985 17.5783 4.4110 0.0000 0.0000 0.0000
# 2 17.5783 90.7135 27.2580 0.0000 0.0000 0.0000
# 3 4.4110 27.2580 106.6092 0.0000 0.0000 0.0000
# 4 0.0000 0.0000 0.0000 19.2264 0.0000 0.0000
# 5 0.0000 0.0000 0.0000 0.0000 18.4801 0.0000
# 6 0.0000 0.0000 0.0000 0.0000 0.0000 24.1676
#
#
#
# Elastic Compliance Matrix: (Units=1/GPa)
#
#
# Indices 1 2 3 4 5 6 
#
# 1 0.025717 -0.005052 0.000228 0.000000 0.000000 0.000000
# 2 -0.005052 0.012934 -0.003098 0.000000 0.000000 0.000000
# 3 0.000228 -0.003098 0.010163 0.000000 0.000000 0.000000
# 4 0.000000 0.000000 0.000000 0.052012 0.000000 0.000000
# 5 0.000000 0.000000 0.000000 0.000000 0.054112 0.000000
# 6 0.000000 0.000000 0.000000 0.000000 0.000000 0.041378
#
#
# Mechanical properties :
#
#
# Convention : Reuss Voigt Hill
#
# Bulk Modulus (GPa) = 30.33126 37.56841 33.94984
# Shear Modulus (GPa) = 22.40655 25.06641 23.73648
#
# Velocity S-wave (km/s) = 3.33287 3.52514 3.43035
# Velocity P-wave (km/s) = 5.46327 5.93240 5.70266
#
# Compressibility (1/GPa) = 0.03296929
#
# Stress axis : x y z
#
# Youngs Moduli (GPa) = 38.88451 77.31858 98.39902
#
# Poissons Ratio (x) = 0.39060 -0.02240
# Poissons Ratio (y) = 0.19644 0.30482
# Poissons Ratio (z) = -0.00885 0.23952
#
# Static dielectric constant tensor:
#      x y z
#    x 3.520820 0.000000 0.000000 
#    y 0.000000 3.725170 0.000000 
#    z 0.000000 0.000000 3.696060 
# 
# 
# High freq. dielectric constant tensor:
#      x y z
#    x 1.783330 0.000000 0.000000 
#    y 0.000000 1.795720 0.000000 
#    z 0.000000 0.000000 1.788040 
# 
# From -- ./inp_files/33387.got.cif
#   From: 2010.03.12/outbox.cif.g09.slc.cpg/sg51_17_cif.got.tgz:33387.got - 2010.04.16 13:43:02.
