data_PCOD8213988
_publ_section_title
;
Structure prediction by ZEFSAII (Michael W. Deem and Ramdas Pophale) SiO2 
 PCOD8213988
Probable space group: P M M A
;
_chemical_formula_sum "Si O2"
_cell_formula_units_Z 64
_cell_length_a 14.589456
_cell_length_b 24.269893
_cell_length_c 9.418442
_cell_angle_alpha 90.000000
_cell_angle_beta 90.000000
_cell_angle_gamma 90.000000
_cell_volume 3334.924666
_symmetry_space_group_name_H-M "P M M A"
_symmetry_group_IT_number 51
_symmetry_cell_setting 'orthorhombic'
loop_
_space_group_symop_operation_xyz
x,y,z
1/2-x,-y,z
1/2+x,-y,-z
-x,y,-z
-x,-y,-z
1/2+x,y,-z
1/2-x,y,z
x,-y,z
loop_
_atom_site_type_symbol
_atom_site_label
_atom_site_fract_x
_atom_site_fract_y
_atom_site_fract_z
Si Si1 0.857246 0.937877 0.168658
Si Si2 0.505842 0.134977 0.335638
Si Si3 0.002777 0.373847 0.660833
Si Si4 0.643848 0.436837 0.833419
Si Si5 0.856151 0.562363 0.157923
Si Si6 0.853336 0.116334 0.885904
Si Si7 0.009826 0.743497 0.768607
Si Si8 0.644368 0.761103 0.982548
O O1 0.750000 0.927318 0.189145
O O2 0.905815 0.894733 0.271758
O O3 0.885305 0.000000 0.209841
O O4 0.882996 0.928900 0.002525
O O5 0.500000 0.118741 0.500000
O O6 0.416943 0.112604 0.251999
O O7 0.513018 0.200736 0.322097
O O8 0.091369 0.398014 0.736901
O O9 0.012521 0.307910 0.662878
O O10 0.000000 0.394358 0.500000
O O11 0.911036 0.395048 0.735521
O O12 0.750000 0.429589 0.797041
O O13 0.613564 0.500000 0.806233
O O14 0.623711 0.420422 0.995998
O O15 0.750000 0.568083 0.193317
O O16 0.889548 0.500000 0.182305
O O17 0.750000 0.107354 0.830782
O O18 0.862891 0.173250 0.971643
O O19 0.914211 0.736508 0.853198
O O20 0.098396 0.741962 0.870932
O O21 0.750000 0.740473 0.975383
#
# Coordination Sequence:
#
# PCOD8213988 Si02
#       8
#     8   8   8   8   8   8   8   8
#     4  10  21  38  61  87 114 148 195 247 291 333
#     4  11  22  37  58  83 121 161 190 226 285 347
#     4  12  25  37  53  84 123 155 186 229 287 347
#     4   9  20  40  64  86 110 147 194 241 288 338
#     4   9  20  40  63  85 109 142 190 242 287 336
#     4   9  18  36  59  84 110 142 191 241 284 334
#     4  10  22  37  54  84 117 151 191 232 280 342
#     4   9  18  35  60  83 104 139 193 245 282 321
#
# _framework density 19.190837999999999
#
# number of rings (size 3 to 8) (size 9 to 14) (size 15 to 20)
#    0.000    2.125    1.250    2.250    3.500    5.250 
#    0.000    1.250    0.000    6.000    0.000    0.000 
#    0.000    0.000    0.000    0.000    0.000    0.000 
#
# Total GULP energy -793655.060313 kJ/mol
# GULP energy per Si atom -12400.860317 kJ/mol
# Density = 1.914716 g / cm^3
# Si number density = 19.190838 Si / 1000 Ang^3
#
#
#
# Elastic Constant Matrix: (Units=GPa)
#
#
# Indices 1 2 3 4 5 6 
#
# 1 111.7628 44.0220 59.2066 0.0000 0.0000 0.0000
# 2 44.0220 82.6481 49.1753 0.0000 0.0000 0.0000
# 3 59.2066 49.1753 124.1209 0.0000 0.0000 0.0000
# 4 0.0000 0.0000 0.0000 13.8423 0.0000 0.0000
# 5 0.0000 0.0000 0.0000 0.0000 139.6576 0.0000
# 6 0.0000 0.0000 0.0000 0.0000 0.0000 37.8972
#
#
#
# Elastic Compliance Matrix: (Units=1/GPa)
#
#
# Indices 1 2 3 4 5 6 
#
# 1 0.013017 -0.004238 -0.004530 0.000000 0.000000 0.000000
# 2 -0.004238 0.017211 -0.004797 0.000000 0.000000 0.000000
# 3 -0.004530 -0.004797 0.012118 0.000000 0.000000 0.000000
# 4 0.000000 0.000000 0.000000 0.072242 0.000000 0.000000
# 5 0.000000 0.000000 0.000000 0.000000 0.007160 0.000000
# 6 0.000000 0.000000 0.000000 0.000000 0.000000 0.026387
#
#
# Mechanical properties :
#
#
# Convention : Reuss Voigt Hill
#
# Bulk Modulus (GPa) = 65.72279 69.25996 67.49138
# Shear Modulus (GPa) = 27.72573 49.35462 38.54017
#
# Velocity S-wave (km/s) = 3.80509 5.07677 4.48622
# Velocity P-wave (km/s) = 7.32300 8.39841 7.87907
#
# Compressibility (1/GPa) = 0.01521542
#
# Stress axis : x y z
#
# Youngs Moduli (GPa) = 76.82539 58.10173 82.52069
#
# Poissons Ratio (x) = 0.24623 0.37382
# Poissons Ratio (y) = 0.32557 0.39588
# Poissons Ratio (z) = 0.34802 0.27874
#
# Static dielectric constant tensor:
#      x y z
#    x 3.611790 0.000000 0.000000 
#    y 0.000000 3.486640 0.000000 
#    z 0.000000 0.000000 3.245340 
# 
# 
# High freq. dielectric constant tensor:
#      x y z
#    x 1.755980 0.000000 0.000000 
#    y 0.000000 1.746560 0.000000 
#    z 0.000000 0.000000 1.725820 
# 
# From -- ./inp_files/8750.got.cif
#   From: 2010.03.12/outbox.cif.g09.slc.cpg/sg51_5_cif.got.tgz:8750.got - 2010.04.16 13:43:02.
