data_PCOD8213964
_publ_section_title
;
Structure prediction by ZEFSAII (Michael W. Deem and Ramdas Pophale) SiO2 
 PCOD8213964
Probable space group: P M M A
;
_chemical_formula_sum "Si O2"
_cell_formula_units_Z 56
_cell_length_a 8.758156
_cell_length_b 21.149419
_cell_length_c 14.518647
_cell_angle_alpha 90.000000
_cell_angle_beta 90.000000
_cell_angle_gamma 90.000000
_cell_volume 2689.287690
_symmetry_space_group_name_H-M "P M M A"
_symmetry_group_IT_number 51
_symmetry_cell_setting 'orthorhombic'
loop_
_space_group_symop_operation_xyz
x,y,z
1/2-x,-y,z
1/2+x,-y,-z
-x,y,-z
-x,-y,-z
1/2+x,y,-z
1/2-x,y,z
x,-y,z
loop_
_atom_site_type_symbol
_atom_site_label
_atom_site_fract_x
_atom_site_fract_y
_atom_site_fract_z
Si Si1 0.569107 0.797262 0.765736
Si Si2 0.066966 0.137389 0.598322
Si Si3 0.928959 0.877637 0.085438
Si Si4 0.070993 0.000000 0.665936
Si Si5 0.572920 0.000000 0.862279
Si Si6 0.430257 0.571104 0.220263
Si Si7 0.421291 0.575240 0.591605
Si Si8 0.428308 0.315473 0.099149
O O1 0.750000 0.809959 0.770265
O O2 0.507091 0.807206 0.662558
O O3 0.469591 0.849631 0.816809
O O4 0.526286 0.731836 0.817360
O O5 0.250000 0.142234 0.601527
O O6 0.008288 0.065619 0.621410
O O7 0.000000 0.155188 0.500000
O O8 0.750000 0.888052 0.075938
O O9 0.027263 0.941008 0.076058
O O10 0.000000 0.835997 0.000000
O O11 0.030056 0.000000 0.771938
O O12 0.250000 0.000000 0.654131
O O13 0.750000 0.000000 0.835522
O O14 0.250000 0.571951 0.231673
O O15 0.490636 0.500000 0.200298
O O16 0.495396 0.598642 0.315974
O O17 0.481735 0.615364 0.135146
O O18 0.500000 0.603577 0.500000
O O19 0.250000 0.601099 0.594038
O O20 0.427076 0.500000 0.587713
O O21 0.250000 0.312916 0.082031
O O22 0.500000 0.299689 0.000000
#
# Coordination Sequence:
#
# PCOD8213964 Si02
#       8
#     8   8   8   4   4   8   8   8
#     4  11  23  41  62  86 116 152 198 246 297 354
#     4  11  23  40  64  92 124 160 201 247 300 355
#     4  12  24  39  58  83 116 153 197 245 298 353
#     4  10  21  38  60  89 124 160 199 246 297 356
#     4  12  23  36  57  85 118 156 196 242 297 350
#     4   9  18  35  58  85 119 157 196 243 300 358
#     4   9  16  27  47  78 114 151 189 229 276 333
#     4  10  23  41  62  88 118 153 196 246 298 361
#
# _framework density 20.823357999999999
#
# number of rings (size 3 to 8) (size 9 to 14) (size 15 to 20)
#    0.000    1.571    1.429    4.071    0.000    5.429 
#    0.000    0.714    0.000    0.000    0.000    0.000 
#    0.000    0.000    0.000    0.000    0.000    0.000 
#
# Total GULP energy -694011.006740 kJ/mol
# GULP energy per Si atom -12393.053692 kJ/mol
# Density = 2.077596 g / cm^3
# Si number density = 20.823358 Si / 1000 Ang^3
#
#
#
# Elastic Constant Matrix: (Units=GPa)
#
#
# Indices 1 2 3 4 5 6 
#
# 1 52.1078 34.7644 21.4975 0.0000 0.0000 0.0000
# 2 34.7644 88.9442 53.6307 0.0000 0.0000 0.0000
# 3 21.4975 53.6307 146.0492 0.0000 0.0000 0.0000
# 4 0.0000 0.0000 0.0000 20.4216 0.0000 0.0000
# 5 0.0000 0.0000 0.0000 0.0000 40.4713 0.0000
# 6 0.0000 0.0000 0.0000 0.0000 0.0000 719.4037
#
#
#
# Elastic Compliance Matrix: (Units=1/GPa)
#
#
# Indices 1 2 3 4 5 6 
#
# 1 0.025962 -0.010074 -0.000122 0.000000 0.000000 0.000000
# 2 -0.010074 0.018349 -0.005255 0.000000 0.000000 0.000000
# 3 -0.000122 -0.005255 0.008795 0.000000 0.000000 0.000000
# 4 0.000000 0.000000 0.000000 0.048968 0.000000 0.000000
# 5 0.000000 0.000000 0.000000 0.000000 0.024709 0.000000
# 6 0.000000 0.000000 0.000000 0.000000 0.000000 0.001390
#
#
# Mechanical properties :
#
#
# Convention : Reuss Voigt Hill
#
# Bulk Modulus (GPa) = 45.03760 56.32069 50.67915
# Shear Modulus (GPa) = 30.03425 167.87322 98.95373
#
# Velocity S-wave (km/s) = 3.80193 8.98848 6.90099
# Velocity P-wave (km/s) = 6.39908 11.61160 9.37490
#
# Compressibility (1/GPa) = 0.02220367
#
# Stress axis : x y z
#
# Youngs Moduli (GPa) = 38.51738 54.49846 113.70406
#
# Poissons Ratio (x) = 0.54901 0.01390
# Poissons Ratio (y) = 0.38802 0.59754
# Poissons Ratio (z) = 0.00471 0.28640
#
# Static dielectric constant tensor:
#      x y z
#    x 3.647480 0.000000 0.000000 
#    y 0.000000 4.218030 0.000000 
#    z 0.000000 0.000000 3.530700 
# 
# 
# High freq. dielectric constant tensor:
#      x y z
#    x 1.813200 0.000000 0.000000 
#    y 0.000000 1.791950 0.000000 
#    z 0.000000 0.000000 1.830780 
# 
# From -- ./inp_files/21936.got.cif
#   From: 2010.03.12/outbox.cif.g09.slc.cpg/sg51_11_cif.got.tgz:21936.got - 2010.04.16 13:43:02.
