data_PCOD8213923
_publ_section_title
;
Structure prediction by ZEFSAII (Michael W. Deem and Ramdas Pophale) SiO2 
 PCOD8213923
Probable space group: P M M A
;
_chemical_formula_sum "Si O2"
_cell_formula_units_Z 64
_cell_length_a 30.919063
_cell_length_b 8.931161
_cell_length_c 12.060511
_cell_angle_alpha 90.000000
_cell_angle_beta 90.000000
_cell_angle_gamma 90.000000
_cell_volume 3330.427252
_symmetry_space_group_name_H-M "P M M A"
_symmetry_group_IT_number 51
_symmetry_cell_setting 'orthorhombic'
loop_
_space_group_symop_operation_xyz
x,y,z
1/2-x,-y,z
1/2+x,-y,-z
-x,y,-z
-x,-y,-z
1/2+x,y,-z
1/2-x,y,z
x,-y,z
loop_
_atom_site_type_symbol
_atom_site_label
_atom_site_fract_x
_atom_site_fract_y
_atom_site_fract_z
Si Si1 0.201451 0.671648 0.042682
Si Si2 0.364441 0.328759 0.864603
Si Si3 0.801396 0.168183 0.743198
Si Si4 0.930864 0.829802 0.995540
Si Si5 0.468853 0.178663 0.597136
Si Si6 0.700020 0.322923 0.518596
Si Si7 0.995839 0.831888 0.822372
Si Si8 0.128089 0.176804 0.632664
O O1 0.250000 0.728539 0.029812
O O2 0.198600 0.500000 0.080325
O O3 0.178834 0.765509 0.142522
O O4 0.182402 0.693785 0.919521
O O5 0.372687 0.500000 0.827352
O O6 0.370920 0.218338 0.762255
O O7 0.394362 0.285789 0.968985
O O8 0.750000 0.174702 0.749999
O O9 0.816557 0.263609 0.637186
O O10 0.818762 0.000000 0.727913
O O11 0.953351 0.764054 0.883229
O O12 0.913488 0.000000 0.978020
O O13 0.964845 0.832107 0.094121
O O14 0.500000 0.238715 0.500000
O O15 0.489231 0.250770 0.709538
O O16 0.418593 0.229162 0.582853
O O17 0.469086 0.000000 0.603736
O O18 0.750000 0.273760 0.494894
O O19 0.696175 0.500000 0.516970
O O20 0.668183 0.257649 0.425759
O O21 0.983025 0.000000 0.790247
O O22 0.134173 0.000000 0.620580
#
# Coordination Sequence:
#
# PCOD8213923 Si02
#       8
#     8   8   8   8   8   8   8   8
#     4   9  19  36  55  75 105 147 186 219 267 333
#     4  11  22  35  53  78 111 148 187 231 285 346
#     4   9  17  32  56  83 108 135 176 229 276 319
#     4   9  16  30  53  77 101 133 176 223 270 324
#     4   9  17  32  55  81 110 142 181 229 283 340
#     4  10  21  38  60  84 115 156 193 226 275 338
#     4   8  14  28  52  77 100 133 175 215 265 330
#     4  11  22  37  58  83 113 147 191 244 287 328
#
# _framework density 19.216754000000002
#
# number of rings (size 3 to 8) (size 9 to 14) (size 15 to 20)
#    0.000    2.500    1.250    2.250    0.000    3.750 
#    2.250    2.500    0.000    1.500    0.000    0.000 
#    0.000    0.000    0.000    0.000    0.000    0.000 
#
# Total GULP energy -793058.340369 kJ/mol
# GULP energy per Si atom -12391.536568 kJ/mol
# Density = 1.917302 g / cm^3
# Si number density = 19.216754 Si / 1000 Ang^3
#
#
#
# Elastic Constant Matrix: (Units=GPa)
#
#
# Indices 1 2 3 4 5 6 
#
# 1 84.0676 30.9004 51.3812 0.0000 0.0000 0.0000
# 2 30.9004 61.1292 27.1192 0.0000 0.0000 0.0000
# 3 51.3812 27.1192 96.3695 0.0000 0.0000 0.0000
# 4 0.0000 0.0000 0.0000 28.4728 0.0000 0.0000
# 5 0.0000 0.0000 0.0000 0.0000 31.2488 0.0000
# 6 0.0000 0.0000 0.0000 0.0000 0.0000 17.5048
#
#
#
# Elastic Compliance Matrix: (Units=1/GPa)
#
#
# Indices 1 2 3 4 5 6 
#
# 1 0.019372 -0.005954 -0.008653 0.000000 0.000000 0.000000
# 2 -0.005954 0.020522 -0.002601 0.000000 0.000000 0.000000
# 3 -0.008653 -0.002601 0.015722 0.000000 0.000000 0.000000
# 4 0.000000 0.000000 0.000000 0.035121 0.000000 0.000000
# 5 0.000000 0.000000 0.000000 0.000000 0.032001 0.000000
# 6 0.000000 0.000000 0.000000 0.000000 0.000000 0.057127
#
#
# Mechanical properties :
#
#
# Convention : Reuss Voigt Hill
#
# Bulk Modulus (GPa) = 47.16707 51.15199 49.15953
# Shear Modulus (GPa) = 22.58876 24.25632 23.42254
#
# Velocity S-wave (km/s) = 3.43224 3.55667 3.49501
# Velocity P-wave (km/s) = 6.34862 6.59869 6.47487
#
# Compressibility (1/GPa) = 0.02120123
#
# Stress axis : x y z
#
# Youngs Moduli (GPa) = 51.61990 48.72783 63.60396
#
# Poissons Ratio (x) = 0.29011 0.55039
# Poissons Ratio (y) = 0.30733 0.16542
# Poissons Ratio (z) = 0.44668 0.12673
#
# Static dielectric constant tensor:
#      x y z
#    x 4.119040 0.000000 0.000000 
#    y 0.000000 3.302100 0.000000 
#    z 0.000000 0.000000 3.688870 
# 
# 
# High freq. dielectric constant tensor:
#      x y z
#    x 1.737310 0.000000 0.000000 
#    y 0.000000 1.720530 0.000000 
#    z 0.000000 0.000000 1.751660 
# 
# From -- ./inp_files/19628.got.cif
#   From: 2010.03.12/outbox.cif.g09.slc.cpg/sg51_10_cif.got.tgz:19628.got - 2010.04.16 13:43:02.
