data_PCOD8213045
_publ_section_title
;
Structure prediction by ZEFSAII (Michael W. Deem and Ramdas Pophale) SiO2 
 PCOD8213045
Probable space group: P M M A
;
_chemical_formula_sum "Si O2"
_cell_formula_units_Z 64
_cell_length_a 14.328417
_cell_length_b 9.045134
_cell_length_c 27.909044
_cell_angle_alpha 90.000000
_cell_angle_beta 90.000000
_cell_angle_gamma 90.000000
_cell_volume 3617.080529
_symmetry_space_group_name_H-M "P M M A"
_symmetry_group_IT_number 51
_symmetry_cell_setting 'orthorhombic'
loop_
_space_group_symop_operation_xyz
x,y,z
1/2-x,-y,z
1/2+x,-y,-z
-x,y,-z
-x,-y,-z
1/2+x,y,-z
1/2-x,y,z
x,-y,z
loop_
_atom_site_type_symbol
_atom_site_label
_atom_site_fract_x
_atom_site_fract_y
_atom_site_fract_z
Si Si1 0.857406 0.673334 0.926568
Si Si2 0.027973 0.826158 0.612321
Si Si3 0.142277 0.326731 0.802046
Si Si4 0.354779 0.672734 0.422596
Si Si5 0.142927 0.169388 0.975768
Si Si6 0.524664 0.174595 0.116330
Si Si7 0.858850 0.668017 0.467619
Si Si8 0.357348 0.829352 0.704202
O O1 0.750000 0.712051 0.914814
O O2 0.876458 0.500000 0.924144
O O3 0.921320 0.755893 0.887491
O O4 0.884306 0.729618 0.979434
O O5 0.084302 0.777275 0.565686
O O6 0.080551 0.772785 0.660064
O O7 0.924597 0.757692 0.612611
O O8 0.019252 0.000000 0.611242
O O9 0.250000 0.289188 0.813771
O O10 0.122519 0.500000 0.805625
O O11 0.076617 0.241132 0.838395
O O12 0.116177 0.271566 0.749194
O O13 0.250000 0.729302 0.412261
O O14 0.361649 0.500000 0.412131
O O15 0.382602 0.706126 0.477488
O O16 0.250000 0.191722 0.960671
O O17 0.081367 0.219762 0.931072
O O18 0.122507 0.000000 0.990291
O O19 0.517248 0.000000 0.122835
O O20 0.750000 0.690173 0.457777
O O21 0.888889 0.500000 0.456101
O O22 0.250000 0.807362 0.689287
O O23 0.377609 0.000000 0.717088
#
# Coordination Sequence:
#
# PCOD8213045 Si02
#       8
#     8   8   8   8   8   8   8   8
#     4  10  21  35  50  71 102 138 174 215 258 293
#     4  11  21  31  49  77 104 131 165 207 255 301
#     4  10  21  36  55  80 106 130 161 204 251 298
#     4   9  19  35  51  68  96 136 177 212 247 291
#     4   9  18  32  49  72 103 137 172 206 244 298
#     4  11  21  33  53  77 102 136 173 207 249 302
#     4   9  18  32  49  70  99 136 174 208 244 293
#     4   9  19  36  54  73 102 135 162 194 244 305
#
# _framework density 17.693829000000001
#
# number of rings (size 3 to 8) (size 9 to 14) (size 15 to 20)
#    0.000    2.250    0.000    3.750    0.000    8.500 
#    0.000    3.750    0.000    0.750    0.000    3.500 
#    0.000    0.000    0.000    0.000    0.000    0.000 
#
# Total GULP energy -793799.385559 kJ/mol
# GULP energy per Si atom -12403.115399 kJ/mol
# Density = 1.765356 g / cm^3
# Si number density = 17.693829 Si / 1000 Ang^3
#
#
#
# Elastic Constant Matrix: (Units=GPa)
#
#
# Indices 1 2 3 4 5 6 
#
# 1 100.0780 55.1125 76.1268 0.0000 0.0000 0.0000
# 2 55.1125 78.7466 56.8789 0.0000 0.0000 0.0000
# 3 76.1268 56.8789 95.4729 0.0000 0.0000 0.0000
# 4 0.0000 0.0000 0.0000 8.9532 0.0000 0.0000
# 5 0.0000 0.0000 0.0000 0.0000 32.5978 0.0000
# 6 0.0000 0.0000 0.0000 0.0000 0.0000 30.8284
#
#
#
# Elastic Compliance Matrix: (Units=1/GPa)
#
#
# Indices 1 2 3 4 5 6 
#
# 1 0.026843 -0.005840 -0.017924 0.000000 0.000000 0.000000
# 2 -0.005840 0.023562 -0.009381 0.000000 0.000000 0.000000
# 3 -0.017924 -0.009381 0.030355 0.000000 0.000000 0.000000
# 4 0.000000 0.000000 0.000000 0.111692 0.000000 0.000000
# 5 0.000000 0.000000 0.000000 0.000000 0.030677 0.000000
# 6 0.000000 0.000000 0.000000 0.000000 0.000000 0.032438
#
#
# Mechanical properties :
#
#
# Convention : Reuss Voigt Hill
#
# Bulk Modulus (GPa) = 69.10889 72.28154 70.69521
# Shear Modulus (GPa) = 15.30551 20.22117 17.76334
#
# Velocity S-wave (km/s) = 2.94431 3.38426 3.17192
# Velocity P-wave (km/s) = 7.12051 7.49739 7.31138
#
# Compressibility (1/GPa) = 0.01446992
#
# Stress axis : x y z
#
# Youngs Moduli (GPa) = 37.25404 42.44166 32.94317
#
# Poissons Ratio (x) = 0.24784 0.59049
# Poissons Ratio (y) = 0.21755 0.30904
# Poissons Ratio (z) = 0.66776 0.39814
#
# Static dielectric constant tensor:
#      x y z
#    x 3.443380 0.000000 0.000000 
#    y 0.000000 3.255080 0.000000 
#    z 0.000000 0.000000 3.137030 
# 
# 
# High freq. dielectric constant tensor:
#      x y z
#    x 1.690300 0.000000 0.000000 
#    y 0.000000 1.687670 0.000000 
#    z 0.000000 0.000000 1.663230 
# 
# From -- ./inp_files/35701.got.cif
#   From: 2010.03.12/outbox.cif.g09.slc.cpg/sg51_18_cif.got.tgz:35701.got - 2010.04.16 13:43:02.
