data_PCOD8213634
_publ_section_title
;
Structure prediction by ZEFSAII (Michael W. Deem and Ramdas Pophale) SiO2 
 PCOD8213634
Probable space group: P M M A
;
_chemical_formula_sum "Si O2"
_cell_formula_units_Z 64
_cell_length_a 8.769209
_cell_length_b 23.464549
_cell_length_c 15.336998
_cell_angle_alpha 90.000000
_cell_angle_beta 90.000000
_cell_angle_gamma 90.000000
_cell_volume 3155.825588
_symmetry_space_group_name_H-M "P M M A"
_symmetry_group_IT_number 51
_symmetry_cell_setting 'orthorhombic'
loop_
_space_group_symop_operation_xyz
x,y,z
1/2-x,-y,z
1/2+x,-y,-z
-x,y,-z
-x,-y,-z
1/2+x,y,-z
1/2-x,y,z
x,-y,z
loop_
_atom_site_type_symbol
_atom_site_label
_atom_site_fract_x
_atom_site_fract_y
_atom_site_fract_z
Si Si1 0.073192 0.561423 0.089193
Si Si2 0.927524 0.201038 0.408895
Si Si3 0.927241 0.322029 0.336710
Si Si4 0.427346 0.227037 0.913840
Si Si5 0.071640 0.562900 0.406493
Si Si6 0.926151 0.323600 0.838297
Si Si7 0.430193 0.156438 0.232884
Si Si8 0.929508 0.064835 0.908383
O O1 0.250000 0.555811 0.070861
O O2 0.006801 0.500000 0.119828
O O3 0.040391 0.608589 0.162322
O O4 0.000000 0.582276 0.000000
O O5 0.750000 0.186834 0.410361
O O6 0.954388 0.269734 0.403645
O O7 0.000000 0.180013 0.500000
O O8 0.995831 0.163764 0.328569
O O9 0.750000 0.326962 0.311976
O O10 0.984559 0.384221 0.364190
O O11 0.026070 0.301126 0.255605
O O12 0.250000 0.213128 0.909479
O O13 0.467691 0.294332 0.912527
O O14 0.515375 0.207850 0.827432
O O15 0.500000 0.198385 0.000000
O O16 0.250000 0.578641 0.411460
O O17 0.051457 0.500000 0.359771
O O18 0.000000 0.555935 0.500000
O O19 0.750000 0.309619 0.858293
O O20 0.250000 0.157138 0.245658
O O21 0.483765 0.100345 0.177329
O O22 0.750000 0.070495 0.919202
O O23 0.982060 0.000000 0.891824
O O24 0.000000 0.087502 0.000000
#
# Coordination Sequence:
#
# PCOD8213634 Si02
#       8
#     8   8   8   8   8   8   8   8
#     4   9  19  35  53  73  97 130 175 226 280 340
#     4  11  24  41  62  88 120 158 203 257 310 367
#     4  11  23  38  57  82 112 146 187 240 299 364
#     4  12  24  38  56  82 118 157 198 244 296 354
#     4  10  21  37  57  80 106 138 179 232 294 363
#     4  11  22  36  55  78 108 143 183 235 291 354
#     4  11  22  38  62  91 124 163 206 252 301 354
#     4   9  19  36  60  94 134 174 213 252 297 351
#
# _framework density 20.279954
#
# number of rings (size 3 to 8) (size 9 to 14) (size 15 to 20)
#    0.000    1.500    1.250    4.125    0.000    7.750 
#    0.000    1.250    0.000    0.375    0.000    0.000 
#    0.000    0.000    0.000    0.000    0.000    0.000 
#
# Total GULP energy -792975.024080 kJ/mol
# GULP energy per Si atom -12390.234751 kJ/mol
# Density = 2.023380 g / cm^3
# Si number density = 20.279954 Si / 1000 Ang^3
#
#
#
# Elastic Constant Matrix: (Units=GPa)
#
#
# Indices 1 2 3 4 5 6 
#
# 1 74.4241 38.4277 43.5157 0.0000 0.0000 0.0000
# 2 38.4277 98.2959 46.1927 0.0000 0.0000 0.0000
# 3 43.5157 46.1927 135.6099 0.0000 0.0000 0.0000
# 4 0.0000 0.0000 0.0000 27.3175 0.0000 0.0000
# 5 0.0000 0.0000 0.0000 0.0000 35.9206 0.0000
# 6 0.0000 0.0000 0.0000 0.0000 0.0000 15.3697
#
#
#
# Elastic Compliance Matrix: (Units=1/GPa)
#
#
# Indices 1 2 3 4 5 6 
#
# 1 0.018618 -0.005323 -0.004161 0.000000 0.000000 0.000000
# 2 -0.005323 0.013634 -0.002936 0.000000 0.000000 0.000000
# 3 -0.004161 -0.002936 0.009709 0.000000 0.000000 0.000000
# 4 0.000000 0.000000 0.000000 0.036607 0.000000 0.000000
# 5 0.000000 0.000000 0.000000 0.000000 0.027839 0.000000
# 6 0.000000 0.000000 0.000000 0.000000 0.000000 0.065063
#
#
# Mechanical properties :
#
#
# Convention : Reuss Voigt Hill
#
# Bulk Modulus (GPa) = 58.40754 62.73361 60.57058
# Shear Modulus (GPa) = 24.75028 27.73447 26.24238
#
# Velocity S-wave (km/s) = 3.49726 3.70209 3.60113
# Velocity P-wave (km/s) = 6.72093 7.01961 6.87189
#
# Compressibility (1/GPa) = 0.01712108
#
# Stress axis : x y z
#
# Youngs Moduli (GPa) = 53.71154 73.34542 102.99232
#
# Poissons Ratio (x) = 0.39042 0.42856
# Poissons Ratio (y) = 0.28591 0.30239
# Poissons Ratio (z) = 0.22350 0.21535
#
# Static dielectric constant tensor:
#      x y z
#    x 3.641710 0.000000 0.000000 
#    y 0.000000 4.047290 0.000000 
#    z 0.000000 0.000000 3.580180 
# 
# 
# High freq. dielectric constant tensor:
#      x y z
#    x 1.795500 0.000000 0.000000 
#    y 0.000000 1.791080 0.000000 
#    z 0.000000 0.000000 1.781600 
# 
# From -- ./inp_files/22399.got.cif
#   From: 2010.03.12/outbox.cif.g09.slc.cpg/sg51_12_cif.got.tgz:22399.got - 2010.04.16 13:43:02.
