data_PCOD8213199
_publ_section_title
;
Structure prediction by ZEFSAII (Michael W. Deem and Ramdas Pophale) SiO2 
 PCOD8213199
Probable space group: P M M A
;
_chemical_formula_sum "Si O2"
_cell_formula_units_Z 48
_cell_length_a 18.702330
_cell_length_b 8.901420
_cell_length_c 16.371327
_cell_angle_alpha 90.000000
_cell_angle_beta 90.000000
_cell_angle_gamma 90.000000
_cell_volume 2725.454223
_symmetry_space_group_name_H-M "P M M A"
_symmetry_group_IT_number 51
_symmetry_cell_setting 'orthorhombic'
loop_
_space_group_symop_operation_xyz
x,y,z
1/2-x,-y,z
1/2+x,-y,-z
-x,y,-z
-x,-y,-z
1/2+x,y,-z
1/2-x,y,z
x,-y,z
loop_
_atom_site_type_symbol
_atom_site_label
_atom_site_fract_x
_atom_site_fract_y
_atom_site_fract_z
Si Si1 0.670555 0.679273 0.163248
Si Si2 0.961187 0.674761 0.265599
Si Si3 0.035025 0.823236 0.415072
Si Si4 0.668891 0.321809 0.656157
Si Si5 0.397018 0.325809 0.177551
Si Si6 0.667115 0.328189 0.984003
O O1 0.750000 0.732858 0.189637
O O2 0.668555 0.500000 0.157578
O O3 0.613942 0.736171 0.230310
O O4 0.651734 0.745867 0.072949
O O5 0.957370 0.500000 0.290299
O O6 0.981113 0.768543 0.345057
O O7 0.019342 0.699619 0.194217
O O8 0.113771 0.749842 0.408387
O O9 0.000000 0.773356 0.500000
O O10 0.044379 0.000000 0.408584
O O11 0.750000 0.274670 0.634172
O O12 0.658560 0.500000 0.652486
O O13 0.648993 0.260113 0.746601
O O14 0.376919 0.500000 0.170858
O O15 0.376091 0.248503 0.090773
O O16 0.750000 0.314912 0.962085
O O17 0.642398 0.500000 0.989984
#
# Coordination Sequence:
#
# PCOD8213199 Si02
#       6
#     8   8   8   8   8   8
#     4   8  14  24  38  60  91 123 154 190 230 268
#     4   9  17  29  46  67  90 117 151 192 235 278
#     4  10  21  36  52  69  91 120 153 190 232 279
#     4   9  17  30  50  76 102 124 149 184 226 273
#     4   8  13  21  36  62  94 123 148 178 220 268
#     4   8  12  18  31  55  90 126 152 179 220 265
#
# _framework density 17.611743000000001
#
# number of rings (size 3 to 8) (size 9 to 14) (size 15 to 20)
#    0.000    3.333    0.000    3.000    0.000    4.333 
#    0.000    4.167    0.000    3.500    0.000    9.333 
#    0.000    5.333    0.000    0.000    0.000    0.000 
#
# Total GULP energy -594781.737812 kJ/mol
# GULP energy per Si atom -12391.286204 kJ/mol
# Density = 1.757166 g / cm^3
# Si number density = 17.611743 Si / 1000 Ang^3
#
#
#
# Elastic Constant Matrix: (Units=GPa)
#
#
# Indices 1 2 3 4 5 6 
#
# 1 139.2789 26.8564 80.7850 0.0000 0.0000 0.0000
# 2 26.8564 20.6465 21.7339 0.0000 0.0000 0.0000
# 3 80.7850 21.7339 107.2275 0.0000 0.0000 0.0000
# 4 0.0000 0.0000 0.0000 -0.7476 0.0000 0.0000
# 5 0.0000 0.0000 0.0000 0.0000 29.4024 0.0000
# 6 0.0000 0.0000 0.0000 0.0000 0.0000 9.8954
#
#
#
# Elastic Compliance Matrix: (Units=1/GPa)
#
#
# Indices 1 2 3 4 5 6 
#
# 1 0.013957 -0.009008 -0.008689 0.000000 0.000000 0.000000
# 2 -0.009008 0.067385 -0.006872 0.000000 0.000000 0.000000
# 3 -0.008689 -0.006872 0.017265 0.000000 0.000000 0.000000
# 4 0.000000 0.000000 0.000000 -1.337653 0.000000 0.000000
# 5 0.000000 0.000000 0.000000 0.000000 0.034011 0.000000
# 6 0.000000 0.000000 0.000000 0.000000 0.000000 0.101057
#
#
# Mechanical properties :
#
#
# Convention : Reuss Voigt Hill
#
# Bulk Modulus (GPa) = 20.21450 58.43373 39.32412
# Shear Modulus (GPa) = -4.81533 16.89522 6.03995
#
# Velocity S-wave (km/s) = -1.65532 3.10064 1.85390
# Velocity P-wave (km/s) = 2.80166 6.78745 5.19225
#
# Compressibility (1/GPa) = 0.04946943
#
# Stress axis : x y z
#
# Youngs Moduli (GPa) = 71.65055 14.84011 57.91992
#
# Poissons Ratio (x) = 0.13367 0.50327
# Poissons Ratio (y) = 0.64540 0.39802
# Poissons Ratio (z) = 0.62258 0.10198
#
# Static dielectric constant tensor:
#      x y z
#    x 3.403090 0.000000 0.000000 
#    y 0.000000 2.709740 0.000000 
#    z 0.000000 0.000000 3.401040 
# 
# 
# High freq. dielectric constant tensor:
#      x y z
#    x 1.683870 0.000000 0.000000 
#    y 0.000000 1.618400 0.000000 
#    z 0.000000 0.000000 1.677730 
# 
# From -- ./inp_files/30065.got.cif
#   From: 2010.03.12/outbox.cif.g09.slc.cpg/sg51_16_cif.got.tgz:30065.got - 2010.04.16 13:43:02.
