data_PCOD8213333
_publ_section_title
;
Structure prediction by ZEFSAII (Michael W. Deem and Ramdas Pophale) SiO2 
 PCOD8213333
Probable space group: P M M A
;
_chemical_formula_sum "Si O2"
_cell_formula_units_Z 48
_cell_length_a 9.358421
_cell_length_b 9.266017
_cell_length_c 30.357974
_cell_angle_alpha 90.000000
_cell_angle_beta 90.000000
_cell_angle_gamma 90.000000
_cell_volume 2632.500461
_symmetry_space_group_name_H-M "P M M A"
_symmetry_group_IT_number 51
_symmetry_cell_setting 'orthorhombic'
loop_
_space_group_symop_operation_xyz
x,y,z
1/2-x,-y,z
1/2+x,-y,-z
-x,y,-z
-x,-y,-z
1/2+x,y,-z
1/2-x,y,z
x,-y,z
loop_
_atom_site_type_symbol
_atom_site_label
_atom_site_fract_x
_atom_site_fract_y
_atom_site_fract_z
Si Si1 0.587985 0.667192 0.386133
Si Si2 0.581590 0.333602 0.137485
Si Si3 0.085878 0.169988 0.457514
Si Si4 0.907187 0.329034 0.039406
Si Si5 0.913896 0.333686 0.284159
Si Si6 0.584415 0.830101 0.787886
O O1 0.750000 0.714695 0.397358
O O2 0.566747 0.500000 0.397425
O O3 0.476767 0.759186 0.413851
O O4 0.555164 0.696884 0.335174
O O5 0.750000 0.305691 0.142999
O O6 0.546458 0.500000 0.148162
O O7 0.531179 0.293086 0.087876
O O8 0.494387 0.232538 0.169762
O O9 0.250000 0.216308 0.463097
O O10 0.000000 0.226851 0.500000
O O11 0.068786 0.000000 0.452309
O O12 0.750000 0.261541 0.034781
O O13 0.898404 0.500000 0.034100
O O14 0.000000 0.260137 0.000000
O O15 0.750000 0.296331 0.272490
O O16 0.944568 0.500000 0.272541
O O17 0.018662 0.233634 0.256604
O O18 0.750000 0.787349 0.790122
O O19 0.561534 0.000000 0.787243
#
# Coordination Sequence:
#
# PCOD8213333 Si02
#       6
#     8   8   8   8   8   8
#     4   9  19  36  57  81 107 134 167 209 256 305
#     4   9  18  33  53  76 101 131 169 210 251 299
#     4  10  21  36  54  77 106 141 179 216 254 298
#     4   8  14  25  43  70 101 128 157 198 246 295
#     4   9  19  37  59  80 102 131 169 210 252 304
#     4  11  24  37  49  72 105 136 169 211 255 300
#
# _framework density 18.233616000000001
#
# number of rings (size 3 to 8) (size 9 to 14) (size 15 to 20)
#    0.000    2.667    0.000    3.500    0.000    7.667 
#    0.000    6.667    0.000    0.500    0.000    0.000 
#    0.000    0.000    0.000    0.000    0.000    0.000 
#
# Total GULP energy -595173.484483 kJ/mol
# GULP energy per Si atom -12399.447593 kJ/mol
# Density = 1.819212 g / cm^3
# Si number density = 18.233616 Si / 1000 Ang^3
#
#
#
# Elastic Constant Matrix: (Units=GPa)
#
#
# Indices 1 2 3 4 5 6 
#
# 1 117.0734 54.0635 78.3316 0.0000 0.0000 0.0000
# 2 54.0635 54.0700 49.0056 0.0000 0.0000 0.0000
# 3 78.3316 49.0056 125.2543 0.0000 0.0000 0.0000
# 4 0.0000 0.0000 0.0000 -10.2038 0.0000 0.0000
# 5 0.0000 0.0000 0.0000 0.0000 38.6293 0.0000
# 6 0.0000 0.0000 0.0000 0.0000 0.0000 29.9184
#
#
#
# Elastic Compliance Matrix: (Units=1/GPa)
#
#
# Indices 1 2 3 4 5 6 
#
# 1 0.019094 -0.012812 -0.006928 0.000000 0.000000 0.000000
# 2 -0.012812 0.037253 -0.006563 0.000000 0.000000 0.000000
# 3 -0.006928 -0.006563 0.014884 0.000000 0.000000 0.000000
# 4 0.000000 0.000000 0.000000 -0.098002 0.000000 0.000000
# 5 0.000000 0.000000 0.000000 0.000000 0.025887 0.000000
# 6 0.000000 0.000000 0.000000 0.000000 0.000000 0.033424
#
#
# Mechanical properties :
#
#
# Convention : Reuss Voigt Hill
#
# Bulk Modulus (GPa) = 53.69134 73.24432 63.46783
# Shear Modulus (GPa) = 54.73181 19.33523 37.03352
#
# Velocity S-wave (km/s) = 5.48472 3.25994 4.51161
# Velocity P-wave (km/s) = 8.34385 7.37745 7.87549
#
# Compressibility (1/GPa) = 0.01862498
#
# Stress axis : x y z
#
# Youngs Moduli (GPa) = 52.37342 26.84322 67.18582
#
# Poissons Ratio (x) = 0.34392 0.46547
# Poissons Ratio (y) = 0.67102 0.44093
# Poissons Ratio (z) = 0.36284 0.17617
#
# Static dielectric constant tensor:
#      x y z
#    x 3.538990 0.000000 0.000000 
#    y 0.000000 3.087110 0.000000 
#    z 0.000000 0.000000 3.472420 
# 
# 
# High freq. dielectric constant tensor:
#      x y z
#    x 1.706860 0.000000 0.000000 
#    y 0.000000 1.680520 0.000000 
#    z 0.000000 0.000000 1.721780 
# 
# From -- ./inp_files/36962.got.cif
#   From: 2010.03.12/outbox.cif.g09.slc.cpg/sg51_19_cif.got.tgz:36962.got - 2010.04.16 13:43:02.
