data_PCOD8213163
_publ_section_title
;
Structure prediction by ZEFSAII (Michael W. Deem and Ramdas Pophale) SiO2 
 PCOD8213163
Probable space group: P M M A
;
_chemical_formula_sum "Si O2"
_cell_formula_units_Z 48
_cell_length_a 15.823806
_cell_length_b 8.884662
_cell_length_c 17.010160
_cell_angle_alpha 90.000000
_cell_angle_beta 90.000000
_cell_angle_gamma 90.000000
_cell_volume 2391.444240
_symmetry_space_group_name_H-M "P M M A"
_symmetry_group_IT_number 51
_symmetry_cell_setting 'orthorhombic'
loop_
_space_group_symop_operation_xyz
x,y,z
1/2-x,-y,z
1/2+x,-y,-z
-x,y,-z
-x,-y,-z
1/2+x,y,-z
1/2-x,y,z
x,-y,z
loop_
_atom_site_type_symbol
_atom_site_label
_atom_site_fract_x
_atom_site_fract_y
_atom_site_fract_z
Si Si1 0.250000 0.827032 0.396144
Si Si2 0.656750 0.664474 0.011106
Si Si3 0.389658 0.825575 0.837362
Si Si4 0.750000 0.825009 0.419433
Si Si5 0.603472 0.321487 0.322837
Si Si6 0.938920 0.326185 0.857662
Si Si7 0.592170 0.327838 0.684553
O O1 0.250000 0.798721 0.488268
O O2 0.162858 0.761052 0.362781
O O3 0.250000 0.000000 0.373343
O O4 0.750000 0.644456 0.978617
O O5 0.619956 0.500000 0.036144
O O6 0.659828 0.775547 0.084891
O O7 0.607897 0.728392 0.935846
O O8 0.359648 0.733653 0.760876
O O9 0.486479 0.792106 0.853579
O O10 0.372892 0.000000 0.821449
O O11 0.836612 0.749931 0.388762
O O12 0.750000 0.000000 0.396308
O O13 0.610797 0.500000 0.326428
O O14 0.504640 0.271302 0.333098
O O15 0.969981 0.500000 0.864127
O O16 0.885626 0.309723 0.777242
O O17 0.598907 0.500000 0.657904
#
# Coordination Sequence:
#
# PCOD8213163 Si02
#       7
#     4   8   8   4   8   8   8
#     4  11  25  41  61  92 129 164 193 233 302 373
#     4  10  21  35  54  80 112 153 200 247 292 341
#     4  11  22  36  56  82 117 155 192 240 298 355
#     4  11  25  43  63  92 127 160 193 239 302 369
#     4  10  22  42  67  92 118 157 206 253 299 353
#     4   9  19  37  60  83 110 150 201 249 292 342
#     4   9  20  39  65  92 120 156 204 255 297 346
#
# _framework density 20.071553000000002
#
# number of rings (size 3 to 8) (size 9 to 14) (size 15 to 20)
#    0.000    2.000    0.000    4.000    2.333    8.333 
#    0.000    3.333    0.000    0.000    0.000    0.000 
#    0.000    0.000    0.000    0.000    0.000    0.000 
#
# Total GULP energy -594895.188468 kJ/mol
# GULP energy per Si atom -12393.649760 kJ/mol
# Density = 2.002587 g / cm^3
# Si number density = 20.071553 Si / 1000 Ang^3
#
#
#
# Elastic Constant Matrix: (Units=GPa)
#
#
# Indices 1 2 3 4 5 6 
#
# 1 103.0392 48.8932 58.1008 0.0000 0.0000 0.0000
# 2 48.8932 97.0831 49.5981 0.0000 0.0000 0.0000
# 3 58.1008 49.5981 100.5030 0.0000 0.0000 0.0000
# 4 0.0000 0.0000 0.0000 29.2062 0.0000 0.0000
# 5 0.0000 0.0000 0.0000 0.0000 35.2526 0.0000
# 6 0.0000 0.0000 0.0000 0.0000 0.0000 2592.6443
#
#
#
# Elastic Compliance Matrix: (Units=1/GPa)
#
#
# Indices 1 2 3 4 5 6 
#
# 1 0.015669 -0.004364 -0.006905 0.000000 0.000000 0.000000
# 2 -0.004364 0.014988 -0.004874 0.000000 0.000000 0.000000
# 3 -0.006905 -0.004874 0.016347 0.000000 0.000000 0.000000
# 4 0.000000 0.000000 0.000000 0.034239 0.000000 0.000000
# 5 0.000000 0.000000 0.000000 0.000000 0.028367 0.000000
# 6 0.000000 0.000000 0.000000 0.000000 0.000000 0.000386
#
#
# Mechanical properties :
#
#
# Convention : Reuss Voigt Hill
#
# Bulk Modulus (GPa) = 67.93871 68.20107 68.06989
# Shear Modulus (GPa) = 33.97032 541.02284 287.49658
#
# Velocity S-wave (km/s) = 4.11842 16.43570 11.98110
# Velocity P-wave (km/s) = 7.51910 19.85520 15.01276
#
# Compressibility (1/GPa) = 0.01471915
#
# Stress axis : x y z
#
# Youngs Moduli (GPa) = 63.81982 66.71935 61.17370
#
# Poissons Ratio (x) = 0.29115 0.42239
# Poissons Ratio (y) = 0.27849 0.29816
# Poissons Ratio (z) = 0.44066 0.32519
#
# Static dielectric constant tensor:
#      x y z
#    x 3.660060 0.000000 0.000000 
#    y 0.000000 3.548560 0.000000 
#    z 0.000000 0.000000 3.742360 
# 
# 
# High freq. dielectric constant tensor:
#      x y z
#    x 1.785720 0.000000 0.000000 
#    y 0.000000 1.774370 0.000000 
#    z 0.000000 0.000000 1.788330 
# 
# From -- ./inp_files/24985.got.cif
#   From: 2010.03.12/outbox.cif.g09.slc.cpg/sg51_13_cif.got.tgz:24985.got - 2010.04.16 13:43:02.
