data_PCOD8213367
_publ_section_title
;
Structure prediction by ZEFSAII (Michael W. Deem and Ramdas Pophale) SiO2 
 PCOD8213367
Probable space group: P M M A
;
_chemical_formula_sum "Si O2"
_cell_formula_units_Z 64
_cell_length_a 16.467241
_cell_length_b 20.953371
_cell_length_c 9.065285
_cell_angle_alpha 90.000000
_cell_angle_beta 90.000000
_cell_angle_gamma 90.000000
_cell_volume 3127.924101
_symmetry_space_group_name_H-M "P M M A"
_symmetry_group_IT_number 51
_symmetry_cell_setting 'orthorhombic'
loop_
_space_group_symop_operation_xyz
x,y,z
1/2-x,-y,z
1/2+x,-y,-z
-x,y,-z
-x,-y,-z
1/2+x,y,-z
1/2-x,y,z
x,-y,z
loop_
_atom_site_type_symbol
_atom_site_label
_atom_site_fract_x
_atom_site_fract_y
_atom_site_fract_z
Si Si1 0.343894 0.570688 0.871700
Si Si2 0.586719 0.810321 0.920874
Si Si3 0.342888 0.928209 0.619265
Si Si4 0.088984 0.571253 0.557605
Si Si5 0.909127 0.930675 0.065987
Si Si6 0.157130 0.688788 0.409655
Si Si7 0.344743 0.321945 0.086897
Si Si8 0.414410 0.180149 0.430423
O O1 0.250000 0.585806 0.826107
O O2 0.348020 0.500000 0.943651
O O3 0.404356 0.572774 0.733296
O O4 0.381183 0.622335 0.984613
O O5 0.635449 0.872444 0.982010
O O6 0.635842 0.748274 0.974547
O O7 0.581417 0.818311 0.745817
O O8 0.500000 0.805941 0.000000
O O9 0.250000 0.921145 0.674445
O O10 0.356999 0.876670 0.489433
O O11 0.357626 0.000000 0.556300
O O12 0.403770 0.916844 0.758091
O O13 0.112284 0.500000 0.499643
O O14 0.151553 0.624514 0.503375
O O15 0.000000 0.590216 0.500000
O O16 0.868278 0.000000 0.034592
O O17 0.000000 0.931795 0.000000
O O18 0.250000 0.708831 0.388890
O O19 0.117199 0.673391 0.250386
O O20 0.114549 0.749811 0.486081
O O21 0.250000 0.334310 0.092817
O O22 0.500000 0.164931 0.500000
#
# Coordination Sequence:
#
# PCOD8213367 Si02
#       8
#     8   8   8   8   8   8   8   8
#     4   9  18  34  55  78 104 136 177 222 268 323
#     4  10  21  36  55  81 111 144 185 232 280 336
#     4  10  22  40  61  88 121 155 195 243 293 348
#     4  10  21  36  54  79 110 142 180 227 276 331
#     4   9  18  35  58  83 112 146 188 235 282 338
#     4  10  21  37  56  80 111 145 184 230 280 336
#     4   9  20  36  54  78 106 138 177 223 273 327
#     4  11  22  37  59  85 116 153 193 238 288 343
#
# _framework density 20.460854000000001
#
# number of rings (size 3 to 8) (size 9 to 14) (size 15 to 20)
#    0.000    2.250    0.000    2.625    0.000    7.000 
#    0.000    2.500    0.000    4.125    0.000    0.000 
#    0.000    0.000    0.000    0.000    0.000    0.000 
#
# Total GULP energy -793071.960860 kJ/mol
# GULP energy per Si atom -12391.749388 kJ/mol
# Density = 2.041428 g / cm^3
# Si number density = 20.460854 Si / 1000 Ang^3
#
#
#
# Elastic Constant Matrix: (Units=GPa)
#
#
# Indices 1 2 3 4 5 6 
#
# 1 43.5179 18.0757 25.0497 0.0000 0.0000 0.0000
# 2 18.0757 182.2742 71.6705 0.0000 0.0000 0.0000
# 3 25.0497 71.6705 94.5670 0.0000 0.0000 0.0000
# 4 0.0000 0.0000 0.0000 40.3671 0.0000 0.0000
# 5 0.0000 0.0000 0.0000 0.0000 20.5350 0.0000
# 6 0.0000 0.0000 0.0000 0.0000 0.0000 29.5563
#
#
#
# Elastic Compliance Matrix: (Units=1/GPa)
#
#
# Indices 1 2 3 4 5 6 
#
# 1 0.027118 0.000193 -0.007329 0.000000 0.000000 0.000000
# 2 0.000193 0.007817 -0.005975 0.000000 0.000000 0.000000
# 3 -0.007329 -0.005975 0.017044 0.000000 0.000000 0.000000
# 4 0.000000 0.000000 0.000000 0.024773 0.000000 0.000000
# 5 0.000000 0.000000 0.000000 0.000000 0.048697 0.000000
# 6 0.000000 0.000000 0.000000 0.000000 0.000000 0.033834
#
#
# Mechanical properties :
#
#
# Convention : Reuss Voigt Hill
#
# Bulk Modulus (GPa) = 38.82665 61.10563 49.96614
# Shear Modulus (GPa) = 25.76116 31.79591 28.77853
#
# Velocity S-wave (km/s) = 3.55215 3.94634 3.75442
# Velocity P-wave (km/s) = 5.98673 7.11999 6.57781
#
# Compressibility (1/GPa) = 0.02575551
#
# Stress axis : x y z
#
# Youngs Moduli (GPa) = 36.87608 127.93411 58.67067
#
# Poissons Ratio (x) = -0.02465 0.43001
# Poissons Ratio (y) = -0.00710 0.35056
# Poissons Ratio (z) = 0.27027 0.76441
#
# Static dielectric constant tensor:
#      x y z
#    x 3.418590 0.000000 0.000000 
#    y 0.000000 4.404770 0.000000 
#    z 0.000000 0.000000 3.670860 
# 
# 
# High freq. dielectric constant tensor:
#      x y z
#    x 1.775620 0.000000 0.000000 
#    y 0.000000 1.826780 0.000000 
#    z 0.000000 0.000000 1.787240 
# 
# From -- ./inp_files/10066.got.cif
#   From: 2010.03.12/outbox.cif.g09.slc.cpg/sg51_6_cif.got.tgz:10066.got - 2010.04.16 13:43:02.
