data_PCOD8213148
_publ_section_title
;
Structure prediction by ZEFSAII (Michael W. Deem and Ramdas Pophale) SiO2 
 PCOD8213148
Probable space group: P M M A
;
_chemical_formula_sum "Si O2"
_cell_formula_units_Z 48
_cell_length_a 14.448591
_cell_length_b 9.014196
_cell_length_c 19.748864
_cell_angle_alpha 90.000000
_cell_angle_beta 90.000000
_cell_angle_gamma 90.000000
_cell_volume 2572.140061
_symmetry_space_group_name_H-M "P M M A"
_symmetry_group_IT_number 51
_symmetry_cell_setting 'orthorhombic'
loop_
_space_group_symop_operation_xyz
x,y,z
1/2-x,-y,z
1/2+x,-y,-z
-x,y,-z
-x,-y,-z
1/2+x,y,-z
1/2-x,y,z
x,-y,z
loop_
_atom_site_type_symbol
_atom_site_label
_atom_site_fract_x
_atom_site_fract_y
_atom_site_fract_z
Si Si1 0.447676 0.675021 0.679509
Si Si2 0.562921 0.824868 0.563986
Si Si3 0.750000 0.322637 0.523522
Si Si4 0.250000 0.674725 0.629736
Si Si5 0.353834 0.672492 0.073938
Si Si6 0.480745 0.328189 0.833083
Si Si7 0.641767 0.829425 0.060663
O O1 0.458907 0.500000 0.664325
O O2 0.512816 0.769120 0.631105
O O3 0.341599 0.728413 0.669082
O O4 0.478162 0.717300 0.754960
O O5 0.500000 0.781071 0.500000
O O6 0.660044 0.740554 0.560488
O O7 0.580162 0.000000 0.567829
O O8 0.750000 0.500000 0.528154
O O9 0.750000 0.262235 0.446503
O O10 0.250000 0.500000 0.625334
O O11 0.250000 0.727825 0.091127
O O12 0.354726 0.500000 0.056551
O O13 0.417281 0.709630 0.138496
O O14 0.395072 0.753853 0.008094
O O15 0.456326 0.500000 0.842328
O O16 0.404101 0.237509 0.872990
O O17 0.750000 0.800497 0.068060
O O18 0.615522 0.000000 0.055873
#
# Coordination Sequence:
#
# PCOD8213148 Si02
#       7
#     8   8   4   4   8   8   8
#     4  10  21  38  58  85 116 149 191 233 279 340
#     4  11  23  39  59  86 120 153 189 235 287 342
#     4  11  21  37  65  89 111 148 195 244 283 331
#     4   9  18  33  57  85 113 144 183 232 279 331
#     4   9  18  35  56  78 107 143 185 232 279 328
#     4  10  21  35  56  83 112 146 185 230 280 333
#     4  10  21  35  53  80 111 144 185 230 278 336
#
# _framework density 18.661504000000001
#
# number of rings (size 3 to 8) (size 9 to 14) (size 15 to 20)
#    0.000    2.000    1.667    1.750    1.167    5.000 
#    1.500    0.417    0.000    0.000    0.000    0.000 
#    0.000    0.000    0.000    0.000    0.000    0.000 
#
# Total GULP energy -595352.635408 kJ/mol
# GULP energy per Si atom -12403.179904 kJ/mol
# Density = 1.861903 g / cm^3
# Si number density = 18.661504 Si / 1000 Ang^3
#
#
#
# Elastic Constant Matrix: (Units=GPa)
#
#
# Indices 1 2 3 4 5 6 
#
# 1 116.3472 53.9047 75.3519 0.0000 0.0000 0.0000
# 2 53.9047 67.8251 54.1695 0.0000 0.0000 0.0000
# 3 75.3519 54.1695 148.2200 0.0000 0.0000 0.0000
# 4 0.0000 0.0000 0.0000 18.9593 0.0000 0.0000
# 5 0.0000 0.0000 0.0000 0.0000 28.2783 0.0000
# 6 0.0000 0.0000 0.0000 0.0000 0.0000 26.0801
#
#
#
# Elastic Compliance Matrix: (Units=1/GPa)
#
#
# Indices 1 2 3 4 5 6 
#
# 1 0.015732 -0.008636 -0.004841 0.000000 0.000000 0.000000
# 2 -0.008636 0.025562 -0.004952 0.000000 0.000000 0.000000
# 3 -0.004841 -0.004952 0.011018 0.000000 0.000000 0.000000
# 4 0.000000 0.000000 0.000000 0.052745 0.000000 0.000000
# 5 0.000000 0.000000 0.000000 0.000000 0.035363 0.000000
# 6 0.000000 0.000000 0.000000 0.000000 0.000000 0.038343
#
#
# Mechanical properties :
#
#
# Convention : Reuss Voigt Hill
#
# Bulk Modulus (GPa) = 64.71247 77.69385 71.20316
# Shear Modulus (GPa) = 22.64776 24.59461 23.62119
#
# Velocity S-wave (km/s) = 3.48747 3.63427 3.56163
# Velocity P-wave (km/s) = 7.13925 7.70287 7.42641
#
# Compressibility (1/GPa) = 0.01545297
#
# Stress axis : x y z
#
# Youngs Moduli (GPa) = 63.56566 39.12012 90.76330
#
# Poissons Ratio (x) = 0.33785 0.43942
# Poissons Ratio (y) = 0.54897 0.44943
# Poissons Ratio (z) = 0.30775 0.19371
#
# Static dielectric constant tensor:
#      x y z
#    x 3.672090 0.000000 0.000000 
#    y 0.000000 3.333070 0.000000 
#    z 0.000000 0.000000 3.441650 
# 
# 
# High freq. dielectric constant tensor:
#      x y z
#    x 1.736230 0.000000 0.000000 
#    y 0.000000 1.715480 0.000000 
#    z 0.000000 0.000000 1.721020 
# 
# From -- ./inp_files/29561.got.cif
#   From: 2010.03.12/outbox.cif.g09.slc.cpg/sg51_15_cif.got.tgz:29561.got - 2010.04.16 13:43:02.
