data_PCOD8213022
_publ_section_title
;
Structure prediction by ZEFSAII (Michael W. Deem and Ramdas Pophale) SiO2 
 PCOD8213022
Probable space group: P M M A
;
_chemical_formula_sum "Si O2"
_cell_formula_units_Z 48
_cell_length_a 18.501228
_cell_length_b 9.329177
_cell_length_c 15.461737
_cell_angle_alpha 90.000000
_cell_angle_beta 90.000000
_cell_angle_gamma 90.000000
_cell_volume 2668.714835
_symmetry_space_group_name_H-M "P M M A"
_symmetry_group_IT_number 51
_symmetry_cell_setting 'orthorhombic'
loop_
_space_group_symop_operation_xyz
x,y,z
1/2-x,-y,z
1/2+x,-y,-z
-x,y,-z
-x,-y,-z
1/2+x,y,-z
1/2-x,y,z
x,-y,z
loop_
_atom_site_type_symbol
_atom_site_label
_atom_site_fract_x
_atom_site_fract_y
_atom_site_fract_z
Si Si1 0.163702 0.661444 0.493726
Si Si2 0.835793 0.841081 0.346178
Si Si3 0.916265 0.333107 0.007951
Si Si4 0.663967 0.837984 0.670015
Si Si5 0.167754 0.830849 0.846999
Si Si6 0.165860 0.665920 0.163503
O O1 0.250000 0.660911 0.493195
O O2 0.133639 0.500000 0.487144
O O3 0.133606 0.731600 0.582251
O O4 0.133726 0.752800 0.412966
O O5 0.750000 0.849364 0.352130
O O6 0.857419 0.789000 0.250120
O O7 0.867347 0.000000 0.364582
O O8 0.902211 0.500000 0.024530
O O9 0.885419 0.247837 0.088546
O O10 0.876951 0.282245 0.920732
O O11 0.000000 0.296280 0.000000
O O12 0.750000 0.838065 0.667701
O O13 0.636701 0.758999 0.756393
O O14 0.633738 0.000000 0.668546
O O15 0.250000 0.779751 0.863533
O O16 0.161873 0.000000 0.860667
O O17 0.250000 0.694053 0.145996
O O18 0.150956 0.500000 0.185082
#
# Coordination Sequence:
#
# PCOD8213022 Si02
#       6
#     8   8   8   8   8   8
#     4   9  15  22  35  59  91 123 152 183 222 270
#     4   8  14  25  40  60  89 122 153 187 228 272
#     4  10  21  35  50  70  96 126 160 198 242 291
#     4   9  16  25  39  61  89 120 152 187 228 273
#     4   9  18  32  50  72  97 126 161 200 240 282
#     4   9  17  30  47  66  90 121 156 194 234 275
#
# _framework density 17.986184999999999
#
# number of rings (size 3 to 8) (size 9 to 14) (size 15 to 20)
#    0.000    3.000    0.000    2.500    0.000    6.667 
#    0.000    3.333    0.000    0.000    0.000    1.167 
#    0.000    9.333    0.000    0.000    0.000    0.000 
#
# Total GULP energy -595117.522492 kJ/mol
# GULP energy per Si atom -12398.281719 kJ/mol
# Density = 1.794525 g / cm^3
# Si number density = 17.986185 Si / 1000 Ang^3
#
#
#
# Elastic Constant Matrix: (Units=GPa)
#
#
# Indices 1 2 3 4 5 6 
#
# 1 35.6632 26.7781 42.9397 0.0000 0.0000 0.0000
# 2 26.7781 111.4458 92.1864 0.0000 0.0000 0.0000
# 3 42.9397 92.1864 182.8994 0.0000 0.0000 0.0000
# 4 0.0000 0.0000 0.0000 37.5040 0.0000 0.0000
# 5 0.0000 0.0000 0.0000 0.0000 -0.1653 0.0000
# 6 0.0000 0.0000 0.0000 0.0000 0.0000 13.2036
#
#
#
# Elastic Compliance Matrix: (Units=1/GPa)
#
#
# Indices 1 2 3 4 5 6 
#
# 1 0.039720 -0.003139 -0.007743 0.000000 0.000000 0.000000
# 2 -0.003139 0.015637 -0.007145 0.000000 0.000000 0.000000
# 3 -0.007743 -0.007145 0.010886 0.000000 0.000000 0.000000
# 4 0.000000 0.000000 0.000000 0.026664 0.000000 0.000000
# 5 0.000000 0.000000 0.000000 0.000000 -6.049594 0.000000
# 6 0.000000 0.000000 0.000000 0.000000 0.000000 0.075737
#
#
# Mechanical properties :
#
#
# Convention : Reuss Voigt Hill
#
# Bulk Modulus (GPa) = 33.12331 72.64631 52.88481
# Shear Modulus (GPa) = -0.85692 21.31542 10.22925
#
# Velocity S-wave (km/s) = -0.69099 3.44626 2.38739
# Velocity P-wave (km/s) = 4.22129 7.50422 6.08821
#
# Compressibility (1/GPa) = 0.03019022
#
# Stress axis : x y z
#
# Youngs Moduli (GPa) = 25.17637 63.95051 91.85786
#
# Poissons Ratio (x) = 0.20074 0.71125
# Poissons Ratio (y) = 0.07903 0.65629
# Poissons Ratio (z) = 0.19494 0.45690
#
# Static dielectric constant tensor:
#      x y z
#    x 2.723410 0.000000 0.000000 
#    y 0.000000 3.444090 0.000000 
#    z 0.000000 0.000000 3.559210 
# 
# 
# High freq. dielectric constant tensor:
#      x y z
#    x 1.631230 0.000000 0.000000 
#    y 0.000000 1.699000 0.000000 
#    z 0.000000 0.000000 1.713510 
# 
# From -- ./inp_files/25461.got.cif
#   From: 2010.03.12/outbox.cif.g09.slc.cpg/sg51_13_cif.got.tgz:25461.got - 2010.04.16 13:43:02.
