data_PCOD8213197
_publ_section_title
;
Structure prediction by ZEFSAII (Michael W. Deem and Ramdas Pophale) SiO2 
 PCOD8213197
Probable space group: P M M A
;
_chemical_formula_sum "Si O2"
_cell_formula_units_Z 40
_cell_length_a 18.276690
_cell_length_b 9.051969
_cell_length_c 13.774117
_cell_angle_alpha 90.000000
_cell_angle_beta 90.000000
_cell_angle_gamma 90.000000
_cell_volume 2278.790348
_symmetry_space_group_name_H-M "P M M A"
_symmetry_group_IT_number 51
_symmetry_cell_setting 'orthorhombic'
loop_
_space_group_symop_operation_xyz
x,y,z
1/2-x,-y,z
1/2+x,-y,-z
-x,y,-z
-x,-y,-z
1/2+x,y,-z
1/2-x,y,z
x,-y,z
loop_
_atom_site_type_symbol
_atom_site_label
_atom_site_fract_x
_atom_site_fract_y
_atom_site_fract_z
Si Si1 0.030488 0.672879 0.394783
Si Si2 0.461097 0.826395 0.783699
Si Si3 0.167905 0.823960 0.917018
Si Si4 0.832312 0.173476 0.679841
Si Si5 0.108539 0.172811 0.117813
O O1 0.035733 0.500000 0.375579
O O2 0.111674 0.741156 0.389341
O O3 0.000000 0.711396 0.500000
O O4 0.975282 0.741772 0.316272
O O5 0.384043 0.772608 0.828537
O O6 0.523710 0.787913 0.862904
O O7 0.461694 0.000000 0.760435
O O8 0.250000 0.765405 0.897681
O O9 0.166603 0.000000 0.923002
O O10 0.137712 0.754168 0.018138
O O11 0.750000 0.210136 0.646345
O O12 0.843371 0.227815 0.790803
O O13 0.849612 0.000000 0.672295
O O14 0.119069 0.000000 0.105855
#
# Coordination Sequence:
#
# PCOD8213197 Si02
#       5
#     8   8   8   8   8
#     4  10  21  36  52  68  89 123 164 200 238 285
#     4   9  17  29  47  70  94 122 158 198 238 278
#     4   9  15  23  40  69 101 128 155 189 228 274
#     4   9  17  30  51  79 103 121 148 191 240 282
#     4   8  13  23  42  69  99 126 151 183 226 278
#
# _framework density 17.553173000000001
#
# number of rings (size 3 to 8) (size 9 to 14) (size 15 to 20)
#    0.000    3.000    0.000    3.000    0.000    6.800 
#    0.000    1.000    0.000   13.800    0.000    0.000 
#    0.000    0.000    0.000    0.000    0.000    0.000 
#
# Total GULP energy -495821.917697 kJ/mol
# GULP energy per Si atom -12395.547942 kJ/mol
# Density = 1.751322 g / cm^3
# Si number density = 17.553173 Si / 1000 Ang^3
#
#
#
# Elastic Constant Matrix: (Units=GPa)
#
#
# Indices 1 2 3 4 5 6 
#
# 1 155.2824 45.3489 85.4608 0.0000 0.0000 0.0000
# 2 45.3489 42.2999 49.0906 0.0000 0.0000 0.0000
# 3 85.4608 49.0906 118.5666 0.0000 0.0000 0.0000
# 4 0.0000 0.0000 0.0000 3.4921 0.0000 0.0000
# 5 0.0000 0.0000 0.0000 0.0000 -294.3597 0.0000
# 6 0.0000 0.0000 0.0000 0.0000 0.0000 11.0318
#
#
#
# Elastic Compliance Matrix: (Units=1/GPa)
#
#
# Indices 1 2 3 4 5 6 
#
# 1 0.011215 -0.005086 -0.005978 0.000000 0.000000 0.000000
# 2 -0.005086 0.047813 -0.016130 0.000000 0.000000 0.000000
# 3 -0.005978 -0.016130 0.019421 0.000000 0.000000 0.000000
# 4 0.000000 0.000000 0.000000 0.286358 0.000000 0.000000
# 5 0.000000 0.000000 0.000000 0.000000 -0.003397 0.000000
# 6 0.000000 0.000000 0.000000 0.000000 0.000000 0.090647
#
#
# Mechanical properties :
#
#
# Convention : Reuss Voigt Hill
#
# Bulk Modulus (GPa) = 41.56076 75.10553 58.33314
# Shear Modulus (GPa) = 9.71880 -46.88392 -18.58256
#
# Velocity S-wave (km/s) = 2.35559 -5.17374 -3.25721
# Velocity P-wave (km/s) = 5.57915 2.68144 4.37704
#
# Compressibility (1/GPa) = 0.02406116
#
# Stress axis : x y z
#
# Youngs Moduli (GPa) = 89.16465 20.91470 51.48939
#
# Poissons Ratio (x) = 0.10637 0.30780
# Poissons Ratio (y) = 0.45349 0.83055
# Poissons Ratio (z) = 0.53302 0.33736
#
# Static dielectric constant tensor:
#      x y z
#    x 1.606900 0.000000 0.000000 
#    y 0.000000 2.820540 0.000000 
#    z 0.000000 0.000000 3.227430 
# 
# 
# High freq. dielectric constant tensor:
#      x y z
#    x 1.685860 0.000000 0.000000 
#    y 0.000000 1.629500 0.000000 
#    z 0.000000 0.000000 1.669070 
# 
# From -- ./inp_files/24534.got.cif
#   From: 2010.03.12/outbox.cif.g09.slc.cpg/sg51_13_cif.got.tgz:24534.got - 2010.04.16 13:43:02.
