data_PCOD8213550
_publ_section_title
;
Structure prediction by ZEFSAII (Michael W. Deem and Ramdas Pophale) SiO2 
 PCOD8213550
Probable space group: P M M A
;
_chemical_formula_sum "Si O2"
_cell_formula_units_Z 64
_cell_length_a 15.045013
_cell_length_b 9.172521
_cell_length_c 23.745506
_cell_angle_alpha 90.000000
_cell_angle_beta 90.000000
_cell_angle_gamma 90.000000
_cell_volume 3276.896395
_symmetry_space_group_name_H-M "P M M A"
_symmetry_group_IT_number 51
_symmetry_cell_setting 'orthorhombic'
loop_
_space_group_symop_operation_xyz
x,y,z
1/2-x,-y,z
1/2+x,-y,-z
-x,y,-z
-x,-y,-z
1/2+x,y,-z
1/2-x,y,z
x,-y,z
loop_
_atom_site_type_symbol
_atom_site_label
_atom_site_fract_x
_atom_site_fract_y
_atom_site_fract_z
Si Si1 0.349145 0.335045 0.204447
Si Si2 0.152277 0.664305 0.774511
Si Si3 0.149112 0.664894 0.996248
Si Si4 0.090557 0.164350 0.100650
Si Si5 0.988198 0.172718 0.585965
Si Si6 0.012588 0.671307 0.297066
Si Si7 0.148257 0.827524 0.509056
Si Si8 0.386666 0.164551 0.883995
O O1 0.250000 0.329222 0.229405
O O2 0.377116 0.500000 0.188461
O O3 0.349838 0.241379 0.147542
O O4 0.414374 0.273302 0.252211
O O5 0.250000 0.668614 0.746739
O O6 0.127430 0.500000 0.794439
O O7 0.154245 0.769126 0.827895
O O8 0.083586 0.716099 0.727046
O O9 0.250000 0.665618 0.018109
O O10 0.112860 0.500000 0.991350
O O11 0.144973 0.740107 0.936062
O O12 0.090621 0.752037 0.041298
O O13 0.991550 0.166279 0.123603
O O14 0.125363 0.000000 0.090959
O O15 0.971568 0.245484 0.645496
O O16 0.904480 0.221511 0.547245
O O17 0.084252 0.223681 0.560687
O O18 0.988510 0.000000 0.592633
O O19 0.021486 0.500000 0.308438
O O20 0.250000 0.761823 0.512131
O O21 0.156085 0.000000 0.510118
O O22 0.351386 0.000000 0.892121
#
# Coordination Sequence:
#
# PCOD8213550 Si02
#       8
#     8   8   8   8   8   8   8   8
#     4  10  21  38  59  80 105 145 191 227 272 336
#     4  10  21  38  59  80 105 145 191 227 272 336
#     4  11  24  39  56  80 108 141 182 224 273 341
#     4  11  23  38  57  82 110 139 177 228 284 336
#     4   9  18  32  54  82 109 143 189 230 265 321
#     4  10  21  37  55  79 115 150 181 228 280 322
#     4   8  15  31  54  80 112 148 184 226 274 318
#     4  11  23  38  57  82 110 139 177 228 284 336
#
# _framework density 19.530674000000001
#
# number of rings (size 3 to 8) (size 9 to 14) (size 15 to 20)
#    0.000    2.000    1.250    3.000    0.000    9.500 
#    0.000    1.250    0.000    0.750    0.000    0.000 
#    0.000    0.000    0.000    0.000    0.000    0.000 
#
# Total GULP energy -793558.172464 kJ/mol
# GULP energy per Si atom -12399.346445 kJ/mol
# Density = 1.948622 g / cm^3
# Si number density = 19.530674 Si / 1000 Ang^3
#
#
#
# Elastic Constant Matrix: (Units=GPa)
#
#
# Indices 1 2 3 4 5 6 
#
# 1 98.8882 17.8733 16.4784 0.0000 0.0000 0.0000
# 2 17.8733 88.3967 40.5791 0.0000 0.0000 0.0000
# 3 16.4784 40.5791 98.0958 0.0000 0.0000 0.0000
# 4 0.0000 0.0000 0.0000 39.2197 0.0000 0.0000
# 5 0.0000 0.0000 0.0000 0.0000 -1.4485 0.0000
# 6 0.0000 0.0000 0.0000 0.0000 0.0000 17.0116
#
#
#
# Elastic Compliance Matrix: (Units=1/GPa)
#
#
# Indices 1 2 3 4 5 6 
#
# 1 0.010592 -0.001635 -0.001103 0.000000 0.000000 0.000000
# 2 -0.001635 0.014217 -0.005606 0.000000 0.000000 0.000000
# 3 -0.001103 -0.005606 0.012699 0.000000 0.000000 0.000000
# 4 0.000000 0.000000 0.000000 0.025497 0.000000 0.000000
# 5 0.000000 0.000000 0.000000 0.000000 -0.690383 0.000000
# 6 0.000000 0.000000 0.000000 0.000000 0.000000 0.058784
#
#
# Mechanical properties :
#
#
# Convention : Reuss Voigt Hill
#
# Bulk Modulus (GPa) = 48.03474 48.36027 48.19750
# Shear Modulus (GPa) = -9.17488 24.98655 7.90583
#
# Velocity S-wave (km/s) = -2.16976 3.58068 2.01412
# Velocity P-wave (km/s) = 4.28611 6.47379 5.49002
#
# Compressibility (1/GPa) = 0.02081827
#
# Stress axis : x y z
#
# Youngs Moduli (GPa) = 94.41294 70.33857 78.74924
#
# Poissons Ratio (x) = 0.11503 0.08684
# Poissons Ratio (y) = 0.15440 0.44150
# Poissons Ratio (z) = 0.10411 0.39434
#
# Static dielectric constant tensor:
#      x y z
#    x 3.854920 0.000000 0.000000 
#    y 0.000000 3.483310 0.000000 
#    z 0.000000 0.000000 3.364930 
# 
# 
# High freq. dielectric constant tensor:
#      x y z
#    x 1.776340 0.000000 0.000000 
#    y 0.000000 1.745830 0.000000 
#    z 0.000000 0.000000 1.748280 
# 
# From -- ./inp_files/35835.got.cif
#   From: 2010.03.12/outbox.cif.g09.slc.cpg/sg51_18_cif.got.tgz:35835.got - 2010.04.16 13:43:02.
