data_PCOD8213841
_publ_section_title
;
Structure prediction by ZEFSAII (Michael W. Deem and Ramdas Pophale) SiO2 
 PCOD8213841
Probable space group: P M M A
;
_chemical_formula_sum "Si O2"
_cell_formula_units_Z 64
_cell_length_a 8.782881
_cell_length_b 15.069282
_cell_length_c 23.835596
_cell_angle_alpha 90.000000
_cell_angle_beta 90.000000
_cell_angle_gamma 90.000000
_cell_volume 3154.681903
_symmetry_space_group_name_H-M "P M M A"
_symmetry_group_IT_number 51
_symmetry_cell_setting 'orthorhombic'
loop_
_space_group_symop_operation_xyz
x,y,z
1/2-x,-y,z
1/2+x,-y,-z
-x,y,-z
-x,-y,-z
1/2+x,y,-z
1/2-x,y,z
x,-y,z
loop_
_atom_site_type_symbol
_atom_site_label
_atom_site_fract_x
_atom_site_fract_y
_atom_site_fract_z
Si Si1 0.931599 0.157537 0.677844
Si Si2 0.929687 0.600588 0.940190
Si Si3 0.571825 0.661085 0.333833
Si Si4 0.925719 0.396844 0.557681
Si Si5 0.426100 0.901578 0.787583
Si Si6 0.921913 0.597641 0.765850
Si Si7 0.918157 0.895586 0.555184
Si Si8 0.073223 0.724034 0.847929
O O1 0.750000 0.169687 0.677341
O O2 0.991378 0.124643 0.616465
O O3 0.022767 0.246079 0.693046
O O4 0.978131 0.094481 0.729488
O O5 0.750000 0.605093 0.944825
O O6 0.979485 0.500000 0.921291
O O7 0.980935 0.679173 0.898654
O O8 0.000000 0.623312 0.000000
O O9 0.750000 0.643127 0.330182
O O10 0.515992 0.660467 0.397411
O O11 0.478370 0.587796 0.298418
O O12 0.750000 0.370385 0.558103
O O13 0.951453 0.500000 0.569906
O O14 0.000000 0.368017 0.500000
O O15 0.250000 0.883196 0.772651
O O16 0.480419 0.824889 0.831916
O O17 0.446377 0.000000 0.815088
O O18 0.750000 0.636006 0.769542
O O19 0.924785 0.500000 0.793615
O O20 0.042470 0.662185 0.794609
O O21 0.750000 0.854183 0.554546
O O22 0.000000 0.853980 0.500000
O O23 0.912829 0.000000 0.547859
O O24 0.250000 0.722802 0.863782
#
# Coordination Sequence:
#
# PCOD8213841 Si02
#       8
#     8   8   8   8   8   8   8   8
#     4  11  22  37  57  80 110 145 189 245 302 364
#     4  10  21  38  62  94 133 175 215 255 300 352
#     4  12  24  37  54  78 109 144 185 235 292 354
#     4  10  21  38  58  78 101 134 180 233 289 352
#     4  10  22  40  61  87 120 159 204 254 310 369
#     4  11  23  38  57  83 117 156 195 241 296 352
#     4   9  19  35  54  77 102 131 172 224 287 358
#     4  11  22  37  60  91 126 164 206 252 300 353
#
# _framework density 20.287307999999999
#
# number of rings (size 3 to 8) (size 9 to 14) (size 15 to 20)
#    0.000    1.500    1.250    4.125    0.000    8.250 
#    0.000    2.500    0.000    0.375    0.000    0.000 
#    0.000    0.000    0.000    0.000    0.000    0.000 
#
# Total GULP energy -793240.121740 kJ/mol
# GULP energy per Si atom -12394.376902 kJ/mol
# Density = 2.024113 g / cm^3
# Si number density = 20.287308 Si / 1000 Ang^3
#
#
#
# Elastic Constant Matrix: (Units=GPa)
#
#
# Indices 1 2 3 4 5 6 
#
# 1 84.1345 30.8285 36.4318 0.0000 0.0000 0.0000
# 2 30.8285 104.5264 47.8030 0.0000 0.0000 0.0000
# 3 36.4318 47.8030 120.4133 0.0000 0.0000 0.0000
# 4 0.0000 0.0000 0.0000 28.0174 0.0000 0.0000
# 5 0.0000 0.0000 0.0000 0.0000 37.1043 0.0000
# 6 0.0000 0.0000 0.0000 0.0000 0.0000 23.1007
#
#
#
# Elastic Compliance Matrix: (Units=1/GPa)
#
#
# Indices 1 2 3 4 5 6 
#
# 1 0.014290 -0.002734 -0.003238 0.000000 0.000000 0.000000
# 2 -0.002734 0.012212 -0.004021 0.000000 0.000000 0.000000
# 3 -0.003238 -0.004021 0.010881 0.000000 0.000000 0.000000
# 4 0.000000 0.000000 0.000000 0.035692 0.000000 0.000000
# 5 0.000000 0.000000 0.000000 0.000000 0.026951 0.000000
# 6 0.000000 0.000000 0.000000 0.000000 0.000000 0.043289
#
#
# Mechanical properties :
#
#
# Convention : Reuss Voigt Hill
#
# Bulk Modulus (GPa) = 57.48166 59.91121 58.69644
# Shear Modulus (GPa) = 29.56848 30.57853 30.07350
#
# Velocity S-wave (km/s) = 3.82185 3.88657 3.85435
# Velocity P-wave (km/s) = 6.91886 7.05238 6.98594
#
# Compressibility (1/GPa) = 0.01739685
#
# Stress axis : x y z
#
# Youngs Moduli (GPa) = 69.98109 81.88581 91.90513
#
# Poissons Ratio (x) = 0.22384 0.29761
# Poissons Ratio (y) = 0.19130 0.36955
# Poissons Ratio (z) = 0.22661 0.32927
#
# Static dielectric constant tensor:
#      x y z
#    x 3.675740 0.000000 0.000000 
#    y 0.000000 3.735450 0.000000 
#    z 0.000000 0.000000 3.536270 
# 
# 
# High freq. dielectric constant tensor:
#      x y z
#    x 1.792810 0.000000 0.000000 
#    y 0.000000 1.789850 0.000000 
#    z 0.000000 0.000000 1.781860 
# 
# From -- ./inp_files/34859.got.cif
#   From: 2010.03.12/outbox.cif.g09.slc.cpg/sg51_18_cif.got.tgz:34859.got - 2010.04.16 13:43:02.
