data_PCOD8213521
_publ_section_title
;
Structure prediction by ZEFSAII (Michael W. Deem and Ramdas Pophale) SiO2 
 PCOD8213521
Probable space group: P M M A
;
_chemical_formula_sum "Si O2"
_cell_formula_units_Z 48
_cell_length_a 30.088059
_cell_length_b 9.280396
_cell_length_c 10.148189
_cell_angle_alpha 90.000000
_cell_angle_beta 90.000000
_cell_angle_gamma 90.000000
_cell_volume 2833.669705
_symmetry_space_group_name_H-M "P M M A"
_symmetry_group_IT_number 51
_symmetry_cell_setting 'orthorhombic'
loop_
_space_group_symop_operation_xyz
x,y,z
1/2-x,-y,z
1/2+x,-y,-z
-x,y,-z
-x,-y,-z
1/2+x,y,-z
1/2-x,y,z
x,-y,z
loop_
_atom_site_type_symbol
_atom_site_label
_atom_site_fract_x
_atom_site_fract_y
_atom_site_fract_z
Si Si1 0.116822 0.165959 0.221486
Si Si2 0.297201 0.162789 0.498761
Si Si3 0.472336 0.330406 0.628153
Si Si4 0.298857 0.331620 0.233639
Si Si5 0.108049 0.163548 0.530200
Si Si6 0.520503 0.832830 0.858855
O O1 0.159309 0.253347 0.163105
O O2 0.107923 0.201553 0.375031
O O3 0.072628 0.209761 0.140784
O O4 0.128294 0.000000 0.200864
O O5 0.250000 0.178615 0.577886
O O6 0.297055 0.277357 0.382669
O O7 0.341454 0.186640 0.586647
O O8 0.300726 0.000000 0.438821
O O9 0.500000 0.284569 0.500000
O O10 0.470131 0.500000 0.646968
O O11 0.422679 0.270629 0.611896
O O12 0.494500 0.262914 0.755279
O O13 0.250000 0.300103 0.167864
O O14 0.308927 0.500000 0.233285
O O15 0.091498 0.000000 0.552697
O O16 0.514903 0.000000 0.819727
O O17 0.500000 0.798442 0.000000
#
# Coordination Sequence:
#
# PCOD8213521 Si02
#       6
#     8   8   8   8   8   8
#     4   9  17  29  46  68  93 123 157 196 243 287
#     4   8  14  25  40  61  91 124 156 192 239 288
#     4  11  22  33  48  72 100 131 164 200 240 285
#     4   9  16  24  37  61  92 124 156 190 231 281
#     4   9  16  27  46  69  93 126 162 200 241 284
#     4  10  21  37  55  73  95 127 166 207 250 296
#
# _framework density 16.939164999999999
#
# number of rings (size 3 to 8) (size 9 to 14) (size 15 to 20)
#    0.000    2.667    1.667    2.000    0.000    5.333 
#    0.000    0.000    0.000    0.000    0.000    1.167 
#    0.000    4.000    0.000    0.000    0.000    0.000 
#
# Total GULP energy -594707.220039 kJ/mol
# GULP energy per Si atom -12389.733751 kJ/mol
# Density = 1.690061 g / cm^3
# Si number density = 16.939165 Si / 1000 Ang^3
#
#
#
# Elastic Constant Matrix: (Units=GPa)
#
#
# Indices 1 2 3 4 5 6 
#
# 1 187.9555 72.7669 47.2793 0.0000 0.0000 0.0000
# 2 72.7669 74.8338 36.0043 0.0000 0.0000 0.0000
# 3 47.2793 36.0043 46.8263 0.0000 0.0000 0.0000
# 4 0.0000 0.0000 0.0000 11.5573 0.0000 0.0000
# 5 0.0000 0.0000 0.0000 0.0000 13.6050 0.0000
# 6 0.0000 0.0000 0.0000 0.0000 0.0000 22.0157
#
#
#
# Elastic Compliance Matrix: (Units=1/GPa)
#
#
# Indices 1 2 3 4 5 6 
#
# 1 0.008921 -0.006890 -0.003710 0.000000 0.000000 0.000000
# 2 -0.006890 0.026530 -0.013442 0.000000 0.000000 0.000000
# 3 -0.003710 -0.013442 0.035437 0.000000 0.000000 0.000000
# 4 0.000000 0.000000 0.000000 0.086525 0.000000 0.000000
# 5 0.000000 0.000000 0.000000 0.000000 0.073502 0.000000
# 6 0.000000 0.000000 0.000000 0.000000 0.000000 0.045422
#
#
# Mechanical properties :
#
#
# Convention : Reuss Voigt Hill
#
# Bulk Modulus (GPa) = 43.85168 69.07962 56.46565
# Shear Modulus (GPa) = 15.05925 19.67327 17.36626
#
# Velocity S-wave (km/s) = 2.98488 3.41164 3.20537
# Velocity P-wave (km/s) = 6.15006 7.50923 6.86338
#
# Compressibility (1/GPa) = 0.02280414
#
# Stress axis : x y z
#
# Youngs Moduli (GPa) = 112.09606 37.69368 28.21925
#
# Poissons Ratio (x) = 0.25970 0.10469
# Poissons Ratio (y) = 0.77230 0.37933
# Poissons Ratio (z) = 0.41586 0.50668
#
# Static dielectric constant tensor:
#      x y z
#    x 4.146320 0.000000 0.000000 
#    y 0.000000 3.156480 0.000000 
#    z 0.000000 0.000000 2.633240 
# 
# 
# High freq. dielectric constant tensor:
#      x y z
#    x 1.685630 0.000000 0.000000 
#    y 0.000000 1.655620 0.000000 
#    z 0.000000 0.000000 1.573390 
# 
# From -- ./inp_files/19265.got.cif
#   From: 2010.03.12/outbox.cif.g09.slc.cpg/sg51_10_cif.got.tgz:19265.got - 2010.04.16 13:43:02.
