data_PCOD8213635
_publ_section_title
;
Structure prediction by ZEFSAII (Michael W. Deem and Ramdas Pophale) SiO2 
 PCOD8213635
Probable space group: P M M A
;
_chemical_formula_sum "Si O2"
_cell_formula_units_Z 40
_cell_length_a 9.083463
_cell_length_b 8.995480
_cell_length_c 25.677428
_cell_angle_alpha 90.000000
_cell_angle_beta 90.000000
_cell_angle_gamma 90.000000
_cell_volume 2098.105460
_symmetry_space_group_name_H-M "P M M A"
_symmetry_group_IT_number 51
_symmetry_cell_setting 'orthorhombic'
loop_
_space_group_symop_operation_xyz
x,y,z
1/2-x,-y,z
1/2+x,-y,-z
-x,y,-z
-x,-y,-z
1/2+x,y,-z
1/2-x,y,z
x,-y,z
loop_
_atom_site_type_symbol
_atom_site_label
_atom_site_fract_x
_atom_site_fract_y
_atom_site_fract_z
Si Si1 0.421121 0.829096 0.347404
Si Si2 0.578012 0.671673 0.946616
Si Si3 0.084135 0.177149 0.550298
Si Si4 0.581098 0.324902 0.758699
Si Si5 0.419836 0.174149 0.852599
O O1 0.250000 0.811569 0.360219
O O2 0.508113 0.764907 0.396985
O O3 0.468311 0.733438 0.297622
O O4 0.462372 0.000000 0.336038
O O5 0.750000 0.703656 0.952624
O O6 0.547031 0.500000 0.932784
O O7 0.514145 0.772821 0.901393
O O8 0.500000 0.717771 0.000000
O O9 0.250000 0.237135 0.548840
O O10 0.000000 0.242039 0.500000
O O11 0.078491 0.000000 0.549211
O O12 0.750000 0.278848 0.770422
O O13 0.561251 0.500000 0.760315
O O14 0.474990 0.253623 0.800867
O O15 0.250000 0.215836 0.861970
O O16 0.442866 0.000000 0.845398
#
# Coordination Sequence:
#
# PCOD8213635 Si02
#       5
#     8   8   8   8   8
#     4   9  17  30  49  73 102 135 170 211 260 312
#     4  10  21  38  61  87 114 146 183 221 264 316
#     4   9  16  26  43  69 100 132 167 209 257 309
#     4  10  21  37  57  80 106 139 179 221 268 323
#     4  11  24  39  56  81 112 145 182 224 269 316
#
# _framework density 19.064817999999999
#
# number of rings (size 3 to 8) (size 9 to 14) (size 15 to 20)
#    0.000    2.200    0.000    3.000    0.000   10.000 
#    0.000    2.000    0.000    0.600    0.000    0.000 
#    0.000    0.000    0.000    0.000    0.000    0.000 
#
# Total GULP energy -496150.141522 kJ/mol
# GULP energy per Si atom -12403.753538 kJ/mol
# Density = 1.902143 g / cm^3
# Si number density = 19.064818 Si / 1000 Ang^3
#
#
#
# Elastic Constant Matrix: (Units=GPa)
#
#
# Indices 1 2 3 4 5 6 
#
# 1 107.8888 37.1916 77.0069 0.0000 0.0000 0.0000
# 2 37.1916 54.4593 46.8721 0.0000 0.0000 0.0000
# 3 77.0069 46.8721 154.1002 0.0000 0.0000 0.0000
# 4 0.0000 0.0000 0.0000 62.1812 0.0000 0.0000
# 5 0.0000 0.0000 0.0000 0.0000 44.1171 0.0000
# 6 0.0000 0.0000 0.0000 0.0000 0.0000 22.4617
#
#
#
# Elastic Compliance Matrix: (Units=1/GPa)
#
#
# Indices 1 2 3 4 5 6 
#
# 1 0.015458 -0.005294 -0.006114 0.000000 0.000000 0.000000
# 2 -0.005294 0.026687 -0.005472 0.000000 0.000000 0.000000
# 3 -0.006114 -0.005472 0.011209 0.000000 0.000000 0.000000
# 4 0.000000 0.000000 0.000000 0.016082 0.000000 0.000000
# 5 0.000000 0.000000 0.000000 0.000000 0.022667 0.000000
# 6 0.000000 0.000000 0.000000 0.000000 0.000000 0.044520
#
#
# Mechanical properties :
#
#
# Convention : Reuss Voigt Hill
#
# Bulk Modulus (GPa) = 51.03657 70.95440 60.99549
# Shear Modulus (GPa) = 28.26210 36.11051 32.18630
#
# Velocity S-wave (km/s) = 3.85440 4.35684 4.11330
# Velocity P-wave (km/s) = 6.82910 7.91250 7.39068
#
# Compressibility (1/GPa) = 0.01959379
#
# Stress axis : x y z
#
# Youngs Moduli (GPa) = 64.69140 37.47106 89.21326
#
# Poissons Ratio (x) = 0.19838 0.54548
# Poissons Ratio (y) = 0.34248 0.48816
# Poissons Ratio (z) = 0.39555 0.20503
#
# Static dielectric constant tensor:
#      x y z
#    x 3.718390 0.000000 0.000000 
#    y 0.000000 3.259390 0.000000 
#    z 0.000000 0.000000 3.724570 
# 
# 
# High freq. dielectric constant tensor:
#      x y z
#    x 1.747860 0.000000 0.000000 
#    y 0.000000 1.716000 0.000000 
#    z 0.000000 0.000000 1.757550 
# 
# From -- ./inp_files/34294.got.cif
#   From: 2010.03.12/outbox.cif.g09.slc.cpg/sg51_18_cif.got.tgz:34294.got - 2010.04.16 13:43:02.
