data_PCOD8213544
_publ_section_title
;
Structure prediction by ZEFSAII (Michael W. Deem and Ramdas Pophale) SiO2 
 PCOD8213544
Probable space group: P M M A
;
_chemical_formula_sum "Si O2"
_cell_formula_units_Z 40
_cell_length_a 9.078467
_cell_length_b 7.641876
_cell_length_c 29.627001
_cell_angle_alpha 90.000000
_cell_angle_beta 90.000000
_cell_angle_gamma 90.000000
_cell_volume 2055.418200
_symmetry_space_group_name_H-M "P M M A"
_symmetry_group_IT_number 51
_symmetry_cell_setting 'orthorhombic'
loop_
_space_group_symop_operation_xyz
x,y,z
1/2-x,-y,z
1/2+x,-y,-z
-x,y,-z
-x,-y,-z
1/2+x,y,-z
1/2-x,y,z
x,-y,z
loop_
_atom_site_type_symbol
_atom_site_label
_atom_site_fract_x
_atom_site_fract_y
_atom_site_fract_z
Si Si1 0.087966 0.794522 0.863799
Si Si2 0.086966 0.297016 0.958300
Si Si3 0.425367 0.500000 0.291518
Si Si4 0.921498 0.197860 0.454439
Si Si5 0.077290 0.500000 0.613855
Si Si6 0.074396 0.797287 0.765375
O O1 0.250000 0.707434 0.866089
O O2 0.004127 0.734359 0.909768
O O3 0.016431 0.740411 0.815734
O O4 0.102354 0.000000 0.863144
O O5 0.250000 0.210895 0.956704
O O6 0.100031 0.500000 0.968335
O O7 0.000000 0.207836 0.000000
O O8 0.250000 0.500000 0.287348
O O9 0.473692 0.500000 0.343082
O O10 0.490058 0.324266 0.269579
O O11 0.750000 0.210142 0.464597
O O12 0.965097 0.326718 0.414060
O O13 0.000000 0.259873 0.500000
O O14 0.968444 0.000000 0.440980
O O15 0.250000 0.500000 0.627339
O O16 0.250000 0.768871 0.761867
O O17 0.035700 0.000000 0.755039
#
# Coordination Sequence:
#
# PCOD8213544 Si02
#       6
#     8   8   4   8   4   8
#     4   8  15  29  51  76  95 119 165 218 262 309
#     4   9  17  28  43  66  96 129 160 197 247 305
#     4  12  26  39  55  84 118 153 186 228 294 352
#     4   9  18  33  55  83 113 146 185 229 277 324
#     4  10  21  37  55  78 110 149 195 238 269 318
#     4   9  19  38  63  85 105 137 186 239 283 333
#
# _framework density 19.460761000000002
#
# number of rings (size 3 to 8) (size 9 to 14) (size 15 to 20)
#    0.000    2.800    0.000    2.400    1.400    2.400 
#    0.000    3.000    0.000    1.200    0.000    0.000 
#    0.000    0.000    0.000    0.000    0.000    0.000 
#
# Total GULP energy -495603.895719 kJ/mol
# GULP energy per Si atom -12390.097393 kJ/mol
# Density = 1.941647 g / cm^3
# Si number density = 19.460761 Si / 1000 Ang^3
#
#
#
# Elastic Constant Matrix: (Units=GPa)
#
#
# Indices 1 2 3 4 5 6 
#
# 1 61.6185 37.3581 60.8645 0.0000 0.0000 0.0000
# 2 37.3581 85.7516 67.7660 0.0000 0.0000 0.0000
# 3 60.8645 67.7660 176.3271 0.0000 0.0000 0.0000
# 4 0.0000 0.0000 0.0000 37.4108 0.0000 0.0000
# 5 0.0000 0.0000 0.0000 0.0000 25.5080 0.0000
# 6 0.0000 0.0000 0.0000 0.0000 0.0000 16.6841
#
#
#
# Elastic Compliance Matrix: (Units=1/GPa)
#
#
# Indices 1 2 3 4 5 6 
#
# 1 0.026779 -0.006264 -0.006836 0.000000 0.000000 0.000000
# 2 -0.006264 0.018214 -0.004838 0.000000 0.000000 0.000000
# 3 -0.006836 -0.004838 0.009890 0.000000 0.000000 0.000000
# 4 0.000000 0.000000 0.000000 0.026730 0.000000 0.000000
# 5 0.000000 0.000000 0.000000 0.000000 0.039203 0.000000
# 6 0.000000 0.000000 0.000000 0.000000 0.000000 0.059937
#
#
# Mechanical properties :
#
#
# Convention : Reuss Voigt Hill
#
# Bulk Modulus (GPa) = 52.61182 72.85270 62.73226
# Shear Modulus (GPa) = 22.42501 26.43449 24.42975
#
# Velocity S-wave (km/s) = 3.39827 3.68958 3.54691
# Velocity P-wave (km/s) = 6.51852 7.46107 7.00567
#
# Compressibility (1/GPa) = 0.01900714
#
# Stress axis : x y z
#
# Youngs Moduli (GPa) = 37.34226 54.90427 101.11044
#
# Poissons Ratio (x) = 0.34393 0.69122
# Poissons Ratio (y) = 0.23392 0.48913
# Poissons Ratio (z) = 0.25528 0.26560
#
# Static dielectric constant tensor:
#      x y z
#    x 3.793780 0.000000 0.000000 
#    y 0.000000 3.580510 0.000000 
#    z 0.000000 0.000000 3.801140 
# 
# 
# High freq. dielectric constant tensor:
#      x y z
#    x 1.710440 0.000000 0.000000 
#    y 0.000000 1.760630 0.000000 
#    z 0.000000 0.000000 1.769960 
# 
# From -- ./inp_files/36051.got.cif
#   From: 2010.03.12/outbox.cif.g09.slc.cpg/sg51_19_cif.got.tgz:36051.got - 2010.04.16 13:43:02.
