data_PCOD8213924
_publ_section_title
;
Structure prediction by ZEFSAII (Michael W. Deem and Ramdas Pophale) SiO2 
 PCOD8213924
Probable space group: P M M A
;
_chemical_formula_sum "Si O2"
_cell_formula_units_Z 48
_cell_length_a 31.006222
_cell_length_b 7.409855
_cell_length_c 10.100773
_cell_angle_alpha 90.000000
_cell_angle_beta 90.000000
_cell_angle_gamma 90.000000
_cell_volume 2320.668850
_symmetry_space_group_name_H-M "P M M A"
_symmetry_group_IT_number 51
_symmetry_cell_setting 'orthorhombic'
loop_
_space_group_symop_operation_xyz
x,y,z
1/2-x,-y,z
1/2+x,-y,-z
-x,y,-z
-x,-y,-z
1/2+x,y,-z
1/2-x,y,z
x,-y,z
loop_
_atom_site_type_symbol
_atom_site_label
_atom_site_fract_x
_atom_site_fract_y
_atom_site_fract_z
Si Si1 0.298243 0.785332 0.327792
Si Si2 0.297782 0.213857 0.032048
Si Si3 0.958316 0.788441 0.585836
Si Si4 0.132044 0.211940 0.530182
Si Si5 0.064319 0.500000 0.913688
Si Si6 0.030680 0.500000 0.197081
Si Si7 0.869388 0.213662 0.170571
O O1 0.250000 0.716383 0.362950
O O2 0.332464 0.700672 0.431408
O O3 0.298919 0.000000 0.333712
O O4 0.311017 0.720854 0.179520
O O5 0.250000 0.287493 0.997282
O O6 0.331348 0.286898 0.924033
O O7 0.297339 0.000000 0.027206
O O8 0.916108 0.723011 0.505539
O O9 0.959626 0.681611 0.722461
O O10 0.000000 0.737319 0.500000
O O11 0.957049 0.000000 0.619785
O O12 0.143397 0.267427 0.679847
O O13 0.134172 0.000000 0.513126
O O14 0.087386 0.316712 0.868242
O O15 0.018358 0.500000 0.846355
O O16 0.062105 0.500000 0.071901
O O17 0.877962 0.000000 0.156325
#
# Coordination Sequence:
#
# PCOD8213924 Si02
#       7
#     8   8   8   8   4   4   8
#     4   8  14  26  47  80 118 149 188 241 283 336
#     4   8  15  29  53  84 116 155 196 233 285 347
#     4  10  21  38  62  89 117 151 196 243 293 353
#     4   9  18  31  53  86 115 149 195 237 289 347
#     4  11  26  42  57  86 117 148 199 242 290 356
#     4  11  25  42  60  84 116 153 193 243 297 350
#     4  10  21  38  60  84 119 158 191 240 290 343
#
# _framework density 20.683691
#
# number of rings (size 3 to 8) (size 9 to 14) (size 15 to 20)
#    0.000    2.667    0.000    2.250    2.333    4.000 
#    0.000    5.417    0.000    0.000    0.000    1.750 
#    0.000    0.000    0.000    0.000    0.000    0.000 
#
# Total GULP energy -595079.484305 kJ/mol
# GULP energy per Si atom -12397.489256 kJ/mol
# Density = 2.063661 g / cm^3
# Si number density = 20.683691 Si / 1000 Ang^3
#
#
#
# Elastic Constant Matrix: (Units=GPa)
#
#
# Indices 1 2 3 4 5 6 
#
# 1 145.4204 15.6072 97.1148 0.0000 0.0000 0.0000
# 2 15.6072 60.4139 30.4224 0.0000 0.0000 0.0000
# 3 97.1148 30.4224 182.9308 0.0000 0.0000 0.0000
# 4 0.0000 0.0000 0.0000 18.1201 0.0000 0.0000
# 5 0.0000 0.0000 0.0000 0.0000 38.5499 0.0000
# 6 0.0000 0.0000 0.0000 0.0000 0.0000 -8.0797
#
#
#
# Elastic Compliance Matrix: (Units=1/GPa)
#
#
# Indices 1 2 3 4 5 6 
#
# 1 0.010654 0.000105 -0.005674 0.000000 0.000000 0.000000
# 2 0.000105 0.018066 -0.003060 0.000000 0.000000 0.000000
# 3 -0.005674 -0.003060 0.008987 0.000000 0.000000 0.000000
# 4 0.000000 0.000000 0.000000 0.055187 0.000000 0.000000
# 5 0.000000 0.000000 0.000000 0.000000 0.025940 0.000000
# 6 0.000000 0.000000 0.000000 0.000000 0.000000 -0.123767
#
#
# Mechanical properties :
#
#
# Convention : Reuss Voigt Hill
#
# Bulk Modulus (GPa) = 48.89958 75.00600 61.95279
# Shear Modulus (GPa) = 261.18524 26.09278 143.63901
#
# Velocity S-wave (km/s) = 11.24945 3.55563 8.34244
# Velocity P-wave (km/s) = 13.87178 7.29375 11.08208
#
# Compressibility (1/GPa) = 0.02045007
#
# Stress axis : x y z
#
# Youngs Moduli (GPa) = 93.85857 55.35136 111.26604
#
# Poissons Ratio (x) = -0.00579 0.63128
# Poissons Ratio (y) = -0.00982 0.34048
# Poissons Ratio (z) = 0.53252 0.16938
#
# Static dielectric constant tensor:
#      x y z
#    x 4.079480 0.000000 0.000000 
#    y 0.000000 3.372050 0.000000 
#    z 0.000000 0.000000 4.009280 
# 
# 
# High freq. dielectric constant tensor:
#      x y z
#    x 1.814560 0.000000 0.000000 
#    y 0.000000 1.793640 0.000000 
#    z 0.000000 0.000000 1.813670 
# 
# From -- ./inp_files/12969.got.cif
#   From: 2010.03.12/outbox.cif.g09.slc.cpg/sg51_7_cif.got.tgz:12969.got - 2010.04.16 13:43:02.
