data_PCOD8213300
_publ_section_title
;
Structure prediction by ZEFSAII (Michael W. Deem and Ramdas Pophale) SiO2 
 PCOD8213300
Probable space group: P M M A
;
_chemical_formula_sum "Si O2"
_cell_formula_units_Z 48
_cell_length_a 22.997745
_cell_length_b 9.794310
_cell_length_c 11.106451
_cell_angle_alpha 90.000000
_cell_angle_beta 90.000000
_cell_angle_gamma 90.000000
_cell_volume 2501.695255
_symmetry_space_group_name_H-M "P M M A"
_symmetry_group_IT_number 51
_symmetry_cell_setting 'orthorhombic'
loop_
_space_group_symop_operation_xyz
x,y,z
1/2-x,-y,z
1/2+x,-y,-z
-x,y,-z
-x,-y,-z
1/2+x,y,-z
1/2-x,y,z
x,-y,z
loop_
_atom_site_type_symbol
_atom_site_label
_atom_site_fract_x
_atom_site_fract_y
_atom_site_fract_z
Si Si1 0.598460 0.656219 0.207290
Si Si2 0.099901 0.345121 0.065578
Si Si3 0.817760 0.840279 0.342845
Si Si4 0.816003 0.154886 0.817282
Si Si5 0.974784 0.658308 0.706013
Si Si6 0.888687 0.156047 0.579753
O O1 0.617932 0.500000 0.228979
O O2 0.652925 0.753974 0.235623
O O3 0.543263 0.693275 0.291290
O O4 0.577132 0.676175 0.069799
O O5 0.119953 0.500000 0.087094
O O6 0.155818 0.249989 0.081978
O O7 0.050397 0.304785 0.161815
O O8 0.750000 0.800358 0.356103
O O9 0.852536 0.799517 0.462989
O O10 0.824138 0.000000 0.313621
O O11 0.750000 0.199091 0.802442
O O12 0.844867 0.177415 0.688779
O O13 0.822595 0.000000 0.861869
O O14 0.964178 0.500000 0.674874
O O15 0.944887 0.748085 0.601117
O O16 0.910368 0.000000 0.570134
#
# Coordination Sequence:
#
# PCOD8213300 Si02
#       6
#     8   8   8   8   8   8
#     4  10  21  36  54  76 104 138 172 207 249 300
#     4   9  18  33  52  74 102 136 171 207 251 303
#     4  10  22  39  56  74 101 139 177 210 248 298
#     4   9  17  30  50  75 101 130 167 213 261 304
#     4   9  18  34  56  80 104 131 166 209 257 305
#     4   9  18  34  55  77 101 131 169 212 257 303
#
# _framework density 19.186990999999999
#
# number of rings (size 3 to 8) (size 9 to 14) (size 15 to 20)
#    0.000    2.667    0.000    1.000    0.000    8.000 
#    0.000    6.667    0.000    8.000    0.000    0.000 
#    0.000    0.000    0.000    0.000    0.000    0.000 
#
# Total GULP energy -595181.467962 kJ/mol
# GULP energy per Si atom -12399.613916 kJ/mol
# Density = 1.914332 g / cm^3
# Si number density = 19.186991 Si / 1000 Ang^3
#
#
#
# Elastic Constant Matrix: (Units=GPa)
#
#
# Indices 1 2 3 4 5 6 
#
# 1 87.2761 47.9915 23.2319 0.0000 0.0000 0.0000
# 2 47.9915 66.5477 27.8011 0.0000 0.0000 0.0000
# 3 23.2319 27.8011 55.7197 0.0000 0.0000 0.0000
# 4 0.0000 0.0000 0.0000 29.4418 0.0000 0.0000
# 5 0.0000 0.0000 0.0000 0.0000 22.6943 0.0000
# 6 0.0000 0.0000 0.0000 0.0000 0.0000 34.0879
#
#
#
# Elastic Compliance Matrix: (Units=1/GPa)
#
#
# Indices 1 2 3 4 5 6 
#
# 1 0.019071 -0.013178 -0.001376 0.000000 0.000000 0.000000
# 2 -0.013178 0.028090 -0.008521 0.000000 0.000000 0.000000
# 3 -0.001376 -0.008521 0.022772 0.000000 0.000000 0.000000
# 4 0.000000 0.000000 0.000000 0.033965 0.000000 0.000000
# 5 0.000000 0.000000 0.000000 0.000000 0.044064 0.000000
# 6 0.000000 0.000000 0.000000 0.000000 0.000000 0.029336
#
#
# Mechanical properties :
#
#
# Convention : Reuss Voigt Hill
#
# Bulk Modulus (GPa) = 42.04764 45.28804 43.66784
# Shear Modulus (GPa) = 21.60989 24.61274 23.11132
#
# Velocity S-wave (km/s) = 3.35965 3.58548 3.47440
# Velocity P-wave (km/s) = 6.08374 6.38715 6.23729
#
# Compressibility (1/GPa) = 0.02378255
#
# Stress axis : x y z
#
# Youngs Moduli (GPa) = 52.43684 35.59991 43.91315
#
# Poissons Ratio (x) = 0.46914 0.06043
# Poissons Ratio (y) = 0.69101 0.37418
# Poissons Ratio (z) = 0.07216 0.30334
#
# Static dielectric constant tensor:
#      x y z
#    x 3.543240 0.000000 0.000000 
#    y 0.000000 3.498790 0.000000 
#    z 0.000000 0.000000 3.422400 
# 
# 
# High freq. dielectric constant tensor:
#      x y z
#    x 1.744570 0.000000 0.000000 
#    y 0.000000 1.740600 0.000000 
#    z 0.000000 0.000000 1.742240 
# 
# From -- ./inp_files/18560.got.cif
#   From: 2010.03.12/outbox.cif.g09.slc.cpg/sg51_10_cif.got.tgz:18560.got - 2010.04.16 13:43:02.
