data_PCOD8213138
_publ_section_title
;
Structure prediction by ZEFSAII (Michael W. Deem and Ramdas Pophale) SiO2 
 PCOD8213138
Probable space group: P M M A
;
_chemical_formula_sum "Si O2"
_cell_formula_units_Z 40
_cell_length_a 14.788084
_cell_length_b 9.905107
_cell_length_c 14.627875
_cell_angle_alpha 90.000000
_cell_angle_beta 90.000000
_cell_angle_gamma 90.000000
_cell_volume 2142.655355
_symmetry_space_group_name_H-M "P M M A"
_symmetry_group_IT_number 51
_symmetry_cell_setting 'orthorhombic'
loop_
_space_group_symop_operation_xyz
x,y,z
1/2-x,-y,z
1/2+x,-y,-z
-x,y,-z
-x,-y,-z
1/2+x,y,-z
1/2-x,y,z
x,-y,z
loop_
_atom_site_type_symbol
_atom_site_label
_atom_site_fract_x
_atom_site_fract_y
_atom_site_fract_z
Si Si1 0.511309 0.656821 0.893297
Si Si2 0.644108 0.155091 0.791649
Si Si3 0.357498 0.350066 0.565060
Si Si4 0.357537 0.850367 0.413874
Si Si5 0.150042 0.339706 0.766915
O O1 0.529924 0.500000 0.870426
O O2 0.595612 0.744792 0.861231
O O3 0.420951 0.710266 0.842597
O O4 0.500000 0.680310 0.000000
O O5 0.750000 0.176914 0.805416
O O6 0.614584 0.193735 0.688415
O O7 0.617760 0.000000 0.812486
O O8 0.250000 0.355881 0.556262
O O9 0.397781 0.500000 0.550135
O O10 0.399883 0.253081 0.487445
O O11 0.382326 0.292535 0.665816
O O12 0.250000 0.852122 0.420938
O O13 0.394939 0.000000 0.435361
O O14 0.250000 0.280278 0.790082
O O15 0.156704 0.500000 0.766002
#
# Coordination Sequence:
#
# PCOD8213138 Si02
#       5
#     8   8   8   8   8
#     4  10  21  35  53  78 102 127 167 217 261 298
#     4   9  19  36  55  74 101 138 171 200 246 304
#     4   8  13  23  43  69  94 125 163 197 235 289
#     4   8  14  26  45  69  97 128 161 198 240 286
#     4   8  15  30  50  71 100 135 165 199 250 307
#
# _framework density 18.668426
#
# number of rings (size 3 to 8) (size 9 to 14) (size 15 to 20)
#    0.000    3.400    0.000    2.400    0.000    2.400 
#    0.000    6.000    0.000    7.800    0.000    0.000 
#    0.000    0.000    0.000    0.000    0.000    0.000 
#
# Total GULP energy -495796.877157 kJ/mol
# GULP energy per Si atom -12394.921929 kJ/mol
# Density = 1.862594 g / cm^3
# Si number density = 18.668426 Si / 1000 Ang^3
#
#
#
# Elastic Constant Matrix: (Units=GPa)
#
#
# Indices 1 2 3 4 5 6 
#
# 1 57.2323 41.7439 50.7788 0.0000 0.0000 0.0000
# 2 41.7439 84.6010 75.4665 0.0000 0.0000 0.0000
# 3 50.7788 75.4665 138.5423 0.0000 0.0000 0.0000
# 4 0.0000 0.0000 0.0000 2.5975 0.0000 0.0000
# 5 0.0000 0.0000 0.0000 0.0000 18.4054 0.0000
# 6 0.0000 0.0000 0.0000 0.0000 0.0000 19.7733
#
#
#
# Elastic Compliance Matrix: (Units=1/GPa)
#
#
# Indices 1 2 3 4 5 6 
#
# 1 0.029360 -0.009507 -0.005582 0.000000 0.000000 0.000000
# 2 -0.009507 0.026071 -0.010717 0.000000 0.000000 0.000000
# 3 -0.005582 -0.010717 0.015102 0.000000 0.000000 0.000000
# 4 0.000000 0.000000 0.000000 0.384986 0.000000 0.000000
# 5 0.000000 0.000000 0.000000 0.000000 0.054332 0.000000
# 6 0.000000 0.000000 0.000000 0.000000 0.000000 0.050573
#
#
# Mechanical properties :
#
#
# Convention : Reuss Voigt Hill
#
# Bulk Modulus (GPa) = 52.85424 68.48380 60.66902
# Shear Modulus (GPa) = 8.08615 15.64767 11.86691
#
# Velocity S-wave (km/s) = 2.08347 2.89829 2.52398
# Velocity P-wave (km/s) = 5.84477 6.92561 6.40802
#
# Compressibility (1/GPa) = 0.01891996
#
# Stress axis : x y z
#
# Youngs Moduli (GPa) = 34.06024 38.35712 66.21813
#
# Poissons Ratio (x) = 0.36467 0.36965
# Poissons Ratio (y) = 0.32382 0.70964
# Poissons Ratio (z) = 0.19013 0.41106
#
# Static dielectric constant tensor:
#      x y z
#    x 3.247920 0.000000 0.000000 
#    y 0.000000 3.425500 0.000000 
#    z 0.000000 0.000000 3.540990 
# 
# 
# High freq. dielectric constant tensor:
#      x y z
#    x 1.705840 0.000000 0.000000 
#    y 0.000000 1.701120 0.000000 
#    z 0.000000 0.000000 1.725330 
# 
# From -- ./inp_files/16178.got.cif
#   From: 2010.03.12/outbox.cif.g09.slc.cpg/sg51_9_cif.got.tgz:16178.got - 2010.04.16 13:43:02.
