data_PCOD8213585
_publ_section_title
;
Structure prediction by ZEFSAII (Michael W. Deem and Ramdas Pophale) SiO2 
 PCOD8213585
Probable space group: P M M A
;
_chemical_formula_sum "Si O2"
_cell_formula_units_Z 48
_cell_length_a 20.623130
_cell_length_b 9.113648
_cell_length_c 14.091916
_cell_angle_alpha 90.000000
_cell_angle_beta 90.000000
_cell_angle_gamma 90.000000
_cell_volume 2648.603056
_symmetry_space_group_name_H-M "P M M A"
_symmetry_group_IT_number 51
_symmetry_cell_setting 'orthorhombic'
loop_
_space_group_symop_operation_xyz
x,y,z
1/2-x,-y,z
1/2+x,-y,-z
-x,y,-z
-x,-y,-z
1/2+x,y,-z
1/2-x,y,z
x,-y,z
loop_
_atom_site_type_symbol
_atom_site_label
_atom_site_fract_x
_atom_site_fract_y
_atom_site_fract_z
Si Si1 0.127647 0.327756 0.200642
Si Si2 0.625175 0.174063 0.212236
Si Si3 0.994705 0.827569 0.888581
Si Si4 0.750000 0.173475 0.888719
Si Si5 0.823725 0.669333 0.597145
Si Si6 0.175474 0.172076 0.589367
Si Si7 0.250000 0.173379 0.893358
O O1 0.134221 0.500000 0.178690
O O2 0.062227 0.265753 0.157142
O O3 0.186589 0.242129 0.155308
O O4 0.129847 0.298012 0.313614
O O5 0.559130 0.229816 0.164391
O O6 0.631334 0.224407 0.321973
O O7 0.685792 0.241410 0.154617
O O8 0.627703 0.000000 0.205048
O O9 0.981973 0.000000 0.871824
O O10 0.000000 0.793184 0.000000
O O11 0.750000 0.000000 0.871956
O O12 0.750000 0.216854 0.997970
O O13 0.750000 0.720272 0.621117
O O14 0.824261 0.500000 0.570280
O O15 0.851672 0.754740 0.506269
O O16 0.250000 0.218683 0.608644
O O17 0.170174 0.000000 0.575219
O O18 0.250000 0.000000 0.877880
#
# Coordination Sequence:
#
# PCOD8213585 Si02
#       7
#     8   8   8   4   8   8   4
#     4  11  22  38  56  77 109 147 183 223 275 328
#     4   9  16  30  52  79 112 140 171 221 276 320
#     4  10  21  37  56  80 110 147 188 228 271 324
#     4  11  21  33  56  85 108 136 181 231 276 323
#     4   9  18  34  53  74 104 141 176 218 271 322
#     4   9  16  28  51  82 107 133 172 219 271 322
#     4   9  16  29  52  81 108 136 171 219 274 323
#
# _framework density 18.122762000000002
#
# number of rings (size 3 to 8) (size 9 to 14) (size 15 to 20)
#    0.000    2.333    1.667    1.750    0.000    4.333 
#    0.000    1.667    0.000    7.000    0.000    0.000 
#    0.000    0.000    0.000    0.000    0.000    0.000 
#
# Total GULP energy -595132.854168 kJ/mol
# GULP energy per Si atom -12398.601129 kJ/mol
# Density = 1.808151 g / cm^3
# Si number density = 18.122762 Si / 1000 Ang^3
#
#
#
# Elastic Constant Matrix: (Units=GPa)
#
#
# Indices 1 2 3 4 5 6 
#
# 1 108.6604 35.1192 82.5496 0.0000 0.0000 0.0000
# 2 35.1192 50.0712 61.1170 0.0000 0.0000 0.0000
# 3 82.5496 61.1170 163.2142 0.0000 0.0000 0.0000
# 4 0.0000 0.0000 0.0000 -4.0946 0.0000 0.0000
# 5 0.0000 0.0000 0.0000 0.0000 13.5395 0.0000
# 6 0.0000 0.0000 0.0000 0.0000 0.0000 28.4878
#
#
#
# Elastic Compliance Matrix: (Units=1/GPa)
#
#
# Indices 1 2 3 4 5 6 
#
# 1 0.015093 -0.002336 -0.006759 0.000000 0.000000 0.000000
# 2 -0.002336 0.037146 -0.012728 0.000000 0.000000 0.000000
# 3 -0.006759 -0.012728 0.014311 0.000000 0.000000 0.000000
# 4 0.000000 0.000000 0.000000 -0.244227 0.000000 0.000000
# 5 0.000000 0.000000 0.000000 0.000000 0.073858 0.000000
# 6 0.000000 0.000000 0.000000 0.000000 0.000000 0.035103
#
#
# Mechanical properties :
#
#
# Convention : Reuss Voigt Hill
#
# Bulk Modulus (GPa) = 43.65993 75.50192 59.58093
# Shear Modulus (GPa) = -286.76892 17.13057 -134.81917
#
# Velocity S-wave (km/s) = -12.59287 3.07783 -8.63445
# Velocity P-wave (km/s) = 13.68565 7.37445 8.15213
#
# Compressibility (1/GPa) = 0.02290430
#
# Stress axis : x y z
#
# Youngs Moduli (GPa) = 66.25764 26.92081 69.87411
#
# Poissons Ratio (x) = 0.06289 0.47226
# Poissons Ratio (y) = 0.15478 0.88937
# Poissons Ratio (z) = 0.44782 0.34265
#
# Static dielectric constant tensor:
#      x y z
#    x 3.038880 0.000000 0.000000 
#    y 0.000000 3.094840 0.000000 
#    z 0.000000 0.000000 3.620660 
# 
# 
# High freq. dielectric constant tensor:
#      x y z
#    x 1.690160 0.000000 0.000000 
#    y 0.000000 1.675060 0.000000 
#    z 0.000000 0.000000 1.719320 
# 
# From -- ./inp_files/24994.got.cif
#   From: 2010.03.12/outbox.cif.g09.slc.cpg/sg51_13_cif.got.tgz:24994.got - 2010.04.16 13:43:02.
