data_PCOD8213768
_publ_section_title
;
Structure prediction by ZEFSAII (Michael W. Deem and Ramdas Pophale) SiO2 
 PCOD8213768
Probable space group: P M M A
;
_chemical_formula_sum "Si O2"
_cell_formula_units_Z 64
_cell_length_a 8.573022
_cell_length_b 23.823109
_cell_length_c 15.452803
_cell_angle_alpha 90.000000
_cell_angle_beta 90.000000
_cell_angle_gamma 90.000000
_cell_volume 3156.019254
_symmetry_space_group_name_H-M "P M M A"
_symmetry_group_IT_number 51
_symmetry_cell_setting 'orthorhombic'
loop_
_space_group_symop_operation_xyz
x,y,z
1/2-x,-y,z
1/2+x,-y,-z
-x,y,-z
-x,-y,-z
1/2+x,y,-z
1/2-x,y,z
x,-y,z
loop_
_atom_site_type_symbol
_atom_site_label
_atom_site_fract_x
_atom_site_fract_y
_atom_site_fract_z
Si Si1 0.563941 0.063243 0.247967
Si Si2 0.433820 0.134813 0.591778
Si Si3 0.069620 0.434688 0.243522
Si Si4 0.566043 0.635232 0.588498
Si Si5 0.932004 0.746144 0.848637
Si Si6 0.433464 0.745212 0.660744
Si Si7 0.933393 0.861702 0.091247
Si Si8 0.432966 0.631904 0.911478
O O1 0.750000 0.063918 0.247366
O O2 0.500871 0.092685 0.335113
O O3 0.498502 0.097782 0.165909
O O4 0.498729 0.000000 0.243956
O O5 0.500000 0.115548 0.500000
O O6 0.250000 0.131318 0.587485
O O7 0.487947 0.197726 0.614517
O O8 0.250000 0.422611 0.222011
O O9 0.034304 0.500000 0.253509
O O10 0.020802 0.405760 0.333253
O O11 0.965568 0.410516 0.166635
O O12 0.500000 0.607973 0.500000
O O13 0.750000 0.644973 0.582848
O O14 0.478106 0.694401 0.598417
O O15 0.750000 0.757245 0.860226
O O16 0.971992 0.737617 0.748714
O O17 0.023639 0.797803 0.889514
O O18 0.979448 0.690603 0.899411
O O19 0.250000 0.745944 0.681806
O O20 0.750000 0.866916 0.087880
O O21 0.000000 0.882255 0.000000
O O22 0.250000 0.642442 0.918140
O O23 0.500000 0.604876 0.000000
#
# Coordination Sequence:
#
# PCOD8213768 Si02
#       8
#     8   8   8   8   8   8   8   8
#     4   9  19  38  61  83 115 160 203 246 300 359
#     4  10  21  37  58  87 119 156 199 242 297 356
#     4  10  23  44  66  90 124 165 210 258 306 358
#     4  11  23  39  62  92 126 165 206 253 305 364
#     4  12  23  38  62  92 125 160 197 245 305 367
#     4  11  21  37  61  90 123 160 199 248 306 370
#     4  11  22  39  61  89 121 157 200 247 300 361
#     4  12  25  42  66  94 126 162 204 252 304 365
#
# _framework density 20.27871
#
# number of rings (size 3 to 8) (size 9 to 14) (size 15 to 20)
#    0.000    1.250    2.500    4.125    0.000    3.750 
#    0.000    0.000    0.000    2.625    0.000    0.000 
#    0.000    0.000    0.000    0.000    0.000    0.000 
#
# Total GULP energy -793955.976513 kJ/mol
# GULP energy per Si atom -12405.562133 kJ/mol
# Density = 2.023255 g / cm^3
# Si number density = 20.278710 Si / 1000 Ang^3
#
#
#
# Elastic Constant Matrix: (Units=GPa)
#
#
# Indices 1 2 3 4 5 6 
#
# 1 55.7455 17.6048 31.1076 0.0000 0.0000 0.0000
# 2 17.6048 124.7326 57.9537 0.0000 0.0000 0.0000
# 3 31.1076 57.9537 170.8438 0.0000 0.0000 0.0000
# 4 0.0000 0.0000 0.0000 16.7199 0.0000 0.0000
# 5 0.0000 0.0000 0.0000 0.0000 37.6858 0.0000
# 6 0.0000 0.0000 0.0000 0.0000 0.0000 14.5215
#
#
#
# Elastic Compliance Matrix: (Units=1/GPa)
#
#
# Indices 1 2 3 4 5 6 
#
# 1 0.020158 -0.001353 -0.003211 0.000000 0.000000 0.000000
# 2 -0.001353 0.009608 -0.003013 0.000000 0.000000 0.000000
# 3 -0.003211 -0.003013 0.007460 0.000000 0.000000 0.000000
# 4 0.000000 0.000000 0.000000 0.059809 0.000000 0.000000
# 5 0.000000 0.000000 0.000000 0.000000 0.026535 0.000000
# 6 0.000000 0.000000 0.000000 0.000000 0.000000 0.068863
#
#
# Mechanical properties :
#
#
# Convention : Reuss Voigt Hill
#
# Bulk Modulus (GPa) = 45.30737 62.73932 54.02335
# Shear Modulus (GPa) = 23.26172 30.09582 26.67877
#
# Velocity S-wave (km/s) = 3.39056 3.85659 3.63106
# Velocity P-wave (km/s) = 6.14156 7.12999 6.65415
#
# Compressibility (1/GPa) = 0.02207146
#
# Stress axis : x y z
#
# Youngs Moduli (GPa) = 49.60801 104.08041 134.04699
#
# Poissons Ratio (x) = 0.14082 0.43049
# Poissons Ratio (y) = 0.06712 0.40386
# Poissons Ratio (z) = 0.15931 0.31358
#
# Static dielectric constant tensor:
#      x y z
#    x 3.540130 0.000000 0.000000 
#    y 0.000000 3.726850 0.000000 
#    z 0.000000 0.000000 4.049630 
# 
# 
# High freq. dielectric constant tensor:
#      x y z
#    x 1.782590 0.000000 0.000000 
#    y 0.000000 1.787930 0.000000 
#    z 0.000000 0.000000 1.811070 
# 
# From -- ./inp_files/22407.got.cif
#   From: 2010.03.12/outbox.cif.g09.slc.cpg/sg51_12_cif.got.tgz:22407.got - 2010.04.16 13:43:02.
