data_PCOD8213637
_publ_section_title
;
Structure prediction by ZEFSAII (Michael W. Deem and Ramdas Pophale) SiO2 
 PCOD8213637
Probable space group: P M M A
;
_chemical_formula_sum "Si O2"
_cell_formula_units_Z 56
_cell_length_a 8.934357
_cell_length_b 23.273537
_cell_length_c 14.413277
_cell_angle_alpha 90.000000
_cell_angle_beta 90.000000
_cell_angle_gamma 90.000000
_cell_volume 2997.011611
_symmetry_space_group_name_H-M "P M M A"
_symmetry_group_IT_number 51
_symmetry_cell_setting 'orthorhombic'
loop_
_space_group_symop_operation_xyz
x,y,z
1/2-x,-y,z
1/2+x,-y,-z
-x,y,-z
-x,-y,-z
1/2+x,y,-z
1/2-x,y,z
x,-y,z
loop_
_atom_site_type_symbol
_atom_site_label
_atom_site_fract_x
_atom_site_fract_y
_atom_site_fract_z
Si Si1 0.425184 0.643011 0.600033
Si Si2 0.073947 0.935173 0.406128
Si Si3 0.925096 0.642498 0.100048
Si Si4 0.077538 0.432186 0.250366
Si Si5 0.077079 0.063204 0.902147
Si Si6 0.079950 0.737936 0.750392
Si Si7 0.574164 0.143077 0.760066
O O1 0.500000 0.649869 0.500000
O O2 0.250000 0.629893 0.588167
O O3 0.498759 0.590726 0.656450
O O4 0.451739 0.701144 0.658075
O O5 0.250000 0.931914 0.418144
O O6 0.015216 0.892080 0.328262
O O7 0.000000 0.913269 0.500000
O O8 0.022218 0.000000 0.381774
O O9 0.750000 0.629182 0.088193
O O10 0.951187 0.700901 0.157436
O O11 0.998865 0.590479 0.156995
O O12 0.000000 0.649036 0.000000
O O13 0.250000 0.412335 0.250308
O O14 0.061720 0.500000 0.250672
O O15 0.250000 0.077276 0.915335
O O16 0.004444 0.115325 0.847657
O O17 0.054078 0.000000 0.854687
O O18 0.000000 0.061826 0.000000
O O19 0.250000 0.760587 0.750405
O O20 0.966852 0.790642 0.749906
O O21 0.750000 0.136754 0.772412
#
# Coordination Sequence:
#
# PCOD8213637 Si02
#       7
#     8   8   8   8   8   8   8
#     4  10  21  38  60  83 111 149 188 229 276 325
#     4   9  19  35  53  75 104 137 174 216 263 317
#     4  10  21  38  60  83 110 147 186 227 275 324
#     4  10  21  37  58  86 118 149 184 227 272 322
#     4  10  21  37  57  80 107 140 177 220 271 327
#     4   9  21  39  55  77 109 143 184 230 271 318
#     4  11  22  35  55  81 109 142 178 222 274 325
#
# _framework density 18.685279000000001
#
# number of rings (size 3 to 8) (size 9 to 14) (size 15 to 20)
#    0.000    2.143    0.000    3.429    0.000    8.857 
#    0.000    5.714    0.000    0.000    0.000    0.000 
#    0.000    0.000    0.000    0.000    0.000    0.000 
#
# Total GULP energy -694487.951450 kJ/mol
# GULP energy per Si atom -12401.570562 kJ/mol
# Density = 1.864275 g / cm^3
# Si number density = 18.685279 Si / 1000 Ang^3
#
#
#
# Elastic Constant Matrix: (Units=GPa)
#
#
# Indices 1 2 3 4 5 6 
#
# 1 118.4107 57.7530 66.2930 0.0000 0.0000 0.0000
# 2 57.7530 100.8341 53.3129 0.0000 0.0000 0.0000
# 3 66.2930 53.3129 141.0411 0.0000 0.0000 0.0000
# 4 0.0000 0.0000 0.0000 26.7962 0.0000 0.0000
# 5 0.0000 0.0000 0.0000 0.0000 38.7699 0.0000
# 6 0.0000 0.0000 0.0000 0.0000 0.0000 34.4793
#
#
#
# Elastic Compliance Matrix: (Units=1/GPa)
#
#
# Indices 1 2 3 4 5 6 
#
# 1 0.013513 -0.005476 -0.004282 0.000000 0.000000 0.000000
# 2 -0.005476 0.014613 -0.002950 0.000000 0.000000 0.000000
# 3 -0.004282 -0.002950 0.010218 0.000000 0.000000 0.000000
# 4 0.000000 0.000000 0.000000 0.037319 0.000000 0.000000
# 5 0.000000 0.000000 0.000000 0.000000 0.025793 0.000000
# 6 0.000000 0.000000 0.000000 0.000000 0.000000 0.029003
#
#
# Mechanical properties :
#
#
# Convention : Reuss Voigt Hill
#
# Bulk Modulus (GPa) = 77.34481 79.44487 78.39484
# Shear Modulus (GPa) = 31.21421 32.20422 31.70922
#
# Velocity S-wave (km/s) = 4.09164 4.15602 4.12395
# Velocity P-wave (km/s) = 7.98782 8.10183 8.04503
#
# Compressibility (1/GPa) = 0.01292912
#
# Stress axis : x y z
#
# Youngs Moduli (GPa) = 74.00252 68.43084 97.86951
#
# Poissons Ratio (x) = 0.37472 0.41904
# Poissons Ratio (y) = 0.40523 0.28871
# Poissons Ratio (z) = 0.31685 0.20187
#
# Static dielectric constant tensor:
#      x y z
#    x 3.546610 0.000000 0.000000 
#    y 0.000000 3.389630 0.000000 
#    z 0.000000 0.000000 3.487280 
# 
# 
# High freq. dielectric constant tensor:
#      x y z
#    x 1.738870 0.000000 0.000000 
#    y 0.000000 1.723290 0.000000 
#    z 0.000000 0.000000 1.730270 
# 
# From -- ./inp_files/21858.got.cif
#   From: 2010.03.12/outbox.cif.g09.slc.cpg/sg51_11_cif.got.tgz:21858.got - 2010.04.16 13:43:02.
