data_PCOD8213208
_publ_section_title
;
Structure prediction by ZEFSAII (Michael W. Deem and Ramdas Pophale) SiO2 
 PCOD8213208
Probable space group: P M M A
;
_chemical_formula_sum "Si O2"
_cell_formula_units_Z 40
_cell_length_a 8.990633
_cell_length_b 13.966626
_cell_length_c 15.523470
_cell_angle_alpha 90.000000
_cell_angle_beta 90.000000
_cell_angle_gamma 90.000000
_cell_volume 1949.263633
_symmetry_space_group_name_H-M "P M M A"
_symmetry_group_IT_number 51
_symmetry_cell_setting 'orthorhombic'
loop_
_space_group_symop_operation_xyz
x,y,z
1/2-x,-y,z
1/2+x,-y,-z
-x,y,-z
-x,-y,-z
1/2+x,y,-z
1/2-x,y,z
x,-y,z
loop_
_atom_site_type_symbol
_atom_site_label
_atom_site_fract_x
_atom_site_fract_y
_atom_site_fract_z
Si Si1 0.075305 0.393624 0.254517
Si Si2 0.424571 0.891323 0.911643
Si Si3 0.575025 0.795796 0.267145
Si Si4 0.586455 0.391450 0.077849
Si Si5 0.414587 0.888215 0.418214
O O1 0.250000 0.375046 0.260931
O O2 0.035550 0.500000 0.292006
O O3 0.986793 0.307539 0.300246
O O4 0.023881 0.387133 0.156877
O O5 0.250000 0.888393 0.926403
O O6 0.470068 0.821639 0.831836
O O7 0.476255 0.000000 0.889971
O O8 0.500000 0.854996 0.000000
O O9 0.750000 0.798063 0.279232
O O10 0.504480 0.873583 0.330124
O O11 0.750000 0.342855 0.096672
O O12 0.618657 0.500000 0.050730
O O13 0.500000 0.338257 0.000000
O O14 0.500000 0.841612 0.500000
O O15 0.250000 0.841666 0.411735
O O16 0.398654 0.000000 0.433794
#
# Coordination Sequence:
#
# PCOD8213208 Si02
#       5
#     8   8   8   8   8
#     4  10  21  36  52  72 102 141 186 236 286 336
#     4   9  19  35  54  78 110 148 188 230 277 331
#     4  11  22  36  57  84 115 151 191 236 285 341
#     4   9  16  27  44  65  90 124 170 224 280 333
#     4  10  21  38  62  92 123 152 183 224 277 337
#
# _framework density 20.520571
#
# number of rings (size 3 to 8) (size 9 to 14) (size 15 to 20)
#    0.000    2.200    0.000    3.000    0.000    8.000 
#    0.000    4.000    0.000    0.600    0.000    0.000 
#    0.000    0.000    0.000    0.000    0.000    0.000 
#
# Total GULP energy -495695.664852 kJ/mol
# GULP energy per Si atom -12392.391621 kJ/mol
# Density = 2.047387 g / cm^3
# Si number density = 20.520571 Si / 1000 Ang^3
#
#
#
# Elastic Constant Matrix: (Units=GPa)
#
#
# Indices 1 2 3 4 5 6 
#
# 1 114.5517 32.1443 49.1331 0.0000 0.0000 0.0000
# 2 32.1443 80.2684 11.0663 0.0000 0.0000 0.0000
# 3 49.1331 11.0663 92.4496 0.0000 0.0000 0.0000
# 4 0.0000 0.0000 0.0000 -16.1767 0.0000 0.0000
# 5 0.0000 0.0000 0.0000 0.0000 32.6748 0.0000
# 6 0.0000 0.0000 0.0000 0.0000 0.0000 20.8498
#
#
#
# Elastic Compliance Matrix: (Units=1/GPa)
#
#
# Indices 1 2 3 4 5 6 
#
# 1 0.012547 -0.004174 -0.006168 0.000000 0.000000 0.000000
# 2 -0.004174 0.014056 0.000536 0.000000 0.000000 0.000000
# 3 -0.006168 0.000536 0.014031 0.000000 0.000000 0.000000
# 4 0.000000 0.000000 0.000000 -0.061817 0.000000 0.000000
# 5 0.000000 0.000000 0.000000 0.000000 0.030605 0.000000
# 6 0.000000 0.000000 0.000000 0.000000 0.000000 0.047962
#
#
# Mechanical properties :
#
#
# Convention : Reuss Voigt Hill
#
# Bulk Modulus (GPa) = 47.57342 52.43969 50.00656
# Shear Modulus (GPa) = 59.52190 20.46465 39.99327
#
# Velocity S-wave (km/s) = 5.39156 3.16139 4.41946
# Velocity P-wave (km/s) = 7.87351 6.23987 7.10381
#
# Compressibility (1/GPa) = 0.02102014
#
# Stress axis : x y z
#
# Youngs Moduli (GPa) = 79.70235 71.14469 71.27170
#
# Poissons Ratio (x) = 0.29696 0.43963
# Poissons Ratio (y) = 0.33268 -0.03819
# Poissons Ratio (z) = 0.49164 -0.03812
#
# Static dielectric constant tensor:
#      x y z
#    x 3.797350 0.000000 0.000000 
#    y 0.000000 4.076560 0.000000 
#    z 0.000000 0.000000 3.425420 
# 
# 
# High freq. dielectric constant tensor:
#      x y z
#    x 1.814550 0.000000 0.000000 
#    y 0.000000 1.800310 0.000000 
#    z 0.000000 0.000000 1.767800 
# 
# From -- ./inp_files/20484.got.cif
#   From: 2010.03.12/outbox.cif.g09.slc.cpg/sg51_11_cif.got.tgz:20484.got - 2010.04.16 13:43:02.
