data_PCOD8213704
_publ_section_title
;
Structure prediction by ZEFSAII (Michael W. Deem and Ramdas Pophale) SiO2 
 PCOD8213704
Probable space group: P M M A
;
_chemical_formula_sum "Si O2"
_cell_formula_units_Z 64
_cell_length_a 15.732671
_cell_length_b 9.152279
_cell_length_c 22.133500
_cell_angle_alpha 90.000000
_cell_angle_beta 90.000000
_cell_angle_gamma 90.000000
_cell_volume 3186.998115
_symmetry_space_group_name_H-M "P M M A"
_symmetry_group_IT_number 51
_symmetry_cell_setting 'orthorhombic'
loop_
_space_group_symop_operation_xyz
x,y,z
1/2-x,-y,z
1/2+x,-y,-z
-x,y,-z
-x,-y,-z
1/2+x,y,-z
1/2-x,y,z
x,-y,z
loop_
_atom_site_type_symbol
_atom_site_label
_atom_site_fract_x
_atom_site_fract_y
_atom_site_fract_z
Si Si1 0.651092 0.831674 0.775492
Si Si2 0.081507 0.337855 0.111473
Si Si3 0.006350 0.331477 0.570612
Si Si4 0.848813 0.172055 0.360395
Si Si5 0.654655 0.161262 0.997496
Si Si6 0.384146 0.337596 0.887274
Si Si7 0.651481 0.661009 0.244277
Si Si8 0.152815 0.328819 0.348047
O O1 0.750000 0.814799 0.789674
O O2 0.601233 0.757077 0.829909
O O3 0.627052 0.755185 0.712766
O O4 0.623514 0.000000 0.771494
O O5 0.122600 0.500000 0.117728
O O6 0.109187 0.264296 0.049692
O O7 0.982718 0.352457 0.102822
O O8 0.024663 0.500000 0.585883
O O9 0.088444 0.239373 0.590213
O O10 0.000000 0.303413 0.500000
O O11 0.916555 0.282996 0.601319
O O12 0.750000 0.215042 0.373737
O O13 0.883049 0.231904 0.296034
O O14 0.859535 0.000000 0.360126
O O15 0.750000 0.144097 0.974487
O O16 0.611620 0.000000 0.999521
O O17 0.655801 0.230695 0.063820
O O18 0.342360 0.500000 0.891760
O O19 0.366000 0.269264 0.821250
O O20 0.750000 0.641740 0.255246
O O21 0.607326 0.500000 0.249149
O O22 0.250000 0.286935 0.368459
O O23 0.148149 0.500000 0.334224
#
# Coordination Sequence:
#
# PCOD8213704 Si02
#       8
#     8   8   8   8   8   8   8   8
#     4  10  21  37  57  83 114 148 189 235 285 342
#     4  11  23  37  56  83 113 146 186 233 283 340
#     4  10  22  39  62  92 123 158 202 249 296 352
#     4  10  22  39  59  87 124 163 203 248 298 355
#     4  11  24  40  57  78 107 145 189 236 285 341
#     4  10  22  38  57  83 112 143 184 234 288 344
#     4   9  18  35  59  84 111 147 190 237 290 346
#     4   9  19  37  60  86 119 157 198 246 298 353
#
# _framework density 20.081593000000002
#
# number of rings (size 3 to 8) (size 9 to 14) (size 15 to 20)
#    0.000    2.000    0.000    2.625    1.750    8.750 
#    0.000    2.500    0.000    1.500    0.000    0.000 
#    0.000    0.000    0.000    0.000    0.000    0.000 
#
# Total GULP energy -793491.383663 kJ/mol
# GULP energy per Si atom -12398.302870 kJ/mol
# Density = 2.003589 g / cm^3
# Si number density = 20.081593 Si / 1000 Ang^3
#
#
#
# Elastic Constant Matrix: (Units=GPa)
#
#
# Indices 1 2 3 4 5 6 
#
# 1 76.4508 41.4562 44.3872 0.0000 0.0000 0.0000
# 2 41.4562 102.4526 55.6439 0.0000 0.0000 0.0000
# 3 44.3872 55.6439 124.9933 0.0000 0.0000 0.0000
# 4 0.0000 0.0000 0.0000 16.5408 0.0000 0.0000
# 5 0.0000 0.0000 0.0000 0.0000 37.1036 0.0000
# 6 0.0000 0.0000 0.0000 0.0000 0.0000 22.4074
#
#
#
# Elastic Compliance Matrix: (Units=1/GPa)
#
#
# Indices 1 2 3 4 5 6 
#
# 1 0.018305 -0.005113 -0.004225 0.000000 0.000000 0.000000
# 2 -0.005113 0.014301 -0.004551 0.000000 0.000000 0.000000
# 3 -0.004225 -0.004551 0.011527 0.000000 0.000000 0.000000
# 4 0.000000 0.000000 0.000000 0.060456 0.000000 0.000000
# 5 0.000000 0.000000 0.000000 0.000000 0.026952 0.000000
# 6 0.000000 0.000000 0.000000 0.000000 0.000000 0.044628
#
#
# Mechanical properties :
#
#
# Convention : Reuss Voigt Hill
#
# Bulk Modulus (GPa) = 61.13619 65.20791 63.17205
# Shear Modulus (GPa) = 23.87799 26.03765 24.95782
#
# Velocity S-wave (km/s) = 3.45200 3.60473 3.52919
# Velocity P-wave (km/s) = 6.81164 7.06169 6.93779
#
# Compressibility (1/GPa) = 0.01635692
#
# Stress axis : x y z
#
# Youngs Moduli (GPa) = 54.62851 69.92494 86.75611
#
# Poissons Ratio (x) = 0.35750 0.36650
# Poissons Ratio (y) = 0.27930 0.39482
# Poissons Ratio (z) = 0.23078 0.31822
#
# Static dielectric constant tensor:
#      x y z
#    x 3.657290 0.000000 0.000000 
#    y 0.000000 2.727510 0.000000 
#    z 0.000000 0.000000 3.635020 
# 
# 
# High freq. dielectric constant tensor:
#      x y z
#    x 1.785520 0.000000 0.000000 
#    y 0.000000 1.783980 0.000000 
#    z 0.000000 0.000000 1.784620 
# 
# From -- ./inp_files/35785.got.cif
#   From: 2010.03.12/outbox.cif.g09.slc.cpg/sg51_18_cif.got.tgz:35785.got - 2010.04.16 13:43:02.
