data_PCOD8213373
_publ_section_title
;
Structure prediction by ZEFSAII (Michael W. Deem and Ramdas Pophale) SiO2 
 PCOD8213373
Probable space group: P M M A
;
_chemical_formula_sum "Si O2"
_cell_formula_units_Z 56
_cell_length_a 8.668093
_cell_length_b 21.090712
_cell_length_c 15.070021
_cell_angle_alpha 90.000000
_cell_angle_beta 90.000000
_cell_angle_gamma 90.000000
_cell_volume 2755.044773
_symmetry_space_group_name_H-M "P M M A"
_symmetry_group_IT_number 51
_symmetry_cell_setting 'orthorhombic'
loop_
_space_group_symop_operation_xyz
x,y,z
1/2-x,-y,z
1/2+x,-y,-z
-x,y,-z
-x,-y,-z
1/2+x,y,-z
1/2-x,y,z
x,-y,z
loop_
_atom_site_type_symbol
_atom_site_label
_atom_site_fract_x
_atom_site_fract_y
_atom_site_fract_z
Si Si1 0.923732 0.626353 0.646190
Si Si2 0.067925 0.072006 0.406060
Si Si3 0.070266 0.255932 0.588123
Si Si4 0.432678 0.500000 0.597538
Si Si5 0.431345 0.825077 0.265544
Si Si6 0.433101 0.500000 0.096376
Si Si7 0.931827 0.765844 0.093466
Si Si8 0.923254 0.637304 0.847225
O O1 0.750000 0.623223 0.606275
O O2 0.918892 0.654376 0.744413
O O3 0.033073 0.669265 0.583987
O O4 0.001922 0.558544 0.651850
O O5 0.250000 0.077951 0.414185
O O6 0.009659 0.112855 0.320865
O O7 0.000000 0.096763 0.500000
O O8 0.013761 0.000000 0.388719
O O9 0.250000 0.240919 0.596357
O O10 0.000000 0.223193 0.500000
O O11 0.976058 0.233609 0.673170
O O12 0.250000 0.500000 0.595369
O O13 0.500000 0.500000 0.500000
O O14 0.250000 0.827749 0.249434
O O15 0.509393 0.814360 0.169906
O O16 0.250000 0.500000 0.099285
O O17 0.492797 0.434015 0.140522
O O18 0.500000 0.500000 0.000000
O O19 0.750000 0.771016 0.091008
O O20 0.976381 0.691987 0.106623
O O21 0.000000 0.789971 0.000000
O O22 0.750000 0.640746 0.887373
#
# Coordination Sequence:
#
# PCOD8213373 Si02
#       8
#     8   8   8   4   8   4   8   8
#     4  11  22  39  60  80 107 145 191 244 301 361
#     4   9  19  36  61  95 134 173 210 248 293 349
#     4  12  24  38  57  85 119 156 198 244 297 355
#     4  12  25  40  56  76 106 144 195 246 299 364
#     4  11  22  39  62  90 125 163 204 250 301 355
#     4  10  21  36  54  80 106 140 181 234 298 367
#     4  12  25  41  63  89 121 159 206 258 313 372
#     4  10  21  39  61  83 112 147 192 245 308 372
#
# _framework density 20.326350000000001
#
# number of rings (size 3 to 8) (size 9 to 14) (size 15 to 20)
#    0.000    1.143    1.429    5.786    0.000    5.714 
#    0.000    0.714    0.000    0.429    0.000    0.000 
#    0.000    0.000    0.000    0.000    0.000    0.000 
#
# Total GULP energy -694206.911823 kJ/mol
# GULP energy per Si atom -12396.551997 kJ/mol
# Density = 2.028009 g / cm^3
# Si number density = 20.326350 Si / 1000 Ang^3
#
#
#
# Elastic Constant Matrix: (Units=GPa)
#
#
# Indices 1 2 3 4 5 6 
#
# 1 99.3816 34.6524 46.3647 0.0000 0.0000 0.0000
# 2 34.6524 108.9454 50.1115 0.0000 0.0000 0.0000
# 3 46.3647 50.1115 141.5795 0.0000 0.0000 0.0000
# 4 0.0000 0.0000 0.0000 34.1681 0.0000 0.0000
# 5 0.0000 0.0000 0.0000 0.0000 35.5436 0.0000
# 6 0.0000 0.0000 0.0000 0.0000 0.0000 22.9711
#
#
#
# Elastic Compliance Matrix: (Units=1/GPa)
#
#
# Indices 1 2 3 4 5 6 
#
# 1 0.012415 -0.002483 -0.003187 0.000000 0.000000 0.000000
# 2 -0.002483 0.011460 -0.003243 0.000000 0.000000 0.000000
# 3 -0.003187 -0.003243 0.009255 0.000000 0.000000 0.000000
# 4 0.000000 0.000000 0.000000 0.029267 0.000000 0.000000
# 5 0.000000 0.000000 0.000000 0.000000 0.028134 0.000000
# 6 0.000000 0.000000 0.000000 0.000000 0.000000 0.043533
#
#
# Mechanical properties :
#
#
# Convention : Reuss Voigt Hill
#
# Bulk Modulus (GPa) = 65.34265 68.01819 66.68042
# Shear Modulus (GPa) = 31.84884 33.12175 32.48530
#
# Velocity S-wave (km/s) = 3.96267 4.04108 4.00207
# Velocity P-wave (km/s) = 7.29065 7.43704 7.36421
#
# Compressibility (1/GPa) = 0.01530394
#
# Stress axis : x y z
#
# Youngs Moduli (GPa) = 80.54964 87.25652 108.05301
#
# Poissons Ratio (x) = 0.21665 0.34434
# Poissons Ratio (y) = 0.20000 0.35044
# Poissons Ratio (z) = 0.25669 0.28300
#
# Static dielectric constant tensor:
#      x y z
#    x 3.612900 0.000000 0.000000 
#    y 0.000000 3.911370 0.000000 
#    z 0.000000 0.000000 3.784470 
# 
# 
# High freq. dielectric constant tensor:
#      x y z
#    x 1.792390 0.000000 0.000000 
#    y 0.000000 1.784390 0.000000 
#    z 0.000000 0.000000 1.796210 
# 
# From -- ./inp_files/21908.got.cif
#   From: 2010.03.12/outbox.cif.g09.slc.cpg/sg51_11_cif.got.tgz:21908.got - 2010.04.16 13:43:02.
