data_PCOD8213296
_publ_section_title
;
Structure prediction by ZEFSAII (Michael W. Deem and Ramdas Pophale) SiO2 
 PCOD8213296
Probable space group: P M M A
;
_chemical_formula_sum "Si O2"
_cell_formula_units_Z 64
_cell_length_a 15.024877
_cell_length_b 9.383672
_cell_length_c 23.321081
_cell_angle_alpha 90.000000
_cell_angle_beta 90.000000
_cell_angle_gamma 90.000000
_cell_volume 3288.004639
_symmetry_space_group_name_H-M "P M M A"
_symmetry_group_IT_number 51
_symmetry_cell_setting 'orthorhombic'
loop_
_space_group_symop_operation_xyz
x,y,z
1/2-x,-y,z
1/2+x,-y,-z
-x,y,-z
-x,-y,-z
1/2+x,y,-z
1/2-x,y,z
x,-y,z
loop_
_atom_site_type_symbol
_atom_site_label
_atom_site_fract_x
_atom_site_fract_y
_atom_site_fract_z
Si Si1 0.145220 0.334807 0.692946
Si Si2 0.147415 0.337240 0.051884
Si Si3 0.590499 0.833412 0.527355
Si Si4 0.347873 0.845982 0.589923
Si Si5 0.488547 0.836130 0.126963
Si Si6 0.851591 0.335518 0.081244
Si Si7 0.350276 0.830267 0.349938
Si Si8 0.993788 0.836315 0.742754
O O1 0.250000 0.310233 0.705472
O O2 0.121862 0.500000 0.693688
O O3 0.110476 0.273005 0.631390
O O4 0.085154 0.254109 0.739541
O O5 0.250000 0.303554 0.065356
O O6 0.124600 0.500000 0.068086
O O7 0.087349 0.233086 0.088581
O O8 0.126697 0.310916 0.985367
O O9 0.500000 0.770406 0.500000
O O10 0.660279 0.798644 0.476581
O O11 0.617979 0.764995 0.588326
O O12 0.581902 0.000000 0.538888
O O13 0.250000 0.870314 0.613876
O O14 0.399903 0.000000 0.594530
O O15 0.583723 0.761302 0.118800
O O16 0.457774 0.821246 0.192766
O O17 0.498613 0.000000 0.108834
O O18 0.750000 0.291764 0.094896
O O19 0.867102 0.500000 0.097608
O O20 0.250000 0.774057 0.337401
O O21 0.417225 0.777246 0.300127
O O22 0.348603 0.000000 0.352014
O O23 0.016927 0.000000 0.728053
#
# Coordination Sequence:
#
# PCOD8213296 Si02
#       8
#     8   8   8   8   8   8   8   8
#     4  10  21  36  54  76 102 135 176 221 270 325
#     4   9  19  37  60  84 110 144 185 223 262 316
#     4   9  15  23  42  74 104 127 159 208 262 314
#     4   9  16  27  46  72  99 124 153 197 256 317
#     4  11  23  35  52  82 115 145 180 226 279 328
#     4   9  19  37  60  84 111 145 183 221 265 323
#     4   9  17  31  52  76 103 138 181 225 263 305
#     4  10  22  38  54  75 105 143 184 223 265 313
#
# _framework density 19.464691999999999
#
# number of rings (size 3 to 8) (size 9 to 14) (size 15 to 20)
#    0.000    2.500    0.000    3.000    0.000    8.750 
#    0.000    5.000    0.000    3.750    0.000    0.000 
#    0.000    0.000    0.000    0.000    0.000    0.000 
#
# Total GULP energy -793091.039398 kJ/mol
# GULP energy per Si atom -12392.047491 kJ/mol
# Density = 1.942039 g / cm^3
# Si number density = 19.464692 Si / 1000 Ang^3
#
#
#
# Elastic Constant Matrix: (Units=GPa)
#
#
# Indices 1 2 3 4 5 6 
#
# 1 103.1808 42.2915 42.6400 0.0000 0.0000 0.0000
# 2 42.2915 75.4573 37.7602 0.0000 0.0000 0.0000
# 3 42.6400 37.7602 83.7650 0.0000 0.0000 0.0000
# 4 0.0000 0.0000 0.0000 -7.3755 0.0000 0.0000
# 5 0.0000 0.0000 0.0000 0.0000 23.2517 0.0000
# 6 0.0000 0.0000 0.0000 0.0000 0.0000 17.2862
#
#
#
# Elastic Compliance Matrix: (Units=1/GPa)
#
#
# Indices 1 2 3 4 5 6 
#
# 1 0.013818 -0.005455 -0.004575 0.000000 0.000000 0.000000
# 2 -0.005455 0.019267 -0.005908 0.000000 0.000000 0.000000
# 3 -0.004575 -0.005908 0.016930 0.000000 0.000000 0.000000
# 4 0.000000 0.000000 0.000000 -0.135583 0.000000 0.000000
# 5 0.000000 0.000000 0.000000 0.000000 0.043008 0.000000
# 6 0.000000 0.000000 0.000000 0.000000 0.000000 0.057850
#
#
# Mechanical properties :
#
#
# Convention : Reuss Voigt Hill
#
# Bulk Modulus (GPa) = 55.13158 56.42072 55.77615
# Shear Modulus (GPa) = 93.96285 15.94656 54.95471
#
# Velocity S-wave (km/s) = 6.95545 2.86537 5.31924
# Velocity P-wave (km/s) = 9.63793 6.32426 8.15126
#
# Compressibility (1/GPa) = 0.01813843
#
# Stress axis : x y z
#
# Youngs Moduli (GPa) = 72.36735 51.90318 59.06571
#
# Poissons Ratio (x) = 0.28315 0.27022
# Poissons Ratio (y) = 0.39479 0.34897
# Poissons Ratio (z) = 0.33108 0.30665
#
# Static dielectric constant tensor:
#      x y z
#    x 3.678510 0.000000 0.000000 
#    y 0.000000 3.269810 0.000000 
#    z 0.000000 0.000000 3.577070 
# 
# 
# High freq. dielectric constant tensor:
#      x y z
#    x 1.763220 0.000000 0.000000 
#    y 0.000000 1.717170 0.000000 
#    z 0.000000 0.000000 1.759300 
# 
# From -- ./inp_files/35603.got.cif
#   From: 2010.03.12/outbox.cif.g09.slc.cpg/sg51_18_cif.got.tgz:35603.got - 2010.04.16 13:43:02.
