data_PCOD8213088
_publ_section_title
;
Structure prediction by ZEFSAII (Michael W. Deem and Ramdas Pophale) SiO2 
 PCOD8213088
Probable space group: P M M A
;
_chemical_formula_sum "Si O2"
_cell_formula_units_Z 48
_cell_length_a 9.798813
_cell_length_b 9.374532
_cell_length_c 30.123957
_cell_angle_alpha 90.000000
_cell_angle_beta 90.000000
_cell_angle_gamma 90.000000
_cell_volume 2767.165182
_symmetry_space_group_name_H-M "P M M A"
_symmetry_group_IT_number 51
_symmetry_cell_setting 'orthorhombic'
loop_
_space_group_symop_operation_xyz
x,y,z
1/2-x,-y,z
1/2+x,-y,-z
-x,y,-z
-x,-y,-z
1/2+x,y,-z
1/2-x,y,z
x,-y,z
loop_
_atom_site_type_symbol
_atom_site_label
_atom_site_fract_x
_atom_site_fract_y
_atom_site_fract_z
Si Si1 0.909887 0.836031 0.363580
Si Si2 0.408066 0.166753 0.871459
Si Si3 0.592112 0.336275 0.804787
Si Si4 0.401467 0.169929 0.537593
Si Si5 0.907115 0.664708 0.040908
Si Si6 0.596902 0.665997 0.702363
O O1 0.750000 0.812792 0.355951
O O2 0.950734 0.784296 0.413233
O O3 0.989861 0.746460 0.327719
O O4 0.950139 0.000000 0.357130
O O5 0.250000 0.197145 0.860591
O O6 0.497863 0.230505 0.832244
O O7 0.450861 0.240889 0.917311
O O8 0.438501 0.000000 0.875775
O O9 0.750000 0.307893 0.816466
O O10 0.554328 0.500000 0.815716
O O11 0.563278 0.302457 0.753488
O O12 0.500000 0.235483 0.500000
O O13 0.250000 0.229715 0.528404
O O14 0.399009 0.000000 0.535180
O O15 0.750000 0.690816 0.027769
O O16 0.934044 0.500000 0.053072
O O17 0.000000 0.714067 0.000000
O O18 0.750000 0.718554 0.691301
O O19 0.583578 0.500000 0.692265
#
# Coordination Sequence:
#
# PCOD8213088 Si02
#       6
#     8   8   8   8   8   8
#     4   9  18  31  47  71 101 128 157 197 243 290
#     4  10  21  35  51  75 106 135 163 199 244 292
#     4   9  19  36  55  73  95 126 165 206 245 288
#     4   8  14  25  41  63  92 123 155 193 235 280
#     4   9  18  33  52  73  98 130 168 206 241 281
#     4   9  19  35  52  71  96 126 162 203 244 288
#
# _framework density 17.346273
#
# number of rings (size 3 to 8) (size 9 to 14) (size 15 to 20)
#    0.000    3.000    0.000    2.500    0.000    5.000 
#    0.000    8.333    0.000    0.500    0.000    0.000 
#    0.000    0.000    0.000    0.000    0.000    0.000 
#
# Total GULP energy -595144.129315 kJ/mol
# GULP energy per Si atom -12398.836027 kJ/mol
# Density = 1.730679 g / cm^3
# Si number density = 17.346273 Si / 1000 Ang^3
#
#
#
# Elastic Constant Matrix: (Units=GPa)
#
#
# Indices 1 2 3 4 5 6 
#
# 1 75.1563 45.7269 75.7120 0.0000 0.0000 0.0000
# 2 45.7269 66.9616 64.7368 0.0000 0.0000 0.0000
# 3 75.7120 64.7368 128.4475 0.0000 0.0000 0.0000
# 4 0.0000 0.0000 0.0000 33.0042 0.0000 0.0000
# 5 0.0000 0.0000 0.0000 0.0000 39.0644 0.0000
# 6 0.0000 0.0000 0.0000 0.0000 0.0000 28.7116
#
#
#
# Elastic Compliance Matrix: (Units=1/GPa)
#
#
# Indices 1 2 3 4 5 6 
#
# 1 0.034650 -0.007638 -0.016574 0.000000 0.000000 0.000000
# 2 -0.007638 0.030809 -0.011025 0.000000 0.000000 0.000000
# 3 -0.016574 -0.011025 0.023112 0.000000 0.000000 0.000000
# 4 0.000000 0.000000 0.000000 0.030299 0.000000 0.000000
# 5 0.000000 0.000000 0.000000 0.000000 0.025599 0.000000
# 6 0.000000 0.000000 0.000000 0.000000 0.000000 0.034829
#
#
# Mechanical properties :
#
#
# Convention : Reuss Voigt Hill
#
# Bulk Modulus (GPa) = 55.26492 71.43521 63.35007
# Shear Modulus (GPa) = 19.54623 25.78204 22.66414
#
# Velocity S-wave (km/s) = 3.36046 3.85946 3.61857
# Velocity P-wave (km/s) = 6.85463 7.81869 7.35248
#
# Compressibility (1/GPa) = 0.01809466
#
# Stress axis : x y z
#
# Youngs Moduli (GPa) = 28.86036 32.45827 43.26838
#
# Poissons Ratio (x) = 0.24791 0.71714
# Poissons Ratio (y) = 0.22043 0.47705
# Poissons Ratio (z) = 0.47834 0.35786
#
# Static dielectric constant tensor:
#      x y z
#    x 3.237200 0.000000 0.000000 
#    y 0.000000 3.020150 0.000000 
#    z 0.000000 0.000000 3.276050 
# 
# 
# High freq. dielectric constant tensor:
#      x y z
#    x 1.671360 0.000000 0.000000 
#    y 0.000000 1.649520 0.000000 
#    z 0.000000 0.000000 1.676490 
# 
# From -- ./inp_files/36902.got.cif
#   From: 2010.03.12/outbox.cif.g09.slc.cpg/sg51_19_cif.got.tgz:36902.got - 2010.04.16 13:43:02.
