data_PCOD8213726
_publ_section_title
;
Structure prediction by ZEFSAII (Michael W. Deem and Ramdas Pophale) SiO2 
 PCOD8213726
Probable space group: P M M A
;
_chemical_formula_sum "Si O2"
_cell_formula_units_Z 64
_cell_length_a 18.463893
_cell_length_b 8.860240
_cell_length_c 21.191945
_cell_angle_alpha 90.000000
_cell_angle_beta 90.000000
_cell_angle_gamma 90.000000
_cell_volume 3466.886140
_symmetry_space_group_name_H-M "P M M A"
_symmetry_group_IT_number 51
_symmetry_cell_setting 'orthorhombic'
loop_
_space_group_symop_operation_xyz
x,y,z
1/2-x,-y,z
1/2+x,-y,-z
-x,y,-z
-x,-y,-z
1/2+x,y,-z
1/2-x,y,z
x,-y,z
loop_
_atom_site_type_symbol
_atom_site_label
_atom_site_fract_x
_atom_site_fract_y
_atom_site_fract_z
Si Si1 0.828874 0.678154 0.872144
Si Si2 0.667888 0.679096 0.617491
Si Si3 0.832712 0.326469 0.250706
Si Si4 0.583117 0.175883 0.503261
Si Si5 0.833149 0.327998 0.396475
Si Si6 0.973758 0.320852 0.932069
Si Si7 0.905635 0.321335 0.745797
Si Si8 0.463303 0.822837 0.810257
O O1 0.750000 0.750006 0.888407
O O2 0.822267 0.500000 0.874259
O O3 0.889994 0.730694 0.922139
O O4 0.851744 0.728233 0.801884
O O5 0.750000 0.742396 0.615465
O O6 0.669437 0.500000 0.617446
O O7 0.623715 0.733595 0.557506
O O8 0.628319 0.738361 0.680637
O O9 0.750000 0.298275 0.230544
O O10 0.854343 0.500000 0.238609
O O11 0.843584 0.285454 0.323777
O O12 0.881607 0.217210 0.208737
O O13 0.500000 0.227034 0.500000
O O14 0.618306 0.213763 0.436146
O O15 0.590657 0.000000 0.517718
O O16 0.750000 0.308305 0.416979
O O17 0.857787 0.500000 0.409187
O O18 0.981614 0.500000 0.925389
O O19 0.023324 0.246461 0.879038
O O20 0.000000 0.262955 0.000000
O O21 0.917729 0.500000 0.745083
O O22 0.983296 0.244895 0.757184
O O23 0.474283 0.000000 0.813669
#
# Coordination Sequence:
#
# PCOD8213726 Si02
#       8
#     8   8   8   8   8   8   8   8
#     4   8  13  25  49  78 104 131 170 220 265 305
#     4  10  21  37  58  82 105 134 177 226 272 318
#     4   9  19  37  60  83 106 135 177 228 274 317
#     4  11  25  39  50  72 108 145 179 216 264 326
#     4   9  19  37  60  81  99 127 174 228 276 321
#     4   9  18  34  55  78 107 145 188 228 267 314
#     4   9  18  33  54  79 106 137 174 218 267 320
#     4  11  22  34  53  81 114 146 176 215 265 324
#
# _framework density 18.460370000000001
#
# number of rings (size 3 to 8) (size 9 to 14) (size 15 to 20)
#    0.000    2.500    0.000    3.750    1.750    6.000 
#    0.000    1.875    0.000   11.250    0.000    0.000 
#    0.000    0.000    0.000    0.000    0.000    0.000 
#
# Total GULP energy -793594.461885 kJ/mol
# GULP energy per Si atom -12399.913467 kJ/mol
# Density = 1.841835 g / cm^3
# Si number density = 18.460370 Si / 1000 Ang^3
#
#
#
# Elastic Constant Matrix: (Units=GPa)
#
#
# Indices 1 2 3 4 5 6 
#
# 1 126.6920 27.8133 66.6982 0.0000 0.0000 0.0000
# 2 27.8133 36.0717 26.2009 0.0000 0.0000 0.0000
# 3 66.6982 26.2009 98.4730 0.0000 0.0000 0.0000
# 4 0.0000 0.0000 0.0000 8.9141 0.0000 0.0000
# 5 0.0000 0.0000 0.0000 0.0000 28.6706 0.0000
# 6 0.0000 0.0000 0.0000 0.0000 0.0000 14.8198
#
#
#
# Elastic Compliance Matrix: (Units=1/GPa)
#
#
# Indices 1 2 3 4 5 6 
#
# 1 0.012815 -0.004433 -0.007500 0.000000 0.000000 0.000000
# 2 -0.004433 0.035897 -0.006549 0.000000 0.000000 0.000000
# 3 -0.007500 -0.006549 0.016978 0.000000 0.000000 0.000000
# 4 0.000000 0.000000 0.000000 0.112181 0.000000 0.000000
# 5 0.000000 0.000000 0.000000 0.000000 0.034879 0.000000
# 6 0.000000 0.000000 0.000000 0.000000 0.000000 0.067478
#
#
# Mechanical properties :
#
#
# Convention : Reuss Voigt Hill
#
# Bulk Modulus (GPa) = 34.81196 55.85128 45.33162
# Shear Modulus (GPa) = 15.30140 19.84918 17.57529
#
# Velocity S-wave (km/s) = 2.88215 3.28263 3.08889
# Velocity P-wave (km/s) = 5.47488 6.68490 6.10992
#
# Compressibility (1/GPa) = 0.02872576
#
# Stress axis : x y z
#
# Youngs Moduli (GPa) = 78.03323 27.85720 58.90085
#
# Poissons Ratio (x) = 0.12350 0.44178
# Poissons Ratio (y) = 0.34593 0.38572
# Poissons Ratio (z) = 0.58528 0.18243
#
# Static dielectric constant tensor:
#      x y z
#    x 3.640040 0.000000 0.000000 
#    y 0.000000 3.108570 0.000000 
#    z 0.000000 0.000000 3.364980 
# 
# 
# High freq. dielectric constant tensor:
#      x y z
#    x 1.726650 0.000000 0.000000 
#    y 0.000000 1.690060 0.000000 
#    z 0.000000 0.000000 1.710010 
# 
# From -- ./inp_files/33845.got.cif
#   From: 2010.03.12/outbox.cif.g09.slc.cpg/sg51_17_cif.got.tgz:33845.got - 2010.04.16 13:43:02.
