data_PCOD8213572
_publ_section_title
;
Structure prediction by ZEFSAII (Michael W. Deem and Ramdas Pophale) SiO2 
 PCOD8213572
Probable space group: P M M A
;
_chemical_formula_sum "Si O2"
_cell_formula_units_Z 56
_cell_length_a 15.761571
_cell_length_b 8.740245
_cell_length_c 20.021016
_cell_angle_alpha 90.000000
_cell_angle_beta 90.000000
_cell_angle_gamma 90.000000
_cell_volume 2758.095006
_symmetry_space_group_name_H-M "P M M A"
_symmetry_group_IT_number 51
_symmetry_cell_setting 'orthorhombic'
loop_
_space_group_symop_operation_xyz
x,y,z
1/2-x,-y,z
1/2+x,-y,-z
-x,y,-z
-x,-y,-z
1/2+x,y,-z
1/2-x,y,z
x,-y,z
loop_
_atom_site_type_symbol
_atom_site_label
_atom_site_fract_x
_atom_site_fract_y
_atom_site_fract_z
Si Si1 0.347285 0.819322 0.668302
Si Si2 0.345326 0.817981 0.337835
Si Si3 0.402925 0.178884 0.935431
Si Si4 0.151597 0.833091 0.191431
Si Si5 0.915531 0.677887 0.932936
Si Si6 0.999236 0.817790 0.424842
Si Si7 0.152373 0.332518 0.803113
O O1 0.250000 0.767544 0.651665
O O2 0.411879 0.762733 0.610646
O O3 0.384093 0.750564 0.737541
O O4 0.350431 0.000000 0.676474
O O5 0.250000 0.752858 0.353587
O O6 0.378612 0.770621 0.263649
O O7 0.415802 0.752595 0.388936
O O8 0.341484 0.000000 0.341969
O O9 0.500885 0.220317 0.928172
O O10 0.356481 0.229837 0.868555
O O11 0.389258 0.000000 0.945967
O O12 0.364695 0.266577 0.000694
O O13 0.250000 0.860486 0.198667
O O14 0.135893 0.707994 0.134418
O O15 0.109541 0.000000 0.174644
O O16 0.937521 0.500000 0.939223
O O17 0.000000 0.753052 0.500000
O O18 0.002228 0.000000 0.424455
O O19 0.250000 0.356898 0.789037
O O20 0.108649 0.500000 0.812899
#
# Coordination Sequence:
#
# PCOD8213572 Si02
#       7
#     8   8   8   8   8   8   8
#     4   9  18  32  50  77 111 145 182 227 276 330
#     4   8  15  28  46  70 101 137 181 230 275 319
#     4  11  22  37  56  77 105 142 182 223 270 324
#     4   9  18  33  52  74 100 136 185 231 272 323
#     4  11  22  36  53  77 109 141 179 225 275 329
#     4   9  17  28  46  76 109 143 183 224 274 330
#     4  10  21  37  56  79 107 139 178 226 278 329
#
# _framework density 20.303868999999999
#
# number of rings (size 3 to 8) (size 9 to 14) (size 15 to 20)
#    0.000    2.429    0.000    4.714    2.000    2.286 
#    0.000    2.857    0.000    0.429    0.000    0.000 
#    0.000    2.286    0.000    0.000    0.000    0.000 
#
# Total GULP energy -693985.314096 kJ/mol
# GULP energy per Si atom -12392.594895 kJ/mol
# Density = 2.025766 g / cm^3
# Si number density = 20.303869 Si / 1000 Ang^3
#
#
#
# Elastic Constant Matrix: (Units=GPa)
#
#
# Indices 1 2 3 4 5 6 
#
# 1 79.0799 18.7755 64.4270 0.0000 0.0000 0.0000
# 2 18.7755 64.7191 37.2403 0.0000 0.0000 0.0000
# 3 64.4270 37.2403 189.0994 0.0000 0.0000 0.0000
# 4 0.0000 0.0000 0.0000 0.5871 0.0000 0.0000
# 5 0.0000 0.0000 0.0000 0.0000 29.8072 0.0000
# 6 0.0000 0.0000 0.0000 0.0000 0.0000 12.4852
#
#
#
# Elastic Compliance Matrix: (Units=1/GPa)
#
#
# Indices 1 2 3 4 5 6 
#
# 1 0.017704 -0.001878 -0.005662 0.000000 0.000000 0.000000
# 2 -0.001878 0.017625 -0.002831 0.000000 0.000000 0.000000
# 3 -0.005662 -0.002831 0.007775 0.000000 0.000000 0.000000
# 4 0.000000 0.000000 0.000000 1.703282 0.000000 0.000000
# 5 0.000000 0.000000 0.000000 0.000000 0.033549 0.000000
# 6 0.000000 0.000000 0.000000 0.000000 0.000000 0.080095
#
#
# Mechanical properties :
#
#
# Convention : Reuss Voigt Hill
#
# Bulk Modulus (GPa) = 44.71910 63.75379 54.23645
# Shear Modulus (GPa) = 2.64799 22.73960 12.69379
#
# Velocity S-wave (km/s) = 1.14325 3.35022 2.50309
# Velocity P-wave (km/s) = 4.88010 6.81420 5.92658
#
# Compressibility (1/GPa) = 0.02236181
#
# Stress axis : x y z
#
# Youngs Moduli (GPa) = 56.48349 56.73649 128.61948
#
# Poissons Ratio (x) = 0.10656 0.72825
# Poissons Ratio (y) = 0.10608 0.36414
# Poissons Ratio (z) = 0.31981 0.16063
#
# Static dielectric constant tensor:
#      x y z
#    x 3.668630 0.000000 0.000000 
#    y 0.000000 3.444460 0.000000 
#    z 0.000000 0.000000 4.248020 
# 
# 
# High freq. dielectric constant tensor:
#      x y z
#    x 1.780830 0.000000 0.000000 
#    y 0.000000 1.758580 0.000000 
#    z 0.000000 0.000000 1.801870 
# 
# From -- ./inp_files/33426.got.cif
#   From: 2010.03.12/outbox.cif.g09.slc.cpg/sg51_17_cif.got.tgz:33426.got - 2010.04.16 13:43:02.
