data_PCOD8213357
_publ_section_title
;
Structure prediction by ZEFSAII (Michael W. Deem and Ramdas Pophale) SiO2 
 PCOD8213357
Probable space group: P M M A
;
_chemical_formula_sum "Si O2"
_cell_formula_units_Z 40
_cell_length_a 9.203982
_cell_length_b 9.030411
_cell_length_c 25.585225
_cell_angle_alpha 90.000000
_cell_angle_beta 90.000000
_cell_angle_gamma 90.000000
_cell_volume 2126.534917
_symmetry_space_group_name_H-M "P M M A"
_symmetry_group_IT_number 51
_symmetry_cell_setting 'orthorhombic'
loop_
_space_group_symop_operation_xyz
x,y,z
1/2-x,-y,z
1/2+x,-y,-z
-x,y,-z
-x,-y,-z
1/2+x,y,-z
1/2-x,y,z
x,-y,z
loop_
_atom_site_type_symbol
_atom_site_label
_atom_site_fract_x
_atom_site_fract_y
_atom_site_fract_z
Si Si1 0.416398 0.325956 0.355286
Si Si2 0.078183 0.331037 0.844263
Si Si3 0.081802 0.827551 0.248727
Si Si4 0.919783 0.828934 0.447234
Si Si5 0.419733 0.170425 0.948401
O O1 0.250000 0.281540 0.368004
O O2 0.434322 0.500000 0.348754
O O3 0.469007 0.250987 0.301814
O O4 0.520076 0.270925 0.400956
O O5 0.250000 0.316783 0.839397
O O6 0.025690 0.500000 0.839831
O O7 0.024794 0.266554 0.899608
O O8 0.009710 0.235592 0.798622
O O9 0.250000 0.795100 0.237518
O O10 0.048827 0.000000 0.254654
O O11 0.750000 0.798055 0.454474
O O12 0.000000 0.780262 0.500000
O O13 0.951845 0.000000 0.434181
O O14 0.250000 0.191788 0.957875
O O15 0.459819 0.000000 0.937064
O O16 0.500000 0.229129 0.000000
#
# Coordination Sequence:
#
# PCOD8213357 Si02
#       5
#     8   8   8   8   8
#     4  10  21  37  57  81 110 143 178 219 268 319
#     4  10  21  36  54  78 109 143 178 218 266 319
#     4  10  21  37  58  82 107 139 180 223 267 317
#     4  10  21  37  58  83 110 143 183 224 266 314
#     4   9  18  33  52  74 102 137 177 220 264 312
#
# _framework density 18.809940999999998
#
# number of rings (size 3 to 8) (size 9 to 14) (size 15 to 20)
#    0.000    2.200    0.000    2.400    0.000    7.200 
#    0.000    2.000    0.000    0.000    0.000    0.000 
#    0.000    0.000    0.000    0.000    0.000    0.000 
#
# Total GULP energy -496197.417648 kJ/mol
# GULP energy per Si atom -12404.935441 kJ/mol
# Density = 1.876713 g / cm^3
# Si number density = 18.809941 Si / 1000 Ang^3
#
#
#
# Elastic Constant Matrix: (Units=GPa)
#
#
# Indices 1 2 3 4 5 6 
#
# 1 57.6526 37.4620 58.1394 0.0000 0.0000 0.0000
# 2 37.4620 87.8688 64.8053 0.0000 0.0000 0.0000
# 3 58.1394 64.8053 157.0573 0.0000 0.0000 0.0000
# 4 0.0000 0.0000 0.0000 -38.2730 0.0000 0.0000
# 5 0.0000 0.0000 0.0000 0.0000 36.2549 0.0000
# 6 0.0000 0.0000 0.0000 0.0000 0.0000 28.5462
#
#
#
# Elastic Compliance Matrix: (Units=1/GPa)
#
#
# Indices 1 2 3 4 5 6 
#
# 1 0.030156 -0.006646 -0.008421 0.000000 0.000000 0.000000
# 2 -0.006646 0.017824 -0.004894 0.000000 0.000000 0.000000
# 3 -0.008421 -0.004894 0.011504 0.000000 0.000000 0.000000
# 4 0.000000 0.000000 0.000000 -0.026128 0.000000 0.000000
# 5 0.000000 0.000000 0.000000 0.000000 0.027582 0.000000
# 6 0.000000 0.000000 0.000000 0.000000 0.000000 0.035031
#
#
# Mechanical properties :
#
#
# Convention : Reuss Voigt Hill
#
# Bulk Modulus (GPa) = 51.12192 69.26579 60.19386
# Shear Modulus (GPa) = 35.10972 14.78374 24.94673
#
# Velocity S-wave (km/s) = 4.32505 2.80653 3.64573
# Velocity P-wave (km/s) = 7.22347 6.88521 7.05637
#
# Compressibility (1/GPa) = 0.01956108
#
# Stress axis : x y z
#
# Youngs Moduli (GPa) = 33.16131 56.10511 86.92848
#
# Poissons Ratio (x) = 0.37288 0.73200
# Poissons Ratio (y) = 0.22039 0.42544
# Poissons Ratio (z) = 0.27924 0.27459
#
# Static dielectric constant tensor:
#      x y z
#    x 3.379090 0.000000 0.000000 
#    y 0.000000 3.526970 0.000000 
#    z 0.000000 0.000000 3.576680 
# 
# 
# High freq. dielectric constant tensor:
#      x y z
#    x 1.724390 0.000000 0.000000 
#    y 0.000000 1.736500 0.000000 
#    z 0.000000 0.000000 1.743070 
# 
# From -- ./inp_files/34292.got.cif
#   From: 2010.03.12/outbox.cif.g09.slc.cpg/sg51_18_cif.got.tgz:34292.got - 2010.04.16 13:43:02.
