data_PCOD8213810
_publ_section_title
;
Structure prediction by ZEFSAII (Michael W. Deem and Ramdas Pophale) SiO2 
 PCOD8213810
Probable space group: P M M A
;
_chemical_formula_sum "Si O2"
_cell_formula_units_Z 40
_cell_length_a 9.017137
_cell_length_b 15.801218
_cell_length_c 14.577211
_cell_angle_alpha 90.000000
_cell_angle_beta 90.000000
_cell_angle_gamma 90.000000
_cell_volume 2076.986497
_symmetry_space_group_name_H-M "P M M A"
_symmetry_group_IT_number 51
_symmetry_cell_setting 'orthorhombic'
loop_
_space_group_symop_operation_xyz
x,y,z
1/2-x,-y,z
1/2+x,-y,-z
-x,y,-z
-x,-y,-z
1/2+x,y,-z
1/2-x,y,z
x,-y,z
loop_
_atom_site_type_symbol
_atom_site_label
_atom_site_fract_x
_atom_site_fract_y
_atom_site_fract_z
Si Si1 0.928436 0.676745 0.593350
Si Si2 0.913918 0.211291 0.762835
Si Si3 0.087746 0.661426 0.078046
Si Si4 0.079462 0.099011 0.905431
Si Si5 0.922785 0.500000 0.138599
Si Si6 0.427010 0.500000 0.650140
O O1 0.750000 0.668456 0.589083
O O2 0.976256 0.748252 0.668428
O O3 0.000000 0.712363 0.500000
O O4 0.999676 0.584340 0.608764
O O5 0.750000 0.171005 0.747628
O O6 0.899968 0.291467 0.827379
O O7 0.017699 0.142685 0.812647
O O8 0.250000 0.636760 0.042185
O O9 0.988320 0.579908 0.088774
O O10 0.000000 0.716310 0.000000
O O11 0.250000 0.124788 0.916795
O O12 0.057769 0.000000 0.888875
O O13 0.000000 0.126834 0.000000
O O14 0.750000 0.500000 0.126155
O O15 0.968637 0.500000 0.244087
O O16 0.250000 0.500000 0.631082
#
# Coordination Sequence:
#
# PCOD8213810 Si02
#       6
#     8   8   8   8   4   4
#     4  11  23  40  60  84 113 147 190 239 292 341
#     4  10  22  38  58  83 112 147 185 231 282 333
#     4  11  22  36  52  74 106 144 185 227 275 327
#     4  10  21  37  60  90 122 154 187 225 272 330
#     4  11  22  35  52  74 102 142 188 229 275 327
#     4  11  22  37  58  82 108 146 194 241 291 337
#
# _framework density 19.258671
#
# number of rings (size 3 to 8) (size 9 to 14) (size 15 to 20)
#    0.000    1.400    2.000    3.600    0.000    6.800 
#    0.000    0.000    0.000    0.600    0.000    0.000 
#    0.000    0.000    0.000    0.000    0.000    0.000 
#
# Total GULP energy -495739.883524 kJ/mol
# GULP energy per Si atom -12393.497088 kJ/mol
# Density = 1.921484 g / cm^3
# Si number density = 19.258671 Si / 1000 Ang^3
#
#
#
# Elastic Constant Matrix: (Units=GPa)
#
#
# Indices 1 2 3 4 5 6 
#
# 1 87.7615 35.4365 73.7486 0.0000 0.0000 0.0000
# 2 35.4365 73.2359 43.6000 0.0000 0.0000 0.0000
# 3 73.7486 43.6000 145.5421 0.0000 0.0000 0.0000
# 4 0.0000 0.0000 0.0000 -17.5569 0.0000 0.0000
# 5 0.0000 0.0000 0.0000 0.0000 34.4010 0.0000
# 6 0.0000 0.0000 0.0000 0.0000 0.0000 -142.9225
#
#
#
# Elastic Compliance Matrix: (Units=1/GPa)
#
#
# Indices 1 2 3 4 5 6 
#
# 1 0.021082 -0.004675 -0.009282 0.000000 0.000000 0.000000
# 2 -0.004675 0.017655 -0.002920 0.000000 0.000000 0.000000
# 3 -0.009282 -0.002920 0.012449 0.000000 0.000000 0.000000
# 4 0.000000 0.000000 0.000000 -0.056958 0.000000 0.000000
# 5 0.000000 0.000000 0.000000 0.000000 0.029069 0.000000
# 6 0.000000 0.000000 0.000000 0.000000 0.000000 -0.006997
#
#
# Mechanical properties :
#
#
# Convention : Reuss Voigt Hill
#
# Bulk Modulus (GPa) = 57.36620 68.01219 62.68920
# Shear Modulus (GPa) = 89.49961 -14.96539 37.26711
#
# Velocity S-wave (km/s) = 6.82446 -2.79063 4.40373
# Velocity P-wave (km/s) = 9.58903 5.00083 7.64715
#
# Compressibility (1/GPa) = 0.01743187
#
# Stress axis : x y z
#
# Youngs Moduli (GPa) = 47.43293 56.64134 80.32702
#
# Poissons Ratio (x) = 0.26480 0.74562
# Poissons Ratio (y) = 0.22175 0.23456
# Poissons Ratio (z) = 0.44029 0.16539
#
# Static dielectric constant tensor:
#      x y z
#    x 3.797440 0.000000 0.000000 
#    y 0.000000 3.192140 0.000000 
#    z 0.000000 0.000000 3.877360 
# 
# 
# High freq. dielectric constant tensor:
#      x y z
#    x 1.763940 0.000000 0.000000 
#    y 0.000000 1.730640 0.000000 
#    z 0.000000 0.000000 1.756250 
# 
# From -- ./inp_files/20551.got.cif
#   From: 2010.03.12/outbox.cif.g09.slc.cpg/sg51_11_cif.got.tgz:20551.got - 2010.04.16 13:43:02.
