data_PCOD8213146
_publ_section_title
;
Structure prediction by ZEFSAII (Michael W. Deem and Ramdas Pophale) SiO2 
 PCOD8213146
Probable space group: P M M A
;
_chemical_formula_sum "Si O2"
_cell_formula_units_Z 48
_cell_length_a 9.414872
_cell_length_b 9.086152
_cell_length_c 28.402890
_cell_angle_alpha 90.000000
_cell_angle_beta 90.000000
_cell_angle_gamma 90.000000
_cell_volume 2429.724034
_symmetry_space_group_name_H-M "P M M A"
_symmetry_group_IT_number 51
_symmetry_cell_setting 'orthorhombic'
loop_
_space_group_symop_operation_xyz
x,y,z
1/2-x,-y,z
1/2+x,-y,-z
-x,y,-z
-x,-y,-z
1/2+x,y,-z
1/2-x,y,z
x,-y,z
loop_
_atom_site_type_symbol
_atom_site_label
_atom_site_fract_x
_atom_site_fract_y
_atom_site_fract_z
Si Si1 0.088904 0.825672 0.276160
Si Si2 0.527626 0.329015 0.097309
Si Si3 0.250000 0.171309 0.075629
Si Si4 0.407100 0.332527 0.796768
Si Si5 0.911908 0.824668 0.365258
Si Si6 0.250000 0.828173 0.964841
Si Si7 0.087610 0.175294 0.455015
O O1 0.250000 0.766935 0.281944
O O2 0.023611 0.770843 0.227145
O O3 0.991483 0.765346 0.318733
O O4 0.088577 0.000000 0.275678
O O5 0.513733 0.500000 0.083920
O O6 0.378457 0.250632 0.100968
O O7 0.601695 0.306801 0.147436
O O8 0.611867 0.247935 0.056121
O O9 0.250000 0.000000 0.088114
O O10 0.250000 0.198404 0.020160
O O11 0.250000 0.296539 0.776682
O O12 0.450246 0.500000 0.785764
O O13 0.750000 0.763668 0.367132
O O14 0.002914 0.765892 0.409467
O O15 0.908649 0.000000 0.365655
O O16 0.250000 0.000000 0.952093
O O17 0.250000 0.236057 0.455464
O O18 0.000000 0.233736 0.500000
O O19 0.092361 0.000000 0.455045
#
# Coordination Sequence:
#
# PCOD8213146 Si02
#       7
#     8   8   4   8   8   4   8
#     4  10  21  35  53  80 109 139 178 223 274 333
#     4  11  23  41  63  87 115 152 195 235 280 339
#     4  11  25  41  59  89 125 153 187 233 286 337
#     4  10  22  41  60  80 108 141 180 227 275 324
#     4   9  16  27  43  64  95 134 176 223 273 327
#     4  11  23  41  63  89 121 155 187 233 286 335
#     4   9  15  22  34  55  87 130 178 225 275 331
#
# _framework density 19.755329
#
# number of rings (size 3 to 8) (size 9 to 14) (size 15 to 20)
#    0.000    2.000    0.833    3.000    1.167   10.000 
#    0.000    0.000    0.000    0.000    0.000    0.000 
#    0.000    0.667    0.000    2.500    0.000    5.500 
#
# Total GULP energy -595213.126536 kJ/mol
# GULP energy per Si atom -12400.273470 kJ/mol
# Density = 1.971037 g / cm^3
# Si number density = 19.755329 Si / 1000 Ang^3
#
#
#
# Elastic Constant Matrix: (Units=GPa)
#
#
# Indices 1 2 3 4 5 6 
#
# 1 164.3144 33.3107 41.0522 0.0000 0.0000 0.0000
# 2 33.3107 48.6622 32.6050 0.0000 0.0000 0.0000
# 3 41.0522 32.6050 75.4015 0.0000 0.0000 0.0000
# 4 0.0000 0.0000 0.0000 2.8168 0.0000 0.0000
# 5 0.0000 0.0000 0.0000 0.0000 40.6221 0.0000
# 6 0.0000 0.0000 0.0000 0.0000 0.0000 25.0087
#
#
#
# Elastic Compliance Matrix: (Units=1/GPa)
#
#
# Indices 1 2 3 4 5 6 
#
# 1 0.007410 -0.003336 -0.002592 0.000000 0.000000 0.000000
# 2 -0.003336 0.030434 -0.011344 0.000000 0.000000 0.000000
# 3 -0.002592 -0.011344 0.019579 0.000000 0.000000 0.000000
# 4 0.000000 0.000000 0.000000 0.355019 0.000000 0.000000
# 5 0.000000 0.000000 0.000000 0.000000 0.024617 0.000000
# 6 0.000000 0.000000 0.000000 0.000000 0.000000 0.039986
#
#
# Mechanical properties :
#
#
# Convention : Reuss Voigt Hill
#
# Bulk Modulus (GPa) = 43.70736 55.81266 49.76001
# Shear Modulus (GPa) = 9.62994 25.78352 17.70673
#
# Velocity S-wave (km/s) = 2.21025 3.61659 2.99708
# Velocity P-wave (km/s) = 5.35593 6.76409 6.10077
#
# Compressibility (1/GPa) = 0.02287944
#
# Stress axis : x y z
#
# Youngs Moduli (GPa) = 134.95950 32.85787 51.07531
#
# Poissons Ratio (x) = 0.10960 0.13238
# Poissons Ratio (y) = 0.45016 0.57941
# Poissons Ratio (z) = 0.34979 0.37275
#
# Static dielectric constant tensor:
#      x y z
#    x 3.855780 0.000000 0.000000 
#    y 0.000000 3.171020 0.000000 
#    z 0.000000 0.000000 3.597950 
# 
# 
# High freq. dielectric constant tensor:
#      x y z
#    x 1.791670 0.000000 0.000000 
#    y 0.000000 1.724670 0.000000 
#    z 0.000000 0.000000 1.776170 
# 
# From -- ./inp_files/37147.got.cif
#   From: 2010.03.12/outbox.cif.g09.slc.cpg/sg51_19_cif.got.tgz:37147.got - 2010.04.16 13:43:02.
