data_PCOD8213785
_publ_section_title
;
Structure prediction by ZEFSAII (Michael W. Deem and Ramdas Pophale) SiO2 
 PCOD8213785
Probable space group: P M M A
;
_chemical_formula_sum "Si O2"
_cell_formula_units_Z 56
_cell_length_a 14.634425
_cell_length_b 9.088054
_cell_length_c 21.387162
_cell_angle_alpha 90.000000
_cell_angle_beta 90.000000
_cell_angle_gamma 90.000000
_cell_volume 2844.459282
_symmetry_space_group_name_H-M "P M M A"
_symmetry_group_IT_number 51
_symmetry_cell_setting 'orthorhombic'
loop_
_space_group_symop_operation_xyz
x,y,z
1/2-x,-y,z
1/2+x,-y,-z
-x,y,-z
-x,-y,-z
1/2+x,y,-z
1/2-x,y,z
x,-y,z
loop_
_atom_site_type_symbol
_atom_site_label
_atom_site_fract_x
_atom_site_fract_y
_atom_site_fract_z
Si Si1 0.975680 0.671385 0.153563
Si Si2 0.358426 0.337255 0.488055
Si Si3 0.987607 0.825511 0.282019
Si Si4 0.853913 0.826982 0.391258
Si Si5 0.857238 0.168708 0.051910
Si Si6 0.644843 0.673385 0.650278
Si Si7 0.353504 0.668326 0.073479
O O1 0.956647 0.500000 0.165220
O O2 0.955989 0.760182 0.216397
O O3 0.080053 0.698871 0.131770
O O4 0.906710 0.729697 0.101771
O O5 0.250000 0.342570 0.488864
O O6 0.398490 0.500000 0.498967
O O7 0.395776 0.236070 0.544028
O O8 0.387628 0.278414 0.419540
O O9 0.086740 0.763213 0.299543
O O10 0.913948 0.771939 0.333215
O O11 0.992027 0.000000 0.277001
O O12 0.750000 0.771790 0.380565
O O13 0.857450 0.000000 0.397614
O O14 0.750000 0.184360 0.063862
O O15 0.889563 0.000000 0.057921
O O16 0.882882 0.225761 0.982977
O O17 0.750000 0.715259 0.661643
O O18 0.629668 0.500000 0.659706
O O19 0.250000 0.701512 0.095673
O O20 0.363261 0.500000 0.050240
#
# Coordination Sequence:
#
# PCOD8213785 Si02
#       7
#     8   8   8   8   8   8   8
#     4  11  23  38  57  81 111 149 189 227 270 321
#     4   8  15  30  54  81 104 131 173 224 276 327
#     4  11  24  38  53  78 110 146 188 228 271 326
#     4   9  19  36  55  75 104 141 178 221 275 331
#     4  10  21  37  59  87 116 145 178 221 273 323
#     4   9  19  37  58  79 107 142 179 223 275 329
#     4   9  19  37  60  85 112 142 178 221 270 324
#
# _framework density 19.687398000000002
#
# number of rings (size 3 to 8) (size 9 to 14) (size 15 to 20)
#    0.000    2.429    0.000    2.571    0.000    7.429 
#    0.000    7.143    0.000    0.000    0.000    0.000 
#    0.000    0.000    0.000    0.000    0.000    0.000 
#
# Total GULP energy -694448.236743 kJ/mol
# GULP energy per Si atom -12400.861370 kJ/mol
# Density = 1.964259 g / cm^3
# Si number density = 19.687398 Si / 1000 Ang^3
#
#
#
# Elastic Constant Matrix: (Units=GPa)
#
#
# Indices 1 2 3 4 5 6 
#
# 1 40.0161 20.2445 10.1693 0.0000 0.0000 0.0000
# 2 20.2445 55.9544 19.2578 0.0000 0.0000 0.0000
# 3 10.1693 19.2578 61.1256 0.0000 0.0000 0.0000
# 4 0.0000 0.0000 0.0000 54.1028 0.0000 0.0000
# 5 0.0000 0.0000 0.0000 0.0000 26.7319 0.0000
# 6 0.0000 0.0000 0.0000 0.0000 0.0000 25.5259
#
#
#
# Elastic Compliance Matrix: (Units=1/GPa)
#
#
# Indices 1 2 3 4 5 6 
#
# 1 0.030766 -0.010509 -0.001808 0.000000 0.000000 0.000000
# 2 -0.010509 0.023635 -0.005698 0.000000 0.000000 0.000000
# 3 -0.001808 -0.005698 0.018456 0.000000 0.000000 0.000000
# 4 0.000000 0.000000 0.000000 0.018483 0.000000 0.000000
# 5 0.000000 0.000000 0.000000 0.000000 0.037408 0.000000
# 6 0.000000 0.000000 0.000000 0.000000 0.000000 0.039176
#
#
# Mechanical properties :
#
#
# Convention : Reuss Voigt Hill
#
# Bulk Modulus (GPa) = 27.15366 28.49325 27.82346
# Shear Modulus (GPa) = 23.12365 28.43378 25.77871
#
# Velocity S-wave (km/s) = 3.43087 3.80447 3.62249
# Velocity P-wave (km/s) = 5.43294 5.81403 5.62671
#
# Compressibility (1/GPa) = 0.03682745
#
# Stress axis : x y z
#
# Youngs Moduli (GPa) = 32.50352 42.31021 54.18414
#
# Poissons Ratio (x) = 0.44464 0.09794
# Poissons Ratio (y) = 0.34158 0.30873
# Poissons Ratio (z) = 0.05875 0.24108
#
# Static dielectric constant tensor:
#      x y z
#    x 3.627250 0.000000 0.000000 
#    y 0.000000 3.592210 0.000000 
#    z 0.000000 0.000000 3.598120 
# 
# 
# High freq. dielectric constant tensor:
#      x y z
#    x 1.768900 0.000000 0.000000 
#    y 0.000000 1.764200 0.000000 
#    z 0.000000 0.000000 1.764640 
# 
# From -- ./inp_files/33375.got.cif
#   From: 2010.03.12/outbox.cif.g09.slc.cpg/sg51_17_cif.got.tgz:33375.got - 2010.04.16 13:43:02.
