data_PCOD8213548
_publ_section_title
;
Structure prediction by ZEFSAII (Michael W. Deem and Ramdas Pophale) SiO2 
 PCOD8213548
Probable space group: P M M A
;
_chemical_formula_sum "Si O2"
_cell_formula_units_Z 48
_cell_length_a 9.211114
_cell_length_b 18.668767
_cell_length_c 14.623859
_cell_angle_alpha 90.000000
_cell_angle_beta 90.000000
_cell_angle_gamma 90.000000
_cell_volume 2514.720857
_symmetry_space_group_name_H-M "P M M A"
_symmetry_group_IT_number 51
_symmetry_cell_setting 'orthorhombic'
loop_
_space_group_symop_operation_xyz
x,y,z
1/2-x,-y,z
1/2+x,-y,-z
-x,y,-z
-x,-y,-z
1/2+x,y,-z
1/2-x,y,z
x,-y,z
loop_
_atom_site_type_symbol
_atom_site_label
_atom_site_fract_x
_atom_site_fract_y
_atom_site_fract_z
Si Si1 0.575722 0.733779 0.591695
Si Si2 0.584576 0.805301 0.243196
Si Si3 0.587323 0.579815 0.856116
Si Si4 0.078087 0.422291 0.350733
Si Si5 0.088218 0.296342 0.921906
Si Si6 0.081142 0.917238 0.906747
O O1 0.500000 0.763111 0.500000
O O2 0.750000 0.739457 0.586748
O O3 0.520438 0.786445 0.672476
O O4 0.521312 0.650680 0.601391
O O5 0.750000 0.818428 0.277970
O O6 0.578717 0.737703 0.177048
O O7 0.527788 0.873088 0.182852
O O8 0.750000 0.612276 0.857814
O O9 0.586997 0.500000 0.895580
O O10 0.525994 0.581023 0.753287
O O11 0.481704 0.625424 0.918776
O O12 0.250000 0.422762 0.355630
O O13 0.021866 0.500000 0.392285
O O14 0.250000 0.303377 0.957938
O O15 0.000000 0.251880 0.000000
O O16 0.250000 0.899334 0.923333
O O17 0.053303 0.000000 0.883843
O O18 0.000000 0.894973 0.000000
#
# Coordination Sequence:
#
# PCOD8213548 Si02
#       6
#     8   8   8   8   8   8
#     4  11  22  36  57  81 108 142 181 226 275 328
#     4  10  21  37  55  79 111 143 177 219 265 315
#     4   9  17  32  52  70  93 129 174 221 266 315
#     4   8  15  30  52  75  99 131 173 222 276 328
#     4  11  22  33  49  73 103 136 174 217 261 315
#     4   9  18  34  58  88 120 151 181 216 259 311
#
# _framework density 19.087605
#
# number of rings (size 3 to 8) (size 9 to 14) (size 15 to 20)
#    0.000    2.333    1.667    2.500    0.000    2.333 
#    0.000    0.000    0.000    2.000    0.000    0.000 
#    0.000    0.000    0.000    0.000    0.000    0.000 
#
# Total GULP energy -594684.557519 kJ/mol
# GULP energy per Si atom -12389.261615 kJ/mol
# Density = 1.904416 g / cm^3
# Si number density = 19.087605 Si / 1000 Ang^3
#
#
#
# Elastic Constant Matrix: (Units=GPa)
#
#
# Indices 1 2 3 4 5 6 
#
# 1 94.4078 37.3324 53.4894 0.0000 0.0000 0.0000
# 2 37.3324 97.9273 47.2121 0.0000 0.0000 0.0000
# 3 53.4894 47.2121 112.7941 0.0000 0.0000 0.0000
# 4 0.0000 0.0000 0.0000 12.0198 0.0000 0.0000
# 5 0.0000 0.0000 0.0000 0.0000 31.4520 0.0000
# 6 0.0000 0.0000 0.0000 0.0000 0.0000 20.6757
#
#
#
# Elastic Compliance Matrix: (Units=1/GPa)
#
#
# Indices 1 2 3 4 5 6 
#
# 1 0.015109 -0.002888 -0.005956 0.000000 0.000000 0.000000
# 2 -0.002888 0.013346 -0.004216 0.000000 0.000000 0.000000
# 3 -0.005956 -0.004216 0.013455 0.000000 0.000000 0.000000
# 4 0.000000 0.000000 0.000000 0.083196 0.000000 0.000000
# 5 0.000000 0.000000 0.000000 0.000000 0.031795 0.000000
# 6 0.000000 0.000000 0.000000 0.000000 0.000000 0.048366
#
#
# Mechanical properties :
#
#
# Convention : Reuss Voigt Hill
#
# Bulk Modulus (GPa) = 63.33888 64.57744 63.95816
# Shear Modulus (GPa) = 21.12820 23.96918 22.54869
#
# Velocity S-wave (km/s) = 3.33063 3.54749 3.44077
# Velocity P-wave (km/s) = 6.93153 7.11935 7.02607
#
# Compressibility (1/GPa) = 0.01578809
#
# Stress axis : x y z
#
# Youngs Moduli (GPa) = 66.18513 74.93147 74.32189
#
# Poissons Ratio (x) = 0.21644 0.44266
# Poissons Ratio (y) = 0.19118 0.31336
# Poissons Ratio (z) = 0.39420 0.31593
#
# Static dielectric constant tensor:
#      x y z
#    x 3.368660 0.000000 0.000000 
#    y 0.000000 3.580270 0.000000 
#    z 0.000000 0.000000 3.451170 
# 
# 
# High freq. dielectric constant tensor:
#      x y z
#    x 1.725050 0.000000 0.000000 
#    y 0.000000 1.730310 0.000000 
#    z 0.000000 0.000000 1.735470 
# 
# From -- ./inp_files/21116.got.cif
#   From: 2010.03.12/outbox.cif.g09.slc.cpg/sg51_11_cif.got.tgz:21116.got - 2010.04.16 13:43:02.
