data_PCOD8213261
_publ_section_title
;
Structure prediction by ZEFSAII (Michael W. Deem and Ramdas Pophale) SiO2 
 PCOD8213261
Probable space group: P M M A
;
_chemical_formula_sum "Si O2"
_cell_formula_units_Z 48
_cell_length_a 23.388898
_cell_length_b 9.055483
_cell_length_c 11.163257
_cell_angle_alpha 90.000000
_cell_angle_beta 90.000000
_cell_angle_gamma 90.000000
_cell_volume 2364.352919
_symmetry_space_group_name_H-M "P M M A"
_symmetry_group_IT_number 51
_symmetry_cell_setting 'orthorhombic'
loop_
_space_group_symop_operation_xyz
x,y,z
1/2-x,-y,z
1/2+x,-y,-z
-x,y,-z
-x,-y,-z
1/2+x,y,-z
1/2-x,y,z
x,-y,z
loop_
_atom_site_type_symbol
_atom_site_label
_atom_site_fract_x
_atom_site_fract_y
_atom_site_fract_z
Si Si1 0.684692 0.668361 0.674965
Si Si2 0.581625 0.326568 0.305386
Si Si3 0.685962 0.673692 0.149634
Si Si4 0.022031 0.827658 0.209724
Si Si5 0.380148 0.670650 0.081638
Si Si6 0.409724 0.829125 0.450992
O O1 0.750000 0.714822 0.672332
O O2 0.675069 0.500000 0.632871
O O3 0.662815 0.691422 0.808703
O O4 0.653602 0.774988 0.581455
O O5 0.570115 0.500000 0.308829
O O6 0.646926 0.290337 0.265656
O O7 0.538872 0.254857 0.207673
O O8 0.567829 0.258909 0.434490
O O9 0.750000 0.742830 0.164223
O O10 0.692404 0.500000 0.132047
O O11 0.653269 0.736701 0.032864
O O12 0.061977 0.762580 0.104893
O O13 0.049290 0.795737 0.339612
O O14 0.013408 0.000000 0.185637
O O15 0.397288 0.500000 0.062569
O O16 0.408788 0.000000 0.485207
#
# Coordination Sequence:
#
# PCOD8213261 Si02
#       6
#     8   8   8   8   8   8
#     4   9  17  30  52  81 107 134 174 223 269 313
#     4  11  22  35  55  81 108 141 181 222 263 315
#     4   9  19  36  57  81 109 141 176 216 263 312
#     4  10  21  37  56  79 109 141 174 219 273 322
#     4   9  17  33  58  83 106 135 175 220 264 314
#     4  10  21  36  53  75 106 144 181 219 270 324
#
# _framework density 20.301535999999999
#
# number of rings (size 3 to 8) (size 9 to 14) (size 15 to 20)
#    0.000    2.333    0.000    2.500    0.000    7.667 
#    0.000    6.667    0.000    5.000    0.000    0.000 
#    0.000    0.000    0.000    0.000    0.000    0.000 
#
# Total GULP energy -595237.986219 kJ/mol
# GULP energy per Si atom -12400.791380 kJ/mol
# Density = 2.025533 g / cm^3
# Si number density = 20.301536 Si / 1000 Ang^3
#
#
#
# Elastic Constant Matrix: (Units=GPa)
#
#
# Indices 1 2 3 4 5 6 
#
# 1 96.5584 37.4189 4.9342 0.0000 0.0000 0.0000
# 2 37.4189 77.9284 19.2287 0.0000 0.0000 0.0000
# 3 4.9342 19.2287 44.5652 0.0000 0.0000 0.0000
# 4 0.0000 0.0000 0.0000 18.2303 0.0000 0.0000
# 5 0.0000 0.0000 0.0000 0.0000 21.8852 0.0000
# 6 0.0000 0.0000 0.0000 0.0000 0.0000 19.0298
#
#
#
# Elastic Compliance Matrix: (Units=1/GPa)
#
#
# Indices 1 2 3 4 5 6 
#
# 1 0.012800 -0.006487 0.001382 0.000000 0.000000 0.000000
# 2 -0.006487 0.017649 -0.006897 0.000000 0.000000 0.000000
# 3 0.001382 -0.006897 0.025262 0.000000 0.000000 0.000000
# 4 0.000000 0.000000 0.000000 0.054854 0.000000 0.000000
# 5 0.000000 0.000000 0.000000 0.000000 0.045693 0.000000
# 6 0.000000 0.000000 0.000000 0.000000 0.000000 0.052549
#
#
# Mechanical properties :
#
#
# Convention : Reuss Voigt Hill
#
# Bulk Modulus (GPa) = 31.53934 38.02398 34.78166
# Shear Modulus (GPa) = 20.54408 22.32708 21.43558
#
# Velocity S-wave (km/s) = 3.18456 3.31988 3.25292
# Velocity P-wave (km/s) = 5.39362 5.78496 5.59271
#
# Compressibility (1/GPa) = 0.03170643
#
# Stress axis : x y z
#
# Youngs Moduli (GPa) = 78.12688 56.66062 39.58539
#
# Poissons Ratio (x) = 0.36756 -0.05470
# Poissons Ratio (y) = 0.50681 0.27301
# Poissons Ratio (z) = -0.10795 0.39078
#
# Static dielectric constant tensor:
#      x y z
#    x 3.881350 0.000000 0.000000 
#    y 0.000000 3.466780 0.000000 
#    z 0.000000 0.000000 3.601250 
# 
# 
# High freq. dielectric constant tensor:
#      x y z
#    x 1.802990 0.000000 0.000000 
#    y 0.000000 1.769960 0.000000 
#    z 0.000000 0.000000 1.789140 
# 
# From -- ./inp_files/18559.got.cif
#   From: 2010.03.12/outbox.cif.g09.slc.cpg/sg51_10_cif.got.tgz:18559.got - 2010.04.16 13:43:02.
