data_PCOD8213722
_publ_section_title
;
Structure prediction by ZEFSAII (Michael W. Deem and Ramdas Pophale) SiO2 
 PCOD8213722
Probable space group: P M M A
;
_chemical_formula_sum "Si O2"
_cell_formula_units_Z 56
_cell_length_a 21.692388
_cell_length_b 8.757667
_cell_length_c 14.306731
_cell_angle_alpha 90.000000
_cell_angle_beta 90.000000
_cell_angle_gamma 90.000000
_cell_volume 2717.917080
_symmetry_space_group_name_H-M "P M M A"
_symmetry_group_IT_number 51
_symmetry_cell_setting 'orthorhombic'
loop_
_space_group_symop_operation_xyz
x,y,z
1/2-x,-y,z
1/2+x,-y,-z
-x,y,-z
-x,-y,-z
1/2+x,y,-z
1/2-x,y,z
x,-y,z
loop_
_atom_site_type_symbol
_atom_site_label
_atom_site_fract_x
_atom_site_fract_y
_atom_site_fract_z
Si Si1 0.581490 0.319674 0.259774
Si Si2 0.181452 0.834101 0.256471
Si Si3 0.936812 0.319007 0.047820
Si Si4 0.678618 0.179374 0.379335
Si Si5 0.639510 0.321952 0.571251
Si Si6 0.179129 0.319368 0.071001
Si Si7 0.017351 0.172833 0.393075
O O1 0.574845 0.500000 0.271336
O O2 0.565637 0.265881 0.155325
O O3 0.650109 0.267204 0.290108
O O4 0.537142 0.233482 0.330122
O O5 0.250000 0.866450 0.223348
O O6 0.187433 0.736900 0.351898
O O7 0.152566 0.740377 0.170355
O O8 0.148346 0.000000 0.271434
O O9 0.938115 0.500000 0.040250
O O10 0.872611 0.258781 0.002089
O O11 0.000000 0.253671 0.000000
O O12 0.750000 0.223073 0.383928
O O13 0.646176 0.231815 0.474802
O O14 0.667593 0.000000 0.367863
O O15 0.647304 0.500000 0.550827
O O16 0.575207 0.283299 0.622388
O O17 0.250000 0.265844 0.045910
O O18 0.178659 0.500000 0.075792
O O19 0.000000 0.183338 0.500000
O O20 0.033303 0.000000 0.364145
#
# Coordination Sequence:
#
# PCOD8213722 Si02
#       7
#     8   8   8   8   8   8   8
#     4  11  23  39  63  93 122 157 204 254 303 362
#     4  10  21  37  57  85 123 161 196 239 296 360
#     4   9  20  38  60  89 123 156 196 254 317 366
#     4  11  24  42  62  86 122 165 204 247 303 363
#     4  12  24  37  60  90 121 157 202 251 297 351
#     4   9  18  35  60  87 116 156 205 253 303 366
#     4  11  23  40  62  86 121 162 197 238 296 362
#
# _framework density 20.604012999999998
#
# number of rings (size 3 to 8) (size 9 to 14) (size 15 to 20)
#    0.000    1.571    1.429    3.429    2.000    4.857 
#    0.000    2.857    0.000    3.857    0.000    0.000 
#    0.000    0.000    0.000    0.000    0.000    0.000 
#
# Total GULP energy -694102.499300 kJ/mol
# GULP energy per Si atom -12394.687488 kJ/mol
# Density = 2.055712 g / cm^3
# Si number density = 20.604013 Si / 1000 Ang^3
#
#
#
# Elastic Constant Matrix: (Units=GPa)
#
#
# Indices 1 2 3 4 5 6 
#
# 1 106.7380 24.4057 54.2660 0.0000 0.0000 0.0000
# 2 24.4057 54.8349 41.3015 0.0000 0.0000 0.0000
# 3 54.2660 41.3015 140.3938 0.0000 0.0000 0.0000
# 4 0.0000 0.0000 0.0000 1.3241 0.0000 0.0000
# 5 0.0000 0.0000 0.0000 0.0000 34.3739 0.0000
# 6 0.0000 0.0000 0.0000 0.0000 0.0000 23.3318
#
#
#
# Elastic Compliance Matrix: (Units=1/GPa)
#
#
# Indices 1 2 3 4 5 6 
#
# 1 0.011892 -0.002352 -0.003905 0.000000 0.000000 0.000000
# 2 -0.002352 0.023893 -0.006120 0.000000 0.000000 0.000000
# 3 -0.003905 -0.006120 0.010432 0.000000 0.000000 0.000000
# 4 0.000000 0.000000 0.000000 0.755253 0.000000 0.000000
# 5 0.000000 0.000000 0.000000 0.000000 0.029092 0.000000
# 6 0.000000 0.000000 0.000000 0.000000 0.000000 0.042860
#
#
# Mechanical properties :
#
#
# Convention : Reuss Voigt Hill
#
# Bulk Modulus (GPa) = 46.58878 60.21257 53.40067
# Shear Modulus (GPa) = 5.52286 23.93884 14.73085
#
# Velocity S-wave (km/s) = 1.63899 3.41230 2.67676
# Velocity P-wave (km/s) = 5.12273 6.69419 5.96047
#
# Compressibility (1/GPa) = 0.02146440
#
# Stress axis : x y z
#
# Youngs Moduli (GPa) = 84.09326 41.85380 95.85523
#
# Poissons Ratio (x) = 0.09843 0.37427
# Poissons Ratio (y) = 0.19776 0.58662
# Poissons Ratio (z) = 0.32835 0.25614
#
# Static dielectric constant tensor:
#      x y z
#    x 3.794520 0.000000 0.000000 
#    y 0.000000 3.734390 0.000000 
#    z 0.000000 0.000000 3.825490 
# 
# 
# High freq. dielectric constant tensor:
#      x y z
#    x 1.813790 0.000000 0.000000 
#    y 0.000000 1.795720 0.000000 
#    z 0.000000 0.000000 1.804290 
# 
# From -- ./inp_files/25704.got.cif
#   From: 2010.03.12/outbox.cif.g09.slc.cpg/sg51_13_cif.got.tgz:25704.got - 2010.04.16 13:43:02.
