data_PCOD8213428
_publ_section_title
;
Structure prediction by ZEFSAII (Michael W. Deem and Ramdas Pophale) SiO2 
 PCOD8213428
Probable space group: P M M A
;
_chemical_formula_sum "Si O2"
_cell_formula_units_Z 64
_cell_length_a 14.021465
_cell_length_b 9.139391
_cell_length_c 25.646471
_cell_angle_alpha 90.000000
_cell_angle_beta 90.000000
_cell_angle_gamma 90.000000
_cell_volume 3286.535016
_symmetry_space_group_name_H-M "P M M A"
_symmetry_group_IT_number 51
_symmetry_cell_setting 'orthorhombic'
loop_
_space_group_symop_operation_xyz
x,y,z
1/2-x,-y,z
1/2+x,-y,-z
-x,y,-z
-x,-y,-z
1/2+x,y,-z
1/2-x,y,z
x,-y,z
loop_
_atom_site_type_symbol
_atom_site_label
_atom_site_fract_x
_atom_site_fract_y
_atom_site_fract_z
Si Si1 0.359274 0.328891 0.915063
Si Si2 0.856321 0.329870 0.372250
Si Si3 0.531119 0.828753 0.875387
Si Si4 0.456630 0.329392 0.320108
Si Si5 0.137089 0.667766 0.424523
Si Si6 0.858306 0.834169 0.979748
Si Si7 0.861744 0.329030 0.784167
Si Si8 0.136512 0.164843 0.525140
O O1 0.250000 0.293397 0.900059
O O2 0.380707 0.500000 0.912492
O O3 0.426735 0.246042 0.873557
O O4 0.382153 0.273910 0.973206
O O5 0.750000 0.275715 0.356161
O O6 0.854463 0.500000 0.386617
O O7 0.897155 0.248760 0.423079
O O8 0.929351 0.299162 0.324610
O O9 0.574409 0.794193 0.931885
O O10 0.600896 0.759445 0.833315
O O11 0.521510 0.000000 0.864318
O O12 0.432470 0.500000 0.318645
O O13 0.404475 0.263702 0.371073
O O14 0.415517 0.262661 0.266693
O O15 0.250000 0.681414 0.422015
O O16 0.104539 0.500000 0.431503
O O17 0.094567 0.758414 0.473342
O O18 0.750000 0.815135 0.960564
O O19 0.876997 0.000000 0.999237
O O20 0.750000 0.300801 0.777191
O O21 0.884213 0.500000 0.792505
O O22 0.250000 0.170276 0.522879
O O23 0.097800 0.000000 0.527320
#
# Coordination Sequence:
#
# PCOD8213428 Si02
#       8
#     8   8   8   8   8   8   8   8
#     4  10  21  36  55  82 115 148 184 228 274 318
#     4   9  17  31  51  72  95 126 164 204 247 301
#     4  11  22  36  56  81 111 149 189 225 266 321
#     4   9  18  33  53  75  97 126 169 216 260 308
#     4   9  16  28  48  71  95 126 164 204 248 302
#     4   9  18  33  53  79 113 151 187 223 268 323
#     4  10  21  38  59  81 106 136 173 222 276 323
#     4   9  17  29  45  68 100 132 159 195 246 301
#
# _framework density 19.473398
#
# number of rings (size 3 to 8) (size 9 to 14) (size 15 to 20)
#    0.000    2.500    0.000    2.250    0.000    7.500 
#    0.000    6.250    0.000    3.750    0.000    0.000 
#    0.000    0.000    0.000    0.000    0.000    0.000 
#
# Total GULP energy -793584.470801 kJ/mol
# GULP energy per Si atom -12399.757356 kJ/mol
# Density = 1.942908 g / cm^3
# Si number density = 19.473398 Si / 1000 Ang^3
#
#
#
# Elastic Constant Matrix: (Units=GPa)
#
#
# Indices 1 2 3 4 5 6 
#
# 1 91.7055 41.4687 45.6167 0.0000 0.0000 0.0000
# 2 41.4687 80.4608 40.4018 0.0000 0.0000 0.0000
# 3 45.6167 40.4018 58.9530 0.0000 0.0000 0.0000
# 4 0.0000 0.0000 0.0000 3.9559 0.0000 0.0000
# 5 0.0000 0.0000 0.0000 0.0000 35.7291 0.0000
# 6 0.0000 0.0000 0.0000 0.0000 0.0000 18.2675
#
#
#
# Elastic Compliance Matrix: (Units=1/GPa)
#
#
# Indices 1 2 3 4 5 6 
#
# 1 0.018371 -0.003553 -0.011780 0.000000 0.000000 0.000000
# 2 -0.003553 0.019636 -0.010708 0.000000 0.000000 0.000000
# 3 -0.011780 -0.010708 0.033416 0.000000 0.000000 0.000000
# 4 0.000000 0.000000 0.000000 0.252788 0.000000 0.000000
# 5 0.000000 0.000000 0.000000 0.000000 0.027988 0.000000
# 6 0.000000 0.000000 0.000000 0.000000 0.000000 0.054742
#
#
# Mechanical properties :
#
#
# Convention : Reuss Voigt Hill
#
# Bulk Modulus (GPa) = 51.70263 54.01042 52.85652
# Shear Modulus (GPa) = 10.74181 18.49932 14.62056
#
# Velocity S-wave (km/s) = 2.35120 3.08552 2.74304
# Velocity P-wave (km/s) = 5.82914 6.36314 6.10198
#
# Compressibility (1/GPa) = 0.01934137
#
# Stress axis : x y z
#
# Youngs Moduli (GPa) = 54.43407 50.92575 29.92557
#
# Poissons Ratio (x) = 0.18094 0.35252
# Poissons Ratio (y) = 0.19341 0.32044
# Poissons Ratio (z) = 0.64124 0.54531
#
# Static dielectric constant tensor:
#      x y z
#    x 3.715240 0.000000 0.000000 
#    y 0.000000 3.433210 0.000000 
#    z 0.000000 0.000000 3.470600 
# 
# 
# High freq. dielectric constant tensor:
#      x y z
#    x 1.774060 0.000000 0.000000 
#    y 0.000000 1.738910 0.000000 
#    z 0.000000 0.000000 1.738810 
# 
# From -- ./inp_files/35681.got.cif
#   From: 2010.03.12/outbox.cif.g09.slc.cpg/sg51_18_cif.got.tgz:35681.got - 2010.04.16 13:43:02.
