data_PCOD8213117
_publ_section_title
;
Structure prediction by ZEFSAII (Michael W. Deem and Ramdas Pophale) SiO2 
 PCOD8213117
Probable space group: P M M A
;
_chemical_formula_sum "Si O2"
_cell_formula_units_Z 48
_cell_length_a 25.825195
_cell_length_b 8.419776
_cell_length_c 11.887711
_cell_angle_alpha 90.000000
_cell_angle_beta 90.000000
_cell_angle_gamma 90.000000
_cell_volume 2584.891900
_symmetry_space_group_name_H-M "P M M A"
_symmetry_group_IT_number 51
_symmetry_cell_setting 'orthorhombic'
loop_
_space_group_symop_operation_xyz
x,y,z
1/2-x,-y,z
1/2+x,-y,-z
-x,y,-z
-x,-y,-z
1/2+x,y,-z
1/2-x,y,z
x,-y,z
loop_
_atom_site_type_symbol
_atom_site_label
_atom_site_fract_x
_atom_site_fract_y
_atom_site_fract_z
Si Si1 0.570273 0.679767 0.763376
Si Si2 0.309270 0.187156 0.833394
Si Si3 0.941755 0.816522 0.526500
Si Si4 0.109561 0.316177 0.677814
Si Si5 0.887457 0.314444 0.991878
Si Si6 0.968645 0.182606 0.151387
O O1 0.573442 0.500000 0.718828
O O2 0.573813 0.794943 0.656649
O O3 0.615311 0.713200 0.856504
O O4 0.517046 0.703411 0.830110
O O5 0.250000 0.240732 0.841796
O O6 0.333282 0.270883 0.722396
O O7 0.315289 0.000000 0.819939
O O8 0.337128 0.241382 0.948547
O O9 0.899117 0.721096 0.453721
O O10 0.000000 0.752742 0.500000
O O11 0.938262 0.000000 0.495089
O O12 0.098839 0.500000 0.702337
O O13 0.069740 0.205314 0.744216
O O14 0.890731 0.500000 0.021632
O O15 0.939450 0.228981 0.036829
O O16 0.986634 0.000000 0.146372
#
# Coordination Sequence:
#
# PCOD8213117 Si02
#       6
#     8   8   8   8   8   8
#     4  11  22  34  50  74 107 146 184 219 263 316
#     4  10  21  38  61  85 108 136 174 223 276 326
#     4  11  22  35  53  77 108 148 188 224 265 317
#     4  11  21  34  55  80 109 143 180 225 270 316
#     4  10  21  35  52  77 107 139 177 221 268 319
#     4  11  20  31  49  74 106 144 182 219 261 312
#
# _framework density 18.569441999999999
#
# number of rings (size 3 to 8) (size 9 to 14) (size 15 to 20)
#    0.000    1.333    1.667    7.500    0.000    6.667 
#    0.000    0.000    0.000    1.000    0.000    4.667 
#    0.000    0.000    0.000    0.000    0.000    0.000 
#
# Total GULP energy -595212.363911 kJ/mol
# GULP energy per Si atom -12400.257581 kJ/mol
# Density = 1.852718 g / cm^3
# Si number density = 18.569442 Si / 1000 Ang^3
#
#
#
# Elastic Constant Matrix: (Units=GPa)
#
#
# Indices 1 2 3 4 5 6 
#
# 1 71.1226 8.4369 44.5012 0.0000 0.0000 0.0000
# 2 8.4369 67.7396 25.2181 0.0000 0.0000 0.0000
# 3 44.5012 25.2181 125.3195 0.0000 0.0000 0.0000
# 4 0.0000 0.0000 0.0000 29.0125 0.0000 0.0000
# 5 0.0000 0.0000 0.0000 0.0000 9.4067 0.0000
# 6 0.0000 0.0000 0.0000 0.0000 0.0000 22.6707
#
#
#
# Elastic Compliance Matrix: (Units=1/GPa)
#
#
# Indices 1 2 3 4 5 6 
#
# 1 0.018078 0.000149 -0.006450 0.000000 0.000000 0.000000
# 2 0.000149 0.015959 -0.003265 0.000000 0.000000 0.000000
# 3 -0.006450 -0.003265 0.010927 0.000000 0.000000 0.000000
# 4 0.000000 0.000000 0.000000 0.034468 0.000000 0.000000
# 5 0.000000 0.000000 0.000000 0.000000 0.106307 0.000000
# 6 0.000000 0.000000 0.000000 0.000000 0.000000 0.044110
#
#
# Mechanical properties :
#
#
# Convention : Reuss Voigt Hill
#
# Bulk Modulus (GPa) = 38.70788 46.72158 42.71473
# Shear Modulus (GPa) = 19.41072 24.61970 22.01521
#
# Velocity S-wave (km/s) = 3.23662 3.64513 3.44693
# Velocity P-wave (km/s) = 5.90405 6.55218 6.23654
#
# Compressibility (1/GPa) = 0.02583453
#
# Stress axis : x y z
#
# Youngs Moduli (GPa) = 55.31589 62.66015 91.51822
#
# Poissons Ratio (x) = -0.00936 0.59026
# Poissons Ratio (y) = -0.00827 0.29876
# Poissons Ratio (z) = 0.35677 0.20456
#
# Static dielectric constant tensor:
#      x y z
#    x 3.252370 0.000000 0.000000 
#    y 0.000000 3.401860 0.000000 
#    z 0.000000 0.000000 3.505800 
# 
# 
# High freq. dielectric constant tensor:
#      x y z
#    x 1.676770 0.000000 0.000000 
#    y 0.000000 1.736130 0.000000 
#    z 0.000000 0.000000 1.725690 
# 
# From -- ./inp_files/19014.got.cif
#   From: 2010.03.12/outbox.cif.g09.slc.cpg/sg51_10_cif.got.tgz:19014.got - 2010.04.16 13:43:02.
