data_PCOD8213858
_publ_section_title
;
Structure prediction by ZEFSAII (Michael W. Deem and Ramdas Pophale) SiO2 
 PCOD8213858
Probable space group: P M M A
;
_chemical_formula_sum "Si O2"
_cell_formula_units_Z 56
_cell_length_a 14.471009
_cell_length_b 9.046020
_cell_length_c 21.801083
_cell_angle_alpha 90.000000
_cell_angle_beta 90.000000
_cell_angle_gamma 90.000000
_cell_volume 2853.871573
_symmetry_space_group_name_H-M "P M M A"
_symmetry_group_IT_number 51
_symmetry_cell_setting 'orthorhombic'
loop_
_space_group_symop_operation_xyz
x,y,z
1/2-x,-y,z
1/2+x,-y,-z
-x,y,-z
-x,-y,-z
1/2+x,y,-z
1/2-x,y,z
x,-y,z
loop_
_atom_site_type_symbol
_atom_site_label
_atom_site_fract_x
_atom_site_fract_y
_atom_site_fract_z
Si Si1 0.140138 0.336298 0.448781
Si Si2 0.858709 0.670141 0.314115
Si Si3 0.357085 0.327207 0.312051
Si Si4 0.497129 0.175175 0.771219
Si Si5 0.647074 0.674546 0.001226
Si Si6 0.139975 0.164814 0.564941
Si Si7 0.498441 0.674927 0.098899
O O1 0.250000 0.341912 0.452365
O O2 0.100742 0.500000 0.461016
O O3 0.111600 0.281418 0.380938
O O4 0.099565 0.228758 0.501117
O O5 0.750000 0.690032 0.306363
O O6 0.889019 0.500000 0.311521
O O7 0.905131 0.757612 0.258683
O O8 0.894199 0.734481 0.378859
O O9 0.250000 0.292714 0.301419
O O10 0.377766 0.500000 0.300947
O O11 0.412635 0.227849 0.264850
O O12 0.504343 0.230801 0.840100
O O13 0.490751 0.000000 0.769873
O O14 0.750000 0.746239 0.001640
O O15 0.655149 0.500000 0.001346
O O16 0.591668 0.721924 0.940294
O O17 0.590496 0.722208 0.061710
O O18 0.250000 0.164233 0.562554
O O19 0.101097 0.000000 0.574102
O O20 0.498270 0.500000 0.113279
#
# Coordination Sequence:
#
# PCOD8213858 Si02
#       7
#     8   8   8   8   8   8   8
#     4   8  14  27  49  75 101 133 177 228 280 332
#     4  10  21  38  59  79 102 140 191 240 282 330
#     4   9  19  37  59  80 105 143 192 240 281 327
#     4  12  25  38  54  80 118 155 185 225 276 332
#     4   8  15  31  58  88 112 137 176 226 268 302
#     4   9  16  27  47  76 108 139 172 219 283 346
#     4   9  18  34  56  82 111 143 183 224 261 312
#
# _framework density 19.622468000000001
#
# number of rings (size 3 to 8) (size 9 to 14) (size 15 to 20)
#    0.000    2.714    0.000    3.857    0.000    4.571 
#    0.000    6.429    0.000    5.143    0.000    0.000 
#    0.000    0.000    0.000    0.000    0.000    0.000 
#
# Total GULP energy -694282.713296 kJ/mol
# GULP energy per Si atom -12397.905595 kJ/mol
# Density = 1.957781 g / cm^3
# Si number density = 19.622468 Si / 1000 Ang^3
#
#
#
# Elastic Constant Matrix: (Units=GPa)
#
#
# Indices 1 2 3 4 5 6 
#
# 1 100.3443 45.8721 61.0371 0.0000 0.0000 0.0000
# 2 45.8721 131.9539 89.0619 0.0000 0.0000 0.0000
# 3 61.0371 89.0619 180.7385 0.0000 0.0000 0.0000
# 4 0.0000 0.0000 0.0000 6.7855 0.0000 0.0000
# 5 0.0000 0.0000 0.0000 0.0000 28.9278 0.0000
# 6 0.0000 0.0000 0.0000 0.0000 0.0000 18.3500
#
#
#
# Elastic Compliance Matrix: (Units=1/GPa)
#
#
# Indices 1 2 3 4 5 6 
#
# 1 0.013004 -0.002332 -0.003242 0.000000 0.000000 0.000000
# 2 -0.002332 0.011773 -0.005014 0.000000 0.000000 0.000000
# 3 -0.003242 -0.005014 0.009098 0.000000 0.000000 0.000000
# 4 0.000000 0.000000 0.000000 0.147374 0.000000 0.000000
# 5 0.000000 0.000000 0.000000 0.000000 0.034569 0.000000
# 6 0.000000 0.000000 0.000000 0.000000 0.000000 0.054496
#
#
# Mechanical properties :
#
#
# Convention : Reuss Voigt Hill
#
# Bulk Modulus (GPa) = 78.74687 89.44208 84.09447
# Shear Modulus (GPa) = 16.90764 25.28371 21.09567
#
# Velocity S-wave (km/s) = 2.93857 3.59347 3.28239
# Velocity P-wave (km/s) = 7.19247 7.93081 7.57065
#
# Compressibility (1/GPa) = 0.01269892
#
# Stress axis : x y z
#
# Youngs Moduli (GPa) = 76.89868 84.93810 109.90858
#
# Poissons Ratio (x) = 0.19810 0.35636
# Poissons Ratio (y) = 0.17935 0.55106
# Poissons Ratio (z) = 0.24933 0.42587
#
# Static dielectric constant tensor:
#      x y z
#    x 3.732940 0.000000 0.000000 
#    y 0.000000 3.448010 0.000000 
#    z 0.000000 0.000000 3.619330 
# 
# 
# High freq. dielectric constant tensor:
#      x y z
#    x 1.762550 0.000000 0.000000 
#    y 0.000000 1.743420 0.000000 
#    z 0.000000 0.000000 1.766300 
# 
# From -- ./inp_files/33334.got.cif
#   From: 2010.03.12/outbox.cif.g09.slc.cpg/sg51_17_cif.got.tgz:33334.got - 2010.04.16 13:43:02.
