data_PCOD8213271
_publ_section_title
;
Structure prediction by ZEFSAII (Michael W. Deem and Ramdas Pophale) SiO2 
 PCOD8213271
Probable space group: P M M A
;
_chemical_formula_sum "Si O2"
_cell_formula_units_Z 64
_cell_length_a 9.011819
_cell_length_b 14.226895
_cell_length_c 25.970538
_cell_angle_alpha 90.000000
_cell_angle_beta 90.000000
_cell_angle_gamma 90.000000
_cell_volume 3329.687940
_symmetry_space_group_name_H-M "P M M A"
_symmetry_group_IT_number 51
_symmetry_cell_setting 'orthorhombic'
loop_
_space_group_symop_operation_xyz
x,y,z
1/2-x,-y,z
1/2+x,-y,-z
-x,y,-z
-x,-y,-z
1/2+x,y,-z
1/2-x,y,z
x,-y,z
loop_
_atom_site_type_symbol
_atom_site_label
_atom_site_fract_x
_atom_site_fract_y
_atom_site_fract_z
Si Si1 0.075459 0.608807 0.688815
Si Si2 0.079135 0.605158 0.892969
Si Si3 0.423131 0.891122 0.553613
Si Si4 0.422627 0.890297 0.847181
Si Si5 0.079080 0.212808 0.948333
Si Si6 0.075468 0.893270 0.255641
Si Si7 0.084424 0.611305 0.207894
Si Si8 0.573841 0.222198 0.644207
O O1 0.250000 0.626494 0.686714
O O2 0.036289 0.500000 0.677815
O O3 0.015373 0.642527 0.744210
O O4 0.992543 0.672274 0.646299
O O5 0.250000 0.604414 0.875587
O O6 0.027379 0.500000 0.908977
O O7 0.054338 0.675028 0.940895
O O8 0.987678 0.647197 0.845011
O O9 0.500000 0.865978 0.500000
O O10 0.250000 0.865596 0.550396
O O11 0.502986 0.829446 0.596150
O O12 0.447331 0.000000 0.567614
O O13 0.250000 0.867302 0.840779
O O14 0.486241 0.840722 0.898493
O O15 0.503950 0.850302 0.796305
O O16 0.455382 0.000000 0.853124
O O17 0.250000 0.186619 0.954884
O O18 0.000000 0.178475 0.000000
O O19 0.250000 0.889969 0.248618
O O20 0.024240 0.832857 0.304446
O O21 0.019496 0.000000 0.264389
O O22 0.250000 0.654008 0.214470
O O23 0.091521 0.500000 0.205212
O O24 0.750000 0.225933 0.637645
#
# Coordination Sequence:
#
# PCOD8213271 Si02
#       8
#     8   8   8   8   8   8   8   8
#     4  10  21  36  53  76 111 154 196 237 282 334
#     4   9  18  33  51  71  98 131 165 205 258 320
#     4  10  21  38  61  89 122 161 203 245 289 338
#     4   9  19  36  55  74  99 131 168 213 264 318
#     4  10  22  37  52  73  96 125 166 214 264 320
#     4   9  19  35  54  80 113 145 177 216 269 331
#     4   9  17  30  49  74 102 133 173 219 267 321
#     4  11  22  35  56  87 120 155 194 240 288 337
#
# _framework density 19.221021
#
# number of rings (size 3 to 8) (size 9 to 14) (size 15 to 20)
#    0.000    2.375    0.000    1.875    1.750    6.000 
#    0.000    1.250    0.000    0.375    0.000    0.000 
#    0.000    0.000    0.000    0.000    0.000    0.000 
#
# Total GULP energy -793645.465021 kJ/mol
# GULP energy per Si atom -12400.710391 kJ/mol
# Density = 1.917727 g / cm^3
# Si number density = 19.221021 Si / 1000 Ang^3
#
#
#
# Elastic Constant Matrix: (Units=GPa)
#
#
# Indices 1 2 3 4 5 6 
#
# 1 88.8567 37.6230 61.7644 0.0000 0.0000 0.0000
# 2 37.6230 63.5576 56.6712 0.0000 0.0000 0.0000
# 3 61.7644 56.6712 137.7902 0.0000 0.0000 0.0000
# 4 0.0000 0.0000 0.0000 29.6184 0.0000 0.0000
# 5 0.0000 0.0000 0.0000 0.0000 36.6760 0.0000
# 6 0.0000 0.0000 0.0000 0.0000 0.0000 23.6104
#
#
#
# Elastic Compliance Matrix: (Units=1/GPa)
#
#
# Indices 1 2 3 4 5 6 
#
# 1 0.017403 -0.005284 -0.005628 0.000000 0.000000 0.000000
# 2 -0.005284 0.026449 -0.008510 0.000000 0.000000 0.000000
# 3 -0.005628 -0.008510 0.013280 0.000000 0.000000 0.000000
# 4 0.000000 0.000000 0.000000 0.033763 0.000000 0.000000
# 5 0.000000 0.000000 0.000000 0.000000 0.027266 0.000000
# 6 0.000000 0.000000 0.000000 0.000000 0.000000 0.042354
#
#
# Mechanical properties :
#
#
# Convention : Reuss Voigt Hill
#
# Bulk Modulus (GPa) = 54.67554 66.92466 60.80010
# Shear Modulus (GPa) = 24.33629 26.92402 25.63016
#
# Velocity S-wave (km/s) = 3.56213 3.74673 3.65560
# Velocity P-wave (km/s) = 6.73987 7.32198 7.03695
#
# Compressibility (1/GPa) = 0.01828971
#
# Stress axis : x y z
#
# Youngs Moduli (GPa) = 57.46064 37.80834 75.30117
#
# Poissons Ratio (x) = 0.19977 0.42378
# Poissons Ratio (y) = 0.30361 0.64079
# Poissons Ratio (z) = 0.32338 0.32174
#
# Static dielectric constant tensor:
#      x y z
#    x 3.570920 0.000000 0.000000 
#    y 0.000000 3.611050 0.000000 
#    z 0.000000 0.000000 3.425960 
# 
# 
# High freq. dielectric constant tensor:
#      x y z
#    x 1.747620 0.000000 0.000000 
#    y 0.000000 1.750430 0.000000 
#    z 0.000000 0.000000 1.731870 
# 
# From -- ./inp_files/34963.got.cif
#   From: 2010.03.12/outbox.cif.g09.slc.cpg/sg51_18_cif.got.tgz:34963.got - 2010.04.16 13:43:02.
