data_PCOD8213497
_publ_section_title
;
Structure prediction by ZEFSAII (Michael W. Deem and Ramdas Pophale) SiO2 
 PCOD8213497
Probable space group: P M M A
;
_chemical_formula_sum "Si O2"
_cell_formula_units_Z 56
_cell_length_a 20.545923
_cell_length_b 9.110345
_cell_length_c 14.894291
_cell_angle_alpha 90.000000
_cell_angle_beta 90.000000
_cell_angle_gamma 90.000000
_cell_volume 2787.920045
_symmetry_space_group_name_H-M "P M M A"
_symmetry_group_IT_number 51
_symmetry_cell_setting 'orthorhombic'
loop_
_space_group_symop_operation_xyz
x,y,z
1/2-x,-y,z
1/2+x,-y,-z
-x,y,-z
-x,-y,-z
1/2+x,y,-z
1/2-x,y,z
x,-y,z
loop_
_atom_site_type_symbol
_atom_site_label
_atom_site_fract_x
_atom_site_fract_y
_atom_site_fract_z
Si Si1 0.250000 0.170099 0.791567
Si Si2 0.594913 0.172132 0.692888
Si Si3 0.614998 0.829262 0.484933
Si Si4 0.963399 0.673053 0.338598
Si Si5 0.131739 0.660634 0.819027
Si Si6 0.750000 0.825322 0.407924
Si Si7 0.825998 0.325239 0.846260
Si Si8 0.430135 0.663978 0.007730
O O1 0.312981 0.223752 0.843585
O O2 0.250000 0.239064 0.692102
O O3 0.250000 0.000000 0.787273
O O4 0.613994 0.198490 0.590227
O O5 0.525982 0.251015 0.705877
O O6 0.649585 0.246041 0.755704
O O7 0.589530 0.000000 0.716093
O O8 0.557006 0.741647 0.434745
O O9 0.685091 0.766534 0.455573
O O10 0.605582 0.000000 0.460402
O O11 0.976194 0.500000 0.349336
O O12 0.906484 0.710812 0.269183
O O13 0.162291 0.500000 0.802228
O O14 0.087344 0.658039 0.904679
O O15 0.750000 0.000000 0.409902
O O16 0.750000 0.281607 0.865028
O O17 0.830774 0.500000 0.834533
O O18 0.873383 0.268047 0.927995
O O19 0.442009 0.500000 0.045939
O O20 0.500000 0.749035 0.000000
#
# Coordination Sequence:
#
# PCOD8213497 Si02
#       8
#     4   8   8   8   8   4   8   8
#     4  11  21  35  57  84 117 156 190 235 289 343
#     4  11  24  39  61  85 114 158 203 244 291 352
#     4  10  21  38  59  83 114 156 203 241 287 352
#     4  11  22  37  59  89 123 153 189 245 300 348
#     4  10  21  36  60  89 117 151 191 236 288 353
#     4   9  18  35  57  78 109 152 192 237 283 337
#     4  10  22  40  62  88 118 154 200 254 305 351
#     4   9  18  36  63  90 116 151 194 240 294 356
#
# _framework density 20.086660999999999
#
# number of rings (size 3 to 8) (size 9 to 14) (size 15 to 20)
#    0.000    1.857    1.429    2.357    2.000    6.000 
#    0.000    1.071    0.000    1.714    0.000    0.000 
#    0.000    0.000    0.000    0.000    0.000    0.000 
#
# Total GULP energy -694078.736983 kJ/mol
# GULP energy per Si atom -12394.263160 kJ/mol
# Density = 2.004094 g / cm^3
# Si number density = 20.086661 Si / 1000 Ang^3
#
#
#
# Elastic Constant Matrix: (Units=GPa)
#
#
# Indices 1 2 3 4 5 6 
#
# 1 150.3112 48.8375 43.2388 0.0000 0.0000 0.0000
# 2 48.8375 65.9682 34.0820 0.0000 0.0000 0.0000
# 3 43.2388 34.0820 83.8656 0.0000 0.0000 0.0000
# 4 0.0000 0.0000 0.0000 21.8407 0.0000 0.0000
# 5 0.0000 0.0000 0.0000 0.0000 30.8624 0.0000
# 6 0.0000 0.0000 0.0000 0.0000 0.0000 27.8635
#
#
#
# Elastic Compliance Matrix: (Units=1/GPa)
#
#
# Indices 1 2 3 4 5 6 
#
# 1 0.009152 -0.005491 -0.002487 0.000000 0.000000 0.000000
# 2 -0.005491 0.022481 -0.006305 0.000000 0.000000 0.000000
# 3 -0.002487 -0.006305 0.015769 0.000000 0.000000 0.000000
# 4 0.000000 0.000000 0.000000 0.045786 0.000000 0.000000
# 5 0.000000 0.000000 0.000000 0.000000 0.032402 0.000000
# 6 0.000000 0.000000 0.000000 0.000000 0.000000 0.035889
#
#
# Mechanical properties :
#
#
# Convention : Reuss Voigt Hill
#
# Bulk Modulus (GPa) = 53.09076 61.38463 57.23770
# Shear Modulus (GPa) = 25.46806 27.71244 26.59025
#
# Velocity S-wave (km/s) = 3.56463 3.71839 3.64232
# Velocity P-wave (km/s) = 6.59017 7.00439 6.80043
#
# Compressibility (1/GPa) = 0.01883567
#
# Stress axis : x y z
#
# Youngs Moduli (GPa) = 109.26190 44.48168 63.41687
#
# Poissons Ratio (x) = 0.24423 0.15774
# Poissons Ratio (y) = 0.59991 0.39986
# Poissons Ratio (z) = 0.27178 0.28047
#
# Static dielectric constant tensor:
#      x y z
#    x 3.919940 0.000000 0.000000 
#    y 0.000000 3.459210 0.000000 
#    z 0.000000 0.000000 3.644300 
# 
# 
# High freq. dielectric constant tensor:
#      x y z
#    x 1.799800 0.000000 0.000000 
#    y 0.000000 1.756190 0.000000 
#    z 0.000000 0.000000 1.788860 
# 
# From -- ./inp_files/25908.got.cif
#   From: 2010.03.12/outbox.cif.g09.slc.cpg/sg51_13_cif.got.tgz:25908.got - 2010.04.16 13:43:02.
