data_PCOD8213965
_publ_section_title
;
Structure prediction by ZEFSAII (Michael W. Deem and Ramdas Pophale) SiO2 
 PCOD8213965
Probable space group: P M M A
;
_chemical_formula_sum "Si O2"
_cell_formula_units_Z 56
_cell_length_a 15.342809
_cell_length_b 18.333206
_cell_length_c 9.800548
_cell_angle_alpha 90.000000
_cell_angle_beta 90.000000
_cell_angle_gamma 90.000000
_cell_volume 2756.726348
_symmetry_space_group_name_H-M "P M M A"
_symmetry_group_IT_number 51
_symmetry_cell_setting 'orthorhombic'
loop_
_space_group_symop_operation_xyz
x,y,z
1/2-x,-y,z
1/2+x,-y,-z
-x,y,-z
-x,-y,-z
1/2+x,y,-z
1/2-x,y,z
x,-y,z
loop_
_atom_site_type_symbol
_atom_site_label
_atom_site_fract_x
_atom_site_fract_y
_atom_site_fract_z
Si Si1 0.094408 0.077457 0.435848
Si Si2 0.102019 0.227036 0.993430
Si Si3 0.498149 0.414239 0.659435
Si Si4 0.653607 0.314579 0.259206
Si Si5 0.152069 0.323022 0.237799
Si Si6 0.604083 0.231087 0.514210
Si Si7 0.849970 0.081504 0.860908
O O1 0.139261 0.148010 0.503662
O O2 0.088896 0.091041 0.272159
O O3 0.000000 0.070381 0.500000
O O4 0.144364 0.000000 0.462677
O O5 0.143991 0.289581 0.087553
O O6 0.129866 0.144195 0.027987
O O7 0.132034 0.247923 0.841701
O O8 0.000000 0.233574 0.000000
O O9 0.500000 0.389397 0.500000
O O10 0.487565 0.500000 0.671602
O O11 0.417756 0.378905 0.742553
O O12 0.587376 0.390325 0.732834
O O13 0.750000 0.347121 0.229936
O O14 0.654716 0.281002 0.409336
O O15 0.250000 0.352526 0.259362
O O16 0.129266 0.255858 0.335077
O O17 0.500000 0.235600 0.500000
O O18 0.750000 0.089608 0.813344
O O19 0.865531 0.000000 0.924565
#
# Coordination Sequence:
#
# PCOD8213965 Si02
#       7
#     8   8   8   8   8   8   8
#     4   9  19  33  56  88 122 161 209 260 313 365
#     4  12  24  41  65  91 126 169 216 263 314 376
#     4  11  24  44  68  99 132 162 203 255 313 378
#     4  12  24  41  63  95 129 165 208 257 319 375
#     4  12  22  40  67  96 125 164 214 256 304 373
#     4  11  19  36  62  89 126 164 210 261 311 366
#     4  10  21  38  60  89 124 166 218 269 316 375
#
# _framework density 20.313950999999999
#
# number of rings (size 3 to 8) (size 9 to 14) (size 15 to 20)
#    0.000    1.000    5.714    1.714    2.000    1.429 
#    0.000    3.571    0.000    2.571    0.000    0.000 
#    0.000    0.000    0.000    0.000    0.000    0.000 
#
# Total GULP energy -694116.337939 kJ/mol
# GULP energy per Si atom -12394.934606 kJ/mol
# Density = 2.026772 g / cm^3
# Si number density = 20.313951 Si / 1000 Ang^3
#
#
#
# Elastic Constant Matrix: (Units=GPa)
#
#
# Indices 1 2 3 4 5 6 
#
# 1 138.9245 41.3482 22.5948 0.0000 0.0000 0.0000
# 2 41.3482 125.9787 29.8969 0.0000 0.0000 0.0000
# 3 22.5948 29.8969 55.2555 0.0000 0.0000 0.0000
# 4 0.0000 0.0000 0.0000 38.3515 0.0000 0.0000
# 5 0.0000 0.0000 0.0000 0.0000 25.9923 0.0000
# 6 0.0000 0.0000 0.0000 0.0000 0.0000 8.3041
#
#
#
# Elastic Compliance Matrix: (Units=1/GPa)
#
#
# Indices 1 2 3 4 5 6 
#
# 1 0.008199 -0.002175 -0.002176 0.000000 0.000000 0.000000
# 2 -0.002175 0.009684 -0.004350 0.000000 0.000000 0.000000
# 3 -0.002176 -0.004350 0.021342 0.000000 0.000000 0.000000
# 4 0.000000 0.000000 0.000000 0.026075 0.000000 0.000000
# 5 0.000000 0.000000 0.000000 0.000000 0.038473 0.000000
# 6 0.000000 0.000000 0.000000 0.000000 0.000000 0.120423
#
#
# Mechanical properties :
#
#
# Convention : Reuss Voigt Hill
#
# Bulk Modulus (GPa) = 45.82481 56.42651 51.12566
# Shear Modulus (GPa) = 20.09066 29.61748 24.85407
#
# Velocity S-wave (km/s) = 3.14826 3.82250 3.50165
# Velocity P-wave (km/s) = 5.98520 6.87892 6.44757
#
# Compressibility (1/GPa) = 0.02182224
#
# Stress axis : x y z
#
# Youngs Moduli (GPa) = 121.96080 103.26241 46.85705
#
# Poissons Ratio (x) = 0.22457 0.10197
# Poissons Ratio (y) = 0.26523 0.20385
# Poissons Ratio (z) = 0.26541 0.44924
#
# Static dielectric constant tensor:
#      x y z
#    x 3.776440 0.000000 0.000000 
#    y 0.000000 3.911530 0.000000 
#    z 0.000000 0.000000 -6.822990 
# 
# 
# High freq. dielectric constant tensor:
#      x y z
#    x 1.793480 0.000000 0.000000 
#    y 0.000000 1.797340 0.000000 
#    z 0.000000 0.000000 1.779880 
# 
# From -- ./inp_files/8543.got.cif
#   From: 2010.03.12/outbox.cif.g09.slc.cpg/sg51_5_cif.got.tgz:8543.got - 2010.04.16 13:43:02.
