data_PCOD8213968
_publ_section_title
;
Structure prediction by ZEFSAII (Michael W. Deem and Ramdas Pophale) SiO2 
 PCOD8213968
Probable space group: P M M A
;
_chemical_formula_sum "Si O2"
_cell_formula_units_Z 40
_cell_length_a 15.679121
_cell_length_b 8.916436
_cell_length_c 14.625487
_cell_angle_alpha 90.000000
_cell_angle_beta 90.000000
_cell_angle_gamma 90.000000
_cell_volume 2044.670563
_symmetry_space_group_name_H-M "P M M A"
_symmetry_group_IT_number 51
_symmetry_cell_setting 'orthorhombic'
loop_
_space_group_symop_operation_xyz
x,y,z
1/2-x,-y,z
1/2+x,-y,-z
-x,y,-z
-x,-y,-z
1/2+x,y,-z
1/2-x,y,z
x,-y,z
loop_
_atom_site_type_symbol
_atom_site_label
_atom_site_fract_x
_atom_site_fract_y
_atom_site_fract_z
Si Si1 0.842862 0.821471 0.214358
Si Si2 0.653889 0.672673 0.783149
Si Si3 0.405158 0.176972 0.596231
Si Si4 0.495097 0.178102 0.104254
Si Si5 0.899368 0.177193 0.603831
O O1 0.750000 0.769767 0.176401
O O2 0.850298 0.761010 0.318771
O O3 0.919568 0.757112 0.152795
O O4 0.849223 0.000000 0.214472
O O5 0.750000 0.692472 0.821407
O O6 0.626657 0.500000 0.780761
O O7 0.589803 0.759546 0.849377
O O8 0.653601 0.736763 0.680409
O O9 0.370685 0.234312 0.497659
O O10 0.502262 0.222706 0.615540
O O11 0.400357 0.000000 0.590661
O O12 0.490764 0.000000 0.112156
O O13 0.500000 0.232183 0.000000
O O14 0.884851 0.000000 0.616506
#
# Coordination Sequence:
#
# PCOD8213968 Si02
#       5
#     8   8   8   8   8
#     4   9  16  28  50  81 112 136 166 217 278 334
#     4  11  24  39  55  79 113 153 191 226 272 329
#     4   8  14  26  49  81 111 139 175 222 275 327
#     4  10  21  38  61  85 107 137 181 233 285 332
#     4   9  16  30  54  81 107 140 185 229 268 322
#
# _framework density 19.563053
#
# number of rings (size 3 to 8) (size 9 to 14) (size 15 to 20)
#    0.000    2.600    2.000    1.800    0.000    3.600 
#    0.000    6.000    0.000    0.600    0.000    0.000 
#    0.000    0.000    0.000    0.000    0.000    0.000 
#
# Total GULP energy -495705.396619 kJ/mol
# GULP energy per Si atom -12392.634915 kJ/mol
# Density = 1.951853 g / cm^3
# Si number density = 19.563053 Si / 1000 Ang^3
#
#
#
# Elastic Constant Matrix: (Units=GPa)
#
#
# Indices 1 2 3 4 5 6 
#
# 1 118.3877 20.4347 70.7083 0.0000 0.0000 0.0000
# 2 20.4347 24.9471 24.7292 0.0000 0.0000 0.0000
# 3 70.7083 24.7292 147.3241 0.0000 0.0000 0.0000
# 4 0.0000 0.0000 0.0000 3.6648 0.0000 0.0000
# 5 0.0000 0.0000 0.0000 0.0000 14.0905 0.0000
# 6 0.0000 0.0000 0.0000 0.0000 0.0000 17.6872
#
#
#
# Elastic Compliance Matrix: (Units=1/GPa)
#
#
# Indices 1 2 3 4 5 6 
#
# 1 0.012357 -0.005090 -0.005077 0.000000 0.000000 0.000000
# 2 -0.005090 0.050182 -0.005980 0.000000 0.000000 0.000000
# 3 -0.005077 -0.005980 0.010228 0.000000 0.000000 0.000000
# 4 0.000000 0.000000 0.000000 0.272866 0.000000 0.000000
# 5 0.000000 0.000000 0.000000 0.000000 0.070970 0.000000
# 6 0.000000 0.000000 0.000000 0.000000 0.000000 0.056538
#
#
# Mechanical properties :
#
#
# Convention : Reuss Voigt Hill
#
# Bulk Modulus (GPa) = 24.70733 58.04480 41.37607
# Shear Modulus (GPa) = 9.63526 18.74093 14.18810
#
# Velocity S-wave (km/s) = 2.22169 3.09848 2.69597
# Velocity P-wave (km/s) = 4.38614 6.52195 5.55761
#
# Compressibility (1/GPa) = 0.04047381
#
# Stress axis : x y z
#
# Youngs Moduli (GPa) = 80.92288 19.92736 97.76969
#
# Poissons Ratio (x) = 0.10143 0.49634
# Poissons Ratio (y) = 0.41190 0.58471
# Poissons Ratio (z) = 0.41081 0.11917
#
# Static dielectric constant tensor:
#      x y z
#    x 3.321660 0.000000 0.000000 
#    y 0.000000 3.022170 0.000000 
#    z 0.000000 0.000000 4.050970 
# 
# 
# High freq. dielectric constant tensor:
#      x y z
#    x 1.765530 0.000000 0.000000 
#    y 0.000000 1.702020 0.000000 
#    z 0.000000 0.000000 1.769550 
# 
# From -- ./inp_files/23682.got.cif
#   From: 2010.03.12/outbox.cif.g09.slc.cpg/sg51_12_cif.got.tgz:23682.got - 2010.04.16 13:43:02.
