data_PCOD8213515
_publ_section_title
;
Structure prediction by ZEFSAII (Michael W. Deem and Ramdas Pophale) SiO2 
 PCOD8213515
Probable space group: P M M A
;
_chemical_formula_sum "Si O2"
_cell_formula_units_Z 64
_cell_length_a 19.078294
_cell_length_b 9.249443
_cell_length_c 21.321054
_cell_angle_alpha 90.000000
_cell_angle_beta 90.000000
_cell_angle_gamma 90.000000
_cell_volume 3762.389793
_symmetry_space_group_name_H-M "P M M A"
_symmetry_group_IT_number 51
_symmetry_cell_setting 'orthorhombic'
loop_
_space_group_symop_operation_xyz
x,y,z
1/2-x,-y,z
1/2+x,-y,-z
-x,y,-z
-x,-y,-z
1/2+x,y,-z
1/2-x,y,z
x,-y,z
loop_
_atom_site_type_symbol
_atom_site_label
_atom_site_fract_x
_atom_site_fract_y
_atom_site_fract_z
Si Si1 0.618842 0.833339 0.270644
Si Si2 0.020607 0.668337 0.305664
Si Si3 0.078998 0.329455 0.984358
Si Si4 0.326626 0.332634 0.622563
Si Si5 0.331269 0.833141 0.085792
Si Si6 0.926229 0.835552 0.138675
Si Si7 0.531046 0.332066 0.437015
Si Si8 0.426460 0.166670 0.199429
O O1 0.548138 0.750055 0.284752
O O2 0.678443 0.755120 0.311712
O O3 0.630298 0.821923 0.195546
O O4 0.612736 0.000000 0.291182
O O5 0.015887 0.500000 0.289347
O O6 0.082589 0.739895 0.263900
O O7 0.025712 0.692089 0.380990
O O8 0.087746 0.500000 0.983177
O O9 0.099889 0.267625 0.916576
O O10 0.131086 0.266784 0.035649
O O11 0.000000 0.281472 0.000000
O O12 0.250000 0.314752 0.589522
O O13 0.341783 0.500000 0.638477
O O14 0.390895 0.270460 0.580123
O O15 0.250000 0.793778 0.086052
O O16 0.360226 0.800781 0.155400
O O17 0.344942 0.000000 0.067999
O O18 0.003564 0.787976 0.161609
O O19 0.929000 0.000000 0.113785
O O20 0.500000 0.256784 0.500000
O O21 0.541987 0.500000 0.450782
O O22 0.431171 0.000000 0.219572
#
# Coordination Sequence:
#
# PCOD8213515 Si02
#       8
#     8   8   8   8   8   8   8   8
#     4   9  17  29  45  68  94 121 154 193 237 282
#     4   9  16  26  45  71  96 123 155 194 238 282
#     4  11  22  33  49  75 101 127 162 204 251 301
#     4   9  17  29  46  69  95 125 162 202 244 289
#     4  10  21  37  55  72  93 127 168 207 251 302
#     4   9  17  30  49  70  92 122 158 199 238 282
#     4   8  14  26  45  69  97 128 162 198 233 276
#     4   9  17  30  49  72  95 120 155 201 246 289
#
# _framework density 17.010465
#
# number of rings (size 3 to 8) (size 9 to 14) (size 15 to 20)
#    0.000    2.750    1.250    2.625    0.000    4.000 
#    0.000    0.625    0.000   10.875    0.000    1.750 
#    0.000    0.000    0.000    0.000    0.000    0.000 
#
# Total GULP energy -793024.026142 kJ/mol
# GULP energy per Si atom -12391.000408 kJ/mol
# Density = 1.697175 g / cm^3
# Si number density = 17.010465 Si / 1000 Ang^3
#
#
#
# Elastic Constant Matrix: (Units=GPa)
#
#
# Indices 1 2 3 4 5 6 
#
# 1 84.2247 31.8632 52.5652 0.0000 0.0000 0.0000
# 2 31.8632 71.8114 52.1577 0.0000 0.0000 0.0000
# 3 52.5652 52.1577 115.2518 0.0000 0.0000 0.0000
# 4 0.0000 0.0000 0.0000 17.1072 0.0000 0.0000
# 5 0.0000 0.0000 0.0000 0.0000 19.4943 0.0000
# 6 0.0000 0.0000 0.0000 0.0000 0.0000 13.6363
#
#
#
# Elastic Compliance Matrix: (Units=1/GPa)
#
#
# Indices 1 2 3 4 5 6 
#
# 1 0.016979 -0.002844 -0.006457 0.000000 0.000000 0.000000
# 2 -0.002844 0.021220 -0.008306 0.000000 0.000000 0.000000
# 3 -0.006457 -0.008306 0.015381 0.000000 0.000000 0.000000
# 4 0.000000 0.000000 0.000000 0.058455 0.000000 0.000000
# 5 0.000000 0.000000 0.000000 0.000000 0.051297 0.000000
# 6 0.000000 0.000000 0.000000 0.000000 0.000000 0.073334
#
#
# Mechanical properties :
#
#
# Convention : Reuss Voigt Hill
#
# Bulk Modulus (GPa) = 54.44968 60.49556 57.47262
# Shear Modulus (GPa) = 17.98558 19.02767 18.50662
#
# Velocity S-wave (km/s) = 3.25518 3.34816 3.30200
# Velocity P-wave (km/s) = 6.79759 7.11251 6.95683
#
# Compressibility (1/GPa) = 0.01836558
#
# Stress axis : x y z
#
# Youngs Moduli (GPa) = 58.89770 47.12508 65.01732
#
# Poissons Ratio (x) = 0.13402 0.41980
# Poissons Ratio (y) = 0.16750 0.54005
# Poissons Ratio (z) = 0.38029 0.39143
#
# Static dielectric constant tensor:
#      x y z
#    x 3.352790 0.000000 0.000000 
#    y 0.000000 3.273640 0.000000 
#    z 0.000000 0.000000 3.626040 
# 
# 
# High freq. dielectric constant tensor:
#      x y z
#    x 1.623680 0.000000 0.000000 
#    y 0.000000 1.650230 0.000000 
#    z 0.000000 0.000000 1.652060 
# 
# From -- ./inp_files/34120.got.cif
#   From: 2010.03.12/outbox.cif.g09.slc.cpg/sg51_18_cif.got.tgz:34120.got - 2010.04.16 13:43:02.
