data_PCOD8213397
_publ_section_title
;
Structure prediction by ZEFSAII (Michael W. Deem and Ramdas Pophale) SiO2 
 PCOD8213397
Probable space group: P M M A
;
_chemical_formula_sum "Si O2"
_cell_formula_units_Z 64
_cell_length_a 17.963215
_cell_length_b 9.055225
_cell_length_c 20.420720
_cell_angle_alpha 90.000000
_cell_angle_beta 90.000000
_cell_angle_gamma 90.000000
_cell_volume 3321.653787
_symmetry_space_group_name_H-M "P M M A"
_symmetry_group_IT_number 51
_symmetry_cell_setting 'orthorhombic'
loop_
_space_group_symop_operation_xyz
x,y,z
1/2-x,-y,z
1/2+x,-y,-z
-x,y,-z
-x,-y,-z
1/2+x,y,-z
1/2-x,y,z
x,-y,z
loop_
_atom_site_type_symbol
_atom_site_label
_atom_site_fract_x
_atom_site_fract_y
_atom_site_fract_z
Si Si1 0.835829 0.328323 0.996431
Si Si2 0.663532 0.672742 0.753579
Si Si3 0.594454 0.827843 0.874806
Si Si4 0.664485 0.828505 0.240914
Si Si5 0.162881 0.832146 0.377357
Si Si6 0.420950 0.171204 0.888677
Si Si7 0.586870 0.169598 0.491255
Si Si8 0.164780 0.326244 0.626650
O O1 0.750000 0.299833 0.013989
O O2 0.852754 0.500000 0.985861
O O3 0.854649 0.245052 0.929770
O O4 0.885795 0.268998 0.054904
O O5 0.750000 0.710260 0.766194
O O6 0.647962 0.500000 0.758528
O O7 0.613342 0.756815 0.805537
O O8 0.638037 0.729130 0.682487
O O9 0.508399 0.798889 0.889926
O O10 0.612973 0.000000 0.871972
O O11 0.750000 0.791930 0.223175
O O12 0.613301 0.778480 0.180486
O O13 0.637500 0.739105 0.304256
O O14 0.653514 0.000000 0.256721
O O15 0.250000 0.823130 0.389247
O O16 0.124713 0.770210 0.442705
O O17 0.137258 0.000000 0.362597
O O18 0.402352 0.000000 0.902450
O O19 0.500000 0.189399 0.500000
O O20 0.613208 0.265247 0.430364
O O21 0.609630 0.000000 0.478724
O O22 0.250000 0.278854 0.613205
O O23 0.155647 0.500000 0.630007
#
# Coordination Sequence:
#
# PCOD8213397 Si02
#       8
#     8   8   8   8   8   8   8   8
#     4  11  24  40  59  84 113 146 185 228 273 323
#     4  10  21  37  57  81 109 142 182 227 274 326
#     4  11  23  38  58  84 114 147 183 225 272 324
#     4   9  18  35  59  82 106 141 183 225 269 320
#     4   9  18  34  56  79 104 139 183 227 271 323
#     4  10  22  39  59  85 114 145 184 227 272 324
#     4  10  21  36  55  80 110 144 183 228 276 327
#     4  10  21  36  55  80 110 144 183 227 273 324
#
# _framework density 19.267510999999999
#
# number of rings (size 3 to 8) (size 9 to 14) (size 15 to 20)
#    0.000    2.000    0.000    3.000    0.000    9.750 
#    0.000    7.500    0.000    0.000    0.000    0.000 
#    0.000    0.000    0.000    0.000    0.000    0.000 
#
# Total GULP energy -793946.184014 kJ/mol
# GULP energy per Si atom -12405.409125 kJ/mol
# Density = 1.922366 g / cm^3
# Si number density = 19.267511 Si / 1000 Ang^3
#
#
#
# Elastic Constant Matrix: (Units=GPa)
#
#
# Indices 1 2 3 4 5 6 
#
# 1 43.8295 32.6296 31.0132 0.0000 0.0000 0.0000
# 2 32.6296 80.7566 49.2818 0.0000 0.0000 0.0000
# 3 31.0132 49.2818 118.8211 0.0000 0.0000 0.0000
# 4 0.0000 0.0000 0.0000 -157.8378 0.0000 0.0000
# 5 0.0000 0.0000 0.0000 0.0000 9.6277 0.0000
# 6 0.0000 0.0000 0.0000 0.0000 0.0000 52.8018
#
#
#
# Elastic Compliance Matrix: (Units=1/GPa)
#
#
# Indices 1 2 3 4 5 6 
#
# 1 0.034180 -0.011201 -0.004275 0.000000 0.000000 0.000000
# 2 -0.011201 0.020250 -0.005475 0.000000 0.000000 0.000000
# 3 -0.004275 -0.005475 0.011803 0.000000 0.000000 0.000000
# 4 0.000000 0.000000 0.000000 -0.006336 0.000000 0.000000
# 5 0.000000 0.000000 0.000000 0.000000 0.103867 0.000000
# 6 0.000000 0.000000 0.000000 0.000000 0.000000 0.018939
#
#
# Mechanical properties :
#
#
# Convention : Reuss Voigt Hill
#
# Bulk Modulus (GPa) = 41.10335 52.13961 46.62148
# Shear Modulus (GPa) = 21.48538 -10.38282 5.55128
#
# Velocity S-wave (km/s) = 3.34295 -2.32389 1.69924
# Velocity P-wave (km/s) = 6.02326 4.46307 5.30088
#
# Compressibility (1/GPa) = 0.02432892
#
# Stress axis : x y z
#
# Youngs Moduli (GPa) = 29.25703 49.38280 84.72565
#
# Poissons Ratio (x) = 0.55315 0.36224
# Poissons Ratio (y) = 0.32771 0.46389
# Poissons Ratio (z) = 0.12509 0.27038
#
# Static dielectric constant tensor:
#      x y z
#    x 3.524950 0.000000 0.000000 
#    y 0.000000 3.530790 0.000000 
#    z 0.000000 0.000000 3.631350 
# 
# 
# High freq. dielectric constant tensor:
#      x y z
#    x 1.748560 0.000000 0.000000 
#    y 0.000000 1.750030 0.000000 
#    z 0.000000 0.000000 1.763410 
# 
# From -- ./inp_files/33809.got.cif
#   From: 2010.03.12/outbox.cif.g09.slc.cpg/sg51_17_cif.got.tgz:33809.got - 2010.04.16 13:43:02.
