data_PCOD8213820
_publ_section_title
;
Structure prediction by ZEFSAII (Michael W. Deem and Ramdas Pophale) SiO2 
 PCOD8213820
Probable space group: P M M A
;
_chemical_formula_sum "Si O2"
_cell_formula_units_Z 48
_cell_length_a 15.814822
_cell_length_b 8.977892
_cell_length_c 16.932897
_cell_angle_alpha 90.000000
_cell_angle_beta 90.000000
_cell_angle_gamma 90.000000
_cell_volume 2404.196450
_symmetry_space_group_name_H-M "P M M A"
_symmetry_group_IT_number 51
_symmetry_cell_setting 'orthorhombic'
loop_
_space_group_symop_operation_xyz
x,y,z
1/2-x,-y,z
1/2+x,-y,-z
-x,y,-z
-x,-y,-z
1/2+x,y,-z
1/2-x,y,z
x,-y,z
loop_
_atom_site_type_symbol
_atom_site_label
_atom_site_fract_x
_atom_site_fract_y
_atom_site_fract_z
Si Si1 0.750000 0.175972 0.264040
Si Si2 0.395790 0.170773 0.850937
Si Si3 0.911823 0.170505 0.837262
Si Si4 0.588203 0.823771 0.537906
Si Si5 0.651547 0.674074 0.990714
Si Si6 0.750000 0.822627 0.440334
Si Si7 0.153076 0.328682 0.312756
O O1 0.666933 0.229471 0.217164
O O2 0.750000 0.245502 0.351918
O O3 0.750000 0.000000 0.272699
O O4 0.489506 0.183942 0.816084
O O5 0.374519 0.000000 0.874639
O O6 0.386294 0.275028 0.926376
O O7 0.896954 0.237375 0.923255
O O8 0.857837 0.259708 0.773570
O O9 0.881726 0.000000 0.836743
O O10 0.500000 0.771620 0.500000
O O11 0.665776 0.764919 0.484405
O O12 0.593603 0.753846 0.624677
O O13 0.591479 0.000000 0.547815
O O14 0.750000 0.713117 0.986863
O O15 0.634407 0.500000 0.979737
O O16 0.750000 0.000000 0.438405
O O17 0.250000 0.308618 0.338838
O O18 0.126486 0.500000 0.308895
#
# Coordination Sequence:
#
# PCOD8213820 Si02
#       7
#     4   8   8   8   8   4   8
#     4   9  18  34  59  86 115 148 187 239 296 349
#     4  10  21  38  61  87 116 152 195 246 298 349
#     4  11  24  38  60  91 118 149 201 252 297 352
#     4  10  21  37  63  94 123 157 202 251 303 361
#     4  11  23  39  59  84 119 160 199 237 291 356
#     4   9  18  34  59  90 121 154 193 245 302 351
#     4  11  24  42  62  86 122 163 202 243 299 361
#
# _framework density 19.965091000000001
#
# number of rings (size 3 to 8) (size 9 to 14) (size 15 to 20)
#    0.000    1.667    1.667    2.500    2.333    7.667 
#    0.000    0.000    0.000    1.000    0.000    0.000 
#    0.000    0.000    0.000    0.000    0.000    0.000 
#
# Total GULP energy -595456.620011 kJ/mol
# GULP energy per Si atom -12405.346250 kJ/mol
# Density = 1.991965 g / cm^3
# Si number density = 19.965091 Si / 1000 Ang^3
#
#
#
# Elastic Constant Matrix: (Units=GPa)
#
#
# Indices 1 2 3 4 5 6 
#
# 1 96.4034 33.4470 31.7401 0.0000 0.0000 0.0000
# 2 33.4470 59.3597 24.7675 0.0000 0.0000 0.0000
# 3 31.7401 24.7675 117.6564 0.0000 0.0000 0.0000
# 4 0.0000 0.0000 0.0000 13.8467 0.0000 0.0000
# 5 0.0000 0.0000 0.0000 0.0000 34.6285 0.0000
# 6 0.0000 0.0000 0.0000 0.0000 0.0000 21.9652
#
#
#
# Elastic Compliance Matrix: (Units=1/GPa)
#
#
# Indices 1 2 3 4 5 6 
#
# 1 0.013403 -0.006625 -0.002221 0.000000 0.000000 0.000000
# 2 -0.006625 0.021744 -0.002790 0.000000 0.000000 0.000000
# 3 -0.002221 -0.002790 0.009686 0.000000 0.000000 0.000000
# 4 0.000000 0.000000 0.000000 0.072219 0.000000 0.000000
# 5 0.000000 0.000000 0.000000 0.000000 0.028878 0.000000
# 6 0.000000 0.000000 0.000000 0.000000 0.000000 0.045526
#
#
# Mechanical properties :
#
#
# Convention : Reuss Voigt Hill
#
# Bulk Modulus (GPa) = 46.38246 50.36985 48.37616
# Shear Modulus (GPa) = 22.53110 26.31907 24.42509
#
# Velocity S-wave (km/s) = 3.36300 3.63472 3.50149
# Velocity P-wave (km/s) = 6.19370 6.54970 6.37419
#
# Compressibility (1/GPa) = 0.02155987
#
# Stress axis : x y z
#
# Youngs Moduli (GPa) = 74.61016 45.99046 103.24411
#
# Poissons Ratio (x) = 0.30470 0.22931
# Poissons Ratio (y) = 0.49432 0.28804
# Poissons Ratio (z) = 0.16571 0.12831
#
# Static dielectric constant tensor:
#      x y z
#    x 3.765130 0.000000 0.000000 
#    y 0.000000 3.447720 0.000000 
#    z 0.000000 0.000000 3.628340 
# 
# 
# High freq. dielectric constant tensor:
#      x y z
#    x 1.790070 0.000000 0.000000 
#    y 0.000000 1.759980 0.000000 
#    z 0.000000 0.000000 1.786590 
# 
# From -- ./inp_files/29524.got.cif
#   From: 2010.03.12/outbox.cif.g09.slc.cpg/sg51_15_cif.got.tgz:29524.got - 2010.04.16 13:43:02.
