data_PCOD8213272
_publ_section_title
;
Structure prediction by ZEFSAII (Michael W. Deem and Ramdas Pophale) SiO2 
 PCOD8213272
Probable space group: P M M A
;
_chemical_formula_sum "Si O2"
_cell_formula_units_Z 48
_cell_length_a 9.028740
_cell_length_b 30.394142
_cell_length_c 9.121221
_cell_angle_alpha 90.000000
_cell_angle_beta 90.000000
_cell_angle_gamma 90.000000
_cell_volume 2503.052815
_symmetry_space_group_name_H-M "P M M A"
_symmetry_group_IT_number 51
_symmetry_cell_setting 'orthorhombic'
loop_
_space_group_symop_operation_xyz
x,y,z
1/2-x,-y,z
1/2+x,-y,-z
-x,y,-z
-x,-y,-z
1/2+x,y,-z
1/2-x,y,z
x,-y,z
loop_
_atom_site_type_symbol
_atom_site_label
_atom_site_fract_x
_atom_site_fract_y
_atom_site_fract_z
Si Si1 0.077903 0.549367 0.853109
Si Si2 0.424739 0.629586 0.656273
Si Si3 0.424391 0.703929 0.154983
Si Si4 0.078323 0.210604 0.346338
Si Si5 0.423472 0.049503 0.350355
Si Si6 0.924638 0.870644 0.845285
O O1 0.250000 0.550023 0.888922
O O2 0.023155 0.500000 0.813425
O O3 0.041356 0.580640 0.715974
O O4 0.000000 0.567033 0.000000
O O5 0.500000 0.635313 0.500000
O O6 0.250000 0.638854 0.642538
O O7 0.497204 0.662977 0.769284
O O8 0.250000 0.694575 0.136171
O O9 0.455542 0.746888 0.250128
O O10 0.500000 0.712140 0.000000
O O11 0.250000 0.204962 0.379269
O O12 0.017687 0.167668 0.262187
O O13 0.000000 0.216306 0.500000
O O14 0.500000 0.064502 0.500000
O O15 0.250000 0.052698 0.378755
O O16 0.472659 0.082275 0.221340
O O17 0.471598 0.000000 0.305584
O O18 0.750000 0.867204 0.868125
O O19 0.000000 0.864342 0.000000
#
# Coordination Sequence:
#
# PCOD8213272 Si02
#       6
#     8   8   8   8   8   8
#     4   9  19  36  57  81 109 142 181 224 270 321
#     4  11  23  38  57  82 113 147 184 226 272 322
#     4  11  23  39  59  83 111 143 181 223 270 322
#     4  10  22  38  57  81 108 140 178 221 267 317
#     4   9  18  33  53  77 105 137 175 219 265 315
#     4  10  21  36  53  77 108 140 177 219 264 315
#
# _framework density 19.176583999999998
#
# number of rings (size 3 to 8) (size 9 to 14) (size 15 to 20)
#    0.000    2.000    0.000    3.000    0.000    7.333 
#    0.000    0.000    0.000    0.000    0.000    0.000 
#    0.000    0.000    0.000    0.000    0.000    0.000 
#
# Total GULP energy -595338.831384 kJ/mol
# GULP energy per Si atom -12402.892320 kJ/mol
# Density = 1.913294 g / cm^3
# Si number density = 19.176584 Si / 1000 Ang^3
#
#
#
# Elastic Constant Matrix: (Units=GPa)
#
#
# Indices 1 2 3 4 5 6 
#
# 1 69.7147 52.6725 65.8010 0.0000 0.0000 0.0000
# 2 52.6725 109.0891 62.3536 0.0000 0.0000 0.0000
# 3 65.8010 62.3536 152.8468 0.0000 0.0000 0.0000
# 4 0.0000 0.0000 0.0000 73.0453 0.0000 0.0000
# 5 0.0000 0.0000 0.0000 0.0000 39.8244 0.0000
# 6 0.0000 0.0000 0.0000 0.0000 0.0000 15.2623
#
#
#
# Elastic Compliance Matrix: (Units=1/GPa)
#
#
# Indices 1 2 3 4 5 6 
#
# 1 0.029929 -0.009241 -0.009115 0.000000 0.000000 0.000000
# 2 -0.009241 0.014808 -0.002062 0.000000 0.000000 0.000000
# 3 -0.009115 -0.002062 0.011308 0.000000 0.000000 0.000000
# 4 0.000000 0.000000 0.000000 0.013690 0.000000 0.000000
# 5 0.000000 0.000000 0.000000 0.000000 0.025110 0.000000
# 6 0.000000 0.000000 0.000000 0.000000 0.000000 0.065521
#
#
# Mechanical properties :
#
#
# Convention : Reuss Voigt Hill
#
# Bulk Modulus (GPa) = 65.75445 77.03388 71.39416
# Shear Modulus (GPa) = 24.23984 35.68130 29.96057
#
# Velocity S-wave (km/s) = 3.55918 4.31823 3.95695
# Velocity P-wave (km/s) = 7.15917 8.06975 7.62806
#
# Compressibility (1/GPa) = 0.01520810
#
# Stress axis : x y z
#
# Youngs Moduli (GPa) = 33.41203 67.53255 88.43487
#
# Poissons Ratio (x) = 0.62408 0.80606
# Poissons Ratio (y) = 0.30877 0.18239
# Poissons Ratio (z) = 0.30454 0.13928
#
# Static dielectric constant tensor:
#      x y z
#    x 3.509540 0.000000 0.000000 
#    y 0.000000 3.905300 0.000000 
#    z 0.000000 0.000000 3.426540 
# 
# 
# High freq. dielectric constant tensor:
#      x y z
#    x 1.744530 0.000000 0.000000 
#    y 0.000000 1.763790 0.000000 
#    z 0.000000 0.000000 1.749270 
# 
# From -- ./inp_files/5964.got.cif
#   From: 2010.03.12/outbox.cif.g09.slc.cpg/sg51_3_cif.got.tgz:5964.got - 2010.04.16 13:43:02.
