data_PCOD8213233
_publ_section_title
;
Structure prediction by ZEFSAII (Michael W. Deem and Ramdas Pophale) SiO2 
 PCOD8213233
Probable space group: P M M A
;
_chemical_formula_sum "Si O2"
_cell_formula_units_Z 48
_cell_length_a 9.156030
_cell_length_b 9.444243
_cell_length_c 30.898261
_cell_angle_alpha 90.000000
_cell_angle_beta 90.000000
_cell_angle_gamma 90.000000
_cell_volume 2671.827388
_symmetry_space_group_name_H-M "P M M A"
_symmetry_group_IT_number 51
_symmetry_cell_setting 'orthorhombic'
loop_
_space_group_symop_operation_xyz
x,y,z
1/2-x,-y,z
1/2+x,-y,-z
-x,y,-z
-x,-y,-z
1/2+x,y,-z
1/2-x,y,z
x,-y,z
loop_
_atom_site_type_symbol
_atom_site_label
_atom_site_fract_x
_atom_site_fract_y
_atom_site_fract_z
Si Si1 0.079352 0.336004 0.873106
Si Si2 0.923321 0.343038 0.287756
Si Si3 0.423980 0.840770 0.790794
Si Si4 0.914641 0.331450 0.958470
Si Si5 0.583276 0.333225 0.384749
Si Si6 0.920384 0.836334 0.543220
O O1 0.250000 0.312583 0.881781
O O2 0.045282 0.500000 0.863402
O O3 0.021983 0.245721 0.832540
O O4 0.994323 0.279404 0.915058
O O5 0.750000 0.351021 0.284137
O O6 0.987284 0.500000 0.278573
O O7 0.987162 0.234105 0.252402
O O8 0.965728 0.292644 0.335990
O O9 0.250000 0.841666 0.789359
O O10 0.486184 0.000000 0.792901
O O11 0.750000 0.272284 0.959008
O O12 0.915385 0.500000 0.960227
O O13 0.000000 0.269747 0.000000
O O14 0.750000 0.285152 0.393262
O O15 0.567780 0.500000 0.392163
O O16 0.475489 0.252394 0.416312
O O17 0.750000 0.809458 0.536903
O O18 0.000000 0.782210 0.500000
O O19 0.956994 0.000000 0.551931
#
# Coordination Sequence:
#
# PCOD8213233 Si02
#       6
#     8   8   8   8   8   8
#     4   9  16  26  42  64  90 120 151 184 225 269
#     4   8  14  26  44  67  96 126 155 190 232 277
#     4   9  16  25  40  65  94 122 154 191 228 267
#     4   9  16  26  42  65  91 116 145 184 227 270
#     4   9  18  32  51  76 103 130 162 201 245 291
#     4  10  21  36  53  73  98 130 167 204 243 289
#
# _framework density 17.965232
#
# number of rings (size 3 to 8) (size 9 to 14) (size 15 to 20)
#    0.000    3.000    0.000    2.500    0.000    6.333 
#    0.000    1.667    0.000    2.000    0.000    2.333 
#    0.000    0.000    0.000    0.000    0.000    0.000 
#
# Total GULP energy -595124.759119 kJ/mol
# GULP energy per Si atom -12398.432482 kJ/mol
# Density = 1.792434 g / cm^3
# Si number density = 17.965232 Si / 1000 Ang^3
#
#
#
# Elastic Constant Matrix: (Units=GPa)
#
#
# Indices 1 2 3 4 5 6 
#
# 1 63.5123 30.4387 57.0086 0.0000 0.0000 0.0000
# 2 30.4387 75.0952 74.0385 0.0000 0.0000 0.0000
# 3 57.0086 74.0385 178.9912 0.0000 0.0000 0.0000
# 4 0.0000 0.0000 0.0000 7.9980 0.0000 0.0000
# 5 0.0000 0.0000 0.0000 0.0000 25.6530 0.0000
# 6 0.0000 0.0000 0.0000 0.0000 0.0000 15.5898
#
#
#
# Elastic Compliance Matrix: (Units=1/GPa)
#
#
# Indices 1 2 3 4 5 6 
#
# 1 0.022575 -0.003481 -0.005750 0.000000 0.000000 0.000000
# 2 -0.003481 0.023024 -0.008415 0.000000 0.000000 0.000000
# 3 -0.005750 -0.008415 0.010899 0.000000 0.000000 0.000000
# 4 0.000000 0.000000 0.000000 0.125031 0.000000 0.000000
# 5 0.000000 0.000000 0.000000 0.000000 0.038982 0.000000
# 6 0.000000 0.000000 0.000000 0.000000 0.000000 0.064145
#
#
# Mechanical properties :
#
#
# Convention : Reuss Voigt Hill
#
# Bulk Modulus (GPa) = 47.15796 71.17447 59.16621
# Shear Modulus (GPa) = 15.28979 20.25569 17.77274
#
# Velocity S-wave (km/s) = 2.92049 3.36146 3.14870
# Velocity P-wave (km/s) = 6.13831 7.40066 6.79885
#
# Compressibility (1/GPa) = 0.02120533
#
# Stress axis : x y z
#
# Youngs Moduli (GPa) = 44.29759 43.43282 91.75109
#
# Poissons Ratio (x) = 0.15120 0.52757
# Poissons Ratio (y) = 0.15421 0.77209
# Poissons Ratio (z) = 0.25471 0.36549
#
# Static dielectric constant tensor:
#      x y z
#    x 3.010810 0.000000 0.000000 
#    y 0.000000 3.221600 0.000000 
#    z 0.000000 0.000000 3.545460 
# 
# 
# High freq. dielectric constant tensor:
#      x y z
#    x 1.658680 0.000000 0.000000 
#    y 0.000000 1.671710 0.000000 
#    z 0.000000 0.000000 1.711890 
# 
# From -- ./inp_files/37058.got.cif
#   From: 2010.03.12/outbox.cif.g09.slc.cpg/sg51_19_cif.got.tgz:37058.got - 2010.04.16 13:43:02.
