data_PCOD8213932
_publ_section_title
;
Structure prediction by ZEFSAII (Michael W. Deem and Ramdas Pophale) SiO2 
 PCOD8213932
Probable space group: P M M A
;
_chemical_formula_sum "Si O2"
_cell_formula_units_Z 64
_cell_length_a 14.731621
_cell_length_b 9.005425
_cell_length_c 24.114041
_cell_angle_alpha 90.000000
_cell_angle_beta 90.000000
_cell_angle_gamma 90.000000
_cell_volume 3199.077386
_symmetry_space_group_name_H-M "P M M A"
_symmetry_group_IT_number 51
_symmetry_cell_setting 'orthorhombic'
loop_
_space_group_symop_operation_xyz
x,y,z
1/2-x,-y,z
1/2+x,-y,-z
-x,y,-z
-x,-y,-z
1/2+x,y,-z
1/2-x,y,z
x,-y,z
loop_
_atom_site_type_symbol
_atom_site_label
_atom_site_fract_x
_atom_site_fract_y
_atom_site_fract_z
Si Si1 0.852355 0.675270 0.901295
Si Si2 0.857522 0.667343 0.487130
Si Si3 0.357839 0.164625 0.990592
Si Si4 0.013518 0.326676 0.316951
Si Si5 0.644848 0.175166 0.375172
Si Si6 0.648094 0.823749 0.130931
Si Si7 0.991667 0.328334 0.810118
Si Si8 0.643213 0.826608 0.597822
O O1 0.750000 0.735938 0.892580
O O2 0.852252 0.500000 0.904221
O O3 0.911970 0.733506 0.849816
O O4 0.894397 0.734064 0.959280
O O5 0.750000 0.663548 0.489044
O O6 0.897053 0.500000 0.484432
O O7 0.889415 0.760057 0.433822
O O8 0.894148 0.749414 0.541891
O O9 0.250000 0.159395 0.990380
O O10 0.387579 0.227397 0.930208
O O11 0.397595 0.000000 0.999981
O O12 0.009520 0.500000 0.332445
O O13 0.092922 0.246753 0.350583
O O14 0.915541 0.252569 0.328128
O O15 0.038171 0.301655 0.252880
O O16 0.750000 0.213931 0.363635
O O17 0.628331 0.000000 0.375391
O O18 0.750000 0.765067 0.141856
O O19 0.584670 0.757411 0.178292
O O20 0.646435 0.000000 0.134102
O O21 0.009926 0.500000 0.822296
O O22 0.750000 0.799279 0.605610
O O23 0.619851 0.000000 0.594603
#
# Coordination Sequence:
#
# PCOD8213932 Si02
#       8
#     8   8   8   8   8   8   8   8
#     4   9  18  34  55  78 106 140 176 217 268 323
#     4   9  17  32  57  88 118 146 179 220 270 331
#     4   8  15  30  52  79 108 136 171 215 265 323
#     4  11  24  40  57  79 109 147 192 235 274 324
#     4  10  21  38  60  85 114 147 182 226 280 331
#     4   9  19  36  57  80 108 142 177 217 268 324
#     4  10  23  39  54  77 107 141 184 230 271 315
#     4  10  21  38  60  86 116 147 181 226 277 327
#
# _framework density 20.005768
#
# number of rings (size 3 to 8) (size 9 to 14) (size 15 to 20)
#    0.000    2.500    0.000    2.250    0.000    7.250 
#    0.000   10.000    0.000    1.500    0.000    0.000 
#    0.000    0.000    0.000    0.000    0.000    0.000 
#
# Total GULP energy -793591.520814 kJ/mol
# GULP energy per Si atom -12399.867513 kJ/mol
# Density = 1.996023 g / cm^3
# Si number density = 20.005768 Si / 1000 Ang^3
#
#
#
# Elastic Constant Matrix: (Units=GPa)
#
#
# Indices 1 2 3 4 5 6 
#
# 1 46.3695 19.1298 10.1667 0.0000 0.0000 0.0000
# 2 19.1298 79.6781 28.7818 0.0000 0.0000 0.0000
# 3 10.1667 28.7818 77.1269 0.0000 0.0000 0.0000
# 4 0.0000 0.0000 0.0000 10.2999 0.0000 0.0000
# 5 0.0000 0.0000 0.0000 0.0000 33.4010 0.0000
# 6 0.0000 0.0000 0.0000 0.0000 0.0000 25.3031
#
#
#
# Elastic Compliance Matrix: (Units=1/GPa)
#
#
# Indices 1 2 3 4 5 6 
#
# 1 0.024028 -0.005345 -0.001173 0.000000 0.000000 0.000000
# 2 -0.005345 0.015695 -0.005152 0.000000 0.000000 0.000000
# 3 -0.001173 -0.005152 0.015043 0.000000 0.000000 0.000000
# 4 0.000000 0.000000 0.000000 0.097088 0.000000 0.000000
# 5 0.000000 0.000000 0.000000 0.000000 0.029939 0.000000
# 6 0.000000 0.000000 0.000000 0.000000 0.000000 0.039521
#
#
# Mechanical properties :
#
#
# Convention : Reuss Voigt Hill
#
# Bulk Modulus (GPa) = 31.82122 35.48124 33.65123
# Shear Modulus (GPa) = 19.59783 23.47388 21.53586
#
# Velocity S-wave (km/s) = 3.13327 3.42914 3.28454
# Velocity P-wave (km/s) = 5.38798 5.78383 5.58941
#
# Compressibility (1/GPa) = 0.03142557
#
# Stress axis : x y z
#
# Youngs Moduli (GPa) = 41.61775 63.71438 66.47632
#
# Poissons Ratio (x) = 0.34058 0.07795
# Poissons Ratio (y) = 0.22246 0.34251
# Poissons Ratio (z) = 0.04880 0.32828
#
# Static dielectric constant tensor:
#      x y z
#    x 3.580470 0.000000 0.000000 
#    y 0.000000 3.642410 0.000000 
#    z 0.000000 0.000000 3.719660 
# 
# 
# High freq. dielectric constant tensor:
#      x y z
#    x 1.777170 0.000000 0.000000 
#    y 0.000000 1.778060 0.000000 
#    z 0.000000 0.000000 1.780200 
# 
# From -- ./inp_files/35863.got.cif
#   From: 2010.03.12/outbox.cif.g09.slc.cpg/sg51_18_cif.got.tgz:35863.got - 2010.04.16 13:43:02.
