data_PCOD8213709
_publ_section_title
;
Structure prediction by ZEFSAII (Michael W. Deem and Ramdas Pophale) SiO2 
 PCOD8213709
Probable space group: P M M A
;
_chemical_formula_sum "Si O2"
_cell_formula_units_Z 48
_cell_length_a 9.086603
_cell_length_b 9.464662
_cell_length_c 29.188599
_cell_angle_alpha 90.000000
_cell_angle_beta 90.000000
_cell_angle_gamma 90.000000
_cell_volume 2510.266978
_symmetry_space_group_name_H-M "P M M A"
_symmetry_group_IT_number 51
_symmetry_cell_setting 'orthorhombic'
loop_
_space_group_symop_operation_xyz
x,y,z
1/2-x,-y,z
1/2+x,-y,-z
-x,y,-z
-x,-y,-z
1/2+x,y,-z
1/2-x,y,z
x,-y,z
loop_
_atom_site_type_symbol
_atom_site_label
_atom_site_fract_x
_atom_site_fract_y
_atom_site_fract_z
Si Si1 0.424403 0.662073 0.866458
Si Si2 0.079109 0.272690 0.605267
Si Si3 0.078900 0.163799 0.212473
Si Si4 0.080212 0.335248 0.303906
Si Si5 0.078000 0.500000 0.451935
Si Si6 0.077371 0.161093 0.953528
Si Si7 0.084750 0.000000 0.547546
O O1 0.250000 0.667149 0.862092
O O2 0.481478 0.500000 0.864606
O O3 0.489331 0.754238 0.825807
O O4 0.476806 0.733880 0.913735
O O5 0.250000 0.320356 0.602333
O O6 0.050004 0.125796 0.581467
O O7 0.028068 0.273351 0.657697
O O8 0.968883 0.368099 0.577312
O O9 0.250000 0.174064 0.200165
O O10 0.044320 0.241944 0.259821
O O11 0.028450 0.000000 0.215507
O O12 0.250000 0.317241 0.319039
O O13 0.045133 0.500000 0.294135
O O14 0.250000 0.500000 0.460979
O O15 0.000000 0.500000 0.500000
O O16 0.250000 0.173627 0.961382
O O17 0.032854 0.000000 0.940706
O O18 0.000000 0.210568 0.000000
O O19 0.000000 0.000000 0.500000
O O20 0.250000 0.000000 0.530136
#
# Coordination Sequence:
#
# PCOD8213709 Si02
#       7
#     8   8   8   8   4   8   4
#     4  10  21  37  57  83 116 154 197 243 293 347
#     4  11  23  40  61  88 120 153 192 238 286 341
#     4  10  22  39  60  87 117 151 193 239 289 348
#     4  10  21  38  59  85 117 151 190 233 284 343
#     4  12  24  40  62  90 120 154 196 238 285 340
#     4   9  18  33  53  78 111 151 195 243 293 347
#     4  10  24  42  60  86 118 152 192 236 283 336
#
# _framework density 19.121471
#
# number of rings (size 3 to 8) (size 9 to 14) (size 15 to 20)
#    0.000    1.833    0.833    2.750    1.167    6.333 
#    0.000    1.667    0.000    0.000    0.000    0.000 
#    0.000    0.000    0.000    0.000    0.000    0.000 
#
# Total GULP energy -595156.336714 kJ/mol
# GULP energy per Si atom -12399.090348 kJ/mol
# Density = 1.907795 g / cm^3
# Si number density = 19.121471 Si / 1000 Ang^3
#
#
#
# Elastic Constant Matrix: (Units=GPa)
#
#
# Indices 1 2 3 4 5 6 
#
# 1 74.8274 51.0785 57.7295 0.0000 0.0000 0.0000
# 2 51.0785 158.2917 85.8364 0.0000 0.0000 0.0000
# 3 57.7295 85.8364 148.9912 0.0000 0.0000 0.0000
# 4 0.0000 0.0000 0.0000 40.8239 0.0000 0.0000
# 5 0.0000 0.0000 0.0000 0.0000 42.2751 0.0000
# 6 0.0000 0.0000 0.0000 0.0000 0.0000 28.1628
#
#
#
# Elastic Compliance Matrix: (Units=1/GPa)
#
#
# Indices 1 2 3 4 5 6 
#
# 1 0.020185 -0.003305 -0.005917 0.000000 0.000000 0.000000
# 2 -0.003305 0.009729 -0.004324 0.000000 0.000000 0.000000
# 3 -0.005917 -0.004324 0.011496 0.000000 0.000000 0.000000
# 4 0.000000 0.000000 0.000000 0.024495 0.000000 0.000000
# 5 0.000000 0.000000 0.000000 0.000000 0.023655 0.000000
# 6 0.000000 0.000000 0.000000 0.000000 0.000000 0.035508
#
#
# Mechanical properties :
#
#
# Convention : Reuss Voigt Hill
#
# Bulk Modulus (GPa) = 69.84669 85.71102 77.77885
# Shear Modulus (GPa) = 31.86075 34.75009 33.30542
#
# Velocity S-wave (km/s) = 4.08638 4.26764 4.17799
# Velocity P-wave (km/s) = 7.67280 8.31899 8.00242
#
# Compressibility (1/GPa) = 0.01431707
#
# Stress axis : x y z
#
# Youngs Moduli (GPa) = 49.54158 102.78685 86.98727
#
# Poissons Ratio (x) = 0.33969 0.51472
# Poissons Ratio (y) = 0.16372 0.37617
# Poissons Ratio (z) = 0.29315 0.44450
#
# Static dielectric constant tensor:
#      x y z
#    x 3.477530 0.000000 0.000000 
#    y 0.000000 3.724860 0.000000 
#    z 0.000000 0.000000 4.009360 
# 
# 
# High freq. dielectric constant tensor:
#      x y z
#    x 1.739780 0.000000 0.000000 
#    y 0.000000 1.756980 0.000000 
#    z 0.000000 0.000000 1.755710 
# 
# From -- ./inp_files/37185.got.cif
#   From: 2010.03.12/outbox.cif.g09.slc.cpg/sg51_19_cif.got.tgz:37185.got - 2010.04.16 13:43:02.
