data_PCOD8213697
_publ_section_title
;
Structure prediction by ZEFSAII (Michael W. Deem and Ramdas Pophale) SiO2 
 PCOD8213697
Probable space group: P M M A
;
_chemical_formula_sum "Si O2"
_cell_formula_units_Z 40
_cell_length_a 16.078278
_cell_length_b 9.095119
_cell_length_c 13.779618
_cell_angle_alpha 90.000000
_cell_angle_beta 90.000000
_cell_angle_gamma 90.000000
_cell_volume 2015.046615
_symmetry_space_group_name_H-M "P M M A"
_symmetry_group_IT_number 51
_symmetry_cell_setting 'orthorhombic'
loop_
_space_group_symop_operation_xyz
x,y,z
1/2-x,-y,z
1/2+x,-y,-z
-x,y,-z
-x,-y,-z
1/2+x,y,-z
1/2-x,y,z
x,-y,z
loop_
_atom_site_type_symbol
_atom_site_label
_atom_site_fract_x
_atom_site_fract_y
_atom_site_fract_z
Si Si1 0.250000 0.174144 0.746016
Si Si2 0.086828 0.327973 0.050499
Si Si3 0.750000 0.175729 0.033993
Si Si4 0.091483 0.826804 0.630578
Si Si5 0.444318 0.333406 0.271963
Si Si6 0.157220 0.331620 0.455787
O O1 0.250000 0.231985 0.855531
O O2 0.330007 0.234922 0.690037
O O3 0.250000 0.000000 0.746035
O O4 0.102777 0.500000 0.031040
O O5 0.082157 0.290964 0.164036
O O6 0.165474 0.237314 0.012419
O O7 0.000000 0.278184 0.000000
O O8 0.750000 0.000000 0.024320
O O9 0.093000 0.758518 0.522642
O O10 0.012409 0.779801 0.691541
O O11 0.091919 0.000000 0.618865
O O12 0.479466 0.500000 0.275253
O O13 0.365374 0.316291 0.342572
O O14 0.250000 0.268013 0.468936
O O15 0.152195 0.500000 0.489003
#
# Coordination Sequence:
#
# PCOD8213697 Si02
#       6
#     4   8   4   8   8   8
#     4   9  20  37  56  81 114 152 189 233 292 349
#     4  10  22  41  64  91 122 158 204 257 304 351
#     4  11  23  39  62  89 120 160 201 247 306 369
#     4  11  21  37  59  84 116 152 191 240 291 342
#     4  10  22  38  59  84 117 154 193 238 291 349
#     4  10  21  37  57  82 113 153 194 233 284 349
#
# _framework density 19.850656000000001
#
# number of rings (size 3 to 8) (size 9 to 14) (size 15 to 20)
#    0.000    1.800    1.000    2.700    1.400    4.400 
#    0.000    3.000    0.000    0.000    0.000    0.000 
#    0.000    0.000    0.000    0.000    0.000    0.000 
#
# Total GULP energy -496066.754352 kJ/mol
# GULP energy per Si atom -12401.668859 kJ/mol
# Density = 1.980548 g / cm^3
# Si number density = 19.850656 Si / 1000 Ang^3
#
#
#
# Elastic Constant Matrix: (Units=GPa)
#
#
# Indices 1 2 3 4 5 6 
#
# 1 110.2700 46.7912 41.9510 0.0000 0.0000 0.0000
# 2 46.7912 72.9914 46.6549 0.0000 0.0000 0.0000
# 3 41.9510 46.6549 148.7625 0.0000 0.0000 0.0000
# 4 0.0000 0.0000 0.0000 24.5093 0.0000 0.0000
# 5 0.0000 0.0000 0.0000 0.0000 29.3202 0.0000
# 6 0.0000 0.0000 0.0000 0.0000 0.0000 34.0863
#
#
#
# Elastic Compliance Matrix: (Units=1/GPa)
#
#
# Indices 1 2 3 4 5 6 
#
# 1 0.012649 -0.007290 -0.001281 0.000000 0.000000 0.000000
# 2 -0.007290 0.021337 -0.004636 0.000000 0.000000 0.000000
# 3 -0.001281 -0.004636 0.008537 0.000000 0.000000 0.000000
# 4 0.000000 0.000000 0.000000 0.040801 0.000000 0.000000
# 5 0.000000 0.000000 0.000000 0.000000 0.034106 0.000000
# 6 0.000000 0.000000 0.000000 0.000000 0.000000 0.029337
#
#
# Mechanical properties :
#
#
# Convention : Reuss Voigt Hill
#
# Bulk Modulus (GPa) = 62.07426 66.97978 64.52702
# Shear Modulus (GPa) = 28.00316 30.69162 29.34739
#
# Velocity S-wave (km/s) = 3.75999 3.93635 3.84918
# Velocity P-wave (km/s) = 7.08439 7.38071 7.23407
#
# Compressibility (1/GPa) = 0.01610974
#
# Stress axis : x y z
#
# Youngs Moduli (GPa) = 79.05509 46.86737 117.13475
#
# Poissons Ratio (x) = 0.34168 0.15002
# Poissons Ratio (y) = 0.57633 0.54301
# Poissons Ratio (z) = 0.10125 0.21727
#
# Static dielectric constant tensor:
#      x y z
#    x 3.690610 0.000000 0.000000 
#    y 0.000000 3.423510 0.000000 
#    z 0.000000 0.000000 3.811080 
# 
# 
# High freq. dielectric constant tensor:
#      x y z
#    x 1.781390 0.000000 0.000000 
#    y 0.000000 1.760040 0.000000 
#    z 0.000000 0.000000 1.789610 
# 
# From -- ./inp_files/23730.got.cif
#   From: 2010.03.12/outbox.cif.g09.slc.cpg/sg51_12_cif.got.tgz:23730.got - 2010.04.16 13:43:02.
