data_PCOD8213689
_publ_section_title
;
Structure prediction by ZEFSAII (Michael W. Deem and Ramdas Pophale) SiO2 
 PCOD8213689
Probable space group: P M M A
;
_chemical_formula_sum "Si O2"
_cell_formula_units_Z 48
_cell_length_a 9.283187
_cell_length_b 8.863673
_cell_length_c 30.781383
_cell_angle_alpha 90.000000
_cell_angle_beta 90.000000
_cell_angle_gamma 90.000000
_cell_volume 2532.788661
_symmetry_space_group_name_H-M "P M M A"
_symmetry_group_IT_number 51
_symmetry_cell_setting 'orthorhombic'
loop_
_space_group_symop_operation_xyz
x,y,z
1/2-x,-y,z
1/2+x,-y,-z
-x,y,-z
-x,-y,-z
1/2+x,y,-z
1/2-x,y,z
x,-y,z
loop_
_atom_site_type_symbol
_atom_site_label
_atom_site_fract_x
_atom_site_fract_y
_atom_site_fract_z
Si Si1 0.917357 0.673034 0.542148
Si Si2 0.583291 0.823417 0.787582
Si Si3 0.091830 0.678573 0.960831
Si Si4 0.584413 0.177156 0.631145
Si Si5 0.580369 0.325577 0.135952
Si Si6 0.085011 0.678300 0.708787
O O1 0.750000 0.690642 0.532171
O O2 0.959484 0.500000 0.551928
O O3 0.963968 0.772941 0.583183
O O4 0.000000 0.734821 0.500000
O O5 0.750000 0.775243 0.788299
O O6 0.511164 0.781339 0.833129
O O7 0.504045 0.735849 0.749555
O O8 0.566140 0.000000 0.779107
O O9 0.250000 0.749871 0.964791
O O10 0.101200 0.500000 0.966397
O O11 0.029037 0.714895 0.913040
O O12 0.000000 0.751030 0.000000
O O13 0.750000 0.225240 0.639908
O O14 0.481404 0.258633 0.664799
O O15 0.564589 0.000000 0.636110
O O16 0.750000 0.293780 0.141640
O O17 0.547632 0.500000 0.146862
O O18 0.250000 0.732926 0.712983
O O19 0.075332 0.500000 0.707609
#
# Coordination Sequence:
#
# PCOD8213689 Si02
#       6
#     8   8   8   8   8   8
#     4   9  18  33  53  77 107 144 184 225 267 310
#     4  11  24  39  55  78 107 138 174 216 262 314
#     4   8  14  25  43  70 103 135 168 210 258 306
#     4  10  21  37  57  82 112 145 181 220 264 316
#     4   9  18  33  53  78 107 138 175 218 262 311
#     4  11  24  40  59  83 108 136 174 218 263 315
#
# _framework density 18.951443999999999
#
# number of rings (size 3 to 8) (size 9 to 14) (size 15 to 20)
#    0.000    2.333    0.000    3.500    0.000    9.667 
#    0.000    3.333    0.000    0.500    0.000    0.000 
#    0.000    0.000    0.000    0.000    0.000    0.000 
#
# Total GULP energy -595224.110514 kJ/mol
# GULP energy per Si atom -12400.502302 kJ/mol
# Density = 1.890831 g / cm^3
# Si number density = 18.951444 Si / 1000 Ang^3
#
#
#
# Elastic Constant Matrix: (Units=GPa)
#
#
# Indices 1 2 3 4 5 6 
#
# 1 95.8384 39.7145 75.0409 0.0000 0.0000 0.0000
# 2 39.7145 49.7427 36.5622 0.0000 0.0000 0.0000
# 3 75.0409 36.5622 146.4533 0.0000 0.0000 0.0000
# 4 0.0000 0.0000 0.0000 -26.2961 0.0000 0.0000
# 5 0.0000 0.0000 0.0000 0.0000 42.1090 0.0000
# 6 0.0000 0.0000 0.0000 0.0000 0.0000 24.4039
#
#
#
# Elastic Compliance Matrix: (Units=1/GPa)
#
#
# Indices 1 2 3 4 5 6 
#
# 1 0.021482 -0.011097 -0.008237 0.000000 0.000000 0.000000
# 2 -0.011097 0.030354 -0.001892 0.000000 0.000000 0.000000
# 3 -0.008237 -0.001892 0.011521 0.000000 0.000000 0.000000
# 4 0.000000 0.000000 0.000000 -0.038029 0.000000 0.000000
# 5 0.000000 0.000000 0.000000 0.000000 0.023748 0.000000
# 6 0.000000 0.000000 0.000000 0.000000 0.000000 0.040977
#
#
# Mechanical properties :
#
#
# Convention : Reuss Voigt Hill
#
# Bulk Modulus (GPa) = 47.83447 66.07442 56.95444
# Shear Modulus (GPa) = 35.84926 17.42449 26.63687
#
# Velocity S-wave (km/s) = 4.35401 3.03550 3.75311
# Velocity P-wave (km/s) = 7.11139 6.87215 6.99280
#
# Compressibility (1/GPa) = 0.02090543
#
# Stress axis : x y z
#
# Youngs Moduli (GPa) = 46.55055 32.94476 86.79918
#
# Poissons Ratio (x) = 0.36559 0.71494
# Poissons Ratio (y) = 0.51657 0.16422
# Poissons Ratio (z) = 0.38343 0.06233
#
# Static dielectric constant tensor:
#      x y z
#    x 3.650690 0.000000 0.000000 
#    y 0.000000 3.281480 0.000000 
#    z 0.000000 0.000000 3.692980 
# 
# 
# High freq. dielectric constant tensor:
#      x y z
#    x 1.735830 0.000000 0.000000 
#    y 0.000000 1.717550 0.000000 
#    z 0.000000 0.000000 1.753460 
# 
# From -- ./inp_files/36955.got.cif
#   From: 2010.03.12/outbox.cif.g09.slc.cpg/sg51_19_cif.got.tgz:36955.got - 2010.04.16 13:43:02.
