data_PCOD8213746
_publ_section_title
;
Structure prediction by ZEFSAII (Michael W. Deem and Ramdas Pophale) SiO2 
 PCOD8213746
Probable space group: P M M A
;
_chemical_formula_sum "Si O2"
_cell_formula_units_Z 40
_cell_length_a 28.401354
_cell_length_b 9.408590
_cell_length_c 7.714446
_cell_angle_alpha 90.000000
_cell_angle_beta 90.000000
_cell_angle_gamma 90.000000
_cell_volume 2061.428766
_symmetry_space_group_name_H-M "P M M A"
_symmetry_group_IT_number 51
_symmetry_cell_setting 'orthorhombic'
loop_
_space_group_symop_operation_xyz
x,y,z
1/2-x,-y,z
1/2+x,-y,-z
-x,y,-z
-x,-y,-z
1/2+x,y,-z
1/2-x,y,z
x,-y,z
loop_
_atom_site_type_symbol
_atom_site_label
_atom_site_fract_x
_atom_site_fract_y
_atom_site_fract_z
Si Si1 0.396714 0.335846 0.645868
Si Si2 0.601746 0.834371 0.686789
Si Si3 0.802178 0.162737 0.846304
Si Si4 0.555462 0.337126 0.994591
Si Si5 0.802147 0.663587 0.185630
O O1 0.406339 0.500000 0.599816
O O2 0.415897 0.240397 0.488849
O O3 0.340882 0.305116 0.667967
O O4 0.424002 0.291391 0.819492
O O5 0.658184 0.809749 0.701519
O O6 0.575807 0.766214 0.849779
O O7 0.588703 0.000000 0.678818
O O8 0.750000 0.204707 0.774970
O O9 0.802907 0.000000 0.906128
O O10 0.815693 0.251947 0.014226
O O11 0.569721 0.500000 0.952461
O O12 0.500000 0.318028 0.000000
O O13 0.750000 0.705923 0.254964
O O14 0.804055 0.500000 0.130450
#
# Coordination Sequence:
#
# PCOD8213746 Si02
#       5
#     8   8   8   8   8
#     4  10  21  37  58  84 115 149 186 231 282 339
#     4  11  23  37  58  87 118 151 188 233 282 337
#     4   9  18  33  53  79 113 152 189 224 270 330
#     4  10  22  42  65  85 109 146 191 239 292 346
#     4   9  17  31  54  83 112 145 188 235 280 326
#
# _framework density 19.404017
#
# number of rings (size 3 to 8) (size 9 to 14) (size 15 to 20)
#    0.000    2.200    2.000    0.600    0.000    4.400 
#    0.000    4.000    0.000    0.000    0.000    0.000 
#    0.000    0.000    0.000    0.000    0.000    0.000 
#
# Total GULP energy -495956.897368 kJ/mol
# GULP energy per Si atom -12398.922434 kJ/mol
# Density = 1.935985 g / cm^3
# Si number density = 19.404017 Si / 1000 Ang^3
#
#
#
# Elastic Constant Matrix: (Units=GPa)
#
#
# Indices 1 2 3 4 5 6 
#
# 1 78.5449 41.0830 48.2333 0.0000 0.0000 0.0000
# 2 41.0830 93.2381 79.2817 0.0000 0.0000 0.0000
# 3 48.2333 79.2817 139.3464 0.0000 0.0000 0.0000
# 4 0.0000 0.0000 0.0000 -60.7486 0.0000 0.0000
# 5 0.0000 0.0000 0.0000 0.0000 11.4323 0.0000
# 6 0.0000 0.0000 0.0000 0.0000 0.0000 21.8696
#
#
#
# Elastic Compliance Matrix: (Units=1/GPa)
#
#
# Indices 1 2 3 4 5 6 
#
# 1 0.017246 -0.004888 -0.003189 0.000000 0.000000 0.000000
# 2 -0.004888 0.022162 -0.010917 0.000000 0.000000 0.000000
# 3 -0.003189 -0.010917 0.014492 0.000000 0.000000 0.000000
# 4 0.000000 0.000000 0.000000 -0.016461 0.000000 0.000000
# 5 0.000000 0.000000 0.000000 0.000000 0.087471 0.000000
# 6 0.000000 0.000000 0.000000 0.000000 0.000000 0.045726
#
#
# Mechanical properties :
#
#
# Convention : Reuss Voigt Hill
#
# Bulk Modulus (GPa) = 62.84445 72.03613 67.44029
# Shear Modulus (GPa) = 23.37245 4.01275 13.69260
#
# Velocity S-wave (km/s) = 3.47438 1.43961 2.65930
# Velocity P-wave (km/s) = 6.96798 6.32205 6.65286
#
# Compressibility (1/GPa) = 0.01591230
#
# Stress axis : x y z
#
# Youngs Moduli (GPa) = 57.98369 45.12221 69.00562
#
# Poissons Ratio (x) = 0.22054 0.22004
# Poissons Ratio (y) = 0.28341 0.75336
# Poissons Ratio (z) = 0.18489 0.49262
#
# Static dielectric constant tensor:
#      x y z
#    x 3.799820 0.000000 0.000000 
#    y 0.000000 3.603460 0.000000 
#    z 0.000000 0.000000 3.243170 
# 
# 
# High freq. dielectric constant tensor:
#      x y z
#    x 1.763660 0.000000 0.000000 
#    y 0.000000 1.753440 0.000000 
#    z 0.000000 0.000000 1.737330 
# 
# From -- ./inp_files/3403.got.cif
#   From: 2010.03.12/outbox.cif.g09.slc.cpg/sg51_2_cif.got.tgz:3403.got - 2010.04.16 13:43:02.
