data_PCOD8213564
_publ_section_title
;
Structure prediction by ZEFSAII (Michael W. Deem and Ramdas Pophale) SiO2 
 PCOD8213564
Probable space group: P M M A
;
_chemical_formula_sum "Si O2"
_cell_formula_units_Z 64
_cell_length_a 9.068529
_cell_length_b 14.148884
_cell_length_c 30.969468
_cell_angle_alpha 90.000000
_cell_angle_beta 90.000000
_cell_angle_gamma 90.000000
_cell_volume 3973.678963
_symmetry_space_group_name_H-M "P M M A"
_symmetry_group_IT_number 51
_symmetry_cell_setting 'orthorhombic'
loop_
_space_group_symop_operation_xyz
x,y,z
1/2-x,-y,z
1/2+x,-y,-z
-x,y,-z
-x,-y,-z
1/2+x,y,-z
1/2-x,y,z
x,-y,z
loop_
_atom_site_type_symbol
_atom_site_label
_atom_site_fract_x
_atom_site_fract_y
_atom_site_fract_z
Si Si1 0.574915 0.106018 0.205977
Si Si2 0.424684 0.781083 0.710798
Si Si3 0.422291 0.109123 0.044752
Si Si4 0.920426 0.607505 0.845071
Si Si5 0.924924 0.217448 0.121573
Si Si6 0.420004 0.392645 0.254702
Si Si7 0.075189 0.108082 0.364399
Si Si8 0.411737 0.888114 0.459940
O O1 0.750000 0.103678 0.206658
O O2 0.515339 0.158526 0.248549
O O3 0.519387 0.160562 0.163628
O O4 0.509923 0.000000 0.205282
O O5 0.250000 0.783633 0.707801
O O6 0.478189 0.673605 0.715940
O O7 0.490963 0.822818 0.667361
O O8 0.250000 0.132829 0.041030
O O9 0.496854 0.173349 0.080537
O O10 0.448826 0.000000 0.057000
O O11 0.500000 0.134407 0.000000
O O12 0.750000 0.635093 0.851947
O O13 0.948316 0.500000 0.860026
O O14 0.964987 0.619300 0.795168
O O15 0.024174 0.674140 0.873869
O O16 0.750000 0.212221 0.115673
O O17 0.250000 0.364725 0.261341
O O18 0.447871 0.500000 0.269618
O O19 0.250000 0.122342 0.360735
O O20 0.019624 0.134379 0.412836
O O21 0.033167 0.000000 0.353316
O O22 0.500000 0.842690 0.500000
O O23 0.250000 0.843054 0.462382
O O24 0.401715 0.000000 0.465422
#
# Coordination Sequence:
#
# PCOD8213564 Si02
#       8
#     8   8   8   8   8   8   8   8
#     4   9  18  30  42  62  95 130 160 191 229 272
#     4  11  20  30  45  67  95 127 161 200 240 280
#     4  10  21  37  56  78 103 131 164 200 238 283
#     4   9  18  33  52  73  98 127 160 200 242 285
#     4  11  20  32  52  76 102 131 161 199 242 283
#     4   9  18  33  51  68  90 123 160 199 243 288
#     4   9  18  31  44  61  90 129 166 198 236 285
#     4   8  14  25  41  60  83 113 153 199 242 281
#
# _framework density 16.105982000000001
#
# number of rings (size 3 to 8) (size 9 to 14) (size 15 to 20)
#    0.000    2.500    1.250    3.375    0.000    3.000 
#    0.000    2.500    0.000    3.375    0.000    0.000 
#    0.000    0.500    0.000    1.625    0.000    2.000 
#
# Total GULP energy -793534.391096 kJ/mol
# GULP energy per Si atom -12398.974861 kJ/mol
# Density = 1.606932 g / cm^3
# Si number density = 16.105982 Si / 1000 Ang^3
#
#
#
# Elastic Constant Matrix: (Units=GPa)
#
#
# Indices 1 2 3 4 5 6 
#
# 1 66.6003 41.3165 51.4963 0.0000 0.0000 0.0000
# 2 41.3165 91.5642 56.4202 0.0000 0.0000 0.0000
# 3 51.4963 56.4202 117.2508 0.0000 0.0000 0.0000
# 4 0.0000 0.0000 0.0000 12.4452 0.0000 0.0000
# 5 0.0000 0.0000 0.0000 0.0000 26.3205 0.0000
# 6 0.0000 0.0000 0.0000 0.0000 0.0000 24.8242
#
#
#
# Elastic Compliance Matrix: (Units=1/GPa)
#
#
# Indices 1 2 3 4 5 6 
#
# 1 0.025165 -0.006460 -0.007944 0.000000 0.000000 0.000000
# 2 -0.006460 0.017183 -0.005431 0.000000 0.000000 0.000000
# 3 -0.007944 -0.005431 0.014631 0.000000 0.000000 0.000000
# 4 0.000000 0.000000 0.000000 0.080352 0.000000 0.000000
# 5 0.000000 0.000000 0.000000 0.000000 0.037993 0.000000
# 6 0.000000 0.000000 0.000000 0.000000 0.000000 0.040283
#
#
# Mechanical properties :
#
#
# Convention : Reuss Voigt Hill
#
# Bulk Modulus (GPa) = 57.77433 63.76459 60.76946
# Shear Modulus (GPa) = 19.15367 21.13015 20.14191
#
# Velocity S-wave (km/s) = 3.45226 3.62601 3.54020
# Velocity P-wave (km/s) = 7.20000 7.56354 7.38401
#
# Compressibility (1/GPa) = 0.01730872
#
# Stress axis : x y z
#
# Youngs Moduli (GPa) = 39.73787 58.19772 68.34873
#
# Poissons Ratio (x) = 0.37598 0.54294
# Poissons Ratio (y) = 0.25672 0.37119
# Poissons Ratio (z) = 0.31566 0.31606
#
# Static dielectric constant tensor:
#      x y z
#    x 3.009120 0.000000 0.000000 
#    y 0.000000 2.934590 0.000000 
#    z 0.000000 0.000000 3.062230 
# 
# 
# High freq. dielectric constant tensor:
#      x y z
#    x 1.615420 0.000000 0.000000 
#    y 0.000000 1.599720 0.000000 
#    z 0.000000 0.000000 1.610540 
# 
# From -- ./inp_files/37628.got.cif
#   From: 2010.03.12/outbox.cif.g09.slc.cpg/sg51_19_cif.got.tgz:37628.got - 2010.04.16 13:43:02.
