data_PCOD8213567
_publ_section_title
;
Structure prediction by ZEFSAII (Michael W. Deem and Ramdas Pophale) SiO2 
 PCOD8213567
Probable space group: P M M A
;
_chemical_formula_sum "Si O2"
_cell_formula_units_Z 48
_cell_length_a 15.488200
_cell_length_b 9.105035
_cell_length_c 17.174267
_cell_angle_alpha 90.000000
_cell_angle_beta 90.000000
_cell_angle_gamma 90.000000
_cell_volume 2421.925490
_symmetry_space_group_name_H-M "P M M A"
_symmetry_group_IT_number 51
_symmetry_cell_setting 'orthorhombic'
loop_
_space_group_symop_operation_xyz
x,y,z
1/2-x,-y,z
1/2+x,-y,-z
-x,y,-z
-x,-y,-z
1/2+x,y,-z
1/2-x,y,z
x,-y,z
loop_
_atom_site_type_symbol
_atom_site_label
_atom_site_fract_x
_atom_site_fract_y
_atom_site_fract_z
Si Si1 0.603720 0.827325 0.191720
Si Si2 0.916906 0.663123 0.640289
Si Si3 0.750000 0.173572 0.074964
Si Si4 0.405924 0.827287 0.205536
Si Si5 0.750000 0.825652 0.901694
Si Si6 0.846581 0.164608 0.498642
Si Si7 0.380888 0.663372 0.654782
O O1 0.662038 0.776648 0.118568
O O2 0.502959 0.785243 0.177332
O O3 0.644067 0.744926 0.265714
O O4 0.612649 0.000000 0.207323
O O5 0.875294 0.500000 0.636400
O O6 0.878694 0.750375 0.713730
O O7 0.903491 0.746948 0.559721
O O8 0.017697 0.650832 0.649898
O O9 0.750000 0.000000 0.068055
O O10 0.750000 0.243084 0.988459
O O11 0.337185 0.772113 0.141489
O O12 0.398479 0.000000 0.220279
O O13 0.750000 0.000000 0.905577
O O14 0.750000 0.158416 0.532065
O O15 0.843833 0.243657 0.415952
O O16 0.884411 0.000000 0.489079
O O17 0.339982 0.500000 0.653891
#
# Coordination Sequence:
#
# PCOD8213567 Si02
#       7
#     8   8   4   8   4   8   8
#     4   9  18  33  54  79 108 143 181 223 272 323
#     4  10  21  37  56  78 106 141 181 225 271 319
#     4   9  18  32  53  82 111 138 175 225 274 325
#     4   9  18  33  54  79 108 143 181 223 272 323
#     4   9  18  32  53  82 111 138 175 225 274 325
#     4  11  24  37  52  78 110 143 180 223 268 316
#     4  10  21  37  56  78 106 141 181 225 271 319
#
# _framework density 19.818943000000001
#
# number of rings (size 3 to 8) (size 9 to 14) (size 15 to 20)
#    0.000    2.333    0.000    2.000    2.333    6.000 
#    0.000    3.333    0.000    2.000    0.000    4.667 
#    0.000    0.000    0.000    0.000    0.000    0.000 
#
# Total GULP energy -595128.548888 kJ/mol
# GULP energy per Si atom -12398.511435 kJ/mol
# Density = 1.977383 g / cm^3
# Si number density = 19.818943 Si / 1000 Ang^3
#
#
#
# Elastic Constant Matrix: (Units=GPa)
#
#
# Indices 1 2 3 4 5 6 
#
# 1 78.7945 26.9536 58.4521 0.0000 0.0000 0.0000
# 2 26.9536 95.7354 52.8821 0.0000 0.0000 0.0000
# 3 58.4521 52.8821 157.7387 0.0000 0.0000 0.0000
# 4 0.0000 0.0000 0.0000 -0.0773 0.0000 0.0000
# 5 0.0000 0.0000 0.0000 0.0000 32.1541 0.0000
# 6 0.0000 0.0000 0.0000 0.0000 0.0000 9.3953
#
#
#
# Elastic Compliance Matrix: (Units=1/GPa)
#
#
# Indices 1 2 3 4 5 6 
#
# 1 0.017718 -0.001671 -0.006005 0.000000 0.000000 0.000000
# 2 -0.001671 0.012977 -0.003731 0.000000 0.000000 0.000000
# 3 -0.006005 -0.003731 0.009816 0.000000 0.000000 0.000000
# 4 0.000000 0.000000 0.000000-12.944212 0.000000 0.000000
# 5 0.000000 0.000000 0.000000 0.000000 0.031100 0.000000
# 6 0.000000 0.000000 0.000000 0.000000 0.000000 0.106436
#
#
# Mechanical properties :
#
#
# Convention : Reuss Voigt Hill
#
# Bulk Modulus (GPa) = 56.51241 67.64936 62.08088
# Shear Modulus (GPa) = -0.39254 21.22648 10.41697
#
# Velocity S-wave (km/s) = -0.44553 3.27619 2.29510
# Velocity P-wave (km/s) = 5.32086 6.96556 6.19801
#
# Compressibility (1/GPa) = 0.01769523
#
# Stress axis : x y z
#
# Youngs Moduli (GPa) = 56.44040 77.05911 101.87582
#
# Poissons Ratio (x) = 0.12877 0.61180
# Poissons Ratio (y) = 0.09432 0.38013
# Poissons Ratio (z) = 0.33894 0.28753
#
# Static dielectric constant tensor:
#      x y z
#    x 3.649700 0.000000 0.000000 
#    y 0.000000 3.728270 0.000000 
#    z 0.000000 0.000000 3.751990 
# 
# 
# High freq. dielectric constant tensor:
#      x y z
#    x 1.778180 0.000000 0.000000 
#    y 0.000000 1.756750 0.000000 
#    z 0.000000 0.000000 1.768250 
# 
# From -- ./inp_files/24910.got.cif
#   From: 2010.03.12/outbox.cif.g09.slc.cpg/sg51_13_cif.got.tgz:24910.got - 2010.04.16 13:43:02.
