data_PCOD8213162
_publ_section_title
;
Structure prediction by ZEFSAII (Michael W. Deem and Ramdas Pophale) SiO2 
 PCOD8213162
Probable space group: P M M A
;
_chemical_formula_sum "Si O2"
_cell_formula_units_Z 48
_cell_length_a 17.278171
_cell_length_b 17.916999
_cell_length_c 8.047160
_cell_angle_alpha 90.000000
_cell_angle_beta 90.000000
_cell_angle_gamma 90.000000
_cell_volume 2491.183242
_symmetry_space_group_name_H-M "P M M A"
_symmetry_group_IT_number 51
_symmetry_cell_setting 'orthorhombic'
loop_
_space_group_symop_operation_xyz
x,y,z
1/2-x,-y,z
1/2+x,-y,-z
-x,y,-z
-x,-y,-z
1/2+x,y,-z
1/2-x,y,z
x,-y,z
loop_
_atom_site_type_symbol
_atom_site_label
_atom_site_fract_x
_atom_site_fract_y
_atom_site_fract_z
Si Si1 0.341166 0.169055 0.705171
Si Si2 0.589117 0.088012 0.980310
Si Si3 0.072585 0.307788 0.596148
Si Si4 0.837616 0.583801 0.628533
Si Si5 0.016400 0.584274 0.174685
Si Si6 0.159299 0.914386 0.366721
O O1 0.250000 0.183002 0.705910
O O2 0.386509 0.247200 0.713020
O O3 0.366819 0.128905 0.533056
O O4 0.362350 0.122454 0.868556
O O5 0.617558 0.117687 0.799414
O O6 0.602695 0.000000 0.990005
O O7 0.500000 0.110466 0.000000
O O8 0.139338 0.347434 0.489000
O O9 0.000000 0.269198 0.500000
O O10 0.034554 0.375906 0.690341
O O11 0.750000 0.597134 0.687102
O O12 0.846631 0.500000 0.548437
O O13 0.892136 0.588698 0.789826
O O14 0.985815 0.500000 0.171435
O O15 0.000000 0.624134 0.000000
O O16 0.250000 0.905781 0.336136
O O17 0.135398 0.000000 0.395385
#
# Coordination Sequence:
#
# PCOD8213162 Si02
#       6
#     8   8   8   8   8   8
#     4  11  23  38  58  84 116 153 191 232 285 344
#     4  10  22  38  60  87 114 146 189 240 287 335
#     4  10  21  35  54  80 112 149 184 226 277 333
#     4   9  17  33  57  81 107 142 186 232 274 324
#     4   9  18  35  58  82 109 144 186 229 277 332
#     4   9  19  37  60  83 109 146 191 236 283 335
#
# _framework density 19.267952999999999
#
# number of rings (size 3 to 8) (size 9 to 14) (size 15 to 20)
#    0.000    2.333    0.000    2.000    2.333    4.333 
#    3.000    4.167    0.000    4.000    0.000    0.000 
#    0.000    0.000    0.000    0.000    0.000    0.000 
#
# Total GULP energy -594947.097282 kJ/mol
# GULP energy per Si atom -12394.731193 kJ/mol
# Density = 1.922410 g / cm^3
# Si number density = 19.267953 Si / 1000 Ang^3
#
#
#
# Elastic Constant Matrix: (Units=GPa)
#
#
# Indices 1 2 3 4 5 6 
#
# 1 108.2898 36.8226 42.0984 0.0000 0.0000 0.0000
# 2 36.8226 52.4650 21.1298 0.0000 0.0000 0.0000
# 3 42.0984 21.1298 100.3332 0.0000 0.0000 0.0000
# 4 0.0000 0.0000 0.0000 2.7830 0.0000 0.0000
# 5 0.0000 0.0000 0.0000 0.0000 26.1269 0.0000
# 6 0.0000 0.0000 0.0000 0.0000 0.0000 18.6002
#
#
#
# Elastic Compliance Matrix: (Units=1/GPa)
#
#
# Indices 1 2 3 4 5 6 
#
# 1 0.013450 -0.007831 -0.003994 0.000000 0.000000 0.000000
# 2 -0.007831 0.025387 -0.002060 0.000000 0.000000 0.000000
# 3 -0.003994 -0.002060 0.012077 0.000000 0.000000 0.000000
# 4 0.000000 0.000000 0.000000 0.359323 0.000000 0.000000
# 5 0.000000 0.000000 0.000000 0.000000 0.038275 0.000000
# 6 0.000000 0.000000 0.000000 0.000000 0.000000 0.053763
#
#
# Mechanical properties :
#
#
# Convention : Reuss Voigt Hill
#
# Bulk Modulus (GPa) = 43.21266 51.24330 47.22798
# Shear Modulus (GPa) = 9.29782 20.23783 14.76783
#
# Velocity S-wave (km/s) = 2.19909 3.24441 2.77148
# Velocity P-wave (km/s) = 5.37810 6.37869 5.89965
#
# Compressibility (1/GPa) = 0.02314136
#
# Stress axis : x y z
#
# Youngs Moduli (GPa) = 74.34812 39.39089 82.80446
#
# Poissons Ratio (x) = 0.30849 0.33074
# Poissons Ratio (y) = 0.58225 0.17061
# Poissons Ratio (z) = 0.29697 0.08116
#
# Static dielectric constant tensor:
#      x y z
#    x 3.889540 0.000000 0.000000 
#    y 0.000000 3.418440 0.000000 
#    z 0.000000 0.000000 4.029320 
# 
# 
# High freq. dielectric constant tensor:
#      x y z
#    x 1.757180 0.000000 0.000000 
#    y 0.000000 1.743470 0.000000 
#    z 0.000000 0.000000 1.742880 
# 
# From -- ./inp_files/8207.got.cif
#   From: 2010.03.12/outbox.cif.g09.slc.cpg/sg51_5_cif.got.tgz:8207.got - 2010.04.16 13:43:02.
