data_PCOD8213254
_publ_section_title
;
Structure prediction by ZEFSAII (Michael W. Deem and Ramdas Pophale) SiO2 
 PCOD8213254
Probable space group: P M M A
;
_chemical_formula_sum "Si O2"
_cell_formula_units_Z 56
_cell_length_a 18.313854
_cell_length_b 9.208838
_cell_length_c 18.861551
_cell_angle_alpha 90.000000
_cell_angle_beta 90.000000
_cell_angle_gamma 90.000000
_cell_volume 3180.987649
_symmetry_space_group_name_H-M "P M M A"
_symmetry_group_IT_number 51
_symmetry_cell_setting 'orthorhombic'
loop_
_space_group_symop_operation_xyz
x,y,z
1/2-x,-y,z
1/2+x,-y,-z
-x,y,-z
-x,-y,-z
1/2+x,y,-z
1/2-x,y,z
x,-y,z
loop_
_atom_site_type_symbol
_atom_site_label
_atom_site_fract_x
_atom_site_fract_y
_atom_site_fract_z
Si Si1 0.663797 0.167339 0.576177
Si Si2 0.033172 0.330691 0.076381
Si Si3 0.539765 0.832843 0.200727
Si Si4 0.333262 0.831038 0.698477
Si Si5 0.832758 0.828603 0.867728
Si Si6 0.836841 0.336478 0.439642
Si Si7 0.604844 0.167508 0.721703
O O1 0.750000 0.185156 0.583917
O O2 0.632577 0.254925 0.508908
O O3 0.627272 0.238656 0.646681
O O4 0.641616 0.000000 0.565026
O O5 0.043964 0.500000 0.091380
O O6 0.112031 0.252949 0.079601
O O7 0.976393 0.267391 0.133521
O O8 0.000000 0.299749 0.000000
O O9 0.618573 0.791861 0.232670
O O10 0.480395 0.806279 0.262699
O O11 0.536718 0.000000 0.175524
O O12 0.250000 0.788369 0.716759
O O13 0.364004 0.743439 0.631255
O O14 0.340255 0.000000 0.679234
O O15 0.750000 0.791479 0.889812
O O16 0.847803 0.771396 0.787740
O O17 0.848803 0.000000 0.872599
O O18 0.750000 0.332401 0.441380
O O19 0.867067 0.500000 0.439206
O O20 0.625260 0.000000 0.713733
#
# Coordination Sequence:
#
# PCOD8213254 Si02
#       7
#     8   8   8   8   8   8   8
#     4   9  15  24  41  63  87 118 155 193 232 276
#     4  10  21  36  53  74 103 137 166 193 233 288
#     4   9  18  33  53  74  95 121 156 199 244 291
#     4   9  17  31  51  72  92 117 155 203 250 293
#     4   9  17  31  53  79 103 129 165 206 243 282
#     4   9  17  28  42  62  89 121 157 196 237 282
#     4   8  14  26  45  69  95 122 154 193 237 283
#
# _framework density 17.604593999999999
#
# number of rings (size 3 to 8) (size 9 to 14) (size 15 to 20)
#    0.000    3.000    0.000    2.143    0.000    5.429 
#    0.000    4.286    0.000   10.286    0.000    0.000 
#    0.000    0.000    0.000    0.000    0.000    0.000 
#
# Total GULP energy -694250.542231 kJ/mol
# GULP energy per Si atom -12397.331111 kJ/mol
# Density = 1.756453 g / cm^3
# Si number density = 17.604594 Si / 1000 Ang^3
#
#
#
# Elastic Constant Matrix: (Units=GPa)
#
#
# Indices 1 2 3 4 5 6 
#
# 1 90.4891 45.4032 62.7019 0.0000 0.0000 0.0000
# 2 45.4032 80.0918 62.7733 0.0000 0.0000 0.0000
# 3 62.7019 62.7733 118.7552 0.0000 0.0000 0.0000
# 4 0.0000 0.0000 0.0000 16.2539 0.0000 0.0000
# 5 0.0000 0.0000 0.0000 0.0000 24.0958 0.0000
# 6 0.0000 0.0000 0.0000 0.0000 0.0000 14.5884
#
#
#
# Elastic Compliance Matrix: (Units=1/GPa)
#
#
# Indices 1 2 3 4 5 6 
#
# 1 0.018457 -0.004824 -0.007196 0.000000 0.000000 0.000000
# 2 -0.004824 0.022578 -0.009388 0.000000 0.000000 0.000000
# 3 -0.007196 -0.009388 0.017182 0.000000 0.000000 0.000000
# 4 0.000000 0.000000 0.000000 0.061524 0.000000 0.000000
# 5 0.000000 0.000000 0.000000 0.000000 0.041501 0.000000
# 6 0.000000 0.000000 0.000000 0.000000 0.000000 0.068547
#
#
# Mechanical properties :
#
#
# Convention : Reuss Voigt Hill
#
# Bulk Modulus (GPa) = 64.91994 70.12143 67.52068
# Shear Modulus (GPa) = 18.00259 18.88481 18.44370
#
# Velocity S-wave (km/s) = 3.20129 3.27879 3.24027
# Velocity P-wave (km/s) = 7.11485 7.36558 7.24130
#
# Compressibility (1/GPa) = 0.01540359
#
# Stress axis : x y z
#
# Youngs Moduli (GPa) = 54.17909 44.29111 58.19964
#
# Poissons Ratio (x) = 0.21364 0.41878
# Poissons Ratio (y) = 0.26134 0.54636
# Poissons Ratio (z) = 0.38985 0.41579
#
# Static dielectric constant tensor:
#      x y z
#    x 3.174540 0.000000 0.000000 
#    y 0.000000 3.159840 0.000000 
#    z 0.000000 0.000000 3.260490 
# 
# 
# High freq. dielectric constant tensor:
#      x y z
#    x 1.664530 0.000000 0.000000 
#    y 0.000000 1.662060 0.000000 
#    z 0.000000 0.000000 1.675640 
# 
# From -- ./inp_files/30357.got.cif
#   From: 2010.03.12/outbox.cif.g09.slc.cpg/sg51_16_cif.got.tgz:30357.got - 2010.04.16 13:43:02.
