data_PCOD8213751
_publ_section_title
;
Structure prediction by ZEFSAII (Michael W. Deem and Ramdas Pophale) SiO2 
 PCOD8213751
Probable space group: P M M A
;
_chemical_formula_sum "Si O2"
_cell_formula_units_Z 48
_cell_length_a 28.539175
_cell_length_b 9.235102
_cell_length_c 9.759447
_cell_angle_alpha 90.000000
_cell_angle_beta 90.000000
_cell_angle_gamma 90.000000
_cell_volume 2572.221245
_symmetry_space_group_name_H-M "P M M A"
_symmetry_group_IT_number 51
_symmetry_cell_setting 'orthorhombic'
loop_
_space_group_symop_operation_xyz
x,y,z
1/2-x,-y,z
1/2+x,-y,-z
-x,y,-z
-x,-y,-z
1/2+x,y,-z
1/2-x,y,z
x,-y,z
loop_
_atom_site_type_symbol
_atom_site_label
_atom_site_fract_x
_atom_site_fract_y
_atom_site_fract_z
Si Si1 0.303396 0.665985 0.750209
Si Si2 0.521527 0.662835 0.648989
Si Si3 0.804659 0.830372 0.519313
Si Si4 0.873556 0.331090 0.716255
Si Si5 0.032051 0.169756 0.873545
Si Si6 0.879193 0.332352 0.030311
O O1 0.250000 0.703631 0.785208
O O2 0.309781 0.500000 0.703771
O O3 0.321760 0.763780 0.625008
O O4 0.331115 0.698229 0.889659
O O5 0.500000 0.672642 0.500000
O O6 0.515957 0.500000 0.708929
O O7 0.576397 0.704086 0.647175
O O8 0.492999 0.776356 0.737535
O O9 0.750000 0.795548 0.543793
O O10 0.833553 0.760185 0.642317
O O11 0.814750 0.000000 0.515774
O O12 0.860841 0.500000 0.704373
O O13 0.874146 0.279665 0.874220
O O14 0.081942 0.243516 0.889193
O O15 0.039738 0.000000 0.862921
O O16 0.000000 0.215457 0.000000
O O17 0.893674 0.500000 0.033935
#
# Coordination Sequence:
#
# PCOD8213751 Si02
#       6
#     8   8   8   8   8   8
#     4   9  19  37  60  85 111 141 183 232 279 333
#     4  10  22  39  59  84 114 150 192 237 282 334
#     4  10  22  39  58  82 115 153 187 225 279 338
#     4  10  21  37  58  85 114 148 190 237 285 330
#     4  11  23  38  57  83 116 153 189 229 279 335
#     4  10  21  37  60  86 112 147 188 233 285 337
#
# _framework density 18.660913999999998
#
# number of rings (size 3 to 8) (size 9 to 14) (size 15 to 20)
#    0.000    2.000    1.667    1.000    2.333    4.667 
#    0.000    1.667    0.000    2.000    0.000    0.000 
#    0.000    0.000    0.000    0.000    0.000    0.000 
#
# Total GULP energy -595399.288138 kJ/mol
# GULP energy per Si atom -12404.151836 kJ/mol
# Density = 1.861844 g / cm^3
# Si number density = 18.660914 Si / 1000 Ang^3
#
#
#
# Elastic Constant Matrix: (Units=GPa)
#
#
# Indices 1 2 3 4 5 6 
#
# 1 96.9094 46.4015 55.0505 0.0000 0.0000 0.0000
# 2 46.4015 64.7259 43.9868 0.0000 0.0000 0.0000
# 3 55.0505 43.9868 95.9051 0.0000 0.0000 0.0000
# 4 0.0000 0.0000 0.0000 29.9349 0.0000 0.0000
# 5 0.0000 0.0000 0.0000 0.0000 37.2002 0.0000
# 6 0.0000 0.0000 0.0000 0.0000 0.0000 30.1945
#
#
#
# Elastic Compliance Matrix: (Units=1/GPa)
#
#
# Indices 1 2 3 4 5 6 
#
# 1 0.018094 -0.008591 -0.006446 0.000000 0.000000 0.000000
# 2 -0.008591 0.026525 -0.007234 0.000000 0.000000 0.000000
# 3 -0.006446 -0.007234 0.017445 0.000000 0.000000 0.000000
# 4 0.000000 0.000000 0.000000 0.033406 0.000000 0.000000
# 5 0.000000 0.000000 0.000000 0.000000 0.026882 0.000000
# 6 0.000000 0.000000 0.000000 0.000000 0.000000 0.033119
#
#
# Mechanical properties :
#
#
# Convention : Reuss Voigt Hill
#
# Bulk Modulus (GPa) = 57.07258 60.93536 59.00397
# Shear Modulus (GPa) = 24.28920 26.93938 25.61429
#
# Velocity S-wave (km/s) = 3.61169 3.80363 3.70890
# Velocity P-wave (km/s) = 6.93130 7.21214 7.07311
#
# Compressibility (1/GPa) = 0.01752155
#
# Stress axis : x y z
#
# Youngs Moduli (GPa) = 55.26676 37.70047 57.32286
#
# Poissons Ratio (x) = 0.32388 0.36950
# Poissons Ratio (y) = 0.47479 0.41469
# Poissons Ratio (z) = 0.35625 0.27274
#
# Static dielectric constant tensor:
#      x y z
#    x 3.470450 0.000000 0.000000 
#    y 0.000000 3.420170 0.000000 
#    z 0.000000 0.000000 3.414910 
# 
# 
# High freq. dielectric constant tensor:
#      x y z
#    x 1.730550 0.000000 0.000000 
#    y 0.000000 1.721310 0.000000 
#    z 0.000000 0.000000 1.728530 
# 
# From -- ./inp_files/12751.got.cif
#   From: 2010.03.12/outbox.cif.g09.slc.cpg/sg51_7_cif.got.tgz:12751.got - 2010.04.16 13:43:02.
