data_PCOD8213021
_publ_section_title
;
Structure prediction by ZEFSAII (Michael W. Deem and Ramdas Pophale) SiO2 
 PCOD8213021
Probable space group: P M M A
;
_chemical_formula_sum "Si O2"
_cell_formula_units_Z 36
_cell_length_a 9.589454
_cell_length_b 23.221372
_cell_length_c 9.095799
_cell_angle_alpha 90.000000
_cell_angle_beta 90.000000
_cell_angle_gamma 90.000000
_cell_volume 2025.455056
_symmetry_space_group_name_H-M "P M M A"
_symmetry_group_IT_number 51
_symmetry_cell_setting 'orthorhombic'
loop_
_space_group_symop_operation_xyz
x,y,z
1/2-x,-y,z
1/2+x,-y,-z
-x,y,-z
-x,-y,-z
1/2+x,y,-z
1/2-x,y,z
x,-y,z
loop_
_atom_site_type_symbol
_atom_site_label
_atom_site_fract_x
_atom_site_fract_y
_atom_site_fract_z
Si Si1 0.087944 0.624814 0.648656
Si Si2 0.092907 0.500000 0.640356
Si Si3 0.587562 0.271930 0.146572
Si Si4 0.088918 0.165419 0.644866
Si Si5 0.088840 0.934287 0.859652
O O1 0.250000 0.635312 0.608578
O O2 0.065093 0.560909 0.723588
O O3 0.037478 0.671114 0.767272
O O4 0.000000 0.631967 0.500000
O O5 0.250000 0.500000 0.582011
O O6 0.000000 0.500000 0.500000
O O7 0.750000 0.275197 0.105331
O O8 0.553639 0.216875 0.245159
O O9 0.500000 0.266474 0.000000
O O10 0.250000 0.166157 0.598802
O O11 0.047822 0.105279 0.721920
O O12 0.000000 0.173548 0.500000
O O13 0.250000 0.925566 0.902293
O O14 0.055829 0.000000 0.814892
O O15 0.000000 0.915011 0.000000
#
# Coordination Sequence:
#
# PCOD8213021 Si02
#       5
#     8   4   8   8   8
#     4   9  17  30  49  72  96 123 157 195 235 280
#     4   8  14  26  45  68  94 122 152 190 233 276
#     4  10  21  35  50  70  96 126 160 197 238 284
#     4  10  21  35  51  73  99 126 159 199 240 282
#     4   9  18  33  52  74 100 129 161 196 234 279
#
# _framework density 17.773785
#
# number of rings (size 3 to 8) (size 9 to 14) (size 15 to 20)
#    0.000    2.667    0.000    1.333    0.000    3.111 
#    0.000    0.556    0.000    0.000    0.000    0.000 
#    0.000    0.000    0.000    0.000    0.000    0.000 
#
# Total GULP energy -446236.432474 kJ/mol
# GULP energy per Si atom -12395.456458 kJ/mol
# Density = 1.773333 g / cm^3
# Si number density = 17.773785 Si / 1000 Ang^3
#
#
#
# Elastic Constant Matrix: (Units=GPa)
#
#
# Indices 1 2 3 4 5 6 
#
# 1 62.1104 49.2308 64.9155 0.0000 0.0000 0.0000
# 2 49.2308 138.1567 73.7700 0.0000 0.0000 0.0000
# 3 64.9155 73.7700 124.3127 0.0000 0.0000 0.0000
# 4 0.0000 0.0000 0.0000 16.1605 0.0000 0.0000
# 5 0.0000 0.0000 0.0000 0.0000 34.7547 0.0000
# 6 0.0000 0.0000 0.0000 0.0000 0.0000 12.3756
#
#
#
# Elastic Compliance Matrix: (Units=1/GPa)
#
#
# Indices 1 2 3 4 5 6 
#
# 1 0.037041 -0.004203 -0.016849 0.000000 0.000000 0.000000
# 2 -0.004203 0.011072 -0.004376 0.000000 0.000000 0.000000
# 3 -0.016849 -0.004376 0.019439 0.000000 0.000000 0.000000
# 4 0.000000 0.000000 0.000000 0.061879 0.000000 0.000000
# 5 0.000000 0.000000 0.000000 0.000000 0.028773 0.000000
# 6 0.000000 0.000000 0.000000 0.000000 0.000000 0.080804
#
#
# Mechanical properties :
#
#
# Convention : Reuss Voigt Hill
#
# Bulk Modulus (GPa) = 59.88706 77.82362 68.85534
# Shear Modulus (GPa) = 16.92443 21.76904 19.34674
#
# Velocity S-wave (km/s) = 3.08914 3.50349 3.30282
# Velocity P-wave (km/s) = 6.81843 7.76187 7.30539
#
# Compressibility (1/GPa) = 0.01669810
#
# Stress axis : x y z
#
# Youngs Moduli (GPa) = 26.99681 90.31520 51.44196
#
# Poissons Ratio (x) = 0.37957 0.86674
# Poissons Ratio (y) = 0.11346 0.22511
# Poissons Ratio (z) = 0.45486 0.39521
#
# Static dielectric constant tensor:
#      x y z
#    x 3.288020 0.000000 0.000000 
#    y 0.000000 3.930750 0.000000 
#    z 0.000000 0.000000 3.641510 
# 
# 
# High freq. dielectric constant tensor:
#      x y z
#    x 1.687230 0.000000 0.000000 
#    y 0.000000 1.716030 0.000000 
#    z 0.000000 0.000000 1.657930 
# 
# From -- ./inp_files/5253.got.cif
#   From: 2010.03.12/outbox.cif.g09.slc.cpg/sg51_3_cif.got.tgz:5253.got - 2010.04.16 13:43:02.
