data_PCOD8213800
_publ_section_title
;
Structure prediction by ZEFSAII (Michael W. Deem and Ramdas Pophale) SiO2 
 PCOD8213800
Probable space group: P M M A
;
_chemical_formula_sum "Si O2"
_cell_formula_units_Z 40
_cell_length_a 22.748654
_cell_length_b 8.795698
_cell_length_c 9.934871
_cell_angle_alpha 90.000000
_cell_angle_beta 90.000000
_cell_angle_gamma 90.000000
_cell_volume 1987.871224
_symmetry_space_group_name_H-M "P M M A"
_symmetry_group_IT_number 51
_symmetry_cell_setting 'orthorhombic'
loop_
_space_group_symop_operation_xyz
x,y,z
1/2-x,-y,z
1/2+x,-y,-z
-x,y,-z
-x,-y,-z
1/2+x,y,-z
1/2-x,y,z
x,-y,z
loop_
_atom_site_type_symbol
_atom_site_label
_atom_site_fract_x
_atom_site_fract_y
_atom_site_fract_z
Si Si1 0.433279 0.326489 0.511202
Si Si2 0.567078 0.177819 0.987766
Si Si3 0.363190 0.325621 0.774991
Si Si4 0.865469 0.175486 0.719626
Si Si5 0.750000 0.678225 0.646073
Si Si6 0.750000 0.820775 0.349698
O O1 0.500000 0.273276 0.500000
O O2 0.424909 0.500000 0.460706
O O3 0.414032 0.307919 0.664615
O O4 0.394884 0.214224 0.422016
O O5 0.589218 0.215212 0.837969
O O6 0.570619 0.000000 0.022234
O O7 0.500000 0.236326 0.000000
O O8 0.610083 0.266852 0.086390
O O9 0.343580 0.500000 0.791190
O O10 0.306722 0.228650 0.734408
O O11 0.806143 0.272544 0.733658
O O12 0.847626 0.000000 0.721139
O O13 0.750000 0.500000 0.624075
O O14 0.750000 0.750094 0.497954
O O15 0.750000 0.000000 0.366365
#
# Coordination Sequence:
#
# PCOD8213800 Si02
#       6
#     8   8   8   8   4   4
#     4  10  21  37  59  89 124 162 206 259 314 371
#     4  10  23  43  64  91 130 171 212 260 312 371
#     4  11  23  39  63  93 126 166 210 258 313 374
#     4  11  23  39  63  92 122 164 211 258 314 372
#     4  12  24  41  64  91 126 162 204 262 318 375
#     4  12  24  41  66  93 126 164 206 260 316 375
#
# _framework density 20.122026999999999
#
# number of rings (size 3 to 8) (size 9 to 14) (size 15 to 20)
#    0.000    1.200    2.000    4.200    0.000    4.000 
#    0.000    1.000    0.000    0.000    0.000    0.000 
#    0.000    0.000    0.000    0.000    0.000    0.000 
#
# Total GULP energy -496251.706139 kJ/mol
# GULP energy per Si atom -12406.292653 kJ/mol
# Density = 2.007623 g / cm^3
# Si number density = 20.122027 Si / 1000 Ang^3
#
#
#
# Elastic Constant Matrix: (Units=GPa)
#
#
# Indices 1 2 3 4 5 6 
#
# 1 119.6927 40.3940 10.5707 0.0000 0.0000 0.0000
# 2 40.3940 108.5326 31.2399 0.0000 0.0000 0.0000
# 3 10.5707 31.2399 65.7630 0.0000 0.0000 0.0000
# 4 0.0000 0.0000 0.0000 31.3941 0.0000 0.0000
# 5 0.0000 0.0000 0.0000 0.0000 37.1723 0.0000
# 6 0.0000 0.0000 0.0000 0.0000 0.0000 35.7880
#
#
#
# Elastic Compliance Matrix: (Units=1/GPa)
#
#
# Indices 1 2 3 4 5 6 
#
# 1 0.009557 -0.003608 0.000178 0.000000 0.000000 0.000000
# 2 -0.003608 0.012035 -0.005137 0.000000 0.000000 0.000000
# 3 0.000178 -0.005137 0.017618 0.000000 0.000000 0.000000
# 4 0.000000 0.000000 0.000000 0.031853 0.000000 0.000000
# 5 0.000000 0.000000 0.000000 0.000000 0.026902 0.000000
# 6 0.000000 0.000000 0.000000 0.000000 0.000000 0.027942
#
#
# Mechanical properties :
#
#
# Convention : Reuss Voigt Hill
#
# Bulk Modulus (GPa) = 45.30017 50.93305 48.11661
# Shear Modulus (GPa) = 33.24459 34.98981 34.11720
#
# Velocity S-wave (km/s) = 4.06907 4.17451 4.12213
# Velocity P-wave (km/s) = 6.68117 6.97155 6.82790
#
# Compressibility (1/GPa) = 0.02207497
#
# Stress axis : x y z
#
# Youngs Moduli (GPa) = 104.63904 83.08846 56.76036
#
# Poissons Ratio (x) = 0.29978 -0.01009
# Poissons Ratio (y) = 0.37754 0.29159
# Poissons Ratio (z) = -0.01861 0.42685
#
# Static dielectric constant tensor:
#      x y z
#    x 4.090710 0.000000 0.000000 
#    y 0.000000 3.688730 0.000000 
#    z 0.000000 0.000000 3.552560 
# 
# 
# High freq. dielectric constant tensor:
#      x y z
#    x 1.802310 0.000000 0.000000 
#    y 0.000000 1.789690 0.000000 
#    z 0.000000 0.000000 1.782960 
# 
# From -- ./inp_files/11478.got.cif
#   From: 2010.03.12/outbox.cif.g09.slc.cpg/sg51_6_cif.got.tgz:11478.got - 2010.04.16 13:43:02.
