data_PCOD8213421
_publ_section_title
;
Structure prediction by ZEFSAII (Michael W. Deem and Ramdas Pophale) SiO2 
 PCOD8213421
Probable space group: P M M A
;
_chemical_formula_sum "Si O2"
_cell_formula_units_Z 48
_cell_length_a 9.936427
_cell_length_b 28.943005
_cell_length_c 8.701579
_cell_angle_alpha 90.000000
_cell_angle_beta 90.000000
_cell_angle_gamma 90.000000
_cell_volume 2502.487595
_symmetry_space_group_name_H-M "P M M A"
_symmetry_group_IT_number 51
_symmetry_cell_setting 'orthorhombic'
loop_
_space_group_symop_operation_xyz
x,y,z
1/2-x,-y,z
1/2+x,-y,-z
-x,y,-z
-x,-y,-z
1/2+x,y,-z
1/2-x,y,z
x,-y,z
loop_
_atom_site_type_symbol
_atom_site_label
_atom_site_fract_x
_atom_site_fract_y
_atom_site_fract_z
Si Si1 0.096132 0.552743 0.362055
Si Si2 0.404854 0.365472 0.143964
Si Si3 0.593253 0.192480 0.852496
Si Si4 0.250000 0.053461 0.174470
Si Si5 0.402823 0.280784 0.357844
Si Si6 0.006862 0.101733 0.319295
Si Si7 0.750000 0.055695 0.172591
O O1 0.250000 0.559127 0.417873
O O2 0.066033 0.500000 0.314160
O O3 0.067205 0.583851 0.213183
O O4 0.000000 0.568645 0.500000
O O5 0.250000 0.360016 0.090658
O O6 0.440697 0.328413 0.274517
O O7 0.500000 0.357138 0.000000
O O8 0.750000 0.182914 0.895322
O O9 0.578107 0.239871 0.762216
O O10 0.534552 0.151857 0.748940
O O11 0.500000 0.196556 0.000000
O O12 0.122790 0.066951 0.273163
O O13 0.250000 0.000000 0.147729
O O14 0.250000 0.074527 0.002636
O O15 0.500000 0.272681 0.500000
O O16 0.250000 0.282224 0.419750
O O17 0.000000 0.107596 0.500000
O O18 0.874974 0.078000 0.256276
O O19 0.750000 0.000000 0.186701
#
# Coordination Sequence:
#
# PCOD8213421 Si02
#       7
#     8   8   8   4   8   8   4
#     4   9  18  33  53  79 111 149 195 246 299 355
#     4  10  21  36  55  81 116 154 196 245 296 355
#     4  11  24  42  64  90 120 155 196 240 291 354
#     4  11  23  43  65  89 123 159 201 245 290 353
#     4  10  22  40  61  88 120 152 195 244 295 350
#     4  12  25  41  63  92 125 157 197 247 296 350
#     4  11  25  43  67  93 121 163 203 241 296 353
#
# _framework density 19.180914000000001
#
# number of rings (size 3 to 8) (size 9 to 14) (size 15 to 20)
#    0.000    1.500    0.833    4.000    1.167    5.667 
#    0.000    0.000    0.000    0.000    0.000    0.000 
#    0.000    0.000    0.000    0.000    0.000    0.000 
#
# Total GULP energy -595317.039515 kJ/mol
# GULP energy per Si atom -12402.438323 kJ/mol
# Density = 1.913726 g / cm^3
# Si number density = 19.180914 Si / 1000 Ang^3
#
#
#
# Elastic Constant Matrix: (Units=GPa)
#
#
# Indices 1 2 3 4 5 6 
#
# 1 143.7046 47.6886 85.0588 0.0000 0.0000 0.0000
# 2 47.6886 93.4733 47.0578 0.0000 0.0000 0.0000
# 3 85.0588 47.0578 135.4395 0.0000 0.0000 0.0000
# 4 0.0000 0.0000 0.0000 25.2562 0.0000 0.0000
# 5 0.0000 0.0000 0.0000 0.0000 45.2534 0.0000
# 6 0.0000 0.0000 0.0000 0.0000 0.0000 31.6194
#
#
#
# Elastic Compliance Matrix: (Units=1/GPa)
#
#
# Indices 1 2 3 4 5 6 
#
# 1 0.011625 -0.002734 -0.006351 0.000000 0.000000 0.000000
# 2 -0.002734 0.013609 -0.003012 0.000000 0.000000 0.000000
# 3 -0.006351 -0.003012 0.012418 0.000000 0.000000 0.000000
# 4 0.000000 0.000000 0.000000 0.039594 0.000000 0.000000
# 5 0.000000 0.000000 0.000000 0.000000 0.022098 0.000000
# 6 0.000000 0.000000 0.000000 0.000000 0.000000 0.031626
#
#
# Mechanical properties :
#
#
# Convention : Reuss Voigt Hill
#
# Bulk Modulus (GPa) = 74.29457 81.35863 77.82660
# Shear Modulus (GPa) = 31.31859 33.27994 32.29926
#
# Velocity S-wave (km/s) = 4.04518 4.16992 4.10802
# Velocity P-wave (km/s) = 7.78689 8.10511 7.94759
#
# Compressibility (1/GPa) = 0.01345993
#
# Stress axis : x y z
#
# Youngs Moduli (GPa) = 86.02141 73.48056 80.52633
#
# Poissons Ratio (x) = 0.20087 0.51142
# Poissons Ratio (y) = 0.23515 0.24252
# Poissons Ratio (z) = 0.54632 0.22130
#
# Static dielectric constant tensor:
#      x y z
#    x 3.671290 0.000000 0.000000 
#    y 0.000000 3.734220 0.000000 
#    z 0.000000 0.000000 3.423650 
# 
# 
# High freq. dielectric constant tensor:
#      x y z
#    x 1.758520 0.000000 0.000000 
#    y 0.000000 1.766860 0.000000 
#    z 0.000000 0.000000 1.743530 
# 
# From -- ./inp_files/6278.got.cif
#   From: 2010.03.12/outbox.cif.g09.slc.cpg/sg51_4_cif.got.tgz:6278.got - 2010.04.16 13:43:02.
