data_PCOD8213676
_publ_section_title
;
Structure prediction by ZEFSAII (Michael W. Deem and Ramdas Pophale) SiO2 
 PCOD8213676
Probable space group: P M M A
;
_chemical_formula_sum "Si O2"
_cell_formula_units_Z 40
_cell_length_a 8.713994
_cell_length_b 24.701248
_cell_length_c 9.682926
_cell_angle_alpha 90.000000
_cell_angle_beta 90.000000
_cell_angle_gamma 90.000000
_cell_volume 2084.216191
_symmetry_space_group_name_H-M "P M M A"
_symmetry_group_IT_number 51
_symmetry_cell_setting 'orthorhombic'
loop_
_space_group_symop_operation_xyz
x,y,z
1/2-x,-y,z
1/2+x,-y,-z
-x,y,-z
-x,-y,-z
1/2+x,y,-z
1/2-x,y,z
x,-y,z
loop_
_atom_site_type_symbol
_atom_site_label
_atom_site_fract_x
_atom_site_fract_y
_atom_site_fract_z
Si Si1 0.071810 0.563270 0.645700
Si Si2 0.570662 0.857576 0.357747
Si Si3 0.432281 0.647457 0.152562
Si Si4 0.426659 0.060527 0.148691
Si Si5 0.431662 0.733840 0.646062
O O1 0.250000 0.579604 0.644969
O O2 0.047553 0.500000 0.671930
O O3 0.000000 0.581152 0.500000
O O4 0.985628 0.593560 0.768681
O O5 0.500000 0.878375 0.500000
O O6 0.750000 0.862598 0.371868
O O7 0.513877 0.895971 0.238323
O O8 0.521499 0.795959 0.326321
O O9 0.250000 0.649228 0.144814
O O10 0.494039 0.700184 0.230739
O O11 0.500000 0.646605 0.000000
O O12 0.250000 0.077137 0.138684
O O13 0.445687 0.000000 0.211067
O O14 0.500000 0.062738 0.000000
O O15 0.500000 0.713969 0.500000
O O16 0.250000 0.724915 0.643976
#
# Coordination Sequence:
#
# PCOD8213676 Si02
#       5
#     8   8   8   8   8
#     4  10  21  39  63  89 117 151 191 233 278 331
#     4  10  21  37  59  85 113 146 185 232 281 331
#     4  12  25  40  59  84 116 152 190 234 283 334
#     4  10  21  37  57  81 111 148 188 230 278 334
#     4  10  21  39  61  85 113 147 188 231 279 334
#
# _framework density 19.191867999999999
#
# number of rings (size 3 to 8) (size 9 to 14) (size 15 to 20)
#    0.000    1.600    0.000    4.800    0.000    6.400 
#    0.000    0.000    0.000    0.000    0.000    0.000 
#    0.000    0.000    0.000    0.000    0.000    0.000 
#
# Total GULP energy -496167.448054 kJ/mol
# GULP energy per Si atom -12404.186201 kJ/mol
# Density = 1.914819 g / cm^3
# Si number density = 19.191868 Si / 1000 Ang^3
#
#
#
# Elastic Constant Matrix: (Units=GPa)
#
#
# Indices 1 2 3 4 5 6 
#
# 1 104.4337 36.7958 50.9140 0.0000 0.0000 0.0000
# 2 36.7958 90.9546 60.4890 0.0000 0.0000 0.0000
# 3 50.9140 60.4890 136.0886 0.0000 0.0000 0.0000
# 4 0.0000 0.0000 0.0000 31.0751 0.0000 0.0000
# 5 0.0000 0.0000 0.0000 0.0000 42.2769 0.0000
# 6 0.0000 0.0000 0.0000 0.0000 0.0000 35.7285
#
#
#
# Elastic Compliance Matrix: (Units=1/GPa)
#
#
# Indices 1 2 3 4 5 6 
#
# 1 0.012158 -0.002688 -0.003354 0.000000 0.000000 0.000000
# 2 -0.002688 0.016203 -0.006196 0.000000 0.000000 0.000000
# 3 -0.003354 -0.006196 0.011357 0.000000 0.000000 0.000000
# 4 0.000000 0.000000 0.000000 0.032180 0.000000 0.000000
# 5 0.000000 0.000000 0.000000 0.000000 0.023654 0.000000
# 6 0.000000 0.000000 0.000000 0.000000 0.000000 0.027989
#
#
# Mechanical properties :
#
#
# Convention : Reuss Voigt Hill
#
# Bulk Modulus (GPa) = 65.61041 69.76383 67.68712
# Shear Modulus (GPa) = 32.65930 34.03464 33.34697
#
# Velocity S-wave (km/s) = 4.12967 4.21573 4.17292
# Velocity P-wave (km/s) = 7.54982 7.75411 7.65264
#
# Compressibility (1/GPa) = 0.01524148
#
# Stress axis : x y z
#
# Youngs Moduli (GPa) = 82.25361 61.71824 88.05207
#
# Poissons Ratio (x) = 0.16590 0.29530
# Poissons Ratio (y) = 0.22110 0.54558
# Poissons Ratio (z) = 0.27585 0.38242
#
# Static dielectric constant tensor:
#      x y z
#    x 3.718290 0.000000 0.000000 
#    y 0.000000 3.696720 0.000000 
#    z 0.000000 0.000000 3.526870 
# 
# 
# High freq. dielectric constant tensor:
#      x y z
#    x 1.767900 0.000000 0.000000 
#    y 0.000000 1.758040 0.000000 
#    z 0.000000 0.000000 1.746560 
# 
# From -- ./inp_files/5222.got.cif
#   From: 2010.03.12/outbox.cif.g09.slc.cpg/sg51_3_cif.got.tgz:5222.got - 2010.04.16 13:43:02.
