data_PCOD8213535
_publ_section_title
;
Structure prediction by ZEFSAII (Michael W. Deem and Ramdas Pophale) SiO2 
 PCOD8213535
Probable space group: P M M A
;
_chemical_formula_sum "Si O2"
_cell_formula_units_Z 48
_cell_length_a 9.894840
_cell_length_b 9.069278
_cell_length_c 29.229492
_cell_angle_alpha 90.000000
_cell_angle_beta 90.000000
_cell_angle_gamma 90.000000
_cell_volume 2623.026982
_symmetry_space_group_name_H-M "P M M A"
_symmetry_group_IT_number 51
_symmetry_cell_setting 'orthorhombic'
loop_
_space_group_symop_operation_xyz
x,y,z
1/2-x,-y,z
1/2+x,-y,-z
-x,y,-z
-x,-y,-z
1/2+x,y,-z
1/2-x,y,z
x,-y,z
loop_
_atom_site_type_symbol
_atom_site_label
_atom_site_fract_x
_atom_site_fract_y
_atom_site_fract_z
Si Si1 0.096177 0.826437 0.272182
Si Si2 0.536342 0.329085 0.098026
Si Si3 0.250000 0.332515 0.057698
Si Si4 0.404102 0.169435 0.808681
Si Si5 0.089360 0.663255 0.361277
Si Si6 0.250000 0.825021 0.963553
Si Si7 0.098780 0.323814 0.461234
O O1 0.250000 0.772575 0.263118
O O2 0.037348 0.764188 0.319823
O O3 0.002134 0.769957 0.230998
O O4 0.089087 0.000000 0.276174
O O5 0.577291 0.500000 0.094779
O O6 0.378179 0.304294 0.089843
O O7 0.574488 0.270072 0.147499
O O8 0.616271 0.239938 0.059486
O O9 0.250000 0.500000 0.038170
O O10 0.250000 0.217512 0.016519
O O11 0.250000 0.183251 0.791637
O O12 0.438668 0.000000 0.821176
O O13 0.250000 0.656138 0.361405
O O14 0.028867 0.500000 0.353784
O O15 0.044956 0.727079 0.411002
O O16 0.250000 0.000000 0.958092
O O17 0.250000 0.263472 0.470566
O O18 0.100378 0.500000 0.462180
O O19 0.000000 0.258438 0.500000
#
# Coordination Sequence:
#
# PCOD8213535 Si02
#       7
#     8   8   4   8   8   4   8
#     4   9  18  32  51  74  98 129 169 212 255 301
#     4  11  23  40  61  84 113 146 178 217 266 315
#     4  10  24  42  60  86 116 144 178 220 265 310
#     4  10  21  37  55  76 105 138 172 210 258 315
#     4   8  14  26  44  67  94 124 159 202 251 301
#     4  12  24  40  62  88 114 146 184 218 257 310
#     4   8  13  22  38  60  87 119 155 196 244 294
#
# _framework density 18.299468999999998
#
# number of rings (size 3 to 8) (size 9 to 14) (size 15 to 20)
#    0.000    2.500    0.833    2.750    1.167    4.000 
#    0.000    0.833    0.000    1.500    0.000    0.000 
#    0.000    0.000    0.000    0.000    0.000    0.000 
#
# Total GULP energy -595115.956535 kJ/mol
# GULP energy per Si atom -12398.249094 kJ/mol
# Density = 1.825782 g / cm^3
# Si number density = 18.299469 Si / 1000 Ang^3
#
#
#
# Elastic Constant Matrix: (Units=GPa)
#
#
# Indices 1 2 3 4 5 6 
#
# 1 90.0902 27.3875 42.4001 0.0000 0.0000 0.0000
# 2 27.3875 60.4269 32.4224 0.0000 0.0000 0.0000
# 3 42.4001 32.4224 119.9130 0.0000 0.0000 0.0000
# 4 0.0000 0.0000 0.0000 10.4387 0.0000 0.0000
# 5 0.0000 0.0000 0.0000 0.0000 32.6370 0.0000
# 6 0.0000 0.0000 0.0000 0.0000 0.0000 17.6259
#
#
#
# Elastic Compliance Matrix: (Units=1/GPa)
#
#
# Indices 1 2 3 4 5 6 
#
# 1 0.014247 -0.004391 -0.003850 0.000000 0.000000 0.000000
# 2 -0.004391 0.020711 -0.004047 0.000000 0.000000 0.000000
# 3 -0.003850 -0.004047 0.010795 0.000000 0.000000 0.000000
# 4 0.000000 0.000000 0.000000 0.095797 0.000000 0.000000
# 5 0.000000 0.000000 0.000000 0.000000 0.030640 0.000000
# 6 0.000000 0.000000 0.000000 0.000000 0.000000 0.056735
#
#
# Mechanical properties :
#
#
# Convention : Reuss Voigt Hill
#
# Bulk Modulus (GPa) = 47.22461 52.76113 49.99287
# Shear Modulus (GPa) = 19.18937 23.35499 21.27218
#
# Velocity S-wave (km/s) = 3.24177 3.57636 3.41317
# Velocity P-wave (km/s) = 6.31464 6.77853 6.55069
#
# Compressibility (1/GPa) = 0.02117540
#
# Stress axis : x y z
#
# Youngs Moduli (GPa) = 70.18990 48.28420 92.63494
#
# Poissons Ratio (x) = 0.21203 0.35667
# Poissons Ratio (y) = 0.30823 0.37490
# Poissons Ratio (z) = 0.27025 0.19541
#
# Static dielectric constant tensor:
#      x y z
#    x 3.677490 0.000000 0.000000 
#    y 0.000000 3.240710 0.000000 
#    z 0.000000 0.000000 3.624880 
# 
# 
# High freq. dielectric constant tensor:
#      x y z
#    x 1.697820 0.000000 0.000000 
#    y 0.000000 1.687560 0.000000 
#    z 0.000000 0.000000 1.717740 
# 
# From -- ./inp_files/37144.got.cif
#   From: 2010.03.12/outbox.cif.g09.slc.cpg/sg51_19_cif.got.tgz:37144.got - 2010.04.16 13:43:02.
