data_PCOD8213724
_publ_section_title
;
Structure prediction by ZEFSAII (Michael W. Deem and Ramdas Pophale) SiO2 
 PCOD8213724
Probable space group: P M M A
;
_chemical_formula_sum "Si O2"
_cell_formula_units_Z 56
_cell_length_a 8.740229
_cell_length_b 14.551190
_cell_length_c 23.475616
_cell_angle_alpha 90.000000
_cell_angle_beta 90.000000
_cell_angle_gamma 90.000000
_cell_volume 2985.646046
_symmetry_space_group_name_H-M "P M M A"
_symmetry_group_IT_number 51
_symmetry_cell_setting 'orthorhombic'
loop_
_space_group_symop_operation_xyz
x,y,z
1/2-x,-y,z
1/2+x,-y,-z
-x,y,-z
-x,-y,-z
1/2+x,y,-z
1/2-x,y,z
x,-y,z
loop_
_atom_site_type_symbol
_atom_site_label
_atom_site_fract_x
_atom_site_fract_y
_atom_site_fract_z
Si Si1 0.573473 0.895255 0.227114
Si Si2 0.923004 0.396713 0.240243
Si Si3 0.425639 0.352622 0.352524
Si Si4 0.068504 0.604226 0.060603
Si Si5 0.431449 0.000000 0.563923
Si Si6 0.426718 0.859582 0.349902
Si Si7 0.074220 0.500000 0.440539
Si Si8 0.427323 0.737307 0.159774
O O1 0.750000 0.872047 0.238143
O O2 0.486285 0.879345 0.286312
O O3 0.513309 0.832215 0.174754
O O4 0.550273 0.000000 0.207109
O O5 0.750000 0.362477 0.227946
O O6 0.944035 0.500000 0.217466
O O7 0.956639 0.391453 0.306582
O O8 0.048400 0.331485 0.211971
O O9 0.250000 0.373938 0.334418
O O10 0.450185 0.246108 0.364443
O O11 0.473753 0.407063 0.408567
O O12 0.250000 0.607764 0.057501
O O13 0.016031 0.500000 0.077923
O O14 0.007813 0.682179 0.104553
O O15 0.000000 0.631514 0.000000
O O16 0.500000 0.000000 0.500000
O O17 0.482841 0.087950 0.600584
O O18 0.250000 0.000000 0.557877
O O19 0.250000 0.889569 0.351715
O O20 0.250000 0.500000 0.451989
O O21 0.000000 0.500000 0.500000
O O22 0.250000 0.760600 0.152543
#
# Coordination Sequence:
#
# PCOD8213724 Si02
#       8
#     8   8   8   8   4   8   4   8
#     4  11  23  38  58  86 119 153 191 240 298 353
#     4  11  22  33  51  82 116 149 188 233 283 339
#     4  10  21  37  58  81 109 145 183 227 283 342
#     4   9  19  36  58  86 121 162 203 242 289 342
#     4  12  26  44  64  86 114 150 189 244 301 356
#     4  11  22  38  62  89 114 147 189 235 294 360
#     4  10  22  40  58  78 106 144 187 228 275 336
#     4  11  22  36  57  86 119 156 197 241 290 348
#
# _framework density 18.756409999999999
#
# number of rings (size 3 to 8) (size 9 to 14) (size 15 to 20)
#    0.000    1.429    2.857    2.786    0.000    5.143 
#    0.000    2.857    0.000    0.429    0.000    0.000 
#    0.000    0.000    0.000    0.000    0.000    0.000 
#
# Total GULP energy -694267.278063 kJ/mol
# GULP energy per Si atom -12397.629965 kJ/mol
# Density = 1.871372 g / cm^3
# Si number density = 18.756410 Si / 1000 Ang^3
#
#
#
# Elastic Constant Matrix: (Units=GPa)
#
#
# Indices 1 2 3 4 5 6 
#
# 1 74.8878 43.3131 36.3695 0.0000 0.0000 0.0000
# 2 43.3131 136.9136 60.1636 0.0000 0.0000 0.0000
# 3 36.3695 60.1636 121.9190 0.0000 0.0000 0.0000
# 4 0.0000 0.0000 0.0000 27.3798 0.0000 0.0000
# 5 0.0000 0.0000 0.0000 0.0000 32.9817 0.0000
# 6 0.0000 0.0000 0.0000 0.0000 0.0000 26.3281
#
#
#
# Elastic Compliance Matrix: (Units=1/GPa)
#
#
# Indices 1 2 3 4 5 6 
#
# 1 0.017230 -0.004076 -0.003128 0.000000 0.000000 0.000000
# 2 -0.004076 0.010290 -0.003862 0.000000 0.000000 0.000000
# 3 -0.003128 -0.003862 0.011041 0.000000 0.000000 0.000000
# 4 0.000000 0.000000 0.000000 0.036523 0.000000 0.000000
# 5 0.000000 0.000000 0.000000 0.000000 0.030320 0.000000
# 6 0.000000 0.000000 0.000000 0.000000 0.000000 0.037982
#
#
# Mechanical properties :
#
#
# Convention : Reuss Voigt Hill
#
# Bulk Modulus (GPa) = 60.86969 68.15698 64.51333
# Shear Modulus (GPa) = 29.24031 30.26287 29.75159
#
# Velocity S-wave (km/s) = 3.95264 4.02116 3.98704
# Velocity P-wave (km/s) = 7.30440 7.61423 7.46092
#
# Compressibility (1/GPa) = 0.01642854
#
# Stress axis : x y z
#
# Youngs Moduli (GPa) = 58.03779 97.17713 90.56925
#
# Poissons Ratio (x) = 0.39610 0.28334
# Poissons Ratio (y) = 0.23657 0.34979
# Poissons Ratio (z) = 0.18157 0.37531
#
# Static dielectric constant tensor:
#      x y z
#    x 3.412630 0.000000 0.000000 
#    y 0.000000 3.653250 0.000000 
#    z 0.000000 0.000000 3.372320 
# 
# 
# High freq. dielectric constant tensor:
#      x y z
#    x 1.734010 0.000000 0.000000 
#    y 0.000000 1.737880 0.000000 
#    z 0.000000 0.000000 1.712800 
# 
# From -- ./inp_files/32086.got.cif
#   From: 2010.03.12/outbox.cif.g09.slc.cpg/sg51_17_cif.got.tgz:32086.got - 2010.04.16 13:43:02.
