data_PCOD8213759
_publ_section_title
;
Structure prediction by ZEFSAII (Michael W. Deem and Ramdas Pophale) SiO2 
 PCOD8213759
Probable space group: P M M A
;
_chemical_formula_sum "Si O2"
_cell_formula_units_Z 48
_cell_length_a 9.375697
_cell_length_b 9.123337
_cell_length_c 28.156441
_cell_angle_alpha 90.000000
_cell_angle_beta 90.000000
_cell_angle_gamma 90.000000
_cell_volume 2408.435608
_symmetry_space_group_name_H-M "P M M A"
_symmetry_group_IT_number 51
_symmetry_cell_setting 'orthorhombic'
loop_
_space_group_symop_operation_xyz
x,y,z
1/2-x,-y,z
1/2+x,-y,-z
-x,y,-z
-x,-y,-z
1/2+x,y,-z
1/2-x,y,z
x,-y,z
loop_
_atom_site_type_symbol
_atom_site_label
_atom_site_fract_x
_atom_site_fract_y
_atom_site_fract_z
Si Si1 0.911541 0.826847 0.721976
Si Si2 0.750000 0.170903 0.035440
Si Si3 0.092585 0.333295 0.795290
Si Si4 0.250000 0.829713 0.076511
Si Si5 0.083945 0.670876 0.452197
Si Si6 0.972384 0.329766 0.097812
Si Si7 0.914078 0.173998 0.369238
O O1 0.750000 0.768536 0.714606
O O2 0.974352 0.768332 0.771327
O O3 0.012147 0.771010 0.679282
O O4 0.911846 0.000000 0.724704
O O5 0.888356 0.248164 0.056291
O O6 0.750000 0.000000 0.048986
O O7 0.750000 0.194721 0.979543
O O8 0.250000 0.296074 0.774965
O O9 0.050219 0.500000 0.783850
O O10 0.102198 0.308848 0.851619
O O11 0.378477 0.749257 0.101833
O O12 0.250000 0.000000 0.089801
O O13 0.250000 0.717966 0.456915
O O14 0.071487 0.500000 0.440140
O O15 0.000000 0.709879 0.500000
O O16 0.006980 0.760923 0.411401
O O17 0.986889 0.500000 0.084041
O O18 0.750000 0.229909 0.371024
O O19 0.919526 0.000000 0.373277
#
# Coordination Sequence:
#
# PCOD8213759 Si02
#       7
#     8   4   8   4   8   8   8
#     4  10  22  39  60  88 118 150 191 239 291 349
#     4  11  23  41  63  89 121 157 195 245 298 351
#     4  10  22  41  61  84 115 150 191 239 288 343
#     4  11  25  41  59  89 125 155 195 245 298 355
#     4  10  21  37  58  85 118 157 202 250 300 354
#     4  11  23  41  63  88 119 157 200 244 294 356
#     4  10  21  38  60  86 118 156 199 245 294 351
#
# _framework density 19.929949000000001
#
# number of rings (size 3 to 8) (size 9 to 14) (size 15 to 20)
#    0.000    1.667    0.833    3.000    1.167    9.000 
#    0.000    0.000    0.000    0.000    0.000    0.000 
#    0.000    0.000    0.000    0.000    0.000    0.000 
#
# Total GULP energy -595297.681603 kJ/mol
# GULP energy per Si atom -12402.035033 kJ/mol
# Density = 1.988459 g / cm^3
# Si number density = 19.929949 Si / 1000 Ang^3
#
#
#
# Elastic Constant Matrix: (Units=GPa)
#
#
# Indices 1 2 3 4 5 6 
#
# 1 156.8202 40.4362 37.5337 0.0000 0.0000 0.0000
# 2 40.4362 60.9414 36.4716 0.0000 0.0000 0.0000
# 3 37.5337 36.4716 68.7749 0.0000 0.0000 0.0000
# 4 0.0000 0.0000 0.0000 -193.3228 0.0000 0.0000
# 5 0.0000 0.0000 0.0000 0.0000 39.3146 0.0000
# 6 0.0000 0.0000 0.0000 0.0000 0.0000 35.3051
#
#
#
# Elastic Compliance Matrix: (Units=1/GPa)
#
#
# Indices 1 2 3 4 5 6 
#
# 1 0.007924 -0.003911 -0.002250 0.000000 0.000000 0.000000
# 2 -0.003911 0.025968 -0.011637 0.000000 0.000000 0.000000
# 3 -0.002250 -0.011637 0.021939 0.000000 0.000000 0.000000
# 4 0.000000 0.000000 0.000000 -0.005173 0.000000 0.000000
# 5 0.000000 0.000000 0.000000 0.000000 0.025436 0.000000
# 6 0.000000 0.000000 0.000000 0.000000 0.000000 0.028325
#
#
# Mechanical properties :
#
#
# Convention : Reuss Voigt Hill
#
# Bulk Modulus (GPa) = 49.41829 57.26883 53.34356
# Shear Modulus (GPa) = 34.06910 -12.26762 10.90074
#
# Velocity S-wave (km/s) = 4.13903 -2.48369 2.34124
# Velocity P-wave (km/s) = 6.90593 4.53569 5.84227
#
# Compressibility (1/GPa) = 0.02023542
#
# Stress axis : x y z
#
# Youngs Moduli (GPa) = 126.20271 38.50832 45.58008
#
# Poissons Ratio (x) = 0.15060 0.10258
# Poissons Ratio (y) = 0.49355 0.53041
# Poissons Ratio (z) = 0.28401 0.44811
#
# Static dielectric constant tensor:
#      x y z
#    x 3.918370 0.000000 0.000000 
#    y 0.000000 3.565140 0.000000 
#    z 0.000000 0.000000 3.564880 
# 
# 
# High freq. dielectric constant tensor:
#      x y z
#    x 1.798420 0.000000 0.000000 
#    y 0.000000 1.772500 0.000000 
#    z 0.000000 0.000000 1.780090 
# 
# From -- ./inp_files/37126.got.cif
#   From: 2010.03.12/outbox.cif.g09.slc.cpg/sg51_19_cif.got.tgz:37126.got - 2010.04.16 13:43:02.
