data_PCOD8213708
_publ_section_title
;
Structure prediction by ZEFSAII (Michael W. Deem and Ramdas Pophale) SiO2 
 PCOD8213708
Probable space group: P M M A
;
_chemical_formula_sum "Si O2"
_cell_formula_units_Z 64
_cell_length_a 9.014114
_cell_length_b 18.400975
_cell_length_c 19.451898
_cell_angle_alpha 90.000000
_cell_angle_beta 90.000000
_cell_angle_gamma 90.000000
_cell_volume 3226.456878
_symmetry_space_group_name_H-M "P M M A"
_symmetry_group_IT_number 51
_symmetry_cell_setting 'orthorhombic'
loop_
_space_group_symop_operation_xyz
x,y,z
1/2-x,-y,z
1/2+x,-y,-z
-x,y,-z
-x,-y,-z
1/2+x,y,-z
1/2-x,y,z
x,-y,z
loop_
_atom_site_type_symbol
_atom_site_label
_atom_site_fract_x
_atom_site_fract_y
_atom_site_fract_z
Si Si1 0.917144 0.414341 0.433376
Si Si2 0.579283 0.917260 0.312589
Si Si3 0.422013 0.852821 0.185969
Si Si4 0.587628 0.084366 0.063436
Si Si5 0.578827 0.312425 0.820976
Si Si6 0.425269 0.316456 0.337598
Si Si7 0.578489 0.192490 0.426990
Si Si8 0.575676 0.416260 0.071383
O O1 0.750000 0.382702 0.430286
O O2 0.912418 0.500000 0.437098
O O3 0.000000 0.381297 0.500000
O O4 0.013575 0.392189 0.367409
O O5 0.750000 0.914871 0.288857
O O6 0.486554 0.866222 0.261500
O O7 0.560914 0.885172 0.389158
O O8 0.519609 0.000000 0.312242
O O9 0.250000 0.871320 0.189349
O O10 0.499663 0.907392 0.133856
O O11 0.449337 0.771225 0.158683
O O12 0.750000 0.121250 0.068865
O O13 0.607328 0.000000 0.048203
O O14 0.500000 0.121456 0.000000
O O15 0.750000 0.334395 0.830974
O O16 0.530212 0.318611 0.741935
O O17 0.480570 0.365479 0.867149
O O18 0.250000 0.308149 0.347167
O O19 0.506272 0.252737 0.378391
O O20 0.500000 0.187698 0.500000
O O21 0.750000 0.212391 0.438430
O O22 0.750000 0.405075 0.062868
O O23 0.536285 0.500000 0.088958
O O24 0.500000 0.392528 0.000000
#
# Coordination Sequence:
#
# PCOD8213708 Si02
#       8
#     8   8   8   8   8   8   8   8
#     4  10  21  37  57  83 115 151 193 239 289 349
#     4  10  22  40  61  86 116 153 197 245 301 362
#     4  11  22  38  59  86 119 155 197 243 295 353
#     4  10  21  37  57  83 115 152 195 240 290 349
#     4  10  23  40  60  87 120 156 196 241 288 344
#     4  11  22  39  60  84 118 156 197 244 295 353
#     4  11  23  39  61  86 116 154 197 246 302 361
#     4  10  22  41  66  94 124 160 202 246 293 347
#
# _framework density 19.835999999999999
#
# number of rings (size 3 to 8) (size 9 to 14) (size 15 to 20)
#    0.000    1.625    1.250    3.000    0.000    7.750 
#    0.000    2.500    0.000    0.000    0.000    0.000 
#    0.000    0.000    0.000    0.000    0.000    0.000 
#
# Total GULP energy -793705.416656 kJ/mol
# GULP energy per Si atom -12401.647135 kJ/mol
# Density = 1.979085 g / cm^3
# Si number density = 19.836000 Si / 1000 Ang^3
#
#
#
# Elastic Constant Matrix: (Units=GPa)
#
#
# Indices 1 2 3 4 5 6 
#
# 1 137.9698 46.3377 78.0480 0.0000 0.0000 0.0000
# 2 46.3377 66.3193 44.6134 0.0000 0.0000 0.0000
# 3 78.0480 44.6134 137.2475 0.0000 0.0000 0.0000
# 4 0.0000 0.0000 0.0000 33.1274 0.0000 0.0000
# 5 0.0000 0.0000 0.0000 0.0000 36.4037 0.0000
# 6 0.0000 0.0000 0.0000 0.0000 0.0000 25.9865
#
#
#
# Elastic Compliance Matrix: (Units=1/GPa)
#
#
# Indices 1 2 3 4 5 6 
#
# 1 0.011751 -0.004755 -0.005137 0.000000 0.000000 0.000000
# 2 -0.004755 0.021223 -0.004195 0.000000 0.000000 0.000000
# 3 -0.005137 -0.004195 0.011571 0.000000 0.000000 0.000000
# 4 0.000000 0.000000 0.000000 0.030186 0.000000 0.000000
# 5 0.000000 0.000000 0.000000 0.000000 0.027470 0.000000
# 6 0.000000 0.000000 0.000000 0.000000 0.000000 0.038482
#
#
# Mechanical properties :
#
#
# Convention : Reuss Voigt Hill
#
# Bulk Modulus (GPa) = 61.08111 75.50386 68.29248
# Shear Modulus (GPa) = 28.68438 30.60601 29.64520
#
# Velocity S-wave (km/s) = 3.80686 3.93231 3.87009
# Velocity P-wave (km/s) = 7.08398 7.66577 7.38061
#
# Compressibility (1/GPa) = 0.01637167
#
# Stress axis : x y z
#
# Youngs Moduli (GPa) = 85.10212 47.11961 86.42587
#
# Poissons Ratio (x) = 0.22405 0.44393
# Poissons Ratio (y) = 0.40465 0.36253
# Poissons Ratio (z) = 0.43713 0.19765
#
# Static dielectric constant tensor:
#      x y z
#    x 3.846620 0.000000 0.000000 
#    y 0.000000 3.576160 0.000000 
#    z 0.000000 0.000000 3.649550 
# 
# 
# High freq. dielectric constant tensor:
#      x y z
#    x 1.786930 0.000000 0.000000 
#    y 0.000000 1.768700 0.000000 
#    z 0.000000 0.000000 1.778150 
# 
# From -- ./inp_files/32394.got.cif
#   From: 2010.03.12/outbox.cif.g09.slc.cpg/sg51_17_cif.got.tgz:32394.got - 2010.04.16 13:43:02.
