data_PCOD8213675
_publ_section_title
;
Structure prediction by ZEFSAII (Michael W. Deem and Ramdas Pophale) SiO2 
 PCOD8213675
Probable space group: P M M A
;
_chemical_formula_sum "Si O2"
_cell_formula_units_Z 64
_cell_length_a 31.540322
_cell_length_b 8.708361
_cell_length_c 12.065718
_cell_angle_alpha 90.000000
_cell_angle_beta 90.000000
_cell_angle_gamma 90.000000
_cell_volume 3314.024523
_symmetry_space_group_name_H-M "P M M A"
_symmetry_group_IT_number 51
_symmetry_cell_setting 'orthorhombic'
loop_
_space_group_symop_operation_xyz
x,y,z
1/2-x,-y,z
1/2+x,-y,-z
-x,y,-z
-x,-y,-z
1/2+x,y,-z
1/2-x,y,z
x,-y,z
loop_
_atom_site_type_symbol
_atom_site_label
_atom_site_fract_x
_atom_site_fract_y
_atom_site_fract_z
Si Si1 0.952653 0.180294 0.485558
Si Si2 0.203096 0.317661 0.751892
Si Si3 0.626040 0.176599 0.624362
Si Si4 0.059516 0.822684 0.764089
Si Si5 0.297511 0.318362 0.504551
Si Si6 0.896774 0.176565 0.870543
Si Si7 0.514273 0.677048 0.877190
Si Si8 0.630368 0.318821 0.089080
O O1 0.918027 0.246391 0.573515
O O2 0.933592 0.217816 0.364542
O O3 0.000000 0.254454 0.500000
O O4 0.957763 0.000000 0.504522
O O5 0.250000 0.261734 0.786974
O O6 0.200973 0.500000 0.751210
O O7 0.192205 0.256934 0.628567
O O8 0.169588 0.252639 0.839859
O O9 0.667870 0.257145 0.579720
O O10 0.628324 0.198013 0.756211
O O11 0.628190 0.000000 0.588826
O O12 0.087781 0.715842 0.842660
O O13 0.010706 0.785465 0.791665
O O14 0.069588 0.000000 0.788657
O O15 0.250000 0.263825 0.469969
O O16 0.299336 0.500000 0.503539
O O17 0.936644 0.287747 0.865726
O O18 0.910736 0.000000 0.887417
O O19 0.867529 0.230647 0.972345
O O20 0.505608 0.500000 0.848850
O O21 0.500000 0.719557 0.000000
O O22 0.632999 0.500000 0.067486
#
# Coordination Sequence:
#
# PCOD8213675 Si02
#       8
#     8   8   8   8   8   8   8   8
#     4   9  18  34  54  78 108 142 181 223 269 325
#     4   8  16  33  57  83 110 140 174 216 269 326
#     4  10  21  37  57  81 111 148 188 229 276 329
#     4  11  21  33  55  81 107 140 177 220 270 324
#     4   9  18  35  60  87 112 141 180 225 275 333
#     4  11  23  38  56  77 106 147 188 223 267 323
#     4  11  22  36  54  77 106 141 183 228 268 311
#     4  11  21  34  54  80 109 139 176 223 269 315
#
# _framework density 19.311868
#
# number of rings (size 3 to 8) (size 9 to 14) (size 15 to 20)
#    0.000    2.000    1.250    3.750    0.000    3.750 
#    0.000    1.875    0.000    7.875    0.000    0.000 
#    0.000    0.000    0.000    0.000    0.000    0.000 
#
# Total GULP energy -793571.629140 kJ/mol
# GULP energy per Si atom -12399.556705 kJ/mol
# Density = 1.926791 g / cm^3
# Si number density = 19.311868 Si / 1000 Ang^3
#
#
#
# Elastic Constant Matrix: (Units=GPa)
#
#
# Indices 1 2 3 4 5 6 
#
# 1 123.3609 17.4306 61.9413 0.0000 0.0000 0.0000
# 2 17.4306 35.8215 32.2021 0.0000 0.0000 0.0000
# 3 61.9413 32.2021 119.5808 0.0000 0.0000 0.0000
# 4 0.0000 0.0000 0.0000 23.8781 0.0000 0.0000
# 5 0.0000 0.0000 0.0000 0.0000 34.9876 0.0000
# 6 0.0000 0.0000 0.0000 0.0000 0.0000 23.0990
#
#
#
# Elastic Compliance Matrix: (Units=1/GPa)
#
#
# Indices 1 2 3 4 5 6 
#
# 1 0.010958 -0.000303 -0.005595 0.000000 0.000000 0.000000
# 2 -0.000303 0.036841 -0.009764 0.000000 0.000000 0.000000
# 3 -0.005595 -0.009764 0.013890 0.000000 0.000000 0.000000
# 4 0.000000 0.000000 0.000000 0.041879 0.000000 0.000000
# 5 0.000000 0.000000 0.000000 0.000000 0.028582 0.000000
# 6 0.000000 0.000000 0.000000 0.000000 0.000000 0.043292
#
#
# Mechanical properties :
#
#
# Convention : Reuss Voigt Hill
#
# Bulk Modulus (GPa) = 32.93163 55.76792 44.34977
# Shear Modulus (GPa) = 23.05345 27.53890 25.29617
#
# Velocity S-wave (km/s) = 3.45881 3.78035 3.62315
# Velocity P-wave (km/s) = 5.74810 6.92784 6.36536
#
# Compressibility (1/GPa) = 0.03036594
#
# Stress axis : x y z
#
# Youngs Moduli (GPa) = 91.25535 27.14360 71.99466
#
# Poissons Ratio (x) = 0.00822 0.40279
# Poissons Ratio (y) = 0.02764 0.70297
# Poissons Ratio (z) = 0.51054 0.26503
#
# Static dielectric constant tensor:
#      x y z
#    x 3.819500 0.000000 0.000000 
#    y 0.000000 3.233070 0.000000 
#    z 0.000000 0.000000 3.837780 
# 
# 
# High freq. dielectric constant tensor:
#      x y z
#    x 1.748280 0.000000 0.000000 
#    y 0.000000 1.727990 0.000000 
#    z 0.000000 0.000000 1.756970 
# 
# From -- ./inp_files/19604.got.cif
#   From: 2010.03.12/outbox.cif.g09.slc.cpg/sg51_10_cif.got.tgz:19604.got - 2010.04.16 13:43:02.
