data_PCOD8213553
_publ_section_title
;
Structure prediction by ZEFSAII (Michael W. Deem and Ramdas Pophale) SiO2 
 PCOD8213553
Probable space group: P M M A
;
_chemical_formula_sum "Si O2"
_cell_formula_units_Z 48
_cell_length_a 15.917548
_cell_length_b 18.610701
_cell_length_c 8.089763
_cell_angle_alpha 90.000000
_cell_angle_beta 90.000000
_cell_angle_gamma 90.000000
_cell_volume 2396.484909
_symmetry_space_group_name_H-M "P M M A"
_symmetry_group_IT_number 51
_symmetry_cell_setting 'orthorhombic'
loop_
_space_group_symop_operation_xyz
x,y,z
1/2-x,-y,z
1/2+x,-y,-z
-x,y,-z
-x,-y,-z
1/2+x,y,-z
1/2-x,y,z
x,-y,z
loop_
_atom_site_type_symbol
_atom_site_label
_atom_site_fract_x
_atom_site_fract_y
_atom_site_fract_z
Si Si1 0.155489 0.327278 0.187113
Si Si2 0.151549 0.164217 0.171486
Si Si3 0.658249 0.416966 0.141916
Si Si4 0.349013 0.919370 0.855034
Si Si5 0.510714 0.422350 0.688075
Si Si6 0.901291 0.080854 0.501507
O O1 0.250000 0.329714 0.265393
O O2 0.121389 0.246347 0.171128
O O3 0.087669 0.367975 0.297333
O O4 0.157131 0.364946 0.012209
O O5 0.250000 0.161361 0.149280
O O6 0.128646 0.127955 0.344925
O O7 0.111307 0.125005 0.009691
O O8 0.750000 0.407271 0.231741
O O9 0.648154 0.500000 0.087964
O O10 0.578767 0.391458 0.249340
O O11 0.250000 0.921015 0.873585
O O12 0.371697 0.885648 0.675006
O O13 0.386578 0.000000 0.864523
O O14 0.500000 0.438214 0.500000
O O15 0.530626 0.500000 0.774443
O O16 0.000000 0.078954 0.500000
O O17 0.864240 0.000000 0.521212
#
# Coordination Sequence:
#
# PCOD8213553 Si02
#       6
#     8   8   8   8   8   8
#     4  10  21  37  55  81 115 151 190 234 287 343
#     4  10  21  38  57  82 115 149 190 236 285 341
#     4   9  18  36  61  84 109 146 191 237 283 335
#     4   9  18  35  60  84 106 143 194 239 282 336
#     4  10  21  37  58  85 115 148 189 236 285 342
#     4  10  21  37  57  83 115 149 188 238 292 342
#
# _framework density 20.029337000000002
#
# number of rings (size 3 to 8) (size 9 to 14) (size 15 to 20)
#    0.000    2.333    0.000    2.000    0.000    6.000 
#    9.000    4.167    0.000    0.000    0.000    0.000 
#    0.000    0.000    0.000    0.000    0.000    0.000 
#
# Total GULP energy -594735.920915 kJ/mol
# GULP energy per Si atom -12390.331686 kJ/mol
# Density = 1.998375 g / cm^3
# Si number density = 20.029337 Si / 1000 Ang^3
#
#
#
# Elastic Constant Matrix: (Units=GPa)
#
#
# Indices 1 2 3 4 5 6 
#
# 1 66.2253 42.7760 21.7787 0.0000 0.0000 0.0000
# 2 42.7760 116.9164 59.1253 0.0000 0.0000 0.0000
# 3 21.7787 59.1253 119.6420 0.0000 0.0000 0.0000
# 4 0.0000 0.0000 0.0000 25.7196 0.0000 0.0000
# 5 0.0000 0.0000 0.0000 0.0000 18.5180 0.0000
# 6 0.0000 0.0000 0.0000 0.0000 0.0000 21.3411
#
#
#
# Elastic Compliance Matrix: (Units=1/GPa)
#
#
# Indices 1 2 3 4 5 6 
#
# 1 0.019773 -0.007218 -0.000032 0.000000 0.000000 0.000000
# 2 -0.007218 0.014038 -0.005623 0.000000 0.000000 0.000000
# 3 -0.000032 -0.005623 0.011143 0.000000 0.000000 0.000000
# 4 0.000000 0.000000 0.000000 0.038881 0.000000 0.000000
# 5 0.000000 0.000000 0.000000 0.000000 0.054002 0.000000
# 6 0.000000 0.000000 0.000000 0.000000 0.000000 0.046858
#
#
# Mechanical properties :
#
#
# Convention : Reuss Voigt Hill
#
# Bulk Modulus (GPa) = 52.06570 61.12709 56.59640
# Shear Modulus (GPa) = 23.05815 25.05599 24.05707
#
# Velocity S-wave (km/s) = 3.39664 3.54073 3.46944
# Velocity P-wave (km/s) = 6.43693 6.87756 6.66089
#
# Compressibility (1/GPa) = 0.01920650
#
# Stress axis : x y z
#
# Youngs Moduli (GPa) = 50.57464 71.23695 89.74160
#
# Poissons Ratio (x) = 0.51418 0.00290
# Poissons Ratio (y) = 0.36504 0.50465
# Poissons Ratio (z) = 0.00163 0.40059
#
# Static dielectric constant tensor:
#      x y z
#    x 4.052660 0.000000 0.000000 
#    y 0.000000 3.962440 0.000000 
#    z 0.000000 0.000000 3.590250 
# 
# 
# High freq. dielectric constant tensor:
#      x y z
#    x 1.785060 0.000000 0.000000 
#    y 0.000000 1.774200 0.000000 
#    z 0.000000 0.000000 1.774520 
# 
# From -- ./inp_files/8279.got.cif
#   From: 2010.03.12/outbox.cif.g09.slc.cpg/sg51_5_cif.got.tgz:8279.got - 2010.04.16 13:43:02.
