data_PCOD8213311
_publ_section_title
;
Structure prediction by ZEFSAII (Michael W. Deem and Ramdas Pophale) SiO2 
 PCOD8213311
Probable space group: P M M A
;
_chemical_formula_sum "Si O2"
_cell_formula_units_Z 64
_cell_length_a 9.298397
_cell_length_b 24.606413
_cell_length_c 14.845863
_cell_angle_alpha 90.000000
_cell_angle_beta 90.000000
_cell_angle_gamma 90.000000
_cell_volume 3396.736376
_symmetry_space_group_name_H-M "P M M A"
_symmetry_group_IT_number 51
_symmetry_cell_setting 'orthorhombic'
loop_
_space_group_symop_operation_xyz
x,y,z
1/2-x,-y,z
1/2+x,-y,-z
-x,y,-z
-x,-y,-z
1/2+x,y,-z
1/2-x,y,z
x,-y,z
loop_
_atom_site_type_symbol
_atom_site_label
_atom_site_fract_x
_atom_site_fract_y
_atom_site_fract_z
Si Si1 0.407944 0.267736 0.081258
Si Si2 0.584526 0.437643 0.259390
Si Si3 0.087021 0.435435 0.085644
Si Si4 0.593086 0.860477 0.920735
Si Si5 0.419295 0.651257 0.594034
Si Si6 0.416316 0.061737 0.591091
Si Si7 0.582046 0.734368 0.716836
Si Si8 0.417349 0.860683 0.279174
O O1 0.250000 0.293895 0.074349
O O2 0.396746 0.203805 0.066679
O O3 0.470518 0.279920 0.181198
O O4 0.500000 0.294196 0.000000
O O5 0.750000 0.432190 0.229251
O O6 0.545694 0.500000 0.282165
O O7 0.487888 0.414908 0.177455
O O8 0.551981 0.403001 0.348375
O O9 0.250000 0.413432 0.083075
O O10 0.083743 0.500000 0.083124
O O11 0.000000 0.412050 0.000000
O O12 0.750000 0.886622 0.929623
O O13 0.530503 0.872997 0.822431
O O14 0.500000 0.887355 0.000000
O O15 0.500000 0.643735 0.500000
O O16 0.250000 0.660977 0.577524
O O17 0.483815 0.702674 0.646364
O O18 0.500000 0.072431 0.500000
O O19 0.250000 0.075025 0.574406
O O20 0.478968 0.102550 0.663129
O O21 0.438203 0.000000 0.624749
O O22 0.750000 0.719130 0.705238
O O23 0.559169 0.797837 0.696368
O O24 0.250000 0.876237 0.292456
#
# Coordination Sequence:
#
# PCOD8213311 Si02
#       8
#     8   8   8   8   8   8   8   8
#     4   8  14  26  46  72 102 135 168 204 246 293
#     4   9  19  37  58  79 104 134 172 217 260 308
#     4   9  16  27  48  79 111 141 171 205 250 304
#     4   8  14  25  43  70 102 134 169 207 248 294
#     4  11  24  40  58  78 101 133 171 214 267 318
#     4  10  21  36  54  77 104 134 170 215 266 315
#     4   9  19  36  55  77 108 142 175 212 254 304
#     4   9  18  33  54  79 106 139 177 214 255 304
#
# _framework density 18.841615999999998
#
# number of rings (size 3 to 8) (size 9 to 14) (size 15 to 20)
#    0.000    2.875    0.000    2.625    0.000    5.500 
#    0.000    3.125    0.000    1.875    0.000    0.000 
#    0.000    0.000    0.000    0.000    0.000    0.000 
#
# Total GULP energy -793336.445354 kJ/mol
# GULP energy per Si atom -12395.881959 kJ/mol
# Density = 1.879873 g / cm^3
# Si number density = 18.841616 Si / 1000 Ang^3
#
#
#
# Elastic Constant Matrix: (Units=GPa)
#
#
# Indices 1 2 3 4 5 6 
#
# 1 126.3518 48.0697 94.3425 0.0000 0.0000 0.0000
# 2 48.0697 62.7201 55.6352 0.0000 0.0000 0.0000
# 3 94.3425 55.6352 156.8102 0.0000 0.0000 0.0000
# 4 0.0000 0.0000 0.0000 302.4948 0.0000 0.0000
# 5 0.0000 0.0000 0.0000 0.0000 41.5844 0.0000
# 6 0.0000 0.0000 0.0000 0.0000 0.0000 13.1812
#
#
#
# Elastic Compliance Matrix: (Units=1/GPa)
#
#
# Indices 1 2 3 4 5 6 
#
# 1 0.015472 -0.005255 -0.007444 0.000000 0.000000 0.000000
# 2 -0.005255 0.025051 -0.005726 0.000000 0.000000 0.000000
# 3 -0.007444 -0.005726 0.012887 0.000000 0.000000 0.000000
# 4 0.000000 0.000000 0.000000 0.003306 0.000000 0.000000
# 5 0.000000 0.000000 0.000000 0.000000 0.024047 0.000000
# 6 0.000000 0.000000 0.000000 0.000000 0.000000 0.075866
#
#
# Mechanical properties :
#
#
# Convention : Reuss Voigt Hill
#
# Bulk Modulus (GPa) = 60.38781 82.44187 71.41484
# Shear Modulus (GPa) = 25.12576 81.30772 53.21674
#
# Velocity S-wave (km/s) = 3.65571 6.57624 5.32030
# Velocity P-wave (km/s) = 7.06673 10.07536 8.70205
#
# Compressibility (1/GPa) = 0.01655963
#
# Stress axis : x y z
#
# Youngs Moduli (GPa) = 64.63426 39.91906 77.59506
#
# Poissons Ratio (x) = 0.20976 0.57762
# Poissons Ratio (y) = 0.33963 0.44435
# Poissons Ratio (z) = 0.48114 0.22860
#
# Static dielectric constant tensor:
#      x y z
#    x 3.729260 0.000000 0.000000 
#    y 0.000000 3.165210 0.000000 
#    z 0.000000 0.000000 3.570150 
# 
# 
# High freq. dielectric constant tensor:
#      x y z
#    x 1.733860 0.000000 0.000000 
#    y 0.000000 1.707680 0.000000 
#    z 0.000000 0.000000 1.736320 
# 
# From -- ./inp_files/22198.got.cif
#   From: 2010.03.12/outbox.cif.g09.slc.cpg/sg51_12_cif.got.tgz:22198.got - 2010.04.16 13:43:02.
