data_PCOD8213918
_publ_section_title
;
Structure prediction by ZEFSAII (Michael W. Deem and Ramdas Pophale) SiO2 
 PCOD8213918
Probable space group: P M M A
;
_chemical_formula_sum "Si O2"
_cell_formula_units_Z 48
_cell_length_a 8.831538
_cell_length_b 30.252331
_cell_length_c 9.358999
_cell_angle_alpha 90.000000
_cell_angle_beta 90.000000
_cell_angle_gamma 90.000000
_cell_volume 2500.486915
_symmetry_space_group_name_H-M "P M M A"
_symmetry_group_IT_number 51
_symmetry_cell_setting 'orthorhombic'
loop_
_space_group_symop_operation_xyz
x,y,z
1/2-x,-y,z
1/2+x,-y,-z
-x,y,-z
-x,-y,-z
1/2+x,y,-z
1/2-x,y,z
x,-y,z
loop_
_atom_site_type_symbol
_atom_site_label
_atom_site_fract_x
_atom_site_fract_y
_atom_site_fract_z
Si Si1 0.074122 0.848450 0.648413
Si Si2 0.074153 0.254963 0.647828
Si Si3 0.928337 0.595250 0.654710
Si Si4 0.429488 0.082532 0.154163
Si Si5 0.570211 0.324204 0.846178
Si Si6 0.427866 0.000000 0.344932
Si Si7 0.073519 0.500000 0.347907
O O1 0.250000 0.861080 0.643739
O O2 0.048096 0.796740 0.672594
O O3 0.000000 0.864291 0.500000
O O4 0.993518 0.872170 0.780723
O O5 0.250000 0.267508 0.644309
O O6 0.000000 0.270767 0.500000
O O7 0.991310 0.279425 0.776570
O O8 0.750000 0.599650 0.635478
O O9 0.989021 0.633507 0.757580
O O10 0.972291 0.546947 0.725738
O O11 0.000000 0.601554 0.500000
O O12 0.250000 0.085717 0.138953
O O13 0.481130 0.042896 0.257496
O O14 0.500000 0.073897 0.000000
O O15 0.750000 0.321885 0.855983
O O16 0.500000 0.329245 0.000000
O O17 0.500000 0.000000 0.500000
O O18 0.250000 0.000000 0.365733
O O19 0.250000 0.500000 0.373859
O O20 0.000000 0.500000 0.500000
#
# Coordination Sequence:
#
# PCOD8213918 Si02
#       7
#     8   8   8   8   8   4   4
#     4  10  21  38  60  86 114 145 183 226 272 324
#     4  10  21  38  60  84 110 142 181 225 272 323
#     4   9  18  32  53  78 103 134 172 216 264 317
#     4  11  23  39  59  85 117 152 189 229 276 327
#     4  11  23  37  53  76 107 143 182 224 272 324
#     4  10  23  40  60  86 114 148 189 232 277 326
#     4   8  14  28  49  74 102 130 166 212 261 312
#
# _framework density 19.196262000000001
#
# number of rings (size 3 to 8) (size 9 to 14) (size 15 to 20)
#    0.000    2.000    0.000    3.250    0.000    8.000 
#    0.000    0.417    0.000    0.000    0.000    0.000 
#    0.000    0.000    0.000    0.000    0.000    0.000 
#
# Total GULP energy -595167.487511 kJ/mol
# GULP energy per Si atom -12399.322656 kJ/mol
# Density = 1.915257 g / cm^3
# Si number density = 19.196262 Si / 1000 Ang^3
#
#
#
# Elastic Constant Matrix: (Units=GPa)
#
#
# Indices 1 2 3 4 5 6 
#
# 1 85.3843 51.4769 56.4421 0.0000 0.0000 0.0000
# 2 51.4769 101.6967 70.7837 0.0000 0.0000 0.0000
# 3 56.4421 70.7837 149.0531 0.0000 0.0000 0.0000
# 4 0.0000 0.0000 0.0000 15.2822 0.0000 0.0000
# 5 0.0000 0.0000 0.0000 0.0000 37.5557 0.0000
# 6 0.0000 0.0000 0.0000 0.0000 0.0000 23.6725
#
#
#
# Elastic Compliance Matrix: (Units=1/GPa)
#
#
# Indices 1 2 3 4 5 6 
#
# 1 0.018159 -0.006581 -0.003751 0.000000 0.000000 0.000000
# 2 -0.006581 0.017073 -0.005616 0.000000 0.000000 0.000000
# 3 -0.003751 -0.005616 0.010796 0.000000 0.000000 0.000000
# 4 0.000000 0.000000 0.000000 0.065435 0.000000 0.000000
# 5 0.000000 0.000000 0.000000 0.000000 0.026627 0.000000
# 6 0.000000 0.000000 0.000000 0.000000 0.000000 0.042243
#
#
# Mechanical properties :
#
#
# Convention : Reuss Voigt Hill
#
# Bulk Modulus (GPa) = 70.75756 77.05996 73.90876
# Shear Modulus (GPa) = 23.04783 25.79750 24.42267
#
# Velocity S-wave (km/s) = 3.46879 3.66988 3.57075
# Velocity P-wave (km/s) = 7.27897 7.62809 7.45557
#
# Compressibility (1/GPa) = 0.01413276
#
# Stress axis : x y z
#
# Youngs Moduli (GPa) = 55.06971 58.57194 92.62401
#
# Poissons Ratio (x) = 0.38545 0.34744
# Poissons Ratio (y) = 0.36240 0.52016
# Poissons Ratio (z) = 0.20657 0.32893
#
# Static dielectric constant tensor:
#      x y z
#    x 3.559110 0.000000 0.000000 
#    y 0.000000 3.931250 0.000000 
#    z 0.000000 0.000000 3.396960 
# 
# 
# High freq. dielectric constant tensor:
#      x y z
#    x 1.754670 0.000000 0.000000 
#    y 0.000000 1.766340 0.000000 
#    z 0.000000 0.000000 1.733420 
# 
# From -- ./inp_files/6236.got.cif
#   From: 2010.03.12/outbox.cif.g09.slc.cpg/sg51_4_cif.got.tgz:6236.got - 2010.04.16 13:43:02.
