data_PCOD8213612
_publ_section_title
;
Structure prediction by ZEFSAII (Michael W. Deem and Ramdas Pophale) SiO2 
 PCOD8213612
Probable space group: P M M A
;
_chemical_formula_sum "Si O2"
_cell_formula_units_Z 56
_cell_length_a 16.111276
_cell_length_b 9.426547
_cell_length_c 19.401132
_cell_angle_alpha 90.000000
_cell_angle_beta 90.000000
_cell_angle_gamma 90.000000
_cell_volume 2946.521710
_symmetry_space_group_name_H-M "P M M A"
_symmetry_group_IT_number 51
_symmetry_cell_setting 'orthorhombic'
loop_
_space_group_symop_operation_xyz
x,y,z
1/2-x,-y,z
1/2+x,-y,-z
-x,y,-z
-x,-y,-z
1/2+x,y,-z
1/2-x,y,z
x,-y,z
loop_
_atom_site_type_symbol
_atom_site_label
_atom_site_fract_x
_atom_site_fract_y
_atom_site_fract_z
Si Si1 0.750000 0.834937 0.078939
Si Si2 0.656689 0.159550 0.641416
Si Si3 0.569552 0.166767 0.054240
Si Si4 0.986260 0.666765 0.577167
Si Si5 0.992543 0.339151 0.830946
Si Si6 0.250000 0.829740 0.763900
Si Si7 0.599732 0.661606 0.299352
Si Si8 0.842626 0.839431 0.802674
O O1 0.833782 0.795933 0.035193
O O2 0.750000 0.771098 0.157061
O O3 0.750000 0.000000 0.092752
O O4 0.750000 0.180146 0.613637
O O5 0.599239 0.267952 0.602166
O O6 0.654697 0.190973 0.722135
O O7 0.625668 0.000000 0.627094
O O8 0.557752 0.249818 0.125018
O O9 0.557994 0.000000 0.066843
O O10 0.500000 0.220903 0.000000
O O11 0.973361 0.500000 0.578889
O O12 0.064243 0.708608 0.625936
O O13 0.000000 0.723289 0.500000
O O14 0.988742 0.500000 0.857894
O O15 0.902302 0.269774 0.841378
O O16 0.021367 0.330374 0.752083
O O17 0.329812 0.770262 0.723719
O O18 0.250000 0.000000 0.759189
O O19 0.634682 0.500000 0.301038
O O20 0.750000 0.815602 0.831401
O O21 0.871723 0.000000 0.819150
#
# Coordination Sequence:
#
# PCOD8213612 Si02
#       8
#     4   8   8   8   8   4   8   8
#     4   9  18  35  59  87 113 144 193 240 282 340
#     4   9  18  33  54  79 107 138 175 224 275 325
#     4  10  21  39  61  83 114 155 196 241 289 342
#     4  10  21  38  57  78 108 149 192 232 281 343
#     4  11  21  34  57  85 115 146 184 236 289 340
#     4  11  21  35  61  89 113 144 189 244 290 340
#     4  10  21  37  56  82 114 147 186 236 291 345
#     4   9  18  33  54  80 109 143 182 222 270 329
#
# _framework density 19.005459999999999
#
# number of rings (size 3 to 8) (size 9 to 14) (size 15 to 20)
#    0.000    2.143    2.857    1.500    0.000    2.286 
#    2.571    1.786    0.000    0.000    0.000    0.000 
#    0.000    0.000    0.000    0.000    0.000    0.000 
#
# Total GULP energy -694180.500811 kJ/mol
# GULP energy per Si atom -12396.080372 kJ/mol
# Density = 1.896220 g / cm^3
# Si number density = 19.005460 Si / 1000 Ang^3
#
#
#
# Elastic Constant Matrix: (Units=GPa)
#
#
# Indices 1 2 3 4 5 6 
#
# 1 132.0990 42.6714 39.0378 0.0000 0.0000 0.0000
# 2 42.6714 56.5872 19.9481 0.0000 0.0000 0.0000
# 3 39.0378 19.9481 63.7817 0.0000 0.0000 0.0000
# 4 0.0000 0.0000 0.0000 22.5543 0.0000 0.0000
# 5 0.0000 0.0000 0.0000 0.0000 19.3342 0.0000
# 6 0.0000 0.0000 0.0000 0.0000 0.0000 29.7467
#
#
#
# Elastic Compliance Matrix: (Units=1/GPa)
#
#
# Indices 1 2 3 4 5 6 
#
# 1 0.011139 -0.006739 -0.004710 0.000000 0.000000 0.000000
# 2 -0.006739 0.023939 -0.003362 0.000000 0.000000 0.000000
# 3 -0.004710 -0.003362 0.019613 0.000000 0.000000 0.000000
# 4 0.000000 0.000000 0.000000 0.044337 0.000000 0.000000
# 5 0.000000 0.000000 0.000000 0.000000 0.051722 0.000000
# 6 0.000000 0.000000 0.000000 0.000000 0.000000 0.033617
#
#
# Mechanical properties :
#
#
# Convention : Reuss Voigt Hill
#
# Bulk Modulus (GPa) = 39.89173 50.64251 45.26712
# Shear Modulus (GPa) = 22.48748 24.38109 23.43428
#
# Velocity S-wave (km/s) = 3.44352 3.58557 3.51526
# Velocity P-wave (km/s) = 6.07006 6.62162 6.35183
#
# Compressibility (1/GPa) = 0.02506785
#
# Stress axis : x y z
#
# Youngs Moduli (GPa) = 89.77532 41.77258 50.98733
#
# Poissons Ratio (x) = 0.28152 0.24014
# Poissons Ratio (y) = 0.60503 0.17143
# Poissons Ratio (z) = 0.42283 0.14045
#
# Static dielectric constant tensor:
#      x y z
#    x 3.873560 0.000000 0.000000 
#    y 0.000000 3.374020 0.000000 
#    z 0.000000 0.000000 3.392180 
# 
# 
# High freq. dielectric constant tensor:
#      x y z
#    x 1.748110 0.000000 0.000000 
#    y 0.000000 1.727880 0.000000 
#    z 0.000000 0.000000 1.718420 
# 
# From -- ./inp_files/33536.got.cif
#   From: 2010.03.12/outbox.cif.g09.slc.cpg/sg51_17_cif.got.tgz:33536.got - 2010.04.16 13:43:02.
