data_PCOD8213194
_publ_section_title
;
Structure prediction by ZEFSAII (Michael W. Deem and Ramdas Pophale) SiO2 
 PCOD8213194
Probable space group: P M M A
;
_chemical_formula_sum "Si O2"
_cell_formula_units_Z 48
_cell_length_a 8.938759
_cell_length_b 13.977668
_cell_length_c 21.101627
_cell_angle_alpha 90.000000
_cell_angle_beta 90.000000
_cell_angle_gamma 90.000000
_cell_volume 2636.500701
_symmetry_space_group_name_H-M "P M M A"
_symmetry_group_IT_number 51
_symmetry_cell_setting 'orthorhombic'
loop_
_space_group_symop_operation_xyz
x,y,z
1/2-x,-y,z
1/2+x,-y,-z
-x,y,-z
-x,-y,-z
1/2+x,y,-z
1/2-x,y,z
x,-y,z
loop_
_atom_site_type_symbol
_atom_site_label
_atom_site_fract_x
_atom_site_fract_y
_atom_site_fract_z
Si Si1 0.926250 0.610961 0.067291
Si Si2 0.926754 0.295865 0.810149
Si Si3 0.416800 0.614207 0.562004
Si Si4 0.074665 0.893590 0.813525
Si Si5 0.084090 0.612130 0.316101
Si Si6 0.585786 0.108356 0.942918
O O1 0.750000 0.630558 0.063375
O O2 0.960461 0.500000 0.083114
O O3 0.995257 0.676024 0.123515
O O4 0.000000 0.638653 0.000000
O O5 0.750000 0.299827 0.820737
O O6 0.980733 0.366085 0.753815
O O7 0.978007 0.191672 0.782885
O O8 0.500000 0.654243 0.500000
O O9 0.250000 0.653891 0.558728
O O10 0.420851 0.500000 0.562399
O O11 0.487778 0.656500 0.626575
O O12 0.250000 0.873753 0.805372
O O13 0.030410 0.887644 0.886443
O O14 0.033674 0.000000 0.786521
O O15 0.250000 0.656407 0.321443
O O16 0.088748 0.500000 0.325364
O O17 0.750000 0.155511 0.927630
O O18 0.617380 0.000000 0.963455
O O19 0.500000 0.163143 0.000000
#
# Coordination Sequence:
#
# PCOD8213194 Si02
#       6
#     8   8   8   8   8   8
#     4  10  21  37  56  76  99 128 164 207 252 299
#     4  11  22  35  53  75  99 128 164 207 253 301
#     4   9  16  26  43  68  99 135 170 200 231 272
#     4  10  21  36  51  67  90 120 155 198 247 298
#     4   9  18  32  49  71 101 134 165 198 237 282
#     4   9  16  27  44  64  84 106 135 174 224 283
#
# _framework density 18.205950000000001
#
# number of rings (size 3 to 8) (size 9 to 14) (size 15 to 20)
#    0.000    2.333    0.000    3.000    0.000    8.667 
#    0.000    5.000    0.000    0.000    0.000    0.000 
#    0.000    0.667    0.000    2.167    0.000    3.167 
#
# Total GULP energy -594732.642513 kJ/mol
# GULP energy per Si atom -12390.263386 kJ/mol
# Density = 1.816451 g / cm^3
# Si number density = 18.205950 Si / 1000 Ang^3
#
#
#
# Elastic Constant Matrix: (Units=GPa)
#
#
# Indices 1 2 3 4 5 6 
#
# 1 100.7198 28.9867 54.8533 0.0000 0.0000 0.0000
# 2 28.9867 49.5820 15.6606 0.0000 0.0000 0.0000
# 3 54.8533 15.6606 116.9597 0.0000 0.0000 0.0000
# 4 0.0000 0.0000 0.0000 4.9833 0.0000 0.0000
# 5 0.0000 0.0000 0.0000 0.0000 28.2176 0.0000
# 6 0.0000 0.0000 0.0000 0.0000 0.0000 20.6500
#
#
#
# Elastic Compliance Matrix: (Units=1/GPa)
#
#
# Indices 1 2 3 4 5 6 
#
# 1 0.015354 -0.006998 -0.006264 0.000000 0.000000 0.000000
# 2 -0.006998 0.024249 0.000035 0.000000 0.000000 0.000000
# 3 -0.006264 0.000035 0.011483 0.000000 0.000000 0.000000
# 4 0.000000 0.000000 0.000000 0.200669 0.000000 0.000000
# 5 0.000000 0.000000 0.000000 0.000000 0.035439 0.000000
# 6 0.000000 0.000000 0.000000 0.000000 0.000000 0.048426
#
#
# Mechanical properties :
#
#
# Convention : Reuss Voigt Hill
#
# Bulk Modulus (GPa) = 40.59709 51.80695 46.20202
# Shear Modulus (GPa) = 13.50318 21.95424 17.72871
#
# Velocity S-wave (km/s) = 2.72635 3.47635 3.12394
# Velocity P-wave (km/s) = 5.67960 6.68066 6.20037
#
# Compressibility (1/GPa) = 0.02463231
#
# Stress axis : x y z
#
# Youngs Moduli (GPa) = 65.13040 41.23961 87.08550
#
# Poissons Ratio (x) = 0.28858 0.54549
# Poissons Ratio (y) = 0.45576 -0.00305
# Poissons Ratio (z) = 0.40797 -0.00145
#
# Static dielectric constant tensor:
#      x y z
#    x 3.754930 0.000000 0.000000 
#    y 0.000000 3.471370 0.000000 
#    z 0.000000 0.000000 3.291240 
# 
# 
# High freq. dielectric constant tensor:
#      x y z
#    x 1.721350 0.000000 0.000000 
#    y 0.000000 1.673010 0.000000 
#    z 0.000000 0.000000 1.681040 
# 
# From -- ./inp_files/27587.got.cif
#   From: 2010.03.12/outbox.cif.g09.slc.cpg/sg51_14_cif.got.tgz:27587.got - 2010.04.16 13:43:02.
