data_PCOD8213889
_publ_section_title
;
Structure prediction by ZEFSAII (Michael W. Deem and Ramdas Pophale) SiO2 
 PCOD8213889
Probable space group: P M M A
;
_chemical_formula_sum "Si O2"
_cell_formula_units_Z 48
_cell_length_a 15.596150
_cell_length_b 9.212124
_cell_length_c 16.717976
_cell_angle_alpha 90.000000
_cell_angle_beta 90.000000
_cell_angle_gamma 90.000000
_cell_volume 2401.932929
_symmetry_space_group_name_H-M "P M M A"
_symmetry_group_IT_number 51
_symmetry_cell_setting 'orthorhombic'
loop_
_space_group_symop_operation_xyz
x,y,z
1/2-x,-y,z
1/2+x,-y,-z
-x,y,-z
-x,-y,-z
1/2+x,y,-z
1/2-x,y,z
x,-y,z
loop_
_atom_site_type_symbol
_atom_site_label
_atom_site_fract_x
_atom_site_fract_y
_atom_site_fract_z
Si Si1 0.653626 0.668191 0.799501
Si Si2 0.654559 0.165968 0.172572
Si Si3 0.410136 0.834083 0.349403
Si Si4 0.151034 0.665176 0.497872
Si Si5 0.498264 0.328003 0.909699
Si Si6 0.607305 0.162907 0.347507
O O1 0.750000 0.691320 0.833831
O O2 0.636592 0.500000 0.780015
O O3 0.646867 0.754268 0.716620
O O4 0.584326 0.725971 0.864047
O O5 0.750000 0.195778 0.138104
O O6 0.587508 0.270939 0.130988
O O7 0.659176 0.196792 0.267204
O O8 0.626374 0.000000 0.156872
O O9 0.402413 0.760468 0.435864
O O10 0.508272 0.821364 0.323720
O O11 0.379203 0.000000 0.355735
O O12 0.250000 0.675653 0.474301
O O13 0.118231 0.500000 0.494154
O O14 0.136429 0.722794 0.586814
O O15 0.493804 0.500000 0.908668
O O16 0.500000 0.267964 0.000000
O O17 0.626574 0.000000 0.379197
#
# Coordination Sequence:
#
# PCOD8213889 Si02
#       6
#     8   8   8   8   8   8
#     4  10  21  38  60  86 119 158 198 242 294 351
#     4  10  21  39  63  90 122 160 199 244 299 354
#     4  11  22  37  59  85 113 151 198 245 294 348
#     4  11  24  38  53  80 117 155 197 243 291 345
#     4  10  22  40  63  91 122 157 196 243 298 356
#     4  10  21  38  59  83 114 153 198 245 293 346
#
# _framework density 19.983905
#
# number of rings (size 3 to 8) (size 9 to 14) (size 15 to 20)
#    0.000    1.667    1.667    2.500    0.000    9.667 
#    0.000    1.667    0.000    0.000    0.000    0.000 
#    0.000    0.000    0.000    0.000    0.000    0.000 
#
# Total GULP energy -595380.748344 kJ/mol
# GULP energy per Si atom -12403.765590 kJ/mol
# Density = 1.993842 g / cm^3
# Si number density = 19.983905 Si / 1000 Ang^3
#
#
#
# Elastic Constant Matrix: (Units=GPa)
#
#
# Indices 1 2 3 4 5 6 
#
# 1 97.4688 28.3673 32.9810 0.0000 0.0000 0.0000
# 2 28.3673 74.7688 36.0929 0.0000 0.0000 0.0000
# 3 32.9810 36.0929 93.3326 0.0000 0.0000 0.0000
# 4 0.0000 0.0000 0.0000 24.1679 0.0000 0.0000
# 5 0.0000 0.0000 0.0000 0.0000 15.7706 0.0000
# 6 0.0000 0.0000 0.0000 0.0000 0.0000 22.2401
#
#
#
# Elastic Compliance Matrix: (Units=1/GPa)
#
#
# Indices 1 2 3 4 5 6 
#
# 1 0.012224 -0.003139 -0.003106 0.000000 0.000000 0.000000
# 2 -0.003139 0.017250 -0.005562 0.000000 0.000000 0.000000
# 3 -0.003106 -0.005562 0.013963 0.000000 0.000000 0.000000
# 4 0.000000 0.000000 0.000000 0.041377 0.000000 0.000000
# 5 0.000000 0.000000 0.000000 0.000000 0.063409 0.000000
# 6 0.000000 0.000000 0.000000 0.000000 0.000000 0.044964
#
#
# Mechanical properties :
#
#
# Convention : Reuss Voigt Hill
#
# Bulk Modulus (GPa) = 50.44264 51.16140 50.80202
# Shear Modulus (GPa) = 22.38057 23.64430 23.01244
#
# Velocity S-wave (km/s) = 3.35017 3.44345 3.39713
# Velocity P-wave (km/s) = 6.34518 6.43946 6.39249
#
# Compressibility (1/GPa) = 0.01982450
#
# Stress axis : x y z
#
# Youngs Moduli (GPa) = 81.80561 57.97061 71.61924
#
# Poissons Ratio (x) = 0.18194 0.22245
# Poissons Ratio (y) = 0.25675 0.39833
# Poissons Ratio (z) = 0.25408 0.32242
#
# Static dielectric constant tensor:
#      x y z
#    x 3.724430 0.000000 0.000000 
#    y 0.000000 3.604690 0.000000 
#    z 0.000000 0.000000 3.538740 
# 
# 
# High freq. dielectric constant tensor:
#      x y z
#    x 1.792960 0.000000 0.000000 
#    y 0.000000 1.775530 0.000000 
#    z 0.000000 0.000000 1.771990 
# 
# From -- ./inp_files/29419.got.cif
#   From: 2010.03.12/outbox.cif.g09.slc.cpg/sg51_15_cif.got.tgz:29419.got - 2010.04.16 13:43:02.
