data_PCOD8213030
_publ_section_title
;
Structure prediction by ZEFSAII (Michael W. Deem and Ramdas Pophale) SiO2 
 PCOD8213030
Probable space group: P M M A
;
_chemical_formula_sum "Si O2"
_cell_formula_units_Z 40
_cell_length_a 9.416893
_cell_length_b 9.218800
_cell_length_c 25.717421
_cell_angle_alpha 90.000000
_cell_angle_beta 90.000000
_cell_angle_gamma 90.000000
_cell_volume 2232.592407
_symmetry_space_group_name_H-M "P M M A"
_symmetry_group_IT_number 51
_symmetry_cell_setting 'orthorhombic'
loop_
_space_group_symop_operation_xyz
x,y,z
1/2-x,-y,z
1/2+x,-y,-z
-x,y,-z
-x,-y,-z
1/2+x,y,-z
1/2-x,y,z
x,-y,z
loop_
_atom_site_type_symbol
_atom_site_label
_atom_site_fract_x
_atom_site_fract_y
_atom_site_fract_z
Si Si1 0.911100 0.172687 0.951195
Si Si2 0.913639 0.669371 0.252012
Si Si3 0.081618 0.165158 0.338232
Si Si4 0.093606 0.828044 0.453763
Si Si5 0.413751 0.830697 0.851881
O O1 0.750000 0.233221 0.952738
O O2 0.988670 0.225890 0.898907
O O3 0.909540 0.000000 0.953393
O O4 0.000000 0.234581 0.000000
O O5 0.750000 0.706141 0.263569
O O6 0.940061 0.500000 0.245283
O O7 0.963769 0.746278 0.199225
O O8 0.006335 0.725938 0.299415
O O9 0.250000 0.181591 0.333299
O O10 0.031940 0.208664 0.396597
O O11 0.036093 0.000000 0.325587
O O12 0.250000 0.760368 0.459605
O O13 0.000000 0.759260 0.500000
O O14 0.102372 0.000000 0.459730
O O15 0.250000 0.797605 0.865912
O O16 0.437413 0.000000 0.841390
#
# Coordination Sequence:
#
# PCOD8213030 Si02
#       5
#     8   8   8   8   8
#     4   9  16  26  43  69  98 124 151 187 232 280
#     4  10  21  35  50  70  97 129 165 204 245 289
#     4   9  18  32  50  73 100 128 160 199 241 287
#     4   8  14  25  42  67  97 124 151 188 235 284
#     4   9  17  30  48  69  94 124 157 194 236 281
#
# _framework density 17.916392999999999
#
# number of rings (size 3 to 8) (size 9 to 14) (size 15 to 20)
#    0.000    3.000    0.000    2.400    0.000    5.600 
#    0.000    4.000    0.000    1.200    0.000    0.000 
#    0.000    0.000    0.000    0.000    0.000    0.000 
#
# Total GULP energy -495910.518380 kJ/mol
# GULP energy per Si atom -12397.762960 kJ/mol
# Density = 1.787561 g / cm^3
# Si number density = 17.916393 Si / 1000 Ang^3
#
#
#
# Elastic Constant Matrix: (Units=GPa)
#
#
# Indices 1 2 3 4 5 6 
#
# 1 87.7040 25.0413 78.1950 0.0000 0.0000 0.0000
# 2 25.0413 38.1920 43.1558 0.0000 0.0000 0.0000
# 3 78.1950 43.1558 169.0016 0.0000 0.0000 0.0000
# 4 0.0000 0.0000 0.0000 -0.0444 0.0000 0.0000
# 5 0.0000 0.0000 0.0000 0.0000 37.9519 0.0000
# 6 0.0000 0.0000 0.0000 0.0000 0.0000 17.0777
#
#
#
# Elastic Compliance Matrix: (Units=1/GPa)
#
#
# Indices 1 2 3 4 5 6 
#
# 1 0.019772 -0.003692 -0.008205 0.000000 0.000000 0.000000
# 2 -0.003692 0.037492 -0.007866 0.000000 0.000000 0.000000
# 3 -0.008205 -0.007866 0.011722 0.000000 0.000000 0.000000
# 4 0.000000 0.000000 0.000000-22.525491 0.000000 0.000000
# 5 0.000000 0.000000 0.000000 0.000000 0.026349 0.000000
# 6 0.000000 0.000000 0.000000 0.000000 0.000000 0.058556
#
#
# Mechanical properties :
#
#
# Convention : Reuss Voigt Hill
#
# Bulk Modulus (GPa) = 33.94409 65.29798 49.62103
# Shear Modulus (GPa) = -0.22399 20.89740 10.33670
#
# Velocity S-wave (km/s) = -0.35397 3.41894 2.40457
# Velocity P-wave (km/s) = 4.33819 7.21877 5.95527
#
# Compressibility (1/GPa) = 0.02946021
#
# Stress axis : x y z
#
# Youngs Moduli (GPa) = 50.57672 26.67221 85.30783
#
# Poissons Ratio (x) = 0.09847 0.69999
# Poissons Ratio (y) = 0.18672 0.67101
# Poissons Ratio (z) = 0.41501 0.20980
#
# Static dielectric constant tensor:
#      x y z
#    x 3.476940 0.000000 0.000000 
#    y 0.000000 2.847660 0.000000 
#    z 0.000000 0.000000 3.514350 
# 
# 
# High freq. dielectric constant tensor:
#      x y z
#    x 1.692060 0.000000 0.000000 
#    y 0.000000 1.642730 0.000000 
#    z 0.000000 0.000000 1.708650 
# 
# From -- ./inp_files/34300.got.cif
#   From: 2010.03.12/outbox.cif.g09.slc.cpg/sg51_18_cif.got.tgz:34300.got - 2010.04.16 13:43:02.
