data_PCOD8213440
_publ_section_title
;
Structure prediction by ZEFSAII (Michael W. Deem and Ramdas Pophale) SiO2 
 PCOD8213440
Probable space group: P M M A
;
_chemical_formula_sum "Si O2"
_cell_formula_units_Z 64
_cell_length_a 17.424107
_cell_length_b 20.042913
_cell_length_c 9.382574
_cell_angle_alpha 90.000000
_cell_angle_beta 90.000000
_cell_angle_gamma 90.000000
_cell_volume 3276.675011
_symmetry_space_group_name_H-M "P M M A"
_symmetry_group_IT_number 51
_symmetry_cell_setting 'orthorhombic'
loop_
_space_group_symop_operation_xyz
x,y,z
1/2-x,-y,z
1/2+x,-y,-z
-x,y,-z
-x,-y,-z
1/2+x,y,-z
1/2-x,y,z
x,-y,z
loop_
_atom_site_type_symbol
_atom_site_label
_atom_site_fract_x
_atom_site_fract_y
_atom_site_fract_z
Si Si1 0.421451 0.573162 0.920180
Si Si2 0.662107 0.824656 0.836126
Si Si3 0.338257 0.924095 0.667384
Si Si4 0.073116 0.577161 0.592298
Si Si5 0.914725 0.923048 0.036493
Si Si6 0.160632 0.681467 0.436444
Si Si7 0.337809 0.323217 0.116307
Si Si8 0.411285 0.180542 0.461725
O O1 0.379507 0.500000 0.925379
O O2 0.439113 0.593551 0.757799
O O3 0.500000 0.565131 0.000000
O O4 0.375376 0.631467 0.995999
O O5 0.750000 0.827130 0.780437
O O6 0.647781 0.754692 0.918621
O O7 0.603577 0.831727 0.705109
O O8 0.647788 0.884013 0.944771
O O9 0.250000 0.911990 0.713654
O O10 0.395182 0.910824 0.799033
O O11 0.360765 0.873828 0.543397
O O12 0.348894 0.000000 0.612257
O O13 0.090673 0.500000 0.564550
O O14 0.146364 0.618416 0.537731
O O15 0.000000 0.600727 0.500000
O O16 0.906934 0.000000 0.993786
O O17 0.000000 0.896538 0.000000
O O18 0.250000 0.699843 0.432755
O O19 0.131343 0.663508 0.276786
O O20 0.115574 0.744810 0.501380
O O21 0.250000 0.343235 0.109723
O O22 0.500000 0.170959 0.500000
#
# Coordination Sequence:
#
# PCOD8213440 Si02
#       8
#     8   8   8   8   8   8   8   8
#     4  10  21  36  56  82 110 143 183 226 274 330
#     4  10  21  38  58  82 113 148 190 235 281 339
#     4  10  21  37  56  81 115 151 186 229 284 341
#     4  10  21  37  57  82 113 147 187 235 282 334
#     4  10  21  37  57  83 114 148 189 235 282 335
#     4  10  21  38  58  81 112 148 187 230 282 343
#     4   9  20  37  55  78 110 145 181 228 279 328
#     4  11  22  37  59  85 113 146 187 235 284 336
#
# _framework density 19.531995999999999
#
# number of rings (size 3 to 8) (size 9 to 14) (size 15 to 20)
#    0.000    2.000    0.000    4.125    0.000    6.500 
#    0.000    3.750    0.000    0.000    0.000    0.000 
#    0.000    0.000    0.000    0.000    0.000    0.000 
#
# Total GULP energy -793585.108092 kJ/mol
# GULP energy per Si atom -12399.767314 kJ/mol
# Density = 1.948754 g / cm^3
# Si number density = 19.531996 Si / 1000 Ang^3
#
#
#
# Elastic Constant Matrix: (Units=GPa)
#
#
# Indices 1 2 3 4 5 6 
#
# 1 81.7324 44.6338 39.8536 0.0000 0.0000 0.0000
# 2 44.6338 103.5501 69.0380 0.0000 0.0000 0.0000
# 3 39.8536 69.0380 109.0725 0.0000 0.0000 0.0000
# 4 0.0000 0.0000 0.0000 25.5713 0.0000 0.0000
# 5 0.0000 0.0000 0.0000 0.0000 34.4531 0.0000
# 6 0.0000 0.0000 0.0000 0.0000 0.0000 58.6703
#
#
#
# Elastic Compliance Matrix: (Units=1/GPa)
#
#
# Indices 1 2 3 4 5 6 
#
# 1 0.016427 -0.005327 -0.002631 0.000000 0.000000 0.000000
# 2 -0.005327 0.018435 -0.009722 0.000000 0.000000 0.000000
# 3 -0.002631 -0.009722 0.016283 0.000000 0.000000 0.000000
# 4 0.000000 0.000000 0.000000 0.039106 0.000000 0.000000
# 5 0.000000 0.000000 0.000000 0.000000 0.029025 0.000000
# 6 0.000000 0.000000 0.000000 0.000000 0.000000 0.017044
#
#
# Mechanical properties :
#
#
# Convention : Reuss Voigt Hill
#
# Bulk Modulus (GPa) = 63.34773 66.82289 65.08531
# Shear Modulus (GPa) = 28.25792 33.12758 30.69275
#
# Velocity S-wave (km/s) = 3.80774 4.12280 3.96840
# Velocity P-wave (km/s) = 7.19966 7.54650 7.37512
#
# Compressibility (1/GPa) = 0.01578589
#
# Stress axis : x y z
#
# Youngs Moduli (GPa) = 60.87692 54.24431 61.41312
#
# Poissons Ratio (x) = 0.28894 0.16155
# Poissons Ratio (y) = 0.32427 0.59708
# Poissons Ratio (z) = 0.16014 0.52738
#
# Static dielectric constant tensor:
#      x y z
#    x 3.403130 0.000000 0.000000 
#    y 0.000000 3.716620 0.000000 
#    z 0.000000 0.000000 3.629780 
# 
# 
# High freq. dielectric constant tensor:
#      x y z
#    x 1.757580 0.000000 0.000000 
#    y 0.000000 1.770210 0.000000 
#    z 0.000000 0.000000 1.758430 
# 
# From -- ./inp_files/10067.got.cif
#   From: 2010.03.12/outbox.cif.g09.slc.cpg/sg51_6_cif.got.tgz:10067.got - 2010.04.16 13:43:02.
