data_PCOD8213449
_publ_section_title
;
Structure prediction by ZEFSAII (Michael W. Deem and Ramdas Pophale) SiO2 
 PCOD8213449
Probable space group: P M M A
;
_chemical_formula_sum "Si O2"
_cell_formula_units_Z 48
_cell_length_a 9.287324
_cell_length_b 9.481890
_cell_length_c 29.189764
_cell_angle_alpha 90.000000
_cell_angle_beta 90.000000
_cell_angle_gamma 90.000000
_cell_volume 2570.491033
_symmetry_space_group_name_H-M "P M M A"
_symmetry_group_IT_number 51
_symmetry_cell_setting 'orthorhombic'
loop_
_space_group_symop_operation_xyz
x,y,z
1/2-x,-y,z
1/2+x,-y,-z
-x,y,-z
-x,-y,-z
1/2+x,y,-z
1/2-x,y,z
x,-y,z
loop_
_atom_site_type_symbol
_atom_site_label
_atom_site_fract_x
_atom_site_fract_y
_atom_site_fract_z
Si Si1 0.413361 0.277775 0.100784
Si Si2 0.084110 0.336963 0.205655
Si Si3 0.079133 0.163106 0.719166
Si Si4 0.411083 0.000000 0.046335
Si Si5 0.581632 0.162027 0.454204
Si Si6 0.078878 0.339743 0.632068
Si Si7 0.918767 0.500000 0.047481
O O1 0.250000 0.331710 0.090315
O O2 0.439658 0.279666 0.154716
O O3 0.535813 0.366835 0.076707
O O4 0.442337 0.126389 0.080314
O O5 0.250000 0.323074 0.220428
O O6 0.033872 0.500000 0.209373
O O7 0.988126 0.236771 0.236802
O O8 0.250000 0.172615 0.723251
O O9 0.022265 0.248732 0.674940
O O10 0.029432 0.000000 0.715609
O O11 0.250000 0.000000 0.027760
O O12 0.500000 0.000000 0.000000
O O13 0.500000 0.207488 0.500000
O O14 0.750000 0.184044 0.462782
O O15 0.523792 0.262864 0.413873
O O16 0.548069 0.000000 0.440864
O O17 0.250000 0.341953 0.632408
O O18 0.018140 0.500000 0.634419
O O19 0.750000 0.500000 0.038042
O O20 0.000000 0.500000 0.000000
#
# Coordination Sequence:
#
# PCOD8213449 Si02
#       7
#     8   8   8   4   8   8   4
#     4  10  21  40  61  83 112 148 187 227 273 328
#     4  10  21  38  60  83 110 144 182 226 276 331
#     4  10  21  36  56  83 112 143 182 229 275 327
#     4  10  22  38  60  84 110 146 184 224 271 322
#     4   9  17  30  49  73 102 138 180 225 274 328
#     4   9  17  31  52  76 104 142 184 226 273 326
#     4  12  24  38  60  88 116 150 188 228 273 324
#
# _framework density 18.673475
#
# number of rings (size 3 to 8) (size 9 to 14) (size 15 to 20)
#    0.000    2.167    0.833    2.250    1.167    6.333 
#    0.000    0.833    0.000    3.000    0.000    0.000 
#    0.000    0.000    0.000    0.000    0.000    0.000 
#
# Total GULP energy -595128.613775 kJ/mol
# GULP energy per Si atom -12398.512787 kJ/mol
# Density = 1.863097 g / cm^3
# Si number density = 18.673475 Si / 1000 Ang^3
#
#
#
# Elastic Constant Matrix: (Units=GPa)
#
#
# Indices 1 2 3 4 5 6 
#
# 1 61.6246 47.4915 51.8853 0.0000 0.0000 0.0000
# 2 47.4915 165.8307 91.8066 0.0000 0.0000 0.0000
# 3 51.8853 91.8066 151.7933 0.0000 0.0000 0.0000
# 4 0.0000 0.0000 0.0000 46.2563 0.0000 0.0000
# 5 0.0000 0.0000 0.0000 0.0000 34.1525 0.0000
# 6 0.0000 0.0000 0.0000 0.0000 0.0000 26.1618
#
#
#
# Elastic Compliance Matrix: (Units=1/GPa)
#
#
# Indices 1 2 3 4 5 6 
#
# 1 0.024075 -0.003516 -0.006103 0.000000 0.000000 0.000000
# 2 -0.003516 0.009579 -0.004592 0.000000 0.000000 0.000000
# 3 -0.006103 -0.004592 0.011451 0.000000 0.000000 0.000000
# 4 0.000000 0.000000 0.000000 0.021619 0.000000 0.000000
# 5 0.000000 0.000000 0.000000 0.000000 0.029280 0.000000
# 6 0.000000 0.000000 0.000000 0.000000 0.000000 0.038224
#
#
# Mechanical properties :
#
#
# Convention : Reuss Voigt Hill
#
# Bulk Modulus (GPa) = 59.93662 84.62394 72.28028
# Shear Modulus (GPa) = 29.72451 33.85179 31.78815
#
# Velocity S-wave (km/s) = 3.99407 4.26235 4.13039
# Velocity P-wave (km/s) = 7.31006 8.34504 7.84464
#
# Compressibility (1/GPa) = 0.01668429
#
# Stress axis : x y z
#
# Youngs Moduli (GPa) = 41.53636 104.39106 87.32828
#
# Poissons Ratio (x) = 0.36707 0.53293
# Poissons Ratio (y) = 0.14606 0.40099
# Poissons Ratio (z) = 0.25348 0.47934
#
# Static dielectric constant tensor:
#      x y z
#    x 3.175860 0.000000 0.000000 
#    y 0.000000 3.652820 0.000000 
#    z 0.000000 0.000000 3.750410 
# 
# 
# High freq. dielectric constant tensor:
#      x y z
#    x 1.698390 0.000000 0.000000 
#    y 0.000000 1.738470 0.000000 
#    z 0.000000 0.000000 1.737260 
# 
# From -- ./inp_files/37204.got.cif
#   From: 2010.03.12/outbox.cif.g09.slc.cpg/sg51_19_cif.got.tgz:37204.got - 2010.04.16 13:43:02.
