data_PCOD8213877
_publ_section_title
;
Structure prediction by ZEFSAII (Michael W. Deem and Ramdas Pophale) SiO2 
 PCOD8213877
Probable space group: P M M A
;
_chemical_formula_sum "Si O2"
_cell_formula_units_Z 64
_cell_length_a 14.561457
_cell_length_b 8.980140
_cell_length_c 23.833443
_cell_angle_alpha 90.000000
_cell_angle_beta 90.000000
_cell_angle_gamma 90.000000
_cell_volume 3116.554493
_symmetry_space_group_name_H-M "P M M A"
_symmetry_group_IT_number 51
_symmetry_cell_setting 'orthorhombic'
loop_
_space_group_symop_operation_xyz
x,y,z
1/2-x,-y,z
1/2+x,-y,-z
-x,y,-z
-x,-y,-z
1/2+x,y,-z
1/2-x,y,z
x,-y,z
loop_
_atom_site_type_symbol
_atom_site_label
_atom_site_fract_x
_atom_site_fract_y
_atom_site_fract_z
Si Si1 0.988279 0.175962 0.750874
Si Si2 0.355227 0.171882 0.579598
Si Si3 0.982517 0.674633 0.636245
Si Si4 0.640440 0.668166 0.962577
Si Si5 0.357058 0.830944 0.450507
Si Si6 0.356529 0.325281 0.814706
Si Si7 0.645093 0.825937 0.850933
Si Si8 0.359204 0.832623 0.927985
O O1 0.086572 0.248925 0.764909
O O2 0.951785 0.240798 0.692439
O O3 0.913934 0.222410 0.797421
O O4 0.000078 0.000000 0.746298
O O5 0.250000 0.212363 0.591342
O O6 0.415177 0.276506 0.619233
O O7 0.380534 0.203184 0.515023
O O8 0.374850 0.000000 0.594158
O O9 0.980395 0.500000 0.647129
O O10 0.911967 0.715738 0.587285
O O11 0.750000 0.674876 0.963890
O O12 0.604257 0.500000 0.964568
O O13 0.604272 0.744636 0.905736
O O14 0.599829 0.753907 0.016652
O O15 0.250000 0.808736 0.438929
O O16 0.386641 0.000000 0.435859
O O17 0.250000 0.288470 0.804102
O O18 0.375193 0.500000 0.815559
O O19 0.391430 0.257833 0.873503
O O20 0.750000 0.777555 0.839193
O O21 0.638229 0.000000 0.862901
O O22 0.250000 0.834268 0.931575
O O23 0.398355 0.000000 0.923722
#
# Coordination Sequence:
#
# PCOD8213877 Si02
#       8
#     8   8   8   8   8   8   8   8
#     4  11  24  41  60  81 108 148 197 240 277 329
#     4   9  19  38  64  91 118 152 194 236 279 332
#     4  12  25  38  56  85 121 157 191 234 287 338
#     4   9  16  27  48  79 111 142 176 218 275 338
#     4   9  19  38  64  91 119 153 193 235 279 331
#     4  10  21  38  59  82 111 145 181 230 291 345
#     4   9  19  37  59  81 106 139 181 230 282 333
#     4   9  16  28  50  79 109 142 181 224 272 332
#
# _framework density 20.535498
#
# number of rings (size 3 to 8) (size 9 to 14) (size 15 to 20)
#    0.000    2.250    0.000    3.750    0.000    8.250 
#    0.000    3.125    0.000    3.750    0.000    0.000 
#    0.000    0.000    0.000    0.000    0.000    0.000 
#
# Total GULP energy -793864.001020 kJ/mol
# GULP energy per Si atom -12404.125016 kJ/mol
# Density = 2.048876 g / cm^3
# Si number density = 20.535498 Si / 1000 Ang^3
#
#
#
# Elastic Constant Matrix: (Units=GPa)
#
#
# Indices 1 2 3 4 5 6 
#
# 1 37.3283 18.1440 14.5992 0.0000 0.0000 0.0000
# 2 18.1440 99.4506 31.4023 0.0000 0.0000 0.0000
# 3 14.5992 31.4023 77.9328 0.0000 0.0000 0.0000
# 4 0.0000 0.0000 0.0000 27.2935 0.0000 0.0000
# 5 0.0000 0.0000 0.0000 0.0000 24.6051 0.0000
# 6 0.0000 0.0000 0.0000 0.0000 0.0000 22.3437
#
#
#
# Elastic Compliance Matrix: (Units=1/GPa)
#
#
# Indices 1 2 3 4 5 6 
#
# 1 0.030431 -0.004299 -0.003968 0.000000 0.000000 0.000000
# 2 -0.004299 0.012128 -0.004082 0.000000 0.000000 0.000000
# 3 -0.003968 -0.004082 0.015220 0.000000 0.000000 0.000000
# 4 0.000000 0.000000 0.000000 0.036639 0.000000 0.000000
# 5 0.000000 0.000000 0.000000 0.000000 0.040642 0.000000
# 6 0.000000 0.000000 0.000000 0.000000 0.000000 0.044755
#
#
# Mechanical properties :
#
#
# Convention : Reuss Voigt Hill
#
# Bulk Modulus (GPa) = 30.22887 38.11140 34.17013
# Shear Modulus (GPa) = 23.19757 24.88623 24.04190
#
# Velocity S-wave (km/s) = 3.36465 3.48496 3.42533
# Velocity P-wave (km/s) = 5.46322 5.89850 5.68503
#
# Compressibility (1/GPa) = 0.03308096
#
# Stress axis : x y z
#
# Youngs Moduli (GPa) = 32.86133 82.45139 65.70446
#
# Poissons Ratio (x) = 0.35444 0.26075
# Poissons Ratio (y) = 0.14126 0.26819
# Poissons Ratio (z) = 0.13041 0.33654
#
# Static dielectric constant tensor:
#      x y z
#    x 3.594200 0.000000 0.000000 
#    y 0.000000 3.660310 0.000000 
#    z 0.000000 0.000000 3.729940 
# 
# 
# High freq. dielectric constant tensor:
#      x y z
#    x 1.797840 0.000000 0.000000 
#    y 0.000000 1.800920 0.000000 
#    z 0.000000 0.000000 1.804220 
# 
# From -- ./inp_files/35670.got.cif
#   From: 2010.03.12/outbox.cif.g09.slc.cpg/sg51_18_cif.got.tgz:35670.got - 2010.04.16 13:43:02.
