data_PCOD8213481
_publ_section_title
;
Structure prediction by ZEFSAII (Michael W. Deem and Ramdas Pophale) SiO2 
 PCOD8213481
Probable space group: P M M A
;
_chemical_formula_sum "Si O2"
_cell_formula_units_Z 64
_cell_length_a 14.716373
_cell_length_b 8.799507
_cell_length_c 24.269993
_cell_angle_alpha 90.000000
_cell_angle_beta 90.000000
_cell_angle_gamma 90.000000
_cell_volume 3142.887090
_symmetry_space_group_name_H-M "P M M A"
_symmetry_group_IT_number 51
_symmetry_cell_setting 'orthorhombic'
loop_
_space_group_symop_operation_xyz
x,y,z
1/2-x,-y,z
1/2+x,-y,-z
-x,y,-z
-x,-y,-z
1/2+x,y,-z
1/2-x,y,z
x,-y,z
loop_
_atom_site_type_symbol
_atom_site_label
_atom_site_fract_x
_atom_site_fract_y
_atom_site_fract_z
Si Si1 0.543187 0.819607 0.257011
Si Si2 0.011359 0.324101 0.939585
Si Si3 0.855034 0.174395 0.461796
Si Si4 0.647949 0.324770 0.576698
Si Si5 0.145244 0.680124 0.846384
Si Si6 0.033777 0.324103 0.632373
Si Si7 0.150419 0.832715 0.109000
Si Si8 0.846281 0.828944 0.761129
O O1 0.605254 0.751159 0.209252
O O2 0.578049 0.771810 0.317404
O O3 0.440499 0.748005 0.255772
O O4 0.543593 0.000000 0.249296
O O5 0.032088 0.500000 0.947674
O O6 0.916004 0.300090 0.909637
O O7 0.091748 0.256582 0.900599
O O8 0.000000 0.246204 0.000000
O O9 0.750000 0.199585 0.447001
O O10 0.874425 0.220234 0.524542
O O11 0.913937 0.281304 0.422914
O O12 0.884203 0.000000 0.453750
O O13 0.750000 0.290364 0.599174
O O14 0.639371 0.500000 0.558110
O O15 0.574022 0.287655 0.624097
O O16 0.250000 0.729025 0.852302
O O17 0.133981 0.500000 0.841803
O O18 0.049439 0.500000 0.645410
O O19 0.250000 0.799485 0.083774
O O20 0.155786 0.831825 0.173783
O O21 0.116191 0.000000 0.089358
O O22 0.750000 0.751299 0.740809
O O23 0.848082 0.000000 0.737725
#
# Coordination Sequence:
#
# PCOD8213481 Si02
#       8
#     8   8   8   8   8   8   8   8
#     4  11  22  37  59  84 111 146 189 238 285 332
#     4  10  21  36  57  86 117 148 185 232 282 335
#     4  10  21  37  58  84 113 146 190 243 291 336
#     4   9  19  37  59  83 115 154 190 227 279 342
#     4  10  22  41  61  80 110 153 194 232 280 337
#     4  11  23  37  56  83 116 153 191 233 283 340
#     4   9  17  32  55  81 110 143 178 219 270 329
#     4   8  15  30  53  79 106 137 172 214 271 332
#
# _framework density 20.363441999999999
#
# number of rings (size 3 to 8) (size 9 to 14) (size 15 to 20)
#    0.000    2.250    1.250    2.250    0.000    5.500 
#    0.000    1.250    0.000    1.125    0.000    0.000 
#    0.000    0.000    0.000    0.000    0.000    0.000 
#
# Total GULP energy -793122.759033 kJ/mol
# GULP energy per Si atom -12392.543110 kJ/mol
# Density = 2.031709 g / cm^3
# Si number density = 20.363442 Si / 1000 Ang^3
#
#
#
# Elastic Constant Matrix: (Units=GPa)
#
#
# Indices 1 2 3 4 5 6 
#
# 1 111.4529 29.7807 50.3577 0.0000 0.0000 0.0000
# 2 29.7807 38.2141 26.0894 0.0000 0.0000 0.0000
# 3 50.3577 26.0894 100.1211 0.0000 0.0000 0.0000
# 4 0.0000 0.0000 0.0000 19.5108 0.0000 0.0000
# 5 0.0000 0.0000 0.0000 0.0000 6.3256 0.0000
# 6 0.0000 0.0000 0.0000 0.0000 0.0000 19.0652
#
#
#
# Elastic Compliance Matrix: (Units=1/GPa)
#
#
# Indices 1 2 3 4 5 6 
#
# 1 0.012938 -0.006861 -0.004720 0.000000 0.000000 0.000000
# 2 -0.006861 0.035469 -0.005792 0.000000 0.000000 0.000000
# 3 -0.004720 -0.005792 0.013871 0.000000 0.000000 0.000000
# 4 0.000000 0.000000 0.000000 0.051254 0.000000 0.000000
# 5 0.000000 0.000000 0.000000 0.000000 0.158089 0.000000
# 6 0.000000 0.000000 0.000000 0.000000 0.000000 0.052452
#
#
# Mechanical properties :
#
#
# Convention : Reuss Voigt Hill
#
# Bulk Modulus (GPa) = 36.31886 51.36040 43.83963
# Shear Modulus (GPa) = 13.58716 18.55099 16.06908
#
# Velocity S-wave (km/s) = 2.58589 3.02154 2.81216
# Velocity P-wave (km/s) = 5.17589 6.11961 5.66742
#
# Compressibility (1/GPa) = 0.02753390
#
# Stress axis : x y z
#
# Youngs Moduli (GPa) = 77.29124 28.19363 72.09288
#
# Poissons Ratio (x) = 0.19342 0.34026
# Poissons Ratio (y) = 0.53026 0.41755
# Poissons Ratio (z) = 0.36479 0.16329
#
# Static dielectric constant tensor:
#      x y z
#    x 3.799890 0.000000 0.000000 
#    y 0.000000 3.515080 0.000000 
#    z 0.000000 0.000000 3.589150 
# 
# 
# High freq. dielectric constant tensor:
#      x y z
#    x 1.805830 0.000000 0.000000 
#    y 0.000000 1.772720 0.000000 
#    z 0.000000 0.000000 1.788440 
# 
# From -- ./inp_files/35656.got.cif
#   From: 2010.03.12/outbox.cif.g09.slc.cpg/sg51_18_cif.got.tgz:35656.got - 2010.04.16 13:43:02.
