data_PCOD8213445
_publ_section_title
;
Structure prediction by ZEFSAII (Michael W. Deem and Ramdas Pophale) SiO2 
 PCOD8213445
Probable space group: P M M A
;
_chemical_formula_sum "Si O2"
_cell_formula_units_Z 56
_cell_length_a 8.866373
_cell_length_b 19.359313
_cell_length_c 15.949008
_cell_angle_alpha 90.000000
_cell_angle_beta 90.000000
_cell_angle_gamma 90.000000
_cell_volume 2737.597623
_symmetry_space_group_name_H-M "P M M A"
_symmetry_group_IT_number 51
_symmetry_cell_setting 'orthorhombic'
loop_
_space_group_symop_operation_xyz
x,y,z
1/2-x,-y,z
1/2+x,-y,-z
-x,y,-z
-x,-y,-z
1/2+x,y,-z
1/2-x,y,z
x,-y,z
loop_
_atom_site_type_symbol
_atom_site_label
_atom_site_fract_x
_atom_site_fract_y
_atom_site_fract_z
Si Si1 0.073446 0.077791 0.589794
Si Si2 0.576110 0.791760 0.653181
Si Si3 0.070687 0.421905 0.747749
Si Si4 0.077714 0.782821 0.157487
Si Si5 0.070925 0.338403 0.585100
Si Si6 0.426870 0.924798 0.088147
Si Si7 0.072346 0.655374 0.913766
O O1 0.250000 0.092844 0.583156
O O2 0.000000 0.089128 0.500000
O O3 0.995940 0.131955 0.652176
O O4 0.042062 0.000000 0.622699
O O5 0.750000 0.795751 0.625294
O O6 0.559010 0.761464 0.746284
O O7 0.486210 0.740405 0.592329
O O8 0.250000 0.419490 0.748636
O O9 0.009885 0.500000 0.743478
O O10 0.011696 0.382090 0.665042
O O11 0.009742 0.387941 0.834058
O O12 0.250000 0.773052 0.127241
O O13 0.026591 0.862923 0.150199
O O14 0.972578 0.735194 0.099880
O O15 0.250000 0.339856 0.578431
O O16 0.000000 0.370379 0.500000
O O17 0.250000 0.926562 0.074522
O O18 0.482143 0.000000 0.122847
O O19 0.500000 0.907976 0.000000
O O20 0.250000 0.648505 0.922055
O O21 0.000000 0.626934 0.000000
#
# Coordination Sequence:
#
# PCOD8213445 Si02
#       7
#     8   8   8   8   8   8   8
#     4  10  21  37  56  79 110 149 196 248 301 358
#     4  11  22  36  57  84 116 152 196 250 301 355
#     4   9  20  40  64  90 122 159 197 239 293 357
#     4  10  21  36  56  82 113 150 195 247 294 348
#     4  11  22  39  63  90 121 159 200 244 296 355
#     4   9  18  33  51  73 103 141 185 233 285 339
#     4  11  22  38  62  90 121 159 199 244 294 352
#
# _framework density 20.455891000000001
#
# number of rings (size 3 to 8) (size 9 to 14) (size 15 to 20)
#    0.000    1.857    1.429    2.571    0.000    4.286 
#    0.000    1.429    0.000    7.714    0.000    0.000 
#    0.000    0.000    0.000    0.000    0.000    0.000 
#
# Total GULP energy -694382.729813 kJ/mol
# GULP energy per Si atom -12399.691604 kJ/mol
# Density = 2.040933 g / cm^3
# Si number density = 20.455891 Si / 1000 Ang^3
#
#
#
# Elastic Constant Matrix: (Units=GPa)
#
#
# Indices 1 2 3 4 5 6 
#
# 1 73.5170 37.1407 41.5579 0.0000 0.0000 0.0000
# 2 37.1407 122.1752 58.8353 0.0000 0.0000 0.0000
# 3 41.5579 58.8353 132.4120 0.0000 0.0000 0.0000
# 4 0.0000 0.0000 0.0000 26.1743 0.0000 0.0000
# 5 0.0000 0.0000 0.0000 0.0000 31.6791 0.0000
# 6 0.0000 0.0000 0.0000 0.0000 0.0000 20.8038
#
#
#
# Elastic Compliance Matrix: (Units=1/GPa)
#
#
# Indices 1 2 3 4 5 6 
#
# 1 0.017593 -0.003421 -0.004001 0.000000 0.000000 0.000000
# 2 -0.003421 0.011078 -0.003849 0.000000 0.000000 0.000000
# 3 -0.004001 -0.003849 0.010518 0.000000 0.000000 0.000000
# 4 0.000000 0.000000 0.000000 0.038205 0.000000 0.000000
# 5 0.000000 0.000000 0.000000 0.000000 0.031567 0.000000
# 6 0.000000 0.000000 0.000000 0.000000 0.000000 0.048068
#
#
# Mechanical properties :
#
#
# Convention : Reuss Voigt Hill
#
# Bulk Modulus (GPa) = 60.07242 67.01913 63.54578
# Shear Modulus (GPa) = 27.00939 28.43611 27.72275
#
# Velocity S-wave (km/s) = 3.63763 3.73247 3.68536
# Velocity P-wave (km/s) = 6.86103 7.17001 7.01722
#
# Compressibility (1/GPa) = 0.01664657
#
# Stress axis : x y z
#
# Youngs Moduli (GPa) = 56.84230 90.26549 95.07354
#
# Poissons Ratio (x) = 0.30881 0.38042
# Poissons Ratio (y) = 0.19447 0.36592
# Poissons Ratio (z) = 0.22744 0.34741
#
# Static dielectric constant tensor:
#      x y z
#    x 3.535020 0.000000 0.000000 
#    y 0.000000 3.845220 0.000000 
#    z 0.000000 0.000000 3.689400 
# 
# 
# High freq. dielectric constant tensor:
#      x y z
#    x 1.786190 0.000000 0.000000 
#    y 0.000000 1.801210 0.000000 
#    z 0.000000 0.000000 1.799660 
# 
# From -- ./inp_files/21831.got.cif
#   From: 2010.03.12/outbox.cif.g09.slc.cpg/sg51_11_cif.got.tgz:21831.got - 2010.04.16 13:43:02.
