data_PCOD8213638
_publ_section_title
;
Structure prediction by ZEFSAII (Michael W. Deem and Ramdas Pophale) SiO2 
 PCOD8213638
Probable space group: P M M A
;
_chemical_formula_sum "Si O2"
_cell_formula_units_Z 56
_cell_length_a 8.647977
_cell_length_b 14.307777
_cell_length_c 23.777455
_cell_angle_alpha 90.000000
_cell_angle_beta 90.000000
_cell_angle_gamma 90.000000
_cell_volume 2942.063601
_symmetry_space_group_name_H-M "P M M A"
_symmetry_group_IT_number 51
_symmetry_cell_setting 'orthorhombic'
loop_
_space_group_symop_operation_xyz
x,y,z
1/2-x,-y,z
1/2+x,-y,-z
-x,y,-z
-x,-y,-z
1/2+x,y,-z
1/2-x,y,z
x,-y,z
loop_
_atom_site_type_symbol
_atom_site_label
_atom_site_fract_x
_atom_site_fract_y
_atom_site_fract_z
Si Si1 0.930850 0.749945 0.139514
Si Si2 0.926557 0.109743 0.941471
Si Si3 0.433477 0.252096 0.561868
Si Si4 0.568207 0.394817 0.942408
Si Si5 0.433060 0.891906 0.354261
Si Si6 0.566984 0.608224 0.648686
Si Si7 0.066975 0.247930 0.731126
O O1 0.750000 0.735400 0.133173
O O2 0.981611 0.754835 0.204082
O O3 0.981137 0.845811 0.110042
O O4 0.015297 0.662807 0.111351
O O5 0.750000 0.144309 0.940516
O O6 0.940673 0.000000 0.933827
O O7 0.000000 0.142961 0.000000
O O8 0.500000 0.255108 0.500000
O O9 0.250000 0.251816 0.560423
O O10 0.492309 0.157905 0.591792
O O11 0.491767 0.344108 0.594193
O O12 0.750000 0.391515 0.947105
O O13 0.506006 0.500000 0.934413
O O14 0.500000 0.351397 0.000000
O O15 0.250000 0.879625 0.357105
O O16 0.496014 0.844106 0.297634
O O17 0.482595 0.000000 0.354242
O O18 0.750000 0.621240 0.645755
O O19 0.518640 0.500000 0.650196
O O20 0.502879 0.657748 0.704651
O O21 0.250000 0.247652 0.722005
#
# Coordination Sequence:
#
# PCOD8213638 Si02
#       7
#     8   8   8   8   8   8   8
#     4  11  23  37  55  80 110 144 181 224 273 324
#     4  10  21  37  57  80 107 140 178 222 273 329
#     4  11  22  37  59  86 118 151 185 228 271 318
#     4  10  21  37  57  80 107 140 178 222 273 329
#     4  10  21  38  60  84 112 147 185 227 275 324
#     4  10  21  38  60  84 112 147 185 227 275 324
#     4  10  22  38  56  80 110 145 185 228 272 322
#
# _framework density 19.034258999999999
#
# number of rings (size 3 to 8) (size 9 to 14) (size 15 to 20)
#    0.000    1.714    0.000    6.000    0.000    8.000 
#    0.000    5.714    0.000    0.000    0.000    0.000 
#    0.000    0.000    0.000    0.000    0.000    0.000 
#
# Total GULP energy -694622.041847 kJ/mol
# GULP energy per Si atom -12403.965033 kJ/mol
# Density = 1.899094 g / cm^3
# Si number density = 19.034259 Si / 1000 Ang^3
#
#
#
# Elastic Constant Matrix: (Units=GPa)
#
#
# Indices 1 2 3 4 5 6 
#
# 1 105.5117 47.9364 59.7553 0.0000 0.0000 0.0000
# 2 47.9364 140.3147 71.8681 0.0000 0.0000 0.0000
# 3 59.7553 71.8681 173.2938 0.0000 0.0000 0.0000
# 4 0.0000 0.0000 0.0000 -280.0562 0.0000 0.0000
# 5 0.0000 0.0000 0.0000 0.0000 36.0951 0.0000
# 6 0.0000 0.0000 0.0000 0.0000 0.0000 30.2538
#
#
#
# Elastic Compliance Matrix: (Units=1/GPa)
#
#
# Indices 1 2 3 4 5 6 
#
# 1 0.012491 -0.002617 -0.003222 0.000000 0.000000 0.000000
# 2 -0.002617 0.009597 -0.003078 0.000000 0.000000 0.000000
# 3 -0.003222 -0.003078 0.008158 0.000000 0.000000 0.000000
# 4 0.000000 0.000000 0.000000 -0.003571 0.000000 0.000000
# 5 0.000000 0.000000 0.000000 0.000000 0.027705 0.000000
# 6 0.000000 0.000000 0.000000 0.000000 0.000000 0.033054
#
#
# Mechanical properties :
#
#
# Convention : Reuss Voigt Hill
#
# Bulk Modulus (GPa) = 80.56107 86.47110 83.51609
# Shear Modulus (GPa) = 45.70151 -26.77078 9.46536
#
# Velocity S-wave (km/s) = 4.90533 -3.75434 2.23240
# Velocity P-wave (km/s) = 8.63129 5.17053 7.11455
#
# Compressibility (1/GPa) = 0.01241294
#
# Stress axis : x y z
#
# Youngs Moduli (GPa) = 80.05530 104.19513 122.58064
#
# Poissons Ratio (x) = 0.27271 0.39494
# Poissons Ratio (y) = 0.20953 0.37727
# Poissons Ratio (z) = 0.25793 0.32068
#
# Static dielectric constant tensor:
#      x y z
#    x 3.641390 0.000000 0.000000 
#    y 0.000000 3.586990 0.000000 
#    z 0.000000 0.000000 3.487390 
# 
# 
# High freq. dielectric constant tensor:
#      x y z
#    x 1.759310 0.000000 0.000000 
#    y 0.000000 1.747590 0.000000 
#    z 0.000000 0.000000 1.741750 
# 
# From -- ./inp_files/31901.got.cif
#   From: 2010.03.12/outbox.cif.g09.slc.cpg/sg51_16_cif.got.tgz:31901.got - 2010.04.16 13:43:02.
