data_PCOD8213242
_publ_section_title
;
Structure prediction by ZEFSAII (Michael W. Deem and Ramdas Pophale) SiO2 
 PCOD8213242
Probable space group: P M M A
;
_chemical_formula_sum "Si O2"
_cell_formula_units_Z 48
_cell_length_a 9.200452
_cell_length_b 9.720170
_cell_length_c 30.581435
_cell_angle_alpha 90.000000
_cell_angle_beta 90.000000
_cell_angle_gamma 90.000000
_cell_volume 2734.896433
_symmetry_space_group_name_H-M "P M M A"
_symmetry_group_IT_number 51
_symmetry_cell_setting 'orthorhombic'
loop_
_space_group_symop_operation_xyz
x,y,z
1/2-x,-y,z
1/2+x,-y,-z
-x,y,-z
-x,-y,-z
1/2+x,y,-z
1/2-x,y,z
x,-y,z
loop_
_atom_site_type_symbol
_atom_site_label
_atom_site_fract_x
_atom_site_fract_y
_atom_site_fract_z
Si Si1 0.420724 0.657843 0.710893
Si Si2 0.580209 0.658490 0.623944
Si Si3 0.417552 0.161389 0.886105
Si Si4 0.577516 0.151879 0.212072
Si Si5 0.580154 0.157956 0.543588
Si Si6 0.580173 0.658793 0.955779
O O1 0.250000 0.680552 0.704957
O O2 0.460079 0.500000 0.720015
O O3 0.497557 0.710703 0.666994
O O4 0.484084 0.742649 0.751989
O O5 0.750000 0.681012 0.632045
O O6 0.543020 0.500000 0.613726
O O7 0.523833 0.749222 0.583527
O O8 0.250000 0.203768 0.893896
O O9 0.467477 0.197637 0.836703
O O10 0.521458 0.248157 0.916903
O O11 0.438346 0.000000 0.895404
O O12 0.750000 0.147286 0.214206
O O13 0.514896 0.000000 0.222370
O O14 0.500000 0.208313 0.500000
O O15 0.750000 0.179324 0.535753
O O16 0.541789 0.000000 0.554343
O O17 0.750000 0.686596 0.962147
O O18 0.547885 0.500000 0.944507
O O19 0.500000 0.703310 0.000000
#
# Coordination Sequence:
#
# PCOD8213242 Si02
#       6
#     8   8   8   8   8   8
#     4   9  17  29  46  69  94 120 154 193 228 266
#     4   9  18  32  47  64  90 122 151 182 225 273
#     4   9  18  33  53  76 101 130 164 201 243 291
#     4   8  15  29  48  70  96 124 155 192 232 275
#     4   9  18  32  48  66  89 116 147 184 225 270
#     4  10  21  36  53  74 100 130 165 204 245 290
#
# _framework density 17.550937999999999
#
# number of rings (size 3 to 8) (size 9 to 14) (size 15 to 20)
#    0.000    3.000    0.000    1.500    0.000    4.000 
#    0.000    2.500    0.000    3.000    0.000    0.000 
#    0.000    0.000    0.000    0.000    0.000    0.000 
#
# Total GULP energy -595191.348191 kJ/mol
# GULP energy per Si atom -12399.819754 kJ/mol
# Density = 1.751099 g / cm^3
# Si number density = 17.550938 Si / 1000 Ang^3
#
#
#
# Elastic Constant Matrix: (Units=GPa)
#
#
# Indices 1 2 3 4 5 6 
#
# 1 50.4543 37.5996 56.4928 0.0000 0.0000 0.0000
# 2 37.5996 80.6211 90.1560 0.0000 0.0000 0.0000
# 3 56.4928 90.1560 176.2469 0.0000 0.0000 0.0000
# 4 0.0000 0.0000 0.0000 38.2066 0.0000 0.0000
# 5 0.0000 0.0000 0.0000 0.0000 32.2064 0.0000
# 6 0.0000 0.0000 0.0000 0.0000 0.0000 22.4229
#
#
#
# Elastic Compliance Matrix: (Units=1/GPa)
#
#
# Indices 1 2 3 4 5 6 
#
# 1 0.033165 -0.008364 -0.006352 0.000000 0.000000 0.000000
# 2 -0.008364 0.031092 -0.013224 0.000000 0.000000 0.000000
# 3 -0.006352 -0.013224 0.014474 0.000000 0.000000 0.000000
# 4 0.000000 0.000000 0.000000 0.026173 0.000000 0.000000
# 5 0.000000 0.000000 0.000000 0.000000 0.031050 0.000000
# 6 0.000000 0.000000 0.000000 0.000000 0.000000 0.044597
#
#
# Mechanical properties :
#
#
# Convention : Reuss Voigt Hill
#
# Bulk Modulus (GPa) = 43.75992 75.09101 59.42546
# Shear Modulus (GPa) = 20.48768 26.77211 23.62990
#
# Velocity S-wave (km/s) = 3.42032 3.90987 3.67326
# Velocity P-wave (km/s) = 6.37066 7.95363 7.20575
#
# Compressibility (1/GPa) = 0.02285196
#
# Stress axis : x y z
#
# Youngs Moduli (GPa) = 30.15200 32.16246 69.08851
#
# Poissons Ratio (x) = 0.26901 0.43885
# Poissons Ratio (y) = 0.25220 0.91360
# Poissons Ratio (z) = 0.19152 0.42530
#
# Static dielectric constant tensor:
#      x y z
#    x 3.075350 0.000000 0.000000 
#    y 0.000000 3.349300 0.000000 
#    z 0.000000 0.000000 3.446340 
# 
# 
# High freq. dielectric constant tensor:
#      x y z
#    x 1.657470 0.000000 0.000000 
#    y 0.000000 1.676350 0.000000 
#    z 0.000000 0.000000 1.686720 
# 
# From -- ./inp_files/34546.got.cif
#   From: 2010.03.12/outbox.cif.g09.slc.cpg/sg51_18_cif.got.tgz:34546.got - 2010.04.16 13:43:02.
