data_PCOD8213340
_publ_section_title
;
Structure prediction by ZEFSAII (Michael W. Deem and Ramdas Pophale) SiO2 
 PCOD8213340
Probable space group: P M M A
;
_chemical_formula_sum "Si O2"
_cell_formula_units_Z 64
_cell_length_a 16.965915
_cell_length_b 9.503322
_cell_length_c 20.370065
_cell_angle_alpha 90.000000
_cell_angle_beta 90.000000
_cell_angle_gamma 90.000000
_cell_volume 3284.317590
_symmetry_space_group_name_H-M "P M M A"
_symmetry_group_IT_number 51
_symmetry_cell_setting 'orthorhombic'
loop_
_space_group_symop_operation_xyz
x,y,z
1/2-x,-y,z
1/2+x,-y,-z
-x,y,-z
-x,-y,-z
1/2+x,y,-z
1/2-x,y,z
x,-y,z
loop_
_atom_site_type_symbol
_atom_site_label
_atom_site_fract_x
_atom_site_fract_y
_atom_site_fract_z
Si Si1 0.841933 0.344401 0.074114
Si Si2 0.081120 0.165806 0.531490
Si Si3 0.158805 0.153213 0.404281
Si Si4 0.841660 0.653286 0.705918
Si Si5 0.408978 0.336598 0.788919
Si Si6 0.342530 0.166983 0.666067
Si Si7 0.915325 0.663225 0.836189
Si Si8 0.342603 0.834784 0.048082
O O1 0.750000 0.359979 0.065751
O O2 0.881149 0.500000 0.063430
O O3 0.860606 0.288980 0.146813
O O4 0.872202 0.232852 0.020396
O O5 0.147175 0.209812 0.478010
O O6 0.109405 0.225232 0.602028
O O7 0.000000 0.227138 0.500000
O O8 0.074345 0.000000 0.540192
O O9 0.250000 0.140570 0.388494
O O10 0.117367 0.249878 0.349283
O O11 0.117942 0.000000 0.398093
O O12 0.750000 0.642194 0.690802
O O13 0.882179 0.500000 0.700251
O O14 0.854346 0.709492 0.779325
O O15 0.393684 0.500000 0.771862
O O16 0.380063 0.242640 0.728739
O O17 0.499501 0.307236 0.805831
O O18 0.250000 0.205456 0.658880
O O19 0.352647 0.000000 0.674399
O O20 0.904808 0.500000 0.857465
O O21 0.896527 0.762999 0.896936
O O22 0.250000 0.805420 0.061298
O O23 0.360387 0.000000 0.045982
#
# Coordination Sequence:
#
# PCOD8213340 Si02
#       8
#     8   8   8   8   8   8   8   8
#     4   9  18  35  58  79 103 141 185 226 273 332
#     4   9  18  32  52  78 107 141 178 219 270 329
#     4   9  17  30  50  74  99 131 173 219 263 313
#     4   9  18  32  50  72 101 138 176 214 261 321
#     4  10  22  38  57  83 112 145 187 233 278 327
#     4  10  21  37  58  83 111 146 188 232 280 335
#     4  10  21  36  54  77 110 149 185 223 273 334
#     4  10  21  36  56  83 112 142 181 230 277 325
#
# _framework density 19.486543999999999
#
# number of rings (size 3 to 8) (size 9 to 14) (size 15 to 20)
#    0.000    2.500    0.000    1.500    1.750    5.500 
#    0.000    5.625    0.000    2.250    0.000    0.000 
#    0.000    0.000    0.000    0.000    0.000    0.000 
#
# Total GULP energy -793151.106061 kJ/mol
# GULP energy per Si atom -12392.986032 kJ/mol
# Density = 1.944219 g / cm^3
# Si number density = 19.486544 Si / 1000 Ang^3
#
#
#
# Elastic Constant Matrix: (Units=GPa)
#
#
# Indices 1 2 3 4 5 6 
#
# 1 55.0381 34.2626 45.1852 0.0000 0.0000 0.0000
# 2 34.2626 83.8500 84.3280 0.0000 0.0000 0.0000
# 3 45.1852 84.3280 188.3423 0.0000 0.0000 0.0000
# 4 0.0000 0.0000 0.0000 41.1644 0.0000 0.0000
# 5 0.0000 0.0000 0.0000 0.0000 29.4268 0.0000
# 6 0.0000 0.0000 0.0000 0.0000 0.0000 18.9950
#
#
#
# Elastic Compliance Matrix: (Units=1/GPa)
#
#
# Indices 1 2 3 4 5 6 
#
# 1 0.025046 -0.007624 -0.002595 0.000000 0.000000 0.000000
# 2 -0.007624 0.024016 -0.008924 0.000000 0.000000 0.000000
# 3 -0.002595 -0.008924 0.009928 0.000000 0.000000 0.000000
# 4 0.000000 0.000000 0.000000 0.024293 0.000000 0.000000
# 5 0.000000 0.000000 0.000000 0.000000 0.033983 0.000000
# 6 0.000000 0.000000 0.000000 0.000000 0.000000 0.052645
#
#
# Mechanical properties :
#
#
# Convention : Reuss Voigt Hill
#
# Bulk Modulus (GPa) = 48.30138 72.75354 60.52746
# Shear Modulus (GPa) = 23.24517 28.81423 26.02970
#
# Velocity S-wave (km/s) = 3.45756 3.84952 3.65879
# Velocity P-wave (km/s) = 6.38596 7.56140 6.99840
#
# Compressibility (1/GPa) = 0.02070334
#
# Stress axis : x y z
#
# Youngs Moduli (GPa) = 39.92633 41.63854 100.72947
#
# Poissons Ratio (x) = 0.31747 0.26140
# Poissons Ratio (y) = 0.30442 0.89889
# Poissons Ratio (z) = 0.10361 0.37157
#
# Static dielectric constant tensor:
#      x y z
#    x 3.457490 0.000000 0.000000 
#    y 0.000000 3.666620 0.000000 
#    z 0.000000 0.000000 3.776260 
# 
# 
# High freq. dielectric constant tensor:
#      x y z
#    x 1.749860 0.000000 0.000000 
#    y 0.000000 1.735580 0.000000 
#    z 0.000000 0.000000 1.772720 
# 
# From -- ./inp_files/33880.got.cif
#   From: 2010.03.12/outbox.cif.g09.slc.cpg/sg51_17_cif.got.tgz:33880.got - 2010.04.16 13:43:02.
