data_PCOD8213151
_publ_section_title
;
Structure prediction by ZEFSAII (Michael W. Deem and Ramdas Pophale) SiO2 
 PCOD8213151
Probable space group: P M M A
;
_chemical_formula_sum "Si O2"
_cell_formula_units_Z 48
_cell_length_a 15.687700
_cell_length_b 9.295573
_cell_length_c 17.956155
_cell_angle_alpha 90.000000
_cell_angle_beta 90.000000
_cell_angle_gamma 90.000000
_cell_volume 2618.477142
_symmetry_space_group_name_H-M "P M M A"
_symmetry_group_IT_number 51
_symmetry_cell_setting 'orthorhombic'
loop_
_space_group_symop_operation_xyz
x,y,z
1/2-x,-y,z
1/2+x,-y,-z
-x,y,-z
-x,-y,-z
1/2+x,y,-z
1/2-x,y,z
x,-y,z
loop_
_atom_site_type_symbol
_atom_site_label
_atom_site_fract_x
_atom_site_fract_y
_atom_site_fract_z
Si Si1 0.906071 0.832325 0.474046
Si Si2 0.152610 0.338321 0.827221
Si Si3 0.250000 0.670692 0.450644
Si Si4 0.750000 0.668748 0.722408
Si Si5 0.978131 0.833470 0.082398
Si Si6 0.409393 0.163730 0.221878
Si Si7 0.418344 0.835162 0.698363
O O1 0.835063 0.737711 0.514386
O O2 0.899346 0.801010 0.386828
O O3 0.000000 0.784694 0.500000
O O4 0.890160 0.000000 0.492680
O O5 0.250000 0.337266 0.851507
O O6 0.116995 0.500000 0.820914
O O7 0.103062 0.255223 0.891396
O O8 0.143108 0.264067 0.746911
O O9 0.250000 0.500000 0.464223
O O10 0.250000 0.711298 0.364013
O O11 0.750000 0.500000 0.733834
O O12 0.832600 0.729996 0.762932
O O13 0.057029 0.807333 0.138251
O O14 0.951832 0.000000 0.082135
O O15 0.000000 0.778897 0.000000
O O16 0.483302 0.197063 0.281897
O O17 0.377508 0.000000 0.230404
O O18 0.397573 0.000000 0.718317
#
# Coordination Sequence:
#
# PCOD8213151 Si02
#       7
#     8   8   4   4   8   8   8
#     4  10  21  38  59  83 110 144 190 241 291 337
#     4  10  21  35  53  81 114 148 181 215 264 325
#     4  11  25  39  53  79 116 153 190 233 285 342
#     4  11  23  37  53  77 110 147 188 225 265 324
#     4   9  19  38  61  84 110 140 179 225 272 320
#     4   9  18  35  59  83 106 139 181 226 273 319
#     4   9  19  35  57  81 106 140 185 232 276 325
#
# _framework density 18.331264999999998
#
# number of rings (size 3 to 8) (size 9 to 14) (size 15 to 20)
#    0.000    2.333    0.000    3.000    1.167    8.000 
#    1.500    0.000    0.000    0.000    0.000    0.000 
#    0.000    0.000    0.000    0.000    0.000    0.000 
#
# Total GULP energy -595314.169660 kJ/mol
# GULP energy per Si atom -12402.378535 kJ/mol
# Density = 1.828954 g / cm^3
# Si number density = 18.331265 Si / 1000 Ang^3
#
#
#
# Elastic Constant Matrix: (Units=GPa)
#
#
# Indices 1 2 3 4 5 6 
#
# 1 113.4551 65.5084 58.4328 0.0000 0.0000 0.0000
# 2 65.5084 94.9809 59.6493 0.0000 0.0000 0.0000
# 3 58.4328 59.6493 112.5800 0.0000 0.0000 0.0000
# 4 0.0000 0.0000 0.0000 18.2539 0.0000 0.0000
# 5 0.0000 0.0000 0.0000 0.0000 18.8863 0.0000
# 6 0.0000 0.0000 0.0000 0.0000 0.0000 -10.3107
#
#
#
# Elastic Compliance Matrix: (Units=1/GPa)
#
#
# Indices 1 2 3 4 5 6 
#
# 1 0.015554 -0.008479 -0.003581 0.000000 0.000000 0.000000
# 2 -0.008479 0.020401 -0.006408 0.000000 0.000000 0.000000
# 3 -0.003581 -0.006408 0.014136 0.000000 0.000000 0.000000
# 4 0.000000 0.000000 0.000000 0.054783 0.000000 0.000000
# 5 0.000000 0.000000 0.000000 0.000000 0.052949 0.000000
# 6 0.000000 0.000000 0.000000 0.000000 0.000000 -0.096987
#
#
# Mechanical properties :
#
#
# Convention : Reuss Voigt Hill
#
# Bulk Modulus (GPa) = 76.01345 76.46633 76.23989
# Shear Modulus (GPa) = 48.94466 14.52760 31.73613
#
# Velocity S-wave (km/s) = 5.17282 2.81820 4.16535
# Velocity P-wave (km/s) = 8.78829 7.23836 8.05071
#
# Compressibility (1/GPa) = 0.01315557
#
# Stress axis : x y z
#
# Youngs Moduli (GPa) = 64.29314 49.01769 70.73955
#
# Poissons Ratio (x) = 0.41561 0.25328
# Poissons Ratio (y) = 0.54513 0.45332
# Poissons Ratio (z) = 0.23020 0.31412
#
# Static dielectric constant tensor:
#      x y z
#    x 3.271590 0.000000 0.000000 
#    y 0.000000 3.403400 0.000000 
#    z 0.000000 0.000000 3.570970 
# 
# 
# High freq. dielectric constant tensor:
#      x y z
#    x 1.709570 0.000000 0.000000 
#    y 0.000000 1.710960 0.000000 
#    z 0.000000 0.000000 1.715070 
# 
# From -- ./inp_files/29500.got.cif
#   From: 2010.03.12/outbox.cif.g09.slc.cpg/sg51_15_cif.got.tgz:29500.got - 2010.04.16 13:43:02.
