data_PCOD8213640
_publ_section_title
;
Structure prediction by ZEFSAII (Michael W. Deem and Ramdas Pophale) SiO2 
 PCOD8213640
Probable space group: P M M A
;
_chemical_formula_sum "Si O2"
_cell_formula_units_Z 56
_cell_length_a 13.950140
_cell_length_b 8.988019
_cell_length_c 21.457747
_cell_angle_alpha 90.000000
_cell_angle_beta 90.000000
_cell_angle_gamma 90.000000
_cell_volume 2690.460797
_symmetry_space_group_name_H-M "P M M A"
_symmetry_group_IT_number 51
_symmetry_cell_setting 'orthorhombic'
loop_
_space_group_symop_operation_xyz
x,y,z
1/2-x,-y,z
1/2+x,-y,-z
-x,y,-z
-x,-y,-z
1/2+x,y,-z
1/2-x,y,z
x,-y,z
loop_
_atom_site_type_symbol
_atom_site_label
_atom_site_fract_x
_atom_site_fract_y
_atom_site_fract_z
Si Si1 0.639735 0.173798 0.216784
Si Si2 0.363731 0.666998 0.905367
Si Si3 0.530018 0.323942 0.725015
Si Si4 0.355583 0.823677 0.524835
Si Si5 0.363994 0.169281 0.163373
Si Si6 0.537821 0.176099 0.598159
Si Si7 0.636759 0.330279 0.958032
O O1 0.750000 0.219788 0.226094
O O2 0.601646 0.219189 0.147904
O O3 0.578103 0.262202 0.267472
O O4 0.623877 0.000000 0.226211
O O5 0.250000 0.670124 0.910245
O O6 0.397923 0.500000 0.887795
O O7 0.406022 0.713035 0.973446
O O8 0.530044 0.500000 0.724744
O O9 0.597293 0.266629 0.780112
O O10 0.570149 0.262980 0.659750
O O11 0.250000 0.756432 0.538814
O O12 0.389195 0.774468 0.456079
O O13 0.430848 0.771814 0.577456
O O14 0.352545 0.000000 0.525848
O O15 0.250000 0.182290 0.163544
O O16 0.406589 0.229986 0.097531
O O17 0.398564 0.000000 0.171796
O O18 0.541872 0.000000 0.610667
O O19 0.750000 0.307581 0.960185
O O20 0.610210 0.500000 0.942837
#
# Coordination Sequence:
#
# PCOD8213640 Si02
#       7
#     8   8   8   8   8   8   8
#     4  10  21  37  57  80 107 142 187 238 286 333
#     4   8  14  27  49  76 106 140 177 221 279 344
#     4  12  25  39  56  79 114 155 190 228 274 329
#     4   8  15  31  58  88 114 142 176 217 264 311
#     4  10  21  37  57  80 107 142 187 238 286 333
#     4   9  18  34  56  83 113 143 182 225 261 310
#     4   8  14  27  49  76 106 140 177 221 279 344
#
# _framework density 20.814278000000002
#
# number of rings (size 3 to 8) (size 9 to 14) (size 15 to 20)
#    0.000    2.714    0.000    3.857    0.000    3.429 
#    0.000    7.857    0.000    5.143    0.000    0.000 
#    0.000    0.000    0.000    0.000    0.000    0.000 
#
# Total GULP energy -694220.523356 kJ/mol
# GULP energy per Si atom -12396.795060 kJ/mol
# Density = 2.076690 g / cm^3
# Si number density = 20.814278 Si / 1000 Ang^3
#
#
#
# Elastic Constant Matrix: (Units=GPa)
#
#
# Indices 1 2 3 4 5 6 
#
# 1 25.2084 -1.2711 -10.9926 0.0000 0.0000 0.0000
# 2 -1.2711 94.4145 35.1614 0.0000 0.0000 0.0000
# 3 -10.9926 35.1614 92.6340 0.0000 0.0000 0.0000
# 4 0.0000 0.0000 0.0000 27.0162 0.0000 0.0000
# 5 0.0000 0.0000 0.0000 0.0000 25.1724 0.0000
# 6 0.0000 0.0000 0.0000 0.0000 0.0000 18.2667
#
#
#
# Elastic Compliance Matrix: (Units=1/GPa)
#
#
# Indices 1 2 3 4 5 6 
#
# 1 0.042017 -0.001504 0.005557 0.000000 0.000000 0.000000
# 2 -0.001504 0.012389 -0.004881 0.000000 0.000000 0.000000
# 3 0.005557 -0.004881 0.013307 0.000000 0.000000 0.000000
# 4 0.000000 0.000000 0.000000 0.037015 0.000000 0.000000
# 5 0.000000 0.000000 0.000000 0.000000 0.039726 0.000000
# 6 0.000000 0.000000 0.000000 0.000000 0.000000 0.054745
#
#
# Mechanical properties :
#
#
# Convention : Reuss Voigt Hill
#
# Bulk Modulus (GPa) = 15.13841 28.67245 21.90543
# Shear Modulus (GPa) = 22.43424 26.71499 24.57462
#
# Velocity S-wave (km/s) = 3.28659 3.58647 3.43980
# Velocity P-wave (km/s) = 4.65737 5.56378 5.13063
#
# Compressibility (1/GPa) = 0.06605711
#
# Stress axis : x y z
#
# Youngs Moduli (GPa) = 23.80007 80.71602 75.14680
#
# Poissons Ratio (x) = 0.12138 -0.41757
# Poissons Ratio (y) = 0.03579 0.36679
# Poissons Ratio (z) = -0.13225 0.39398
#
# Static dielectric constant tensor:
#      x y z
#    x 3.917880 0.000000 0.000000 
#    y 0.000000 3.530670 0.000000 
#    z 0.000000 0.000000 3.972490 
# 
# 
# High freq. dielectric constant tensor:
#      x y z
#    x 1.816040 0.000000 0.000000 
#    y 0.000000 1.785480 0.000000 
#    z 0.000000 0.000000 1.817970 
# 
# From -- ./inp_files/33363.got.cif
#   From: 2010.03.12/outbox.cif.g09.slc.cpg/sg51_17_cif.got.tgz:33363.got - 2010.04.16 13:43:02.
