data_PCOD8213904
_publ_section_title
;
Structure prediction by ZEFSAII (Michael W. Deem and Ramdas Pophale) SiO2 
 PCOD8213904
Probable space group: P M M A
;
_chemical_formula_sum "Si O2"
_cell_formula_units_Z 48
_cell_length_a 20.167671
_cell_length_b 8.691060
_cell_length_c 14.394320
_cell_angle_alpha 90.000000
_cell_angle_beta 90.000000
_cell_angle_gamma 90.000000
_cell_volume 2523.013936
_symmetry_space_group_name_H-M "P M M A"
_symmetry_group_IT_number 51
_symmetry_cell_setting 'orthorhombic'
loop_
_space_group_symop_operation_xyz
x,y,z
1/2-x,-y,z
1/2+x,-y,-z
-x,y,-z
-x,-y,-z
1/2+x,y,-z
1/2-x,y,z
x,-y,z
loop_
_atom_site_type_symbol
_atom_site_label
_atom_site_fract_x
_atom_site_fract_y
_atom_site_fract_z
Si Si1 0.175465 0.682010 0.442826
Si Si2 0.875063 0.319029 0.755936
Si Si3 0.174356 0.824080 0.062905
Si Si4 0.562474 0.179576 0.441970
Si Si5 0.016697 0.821149 0.761598
Si Si6 0.935895 0.679481 0.059406
O O1 0.250000 0.744753 0.457213
O O2 0.174570 0.500000 0.443574
O O3 0.147238 0.742636 0.344707
O O4 0.130226 0.741621 0.526290
O O5 0.863228 0.500000 0.766913
O O6 0.830730 0.232022 0.831233
O O7 0.951783 0.282411 0.772105
O O8 0.250000 0.807967 0.029880
O O9 0.149970 0.000000 0.056163
O O10 0.130059 0.718026 0.997114
O O11 0.500000 0.246334 0.500000
O O12 0.553586 0.218474 0.334036
O O13 0.569093 0.000000 0.461628
O O14 0.065542 0.776734 0.845436
O O15 0.996904 0.000000 0.765538
O O16 0.937029 0.500000 0.083349
O O17 0.000000 0.728225 0.000000
#
# Coordination Sequence:
#
# PCOD8213904 Si02
#       6
#     8   8   8   8   8   8
#     4  10  22  38  57  85 120 157 196 238 289 347
#     4  11  21  35  58  88 122 155 191 238 292 347
#     4  11  24  40  60  88 120 156 196 238 291 350
#     4  10  21  38  59  86 117 151 195 241 287 342
#     4  11  22  37  60  88 119 152 194 244 290 342
#     4  11  23  39  61  89 118 152 196 241 289 347
#
# _framework density 19.024864000000001
#
# number of rings (size 3 to 8) (size 9 to 14) (size 15 to 20)
#    0.000    1.333    3.333    2.500    0.000    5.333 
#    0.000    0.833    0.000    1.000    0.000    0.000 
#    0.000    0.000    0.000    0.000    0.000    0.000 
#
# Total GULP energy -595505.677361 kJ/mol
# GULP energy per Si atom -12406.368278 kJ/mol
# Density = 1.898156 g / cm^3
# Si number density = 19.024864 Si / 1000 Ang^3
#
#
#
# Elastic Constant Matrix: (Units=GPa)
#
#
# Indices 1 2 3 4 5 6 
#
# 1 103.1649 22.6759 45.2783 0.0000 0.0000 0.0000
# 2 22.6759 46.9141 30.8066 0.0000 0.0000 0.0000
# 3 45.2783 30.8066 123.6256 0.0000 0.0000 0.0000
# 4 0.0000 0.0000 0.0000 34.2255 0.0000 0.0000
# 5 0.0000 0.0000 0.0000 0.0000 28.0782 0.0000
# 6 0.0000 0.0000 0.0000 0.0000 0.0000 28.5012
#
#
#
# Elastic Compliance Matrix: (Units=1/GPa)
#
#
# Indices 1 2 3 4 5 6 
#
# 1 0.012009 -0.003487 -0.003529 0.000000 0.000000 0.000000
# 2 -0.003487 0.026498 -0.005326 0.000000 0.000000 0.000000
# 3 -0.003529 -0.005326 0.010709 0.000000 0.000000 0.000000
# 4 0.000000 0.000000 0.000000 0.029218 0.000000 0.000000
# 5 0.000000 0.000000 0.000000 0.000000 0.035615 0.000000
# 6 0.000000 0.000000 0.000000 0.000000 0.000000 0.035086
#
#
# Mechanical properties :
#
#
# Convention : Reuss Voigt Hill
#
# Bulk Modulus (GPa) = 40.76433 52.35846 46.56140
# Shear Modulus (GPa) = 27.47308 29.82391 28.64849
#
# Velocity S-wave (km/s) = 3.80420 3.96362 3.88473
# Velocity P-wave (km/s) = 6.38509 6.96620 6.68196
#
# Compressibility (1/GPa) = 0.02453125
#
# Stress axis : x y z
#
# Youngs Moduli (GPa) = 83.27355 37.73823 93.38115
#
# Poissons Ratio (x) = 0.13159 0.32957
# Poissons Ratio (y) = 0.29036 0.49736
# Poissons Ratio (z) = 0.29390 0.20100
#
# Static dielectric constant tensor:
#      x y z
#    x 3.444230 0.000000 0.000000 
#    y 0.000000 3.419060 0.000000 
#    z 0.000000 0.000000 3.568560 
# 
# 
# High freq. dielectric constant tensor:
#      x y z
#    x 1.733640 0.000000 0.000000 
#    y 0.000000 1.742530 0.000000 
#    z 0.000000 0.000000 1.743060 
# 
# From -- ./inp_files/24775.got.cif
#   From: 2010.03.12/outbox.cif.g09.slc.cpg/sg51_13_cif.got.tgz:24775.got - 2010.04.16 13:43:02.
