data_PCOD8213377
_publ_section_title
;
Structure prediction by ZEFSAII (Michael W. Deem and Ramdas Pophale) SiO2 
 PCOD8213377
Probable space group: P M M A
;
_chemical_formula_sum "Si O2"
_cell_formula_units_Z 56
_cell_length_a 8.927829
_cell_length_b 14.237044
_cell_length_c 21.014003
_cell_angle_alpha 90.000000
_cell_angle_beta 90.000000
_cell_angle_gamma 90.000000
_cell_volume 2671.003644
_symmetry_space_group_name_H-M "P M M A"
_symmetry_group_IT_number 51
_symmetry_cell_setting 'orthorhombic'
loop_
_space_group_symop_operation_xyz
x,y,z
1/2-x,-y,z
1/2+x,-y,-z
-x,y,-z
-x,-y,-z
1/2+x,y,-z
1/2-x,y,z
x,-y,z
loop_
_atom_site_type_symbol
_atom_site_label
_atom_site_fract_x
_atom_site_fract_y
_atom_site_fract_z
Si Si1 0.426579 0.778725 0.936797
Si Si2 0.914923 0.389487 0.243316
Si Si3 0.925711 0.107978 0.187208
Si Si4 0.427090 0.204968 0.564397
Si Si5 0.072593 0.396926 0.617750
Si Si6 0.578621 0.888564 0.684409
Si Si7 0.924612 0.608620 0.881874
O O1 0.250000 0.780919 0.944450
O O2 0.480641 0.837033 0.875351
O O3 0.483706 0.671265 0.931726
O O4 0.500000 0.823936 0.000000
O O5 0.750000 0.342658 0.231799
O O6 0.893968 0.500000 0.241574
O O7 0.984021 0.363418 0.312328
O O8 0.028434 0.356953 0.188741
O O9 0.750000 0.119917 0.198226
O O10 0.007642 0.150095 0.249687
O O11 0.970645 0.000000 0.176837
O O12 0.500000 0.164453 0.500000
O O13 0.250000 0.191588 0.561063
O O14 0.474040 0.315494 0.568833
O O15 0.487195 0.149164 0.624573
O O16 0.250000 0.405923 0.622725
O O17 0.005870 0.500000 0.598101
O O18 0.750000 0.855105 0.679758
O O19 0.564653 0.000000 0.683320
O O20 0.750000 0.626694 0.890900
O O21 0.967008 0.500000 0.893571
#
# Coordination Sequence:
#
# PCOD8213377 Si02
#       7
#     8   8   8   8   8   8   8
#     4  11  24  40  60  87 120 158 199 240 290 347
#     4   8  14  28  51  77 104 139 187 239 289 341
#     4   9  20  41  67  93 120 152 191 235 288 353
#     4  11  23  38  58  86 121 160 202 245 294 350
#     4   8  16  32  54  80 112 152 197 241 287 343
#     4  10  22  41  65  92 120 151 190 240 298 355
#     4  10  21  36  54  80 116 156 198 245 294 343
#
# _framework density 20.965902
#
# number of rings (size 3 to 8) (size 9 to 14) (size 15 to 20)
#    0.000    2.429    0.000    2.571    2.000    4.000 
#    0.000    0.714    0.000    2.143    0.000    0.000 
#    0.000    0.000    0.000    0.000    0.000    0.000 
#
# Total GULP energy -694267.718502 kJ/mol
# GULP energy per Si atom -12397.637830 kJ/mol
# Density = 2.091818 g / cm^3
# Si number density = 20.965902 Si / 1000 Ang^3
#
#
#
# Elastic Constant Matrix: (Units=GPa)
#
#
# Indices 1 2 3 4 5 6 
#
# 1 87.1279 29.7926 62.8250 0.0000 0.0000 0.0000
# 2 29.7926 49.3449 47.3851 0.0000 0.0000 0.0000
# 3 62.8250 47.3851 164.6141 0.0000 0.0000 0.0000
# 4 0.0000 0.0000 0.0000 24.8419 0.0000 0.0000
# 5 0.0000 0.0000 0.0000 0.0000 35.6650 0.0000
# 6 0.0000 0.0000 0.0000 0.0000 0.0000 20.1469
#
#
#
# Elastic Compliance Matrix: (Units=1/GPa)
#
#
# Indices 1 2 3 4 5 6 
#
# 1 0.016860 -0.005529 -0.004843 0.000000 0.000000 0.000000
# 2 -0.005529 0.029820 -0.006474 0.000000 0.000000 0.000000
# 3 -0.004843 -0.006474 0.009787 0.000000 0.000000 0.000000
# 4 0.000000 0.000000 0.000000 0.040255 0.000000 0.000000
# 5 0.000000 0.000000 0.000000 0.000000 0.028039 0.000000
# 6 0.000000 0.000000 0.000000 0.000000 0.000000 0.049635
#
#
# Mechanical properties :
#
#
# Convention : Reuss Voigt Hill
#
# Bulk Modulus (GPa) = 43.90659 64.56580 54.23620
# Shear Modulus (GPa) = 23.18256 26.86971 25.02614
#
# Velocity S-wave (km/s) = 3.32885 3.58382 3.45869
# Velocity P-wave (km/s) = 5.98017 6.92730 6.47108
#
# Compressibility (1/GPa) = 0.02277562
#
# Stress axis : x y z
#
# Youngs Moduli (GPa) = 59.31151 33.53420 102.17859
#
# Poissons Ratio (x) = 0.18540 0.49487
# Poissons Ratio (y) = 0.32791 0.66150
# Poissons Ratio (z) = 0.28726 0.21710
#
# Static dielectric constant tensor:
#      x y z
#    x 3.599000 0.000000 0.000000 
#    y 0.000000 3.862500 0.000000 
#    z 0.000000 0.000000 3.968670 
# 
# 
# High freq. dielectric constant tensor:
#      x y z
#    x 1.802670 0.000000 0.000000 
#    y 0.000000 1.818050 0.000000 
#    z 0.000000 0.000000 1.825530 
# 
# From -- ./inp_files/31879.got.cif
#   From: 2010.03.12/outbox.cif.g09.slc.cpg/sg51_16_cif.got.tgz:31879.got - 2010.04.16 13:43:02.
