data_PCOD8213735
_publ_section_title
;
Structure prediction by ZEFSAII (Michael W. Deem and Ramdas Pophale) SiO2 
 PCOD8213735
Probable space group: P M M A
;
_chemical_formula_sum "Si O2"
_cell_formula_units_Z 48
_cell_length_a 8.931249
_cell_length_b 8.927983
_cell_length_c 30.603013
_cell_angle_alpha 90.000000
_cell_angle_beta 90.000000
_cell_angle_gamma 90.000000
_cell_volume 2440.224251
_symmetry_space_group_name_H-M "P M M A"
_symmetry_group_IT_number 51
_symmetry_cell_setting 'orthorhombic'
loop_
_space_group_symop_operation_xyz
x,y,z
1/2-x,-y,z
1/2+x,-y,-z
-x,y,-z
-x,-y,-z
1/2+x,y,-z
1/2-x,y,z
x,-y,z
loop_
_atom_site_type_symbol
_atom_site_label
_atom_site_fract_x
_atom_site_fract_y
_atom_site_fract_z
Si Si1 0.921545 0.176532 0.213569
Si Si2 0.074266 0.671685 0.454768
Si Si3 0.422839 0.325047 0.293822
Si Si4 0.574314 0.829270 0.955445
Si Si5 0.076455 0.173830 0.625309
Si Si6 0.421779 0.674160 0.876226
O O1 0.750000 0.223801 0.223346
O O2 0.973763 0.237546 0.166762
O O3 0.029986 0.244790 0.249515
O O4 0.940539 0.000000 0.213769
O O5 0.250000 0.693869 0.459326
O O6 0.032889 0.500000 0.443396
O O7 0.000000 0.721785 0.500000
O O8 0.014399 0.778884 0.417248
O O9 0.250000 0.289114 0.303886
O O10 0.451278 0.500000 0.288157
O O11 0.522529 0.267109 0.333381
O O12 0.750000 0.815356 0.961210
O O13 0.523399 0.724347 0.916223
O O14 0.524495 0.000000 0.945785
O O15 0.500000 0.770647 0.000000
O O16 0.250000 0.208130 0.617162
O O17 0.047356 0.000000 0.634940
O O18 0.250000 0.711522 0.887523
O O19 0.446592 0.500000 0.867220
#
# Coordination Sequence:
#
# PCOD8213735 Si02
#       6
#     8   8   8   8   8   8
#     4  10  21  38  61  87 114 147 188 232 279 333
#     4  10  21  38  61  88 117 151 192 236 284 338
#     4  11  24  40  59  85 116 150 189 233 282 336
#     4  10  21  37  58  83 111 146 188 233 282 335
#     4  11  24  40  59  85 116 151 192 236 284 338
#     4  10  21  37  58  84 114 149 188 230 279 334
#
# _framework density 19.670321999999999
#
# number of rings (size 3 to 8) (size 9 to 14) (size 15 to 20)
#    0.000    1.667    0.000    4.000    0.000   12.000 
#    0.000    0.000    0.000    0.000    0.000    0.000 
#    0.000    0.000    0.000    0.000    0.000    0.000 
#
# Total GULP energy -595531.856061 kJ/mol
# GULP energy per Si atom -12406.913668 kJ/mol
# Density = 1.962555 g / cm^3
# Si number density = 19.670322 Si / 1000 Ang^3
#
#
#
# Elastic Constant Matrix: (Units=GPa)
#
#
# Indices 1 2 3 4 5 6 
#
# 1 71.2050 35.1506 43.8175 0.0000 0.0000 0.0000
# 2 35.1506 75.4922 43.3981 0.0000 0.0000 0.0000
# 3 43.8175 43.3981 125.6737 0.0000 0.0000 0.0000
# 4 0.0000 0.0000 0.0000 37.5852 0.0000 0.0000
# 5 0.0000 0.0000 0.0000 0.0000 38.0638 0.0000
# 6 0.0000 0.0000 0.0000 0.0000 0.0000 32.0117
#
#
#
# Elastic Compliance Matrix: (Units=1/GPa)
#
#
# Indices 1 2 3 4 5 6 
#
# 1 0.020282 -0.006711 -0.004754 0.000000 0.000000 0.000000
# 2 -0.006711 0.018748 -0.004134 0.000000 0.000000 0.000000
# 3 -0.004754 -0.004134 0.011042 0.000000 0.000000 0.000000
# 4 0.000000 0.000000 0.000000 0.026606 0.000000 0.000000
# 5 0.000000 0.000000 0.000000 0.000000 0.026272 0.000000
# 6 0.000000 0.000000 0.000000 0.000000 0.000000 0.031239
#
#
# Mechanical properties :
#
#
# Convention : Reuss Voigt Hill
#
# Bulk Modulus (GPa) = 52.98325 57.45594 55.21959
# Shear Modulus (GPa) = 29.12413 31.53245 30.32829
#
# Velocity S-wave (km/s) = 3.85205 4.00815 3.93087
# Velocity P-wave (km/s) = 6.83948 7.11992 6.98111
#
# Compressibility (1/GPa) = 0.01887389
#
# Stress axis : x y z
#
# Youngs Moduli (GPa) = 49.30382 53.33981 90.56004
#
# Poissons Ratio (x) = 0.35795 0.43055
# Poissons Ratio (y) = 0.33087 0.37440
# Poissons Ratio (z) = 0.23440 0.22052
#
# Static dielectric constant tensor:
#      x y z
#    x 3.638040 0.000000 0.000000 
#    y 0.000000 3.641800 0.000000 
#    z 0.000000 0.000000 4.369510 
# 
# 
# High freq. dielectric constant tensor:
#      x y z
#    x 1.772480 0.000000 0.000000 
#    y 0.000000 1.772090 0.000000 
#    z 0.000000 0.000000 1.779740 
# 
# From -- ./inp_files/36944.got.cif
#   From: 2010.03.12/outbox.cif.g09.slc.cpg/sg51_19_cif.got.tgz:36944.got - 2010.04.16 13:43:02.
