data_PCOD8213378
_publ_section_title
;
Structure prediction by ZEFSAII (Michael W. Deem and Ramdas Pophale) SiO2 
 PCOD8213378
Probable space group: P M M A
;
_chemical_formula_sum "Si O2"
_cell_formula_units_Z 64
_cell_length_a 9.049361
_cell_length_b 25.017827
_cell_length_c 14.861590
_cell_angle_alpha 90.000000
_cell_angle_beta 90.000000
_cell_angle_gamma 90.000000
_cell_volume 3364.594839
_symmetry_space_group_name_H-M "P M M A"
_symmetry_group_IT_number 51
_symmetry_cell_setting 'orthorhombic'
loop_
_space_group_symop_operation_xyz
x,y,z
1/2-x,-y,z
1/2+x,-y,-z
-x,y,-z
-x,-y,-z
1/2+x,y,-z
1/2-x,y,z
x,-y,z
loop_
_atom_site_type_symbol
_atom_site_label
_atom_site_fract_x
_atom_site_fract_y
_atom_site_fract_z
Si Si1 0.077805 0.762858 0.911959
Si Si2 0.422810 0.060838 0.908722
Si Si3 0.575815 0.406260 0.412389
Si Si4 0.415145 0.331929 0.162715
Si Si5 0.583792 0.697830 0.632277
Si Si6 0.923287 0.850800 0.231629
Si Si7 0.579477 0.440972 0.763213
Si Si8 0.924686 0.818226 0.591383
O O1 0.250000 0.763918 0.929909
O O2 0.034580 0.798283 0.825818
O O3 0.025913 0.701538 0.899161
O O4 0.000000 0.787371 0.000000
O O5 0.250000 0.067350 0.925698
O O6 0.472580 0.097231 0.825030
O O7 0.467512 0.000000 0.885749
O O8 0.500000 0.080543 0.000000
O O9 0.500000 0.432649 0.500000
O O10 0.750000 0.412312 0.418657
O O11 0.531062 0.343846 0.409731
O O12 0.519040 0.437802 0.325593
O O13 0.250000 0.327388 0.122311
O O14 0.420036 0.306451 0.260942
O O15 0.466551 0.394421 0.166347
O O16 0.750000 0.685696 0.597063
O O17 0.530933 0.756400 0.603706
O O18 0.750000 0.851722 0.254064
O O19 0.013128 0.851688 0.324460
O O20 0.750000 0.430718 0.735113
O O21 0.558492 0.500000 0.806632
O O22 0.750000 0.826601 0.586105
O O23 0.000000 0.839708 0.500000
#
# Coordination Sequence:
#
# PCOD8213378 Si02
#       8
#     8   8   8   8   8   8   8   8
#     4  11  22  34  53  81 113 146 177 214 265 325
#     4   9  18  34  57  85 117 153 192 234 279 329
#     4  11  21  31  46  68  96 129 167 214 265 318
#     4   9  17  33  54  76 103 132 167 210 260 321
#     4   9  18  33  51  72  99 135 176 217 265 318
#     4  10  21  36  54  81 116 151 188 229 275 326
#     4   9  19  36  55  72  93 126 167 212 265 323
#     4  11  22  35  53  77 108 148 190 233 277 325
#
# _framework density 19.021605999999998
#
# number of rings (size 3 to 8) (size 9 to 14) (size 15 to 20)
#    0.000    2.125    1.250    3.375    0.000    5.500 
#    0.000    0.000    0.000    0.750    0.000    0.000 
#    0.000    0.000    0.000    0.000    0.000    0.000 
#
# Total GULP energy -793582.823745 kJ/mol
# GULP energy per Si atom -12399.731621 kJ/mol
# Density = 1.897831 g / cm^3
# Si number density = 19.021606 Si / 1000 Ang^3
#
#
#
# Elastic Constant Matrix: (Units=GPa)
#
#
# Indices 1 2 3 4 5 6 
#
# 1 85.0196 34.6029 44.3886 0.0000 0.0000 0.0000
# 2 34.6029 99.9638 45.2090 0.0000 0.0000 0.0000
# 3 44.3886 45.2090 100.6113 0.0000 0.0000 0.0000
# 4 0.0000 0.0000 0.0000 11.7158 0.0000 0.0000
# 5 0.0000 0.0000 0.0000 0.0000 33.2817 0.0000
# 6 0.0000 0.0000 0.0000 0.0000 0.0000 21.8045
#
#
#
# Elastic Compliance Matrix: (Units=1/GPa)
#
#
# Indices 1 2 3 4 5 6 
#
# 1 0.015939 -0.002933 -0.005714 0.000000 0.000000 0.000000
# 2 -0.002933 0.013095 -0.004590 0.000000 0.000000 0.000000
# 3 -0.005714 -0.004590 0.014523 0.000000 0.000000 0.000000
# 4 0.000000 0.000000 0.000000 0.085355 0.000000 0.000000
# 5 0.000000 0.000000 0.000000 0.000000 0.030047 0.000000
# 6 0.000000 0.000000 0.000000 0.000000 0.000000 0.045862
#
#
# Mechanical properties :
#
#
# Convention : Reuss Voigt Hill
#
# Bulk Modulus (GPa) = 58.54095 59.33286 58.93690
# Shear Modulus (GPa) = 21.09804 24.12001 22.60903
#
# Velocity S-wave (km/s) = 3.33402 3.56481 3.45134
# Velocity P-wave (km/s) = 6.75750 6.94290 6.85083
#
# Compressibility (1/GPa) = 0.01708206
#
# Stress axis : x y z
#
# Youngs Moduli (GPa) = 62.73854 76.36637 68.85746
#
# Poissons Ratio (x) = 0.22399 0.39347
# Poissons Ratio (y) = 0.18402 0.31605
# Poissons Ratio (z) = 0.35850 0.35052
#
# Static dielectric constant tensor:
#      x y z
#    x 3.387080 0.000000 0.000000 
#    y 0.000000 3.505770 0.000000 
#    z 0.000000 0.000000 3.352780 
# 
# 
# High freq. dielectric constant tensor:
#      x y z
#    x 1.736960 0.000000 0.000000 
#    y 0.000000 1.725490 0.000000 
#    z 0.000000 0.000000 1.724760 
# 
# From -- ./inp_files/22351.got.cif
#   From: 2010.03.12/outbox.cif.g09.slc.cpg/sg51_12_cif.got.tgz:22351.got - 2010.04.16 13:43:02.
