data_PCOD8213765
_publ_section_title
;
Structure prediction by ZEFSAII (Michael W. Deem and Ramdas Pophale) SiO2 
 PCOD8213765
Probable space group: P M M A
;
_chemical_formula_sum "Si O2"
_cell_formula_units_Z 40
_cell_length_a 15.213554
_cell_length_b 14.833899
_cell_length_c 8.862439
_cell_angle_alpha 90.000000
_cell_angle_beta 90.000000
_cell_angle_gamma 90.000000
_cell_volume 2000.042650
_symmetry_space_group_name_H-M "P M M A"
_symmetry_group_IT_number 51
_symmetry_cell_setting 'orthorhombic'
loop_
_space_group_symop_operation_xyz
x,y,z
1/2-x,-y,z
1/2+x,-y,-z
-x,y,-z
-x,-y,-z
1/2+x,y,-z
1/2-x,y,z
x,-y,z
loop_
_atom_site_type_symbol
_atom_site_label
_atom_site_fract_x
_atom_site_fract_y
_atom_site_fract_z
Si Si1 0.908471 0.726417 0.931432
Si Si2 0.750000 0.602150 0.934379
Si Si3 0.647690 0.898394 0.104395
Si Si4 0.750000 0.399959 0.575528
Si Si5 0.402690 0.902777 0.562477
Si Si6 0.905063 0.724838 0.575230
O O1 0.915770 0.724033 0.752967
O O2 0.835451 0.656353 0.992033
O O3 0.886328 0.828560 0.980035
O O4 0.000000 0.693402 0.000000
O O5 0.750000 0.500000 0.999672
O O6 0.750000 0.599639 0.755056
O O7 0.750000 0.883263 0.138122
O O8 0.595078 0.881182 0.259375
O O9 0.630147 0.000000 0.043872
O O10 0.750000 0.500000 0.507654
O O11 0.661323 0.352001 0.517539
O O12 0.500000 0.910193 0.500000
O O13 0.358868 0.819396 0.474451
O O14 0.354343 0.000000 0.535747
O O15 0.000000 0.709865 0.500000
#
# Coordination Sequence:
#
# PCOD8213765 Si02
#       6
#     8   4   8   4   8   8
#     4  11  21  37  62  88 116 154 196 238 291 346
#     4   9  20  40  60  83 118 152 189 239 294 349
#     4  10  21  37  58  86 120 158 197 239 287 339
#     4   9  20  38  60  81 110 152 189 233 292 347
#     4   9  18  34  55  82 116 152 188 227 276 331
#     4  10  21  37  58  87 116 149 191 237 286 343
#
# _framework density 19.999572000000001
#
# number of rings (size 3 to 8) (size 9 to 14) (size 15 to 20)
#    0.000    2.200    1.000    2.400    1.400    2.000 
#    0.000    0.000    0.000    8.400    0.000    0.000 
#    0.000    0.000    0.000    0.000    0.000    0.000 
#
# Total GULP energy -495811.441051 kJ/mol
# GULP energy per Si atom -12395.286026 kJ/mol
# Density = 1.995405 g / cm^3
# Si number density = 19.999572 Si / 1000 Ang^3
#
#
#
# Elastic Constant Matrix: (Units=GPa)
#
#
# Indices 1 2 3 4 5 6 
#
# 1 133.4485 78.0409 45.1394 0.0000 0.0000 0.0000
# 2 78.0409 182.9237 45.6069 0.0000 0.0000 0.0000
# 3 45.1394 45.6069 77.1193 0.0000 0.0000 0.0000
# 4 0.0000 0.0000 0.0000 20.1436 0.0000 0.0000
# 5 0.0000 0.0000 0.0000 0.0000 22.5353 0.0000
# 6 0.0000 0.0000 0.0000 0.0000 0.0000 25.1191
#
#
#
# Elastic Compliance Matrix: (Units=1/GPa)
#
#
# Indices 1 2 3 4 5 6 
#
# 1 0.011096 -0.003653 -0.004334 0.000000 0.000000 0.000000
# 2 -0.003653 0.007615 -0.002365 0.000000 0.000000 0.000000
# 3 -0.004334 -0.002365 0.016902 0.000000 0.000000 0.000000
# 4 0.000000 0.000000 0.000000 0.049644 0.000000 0.000000
# 5 0.000000 0.000000 0.000000 0.000000 0.044375 0.000000
# 6 0.000000 0.000000 0.000000 0.000000 0.000000 0.039810
#
#
# Mechanical properties :
#
#
# Convention : Reuss Voigt Hill
#
# Bulk Modulus (GPa) = 67.07627 81.22954 74.15291
# Shear Modulus (GPa) = 25.62567 28.53989 27.08278
#
# Velocity S-wave (km/s) = 3.58342 3.78170 3.68389
# Velocity P-wave (km/s) = 7.12270 7.73124 7.43320
#
# Compressibility (1/GPa) = 0.01490840
#
# Stress axis : x y z
#
# Youngs Moduli (GPa) = 90.12215 131.31936 59.16294
#
# Poissons Ratio (x) = 0.47975 0.25643
# Poissons Ratio (y) = 0.32924 0.13992
# Poissons Ratio (z) = 0.39061 0.31057
#
# Static dielectric constant tensor:
#      x y z
#    x 3.701390 0.000000 0.000000 
#    y 0.000000 4.359450 0.000000 
#    z 0.000000 0.000000 3.367270 
# 
# 
# High freq. dielectric constant tensor:
#      x y z
#    x 1.781640 0.000000 0.000000 
#    y 0.000000 1.789080 0.000000 
#    z 0.000000 0.000000 1.760460 
# 
# From -- ./inp_files/8007.got.cif
#   From: 2010.03.12/outbox.cif.g09.slc.cpg/sg51_5_cif.got.tgz:8007.got - 2010.04.16 13:43:02.
