data_PCOD8213077
_publ_section_title
;
Structure prediction by ZEFSAII (Michael W. Deem and Ramdas Pophale) SiO2 
 PCOD8213077
Probable space group: P M M A
;
_chemical_formula_sum "Si O2"
_cell_formula_units_Z 64
_cell_length_a 19.198967
_cell_length_b 9.333925
_cell_length_c 18.907416
_cell_angle_alpha 90.000000
_cell_angle_beta 90.000000
_cell_angle_gamma 90.000000
_cell_volume 3388.241431
_symmetry_space_group_name_H-M "P M M A"
_symmetry_group_IT_number 51
_symmetry_cell_setting 'orthorhombic'
loop_
_space_group_symop_operation_xyz
x,y,z
1/2-x,-y,z
1/2+x,-y,-z
-x,y,-z
-x,-y,-z
1/2+x,y,-z
1/2-x,y,z
x,-y,z
loop_
_atom_site_type_symbol
_atom_site_label
_atom_site_fract_x
_atom_site_fract_y
_atom_site_fract_z
Si Si1 0.443854 0.164743 0.442092
Si Si2 0.585752 0.830167 0.216701
Si Si3 0.443817 0.834744 0.281443
Si Si4 0.669504 0.666282 0.489085
Si Si5 0.831257 0.162846 0.350308
Si Si6 0.831139 0.667725 0.795336
Si Si7 0.832518 0.841147 0.930548
Si Si8 0.171733 0.170787 0.914257
O O1 0.500000 0.217649 0.500000
O O2 0.471012 0.186521 0.361955
O O3 0.374624 0.260404 0.448920
O O4 0.424265 0.000000 0.456457
O O5 0.505448 0.785017 0.228269
O O6 0.630914 0.771768 0.282040
O O7 0.617677 0.766666 0.143889
O O8 0.592453 0.000000 0.215520
O O9 0.375639 0.739343 0.267231
O O10 0.423720 0.000000 0.268559
O O11 0.750000 0.692868 0.506953
O O12 0.651386 0.500000 0.484135
O O13 0.647528 0.739334 0.415847
O O14 0.750000 0.168468 0.334306
O O15 0.855620 0.000000 0.366715
O O16 0.750000 0.701840 0.781512
O O17 0.845577 0.500000 0.796812
O O18 0.857486 0.732934 0.869868
O O19 0.750000 0.852783 0.931579
O O20 0.864013 0.000000 0.915682
O O21 0.855866 0.782632 0.007846
O O22 0.250000 0.230156 0.899548
O O23 0.174193 0.000000 0.911444
#
# Coordination Sequence:
#
# PCOD8213077 Si02
#       8
#     8   8   8   8   8   8   8   8
#     4  10  21  38  58  78 101 131 169 211 254 304
#     4   9  16  28  47  74 107 137 167 204 245 291
#     4  10  21  35  53  77 103 131 163 203 251 301
#     4  10  21  35  51  74 103 132 165 208 256 306
#     4   9  16  28  50  77 104 137 173 206 242 288
#     4  10  21  37  56  75  97 129 169 213 258 303
#     4   8  14  27  50  78 104 130 164 206 248 291
#     4   8  13  23  45  79 111 135 164 204 244 282
#
# _framework density 18.888853999999998
#
# number of rings (size 3 to 8) (size 9 to 14) (size 15 to 20)
#    0.000    2.750    0.000    2.625    0.000    6.250 
#    0.000    5.000    0.000    5.250    0.000    3.500 
#    0.000    0.000    0.000    0.000    0.000    0.000 
#
# Total GULP energy -793432.754936 kJ/mol
# GULP energy per Si atom -12397.386796 kJ/mol
# Density = 1.884586 g / cm^3
# Si number density = 18.888854 Si / 1000 Ang^3
#
#
#
# Elastic Constant Matrix: (Units=GPa)
#
#
# Indices 1 2 3 4 5 6 
#
# 1 74.1949 38.4590 51.9687 0.0000 0.0000 0.0000
# 2 38.4590 65.7087 38.2742 0.0000 0.0000 0.0000
# 3 51.9687 38.2742 107.6435 0.0000 0.0000 0.0000
# 4 0.0000 0.0000 0.0000 5.0180 0.0000 0.0000
# 5 0.0000 0.0000 0.0000 0.0000 31.3652 0.0000
# 6 0.0000 0.0000 0.0000 0.0000 0.0000 19.0245
#
#
#
# Elastic Compliance Matrix: (Units=1/GPa)
#
#
# Indices 1 2 3 4 5 6 
#
# 1 0.024130 -0.009254 -0.008359 0.000000 0.000000 0.000000
# 2 -0.009254 0.022743 -0.003619 0.000000 0.000000 0.000000
# 3 -0.008359 -0.003619 0.014612 0.000000 0.000000 0.000000
# 4 0.000000 0.000000 0.000000 0.199282 0.000000 0.000000
# 5 0.000000 0.000000 0.000000 0.000000 0.031882 0.000000
# 6 0.000000 0.000000 0.000000 0.000000 0.000000 0.052564
#
#
# Mechanical properties :
#
#
# Convention : Reuss Voigt Hill
#
# Bulk Modulus (GPa) = 52.57327 56.10564 54.33945
# Shear Modulus (GPa) = 12.68978 19.00455 15.84716
#
# Velocity S-wave (km/s) = 2.59475 3.17539 2.89964
# Velocity P-wave (km/s) = 6.07209 6.57356 6.32779
#
# Compressibility (1/GPa) = 0.01902107
#
# Stress axis : x y z
#
# Youngs Moduli (GPa) = 41.44231 43.96962 68.43531
#
# Poissons Ratio (x) = 0.40690 0.57206
# Poissons Ratio (y) = 0.38351 0.24766
# Poissons Ratio (z) = 0.34642 0.15912
#
# Static dielectric constant tensor:
#      x y z
#    x 3.367410 0.000000 0.000000 
#    y 0.000000 3.152100 0.000000 
#    z 0.000000 0.000000 3.706380 
# 
# 
# High freq. dielectric constant tensor:
#      x y z
#    x 1.722400 0.000000 0.000000 
#    y 0.000000 1.694290 0.000000 
#    z 0.000000 0.000000 1.740470 
# 
# From -- ./inp_files/30616.got.cif
#   From: 2010.03.12/outbox.cif.g09.slc.cpg/sg51_16_cif.got.tgz:30616.got - 2010.04.16 13:43:02.
