data_PCOD8213685
_publ_section_title
;
Structure prediction by ZEFSAII (Michael W. Deem and Ramdas Pophale) SiO2 
 PCOD8213685
Probable space group: P M M A
;
_chemical_formula_sum "Si O2"
_cell_formula_units_Z 48
_cell_length_a 30.234391
_cell_length_b 9.078975
_cell_length_c 9.136747
_cell_angle_alpha 90.000000
_cell_angle_beta 90.000000
_cell_angle_gamma 90.000000
_cell_volume 2508.012200
_symmetry_space_group_name_H-M "P M M A"
_symmetry_group_IT_number 51
_symmetry_cell_setting 'orthorhombic'
loop_
_space_group_symop_operation_xyz
x,y,z
1/2-x,-y,z
1/2+x,-y,-z
-x,y,-z
-x,-y,-z
1/2+x,y,-z
1/2-x,y,z
x,-y,z
loop_
_atom_site_type_symbol
_atom_site_label
_atom_site_fract_x
_atom_site_fract_y
_atom_site_fract_z
Si Si1 0.124706 0.674788 0.419336
Si Si2 0.200010 0.668907 0.888018
Si Si3 0.456781 0.827548 0.918850
Si Si4 0.545151 0.171496 0.420003
Si Si5 0.301353 0.828375 0.593354
Si Si6 0.620058 0.329447 0.913120
O O1 0.128018 0.500000 0.431928
O O2 0.084581 0.731705 0.517038
O O3 0.170769 0.743854 0.471364
O O4 0.117109 0.727044 0.252931
O O5 0.250000 0.705669 0.936750
O O6 0.195488 0.500000 0.836086
O O7 0.185045 0.770535 0.753394
O O8 0.169344 0.701718 0.027340
O O9 0.460639 0.787756 0.749004
O O10 0.452952 0.000000 0.945678
O O11 0.500000 0.763795 0.000000
O O12 0.413500 0.756101 0.984991
O O13 0.500000 0.215479 0.500000
O O14 0.556457 0.000000 0.443436
O O15 0.250000 0.796283 0.561582
O O16 0.312748 0.000000 0.587032
O O17 0.607772 0.500000 0.922231
#
# Coordination Sequence:
#
# PCOD8213685 Si02
#       6
#     8   8   8   8   8   8
#     4  11  23  37  55  81 113 148 185 225 271 324
#     4   9  18  35  58  81 107 141 180 222 269 321
#     4  10  21  37  58  82 107 140 181 223 271 324
#     4  10  21  38  60  84 111 144 182 225 273 325
#     4  10  21  37  57  82 111 143 182 227 274 326
#     4  10  22  37  54  80 111 144 182 223 268 318
#
# _framework density 19.138662
#
# number of rings (size 3 to 8) (size 9 to 14) (size 15 to 20)
#    0.000    2.000    0.000    3.000    0.000    9.000 
#    0.000    1.667    0.000    2.000    0.000    0.000 
#    0.000    0.000    0.000    0.000    0.000    0.000 
#
# Total GULP energy -595429.996865 kJ/mol
# GULP energy per Si atom -12404.791601 kJ/mol
# Density = 1.909510 g / cm^3
# Si number density = 19.138662 Si / 1000 Ang^3
#
#
#
# Elastic Constant Matrix: (Units=GPa)
#
#
# Indices 1 2 3 4 5 6 
#
# 1 111.4757 46.4985 69.1103 0.0000 0.0000 0.0000
# 2 46.4985 68.3422 54.5372 0.0000 0.0000 0.0000
# 3 69.1103 54.5372 137.1787 0.0000 0.0000 0.0000
# 4 0.0000 0.0000 0.0000 28.2171 0.0000 0.0000
# 5 0.0000 0.0000 0.0000 0.0000 40.8876 0.0000
# 6 0.0000 0.0000 0.0000 0.0000 0.0000 34.7519
#
#
#
# Elastic Compliance Matrix: (Units=1/GPa)
#
#
# Indices 1 2 3 4 5 6 
#
# 1 0.014513 -0.005917 -0.004959 0.000000 0.000000 0.000000
# 2 -0.005917 0.023844 -0.006499 0.000000 0.000000 0.000000
# 3 -0.004959 -0.006499 0.012372 0.000000 0.000000 0.000000
# 4 0.000000 0.000000 0.000000 0.035439 0.000000 0.000000
# 5 0.000000 0.000000 0.000000 0.000000 0.024457 0.000000
# 6 0.000000 0.000000 0.000000 0.000000 0.000000 0.028775
#
#
# Mechanical properties :
#
#
# Convention : Reuss Voigt Hill
#
# Bulk Modulus (GPa) = 62.58089 73.03207 67.80648
# Shear Modulus (GPa) = 27.85872 30.56135 29.21003
#
# Velocity S-wave (km/s) = 3.81940 4.00038 3.91094
# Velocity P-wave (km/s) = 7.22635 7.71879 7.47662
#
# Compressibility (1/GPa) = 0.01597932
#
# Stress axis : x y z
#
# Youngs Moduli (GPa) = 68.90275 41.93968 80.82862
#
# Poissons Ratio (x) = 0.24815 0.40086
# Poissons Ratio (y) = 0.40769 0.52527
# Poissons Ratio (z) = 0.34172 0.27255
#
# Static dielectric constant tensor:
#      x y z
#    x 3.626700 0.000000 0.000000 
#    y 0.000000 3.467980 0.000000 
#    z 0.000000 0.000000 3.597830 
# 
# 
# High freq. dielectric constant tensor:
#      x y z
#    x 1.757370 0.000000 0.000000 
#    y 0.000000 1.741420 0.000000 
#    z 0.000000 0.000000 1.749980 
# 
# From -- ./inp_files/12735.got.cif
#   From: 2010.03.12/outbox.cif.g09.slc.cpg/sg51_7_cif.got.tgz:12735.got - 2010.04.16 13:43:02.
