data_PCOD8213081
_publ_section_title
;
Structure prediction by ZEFSAII (Michael W. Deem and Ramdas Pophale) SiO2 
 PCOD8213081
Probable space group: P M M A
;
_chemical_formula_sum "Si O2"
_cell_formula_units_Z 40
_cell_length_a 9.908741
_cell_length_b 7.472794
_cell_length_c 28.855890
_cell_angle_alpha 90.000000
_cell_angle_beta 90.000000
_cell_angle_gamma 90.000000
_cell_volume 2136.662662
_symmetry_space_group_name_H-M "P M M A"
_symmetry_group_IT_number 51
_symmetry_cell_setting 'orthorhombic'
loop_
_space_group_symop_operation_xyz
x,y,z
1/2-x,-y,z
1/2+x,-y,-z
-x,y,-z
-x,-y,-z
1/2+x,y,-z
1/2-x,y,z
x,-y,z
loop_
_atom_site_type_symbol
_atom_site_label
_atom_site_fract_x
_atom_site_fract_y
_atom_site_fract_z
Si Si1 0.095377 0.705228 0.458133
Si Si2 0.094890 0.000000 0.703992
Si Si3 0.900838 0.712264 0.858763
Si Si4 0.405362 0.000000 0.384001
Si Si5 0.598765 0.712803 0.961402
Si Si6 0.405065 0.706412 0.778565
O O1 0.250000 0.734993 0.473944
O O2 0.067378 0.500000 0.444450
O O3 0.061248 0.823492 0.413566
O O4 0.000000 0.766946 0.500000
O O5 0.062782 0.821990 0.733264
O O6 0.999484 0.000000 0.660151
O O7 0.250000 0.000000 0.687505
O O8 0.750000 0.780313 0.846426
O O9 0.903372 0.500000 0.858987
O O10 0.942581 0.781709 0.910013
O O11 0.005552 0.784196 0.820707
O O12 0.250000 0.000000 0.367832
O O13 0.750000 0.777009 0.972958
O O14 0.590861 0.500000 0.962519
O O15 0.500000 0.797260 0.000000
O O16 0.250000 0.729220 0.793702
O O17 0.439642 0.500000 0.767109
#
# Coordination Sequence:
#
# PCOD8213081 Si02
#       6
#     8   4   8   4   8   8
#     4   9  18  33  53  78 107 137 170 206 241 281
#     4  10  22  37  51  72 100 127 162 206 246 288
#     4   8  14  25  41  62  88 118 153 193 236 283
#     4  10  21  35  51  74 104 135 167 204 245 288
#     4   8  13  20  31  52  84 117 147 182 225 275
#     4   9  18  33  51  69  91 121 157 198 243 289
#
# _framework density 18.720782
#
# number of rings (size 3 to 8) (size 9 to 14) (size 15 to 20)
#    0.000    3.200    0.000    1.500    0.000    3.200 
#    0.000    4.000    0.000    0.000    0.000    0.700 
#    0.000    0.000    0.000    0.000    0.000    0.000 
#
# Total GULP energy -495856.134264 kJ/mol
# GULP energy per Si atom -12396.403357 kJ/mol
# Density = 1.867817 g / cm^3
# Si number density = 18.720782 Si / 1000 Ang^3
#
#
#
# Elastic Constant Matrix: (Units=GPa)
#
#
# Indices 1 2 3 4 5 6 
#
# 1 124.4188 40.6328 117.1574 0.0000 0.0000 0.0000
# 2 40.6328 67.6227 51.5941 0.0000 0.0000 0.0000
# 3 117.1574 51.5941 172.3324 0.0000 0.0000 0.0000
# 4 0.0000 0.0000 0.0000 -109.1019 0.0000 0.0000
# 5 0.0000 0.0000 0.0000 0.0000 48.0811 0.0000
# 6 0.0000 0.0000 0.0000 0.0000 0.0000 10.1100
#
#
#
# Elastic Compliance Matrix: (Units=1/GPa)
#
#
# Indices 1 2 3 4 5 6 
#
# 1 0.022635 -0.002411 -0.014666 0.000000 0.000000 0.000000
# 2 -0.002411 0.019423 -0.004176 0.000000 0.000000 0.000000
# 3 -0.014666 -0.004176 0.017024 0.000000 0.000000 0.000000
# 4 0.000000 0.000000 0.000000 -0.009166 0.000000 0.000000
# 5 0.000000 0.000000 0.000000 0.000000 0.020798 0.000000
# 6 0.000000 0.000000 0.000000 0.000000 0.000000 0.098912
#
#
# Mechanical properties :
#
#
# Convention : Reuss Voigt Hill
#
# Bulk Modulus (GPa) = 60.33129 87.01584 73.67356
# Shear Modulus (GPa) = 22.97199 0.15049 11.56124
#
# Velocity S-wave (km/s) = 3.50678 0.28383 2.48777
# Velocity P-wave (km/s) = 6.97807 6.83295 6.90589
#
# Compressibility (1/GPa) = 0.01657515
#
# Stress axis : x y z
#
# Youngs Moduli (GPa) = 44.17933 51.48628 58.74210
#
# Poissons Ratio (x) = 0.12413 0.86153
# Poissons Ratio (y) = 0.10651 0.24530
# Poissons Ratio (z) = 0.64795 0.21500
#
# Static dielectric constant tensor:
#      x y z
#    x 3.650670 0.000000 0.000000 
#    y 0.000000 3.347610 0.000000 
#    z 0.000000 0.000000 3.405880 
# 
# 
# High freq. dielectric constant tensor:
#      x y z
#    x 1.726100 0.000000 0.000000 
#    y 0.000000 1.720450 0.000000 
#    z 0.000000 0.000000 1.714100 
# 
# From -- ./inp_files/36060.got.cif
#   From: 2010.03.12/outbox.cif.g09.slc.cpg/sg51_19_cif.got.tgz:36060.got - 2010.04.16 13:43:02.
