data_PCOD8213159
_publ_section_title
;
Structure prediction by ZEFSAII (Michael W. Deem and Ramdas Pophale) SiO2 
 PCOD8213159
Probable space group: P M M A
;
_chemical_formula_sum "Si O2"
_cell_formula_units_Z 64
_cell_length_a 18.558122
_cell_length_b 30.407853
_cell_length_c 5.406788
_cell_angle_alpha 90.000000
_cell_angle_beta 90.000000
_cell_angle_gamma 90.000000
_cell_volume 3051.118841
_symmetry_space_group_name_H-M "P M M A"
_symmetry_group_IT_number 51
_symmetry_cell_setting 'orthorhombic'
loop_
_space_group_symop_operation_xyz
x,y,z
1/2-x,-y,z
1/2+x,-y,-z
-x,y,-z
-x,-y,-z
1/2+x,y,-z
1/2-x,y,z
x,-y,z
loop_
_atom_site_type_symbol
_atom_site_label
_atom_site_fract_x
_atom_site_fract_y
_atom_site_fract_z
Si Si1 0.663957 0.903318 0.802245
Si Si2 0.835629 0.754507 0.306719
Si Si3 0.073184 0.316615 0.912072
Si Si4 0.067613 0.401374 0.652482
Si Si5 0.164239 0.049911 0.697823
Si Si6 0.331370 0.364772 0.274643
Si Si7 0.665197 0.195428 0.803894
Si Si8 0.829598 0.548653 0.042262
O O1 0.750000 0.904089 0.802907
O O2 0.634926 0.926837 0.052044
O O3 0.633047 0.853724 0.802232
O O4 0.634993 0.926815 0.552355
O O5 0.750000 0.744023 0.310882
O O6 0.858177 0.780896 0.058139
O O7 0.884202 0.710359 0.300139
O O8 0.860526 0.779549 0.555439
O O9 0.039763 0.364488 0.840356
O O10 0.132478 0.325127 0.124311
O O11 0.000000 0.291043 0.000000
O O12 0.127985 0.370879 0.528152
O O13 0.106542 0.444410 0.760754
O O14 0.000000 0.419568 0.500000
O O15 0.250000 0.051572 0.697806
O O16 0.136074 0.000000 0.697670
O O17 0.250000 0.349821 0.322863
O O18 0.336769 0.413288 0.156967
O O19 0.750000 0.191650 0.795377
O O20 0.750000 0.551570 0.167868
O O21 0.840061 0.500000 0.923561
#
# Coordination Sequence:
#
# PCOD8213159 Si02
#       8
#     8   8   8   8   8   8   8   8
#     4   9  15  24  38  54  84 126 168 222 276 320
#     4  10  21  35  54  79 106 137 185 236 278 337
#     4  11  23  39  57  80 111 144 176 227 284 342
#     4  11  22  37  59  84 113 147 185 228 279 338
#     4   9  15  21  32  54  83 122 174 223 267 323
#     4  10  21  38  60  83 110 147 186 224 273 330
#     4   9  18  32  48  71  99 134 182 233 282 334
#     4   9  20  38  58  84 116 148 186 229 273 329
#
# _framework density 20.975914
#
# number of rings (size 3 to 8) (size 9 to 14) (size 15 to 20)
#    0.000    2.250    1.250    1.875    1.750    6.750 
#    0.000    1.875    0.000    0.000    0.000    0.000 
#    0.000    0.000    0.000    0.000    0.000   43.750 
#
# Total GULP energy -792984.933515 kJ/mol
# GULP energy per Si atom -12390.389586 kJ/mol
# Density = 2.092817 g / cm^3
# Si number density = 20.975914 Si / 1000 Ang^3
#
#
#
# Elastic Constant Matrix: (Units=GPa)
#
#
# Indices 1 2 3 4 5 6 
#
# 1 73.4231 13.9070 13.4833 0.0000 0.0000 0.0000
# 2 13.9070 114.3959 34.0624 0.0000 0.0000 0.0000
# 3 13.4833 34.0624 117.1084 0.0000 0.0000 0.0000
# 4 0.0000 0.0000 0.0000 32.1983 0.0000 0.0000
# 5 0.0000 0.0000 0.0000 0.0000 20.5000 0.0000
# 6 0.0000 0.0000 0.0000 0.0000 0.0000 5.4186
#
#
#
# Elastic Compliance Matrix: (Units=1/GPa)
#
#
# Indices 1 2 3 4 5 6 
#
# 1 0.014101 -0.001348 -0.001232 0.000000 0.000000 0.000000
# 2 -0.001348 0.009699 -0.002666 0.000000 0.000000 0.000000
# 3 -0.001232 -0.002666 0.009456 0.000000 0.000000 0.000000
# 4 0.000000 0.000000 0.000000 0.031058 0.000000 0.000000
# 5 0.000000 0.000000 0.000000 0.000000 0.048780 0.000000
# 6 0.000000 0.000000 0.000000 0.000000 0.000000 0.184549
#
#
# Mechanical properties :
#
#
# Convention : Reuss Voigt Hill
#
# Bulk Modulus (GPa) = 43.92434 47.53698 45.73066
# Shear Modulus (GPa) = 15.83670 27.85502 21.84586
#
# Velocity S-wave (km/s) = 2.75070 3.64806 3.23069
# Velocity P-wave (km/s) = 5.57443 6.36053 5.98041
#
# Compressibility (1/GPa) = 0.02276642
#
# Stress axis : x y z
#
# Youngs Moduli (GPa) = 70.91643 103.10119 105.74927
#
# Poissons Ratio (x) = 0.13893 0.13024
# Poissons Ratio (y) = 0.09556 0.28193
# Poissons Ratio (z) = 0.08734 0.27487
#
# Static dielectric constant tensor:
#      x y z
#    x 3.427010 0.000000 0.000000 
#    y 0.000000 3.883270 0.000000 
#    z 0.000000 0.000000 3.764710 
# 
# 
# High freq. dielectric constant tensor:
#      x y z
#    x 1.777250 0.000000 0.000000 
#    y 0.000000 1.820750 0.000000 
#    z 0.000000 0.000000 1.827140 
# 
# From -- ./inp_files/2103.got.cif
#   From: 2010.03.12/outbox.cif.g09.slc.cpg/sg51_2_cif.got.tgz:2103.got - 2010.04.16 13:43:02.
