data_PCOD8213092
_publ_section_title
;
Structure prediction by ZEFSAII (Michael W. Deem and Ramdas Pophale) SiO2 
 PCOD8213092
Probable space group: P M M A
;
_chemical_formula_sum "Si O2"
_cell_formula_units_Z 40
_cell_length_a 9.348070
_cell_length_b 9.392691
_cell_length_c 25.103972
_cell_angle_alpha 90.000000
_cell_angle_beta 90.000000
_cell_angle_gamma 90.000000
_cell_volume 2204.217433
_symmetry_space_group_name_H-M "P M M A"
_symmetry_group_IT_number 51
_symmetry_cell_setting 'orthorhombic'
loop_
_space_group_symop_operation_xyz
x,y,z
1/2-x,-y,z
1/2+x,-y,-z
-x,y,-z
-x,-y,-z
1/2+x,y,-z
1/2-x,y,z
x,-y,z
loop_
_atom_site_type_symbol
_atom_site_label
_atom_site_fract_x
_atom_site_fract_y
_atom_site_fract_z
Si Si1 0.912317 0.665108 0.863055
Si Si2 0.582115 0.164263 0.345298
Si Si3 0.416506 0.335643 0.552013
Si Si4 0.084247 0.338558 0.260158
Si Si5 0.084679 0.833156 0.948090
O O1 0.750000 0.711365 0.876829
O O2 0.934057 0.500000 0.876525
O O3 0.944762 0.695063 0.801437
O O4 0.024044 0.755988 0.896396
O O5 0.750000 0.186396 0.337784
O O6 0.527863 0.244501 0.398130
O O7 0.507023 0.228205 0.293777
O O8 0.539871 0.000000 0.350753
O O9 0.500000 0.282432 0.500000
O O10 0.250000 0.309880 0.541313
O O11 0.450624 0.500000 0.564370
O O12 0.250000 0.317987 0.274017
O O13 0.036806 0.500000 0.273440
O O14 0.250000 0.792742 0.955505
O O15 0.062470 0.000000 0.939529
O O16 0.000000 0.779235 0.000000
#
# Coordination Sequence:
#
# PCOD8213092 Si02
#       5
#     8   8   8   8   8
#     4   9  19  36  56  78 104 134 170 213 259 305
#     4  10  21  35  51  75 107 139 171 209 254 305
#     4   9  18  33  52  73  98 131 171 212 254 301
#     4   9  19  36  56  77 102 134 173 214 255 303
#     4  10  21  36  54  77 105 138 175 212 253 304
#
# _framework density 18.147030999999998
#
# number of rings (size 3 to 8) (size 9 to 14) (size 15 to 20)
#    0.000    2.600    0.000    2.400    0.000    6.400 
#    0.000    8.000    0.000    0.000    0.000    0.000 
#    0.000    0.000    0.000    0.000    0.000    0.000 
#
# Total GULP energy -496125.069382 kJ/mol
# GULP energy per Si atom -12403.126735 kJ/mol
# Density = 1.810573 g / cm^3
# Si number density = 18.147031 Si / 1000 Ang^3
#
#
#
# Elastic Constant Matrix: (Units=GPa)
#
#
# Indices 1 2 3 4 5 6 
#
# 1 84.0890 54.6356 67.4591 0.0000 0.0000 0.0000
# 2 54.6356 87.0300 69.7817 0.0000 0.0000 0.0000
# 3 67.4591 69.7817 120.0353 0.0000 0.0000 0.0000
# 4 0.0000 0.0000 0.0000 19.5321 0.0000 0.0000
# 5 0.0000 0.0000 0.0000 0.0000 39.7796 0.0000
# 6 0.0000 0.0000 0.0000 0.0000 0.0000 31.2939
#
#
#
# Elastic Compliance Matrix: (Units=1/GPa)
#
#
# Indices 1 2 3 4 5 6 
#
# 1 0.024354 -0.008082 -0.008989 0.000000 0.000000 0.000000
# 2 -0.008082 0.024205 -0.009529 0.000000 0.000000 0.000000
# 3 -0.008989 -0.009529 0.018922 0.000000 0.000000 0.000000
# 4 0.000000 0.000000 0.000000 0.051198 0.000000 0.000000
# 5 0.000000 0.000000 0.000000 0.000000 0.025139 0.000000
# 6 0.000000 0.000000 0.000000 0.000000 0.000000 0.031955
#
#
# Mechanical properties :
#
#
# Convention : Reuss Voigt Hill
#
# Bulk Modulus (GPa) = 70.02019 74.98969 72.50494
# Shear Modulus (GPa) = 21.39203 24.73965 23.06584
#
# Velocity S-wave (km/s) = 3.43712 3.69628 3.56905
# Velocity P-wave (km/s) = 7.37702 7.72203 7.55149
#
# Compressibility (1/GPa) = 0.01428160
#
# Stress axis : x y z
#
# Youngs Moduli (GPa) = 41.06070 41.31452 52.84831
#
# Poissons Ratio (x) = 0.33390 0.47503
# Poissons Ratio (y) = 0.33185 0.50360
# Poissons Ratio (z) = 0.36907 0.39369
#
# Static dielectric constant tensor:
#      x y z
#    x 3.285090 0.000000 0.000000 
#    y 0.000000 3.292620 0.000000 
#    z 0.000000 0.000000 3.344210 
# 
# 
# High freq. dielectric constant tensor:
#      x y z
#    x 1.700810 0.000000 0.000000 
#    y 0.000000 1.699630 0.000000 
#    z 0.000000 0.000000 1.710500 
# 
# From -- ./inp_files/34286.got.cif
#   From: 2010.03.12/outbox.cif.g09.slc.cpg/sg51_18_cif.got.tgz:34286.got - 2010.04.16 13:43:02.
