data_PCOD8213173
_publ_section_title
;
Structure prediction by ZEFSAII (Michael W. Deem and Ramdas Pophale) SiO2 
 PCOD8213173
Probable space group: P M M A
;
_chemical_formula_sum "Si O2"
_cell_formula_units_Z 56
_cell_length_a 22.849176
_cell_length_b 13.523086
_cell_length_c 9.211742
_cell_angle_alpha 90.000000
_cell_angle_beta 90.000000
_cell_angle_gamma 90.000000
_cell_volume 2846.348800
_symmetry_space_group_name_H-M "P M M A"
_symmetry_group_IT_number 51
_symmetry_cell_setting 'orthorhombic'
loop_
_space_group_symop_operation_xyz
x,y,z
1/2-x,-y,z
1/2+x,-y,-z
-x,y,-z
-x,-y,-z
1/2+x,y,-z
1/2-x,y,z
x,-y,z
loop_
_atom_site_type_symbol
_atom_site_label
_atom_site_fract_x
_atom_site_fract_y
_atom_site_fract_z
Si Si1 0.584293 0.613344 0.891614
Si Si2 0.541521 0.387506 0.214536
Si Si3 0.006851 0.112100 0.158308
Si Si4 0.183297 0.229998 0.141943
Si Si5 0.383139 0.113368 0.349695
Si Si6 0.682056 0.113319 0.149695
Si Si7 0.409705 0.792913 0.649100
O O1 0.596959 0.500000 0.849557
O O2 0.525685 0.649999 0.806879
O O3 0.640143 0.676946 0.844442
O O4 0.575274 0.622348 0.063117
O O5 0.541655 0.500000 0.269672
O O6 0.577542 0.324315 0.333830
O O7 0.072636 0.121445 0.214490
O O8 0.964219 0.156676 0.275493
O O9 0.986776 0.000000 0.140427
O O10 0.000000 0.164899 0.000000
O O11 0.250000 0.268387 0.135638
O O12 0.176114 0.161426 0.285822
O O13 0.167700 0.163923 0.002779
O O14 0.408027 0.177326 0.481807
O O15 0.372998 0.000000 0.399159
O O16 0.750000 0.117299 0.187571
O O17 0.650495 0.173589 0.276884
O O18 0.659772 0.000000 0.143161
#
# Coordination Sequence:
#
# PCOD8213173 Si02
#       7
#     8   8   8   8   8   8   8
#     4   9  18  36  61  91 120 149 193 246 299 357
#     4   9  19  35  60  91 122 153 187 238 305 368
#     4  10  21  35  55  83 114 152 196 242 295 351
#     4  11  22  38  59  83 114 157 206 252 296 345
#     4  11  24  38  53  83 123 159 198 241 293 354
#     4  10  21  36  55  81 112 149 198 247 290 347
#     4  12  21  35  60  83 117 154 195 239 298 354
#
# _framework density 19.674327999999999
#
# number of rings (size 3 to 8) (size 9 to 14) (size 15 to 20)
#    0.000    1.714    1.429    4.714    2.000    4.000 
#    0.000    0.714    0.000    3.857    0.000    0.000 
#    0.000    0.000    0.000    0.000    0.000    0.000 
#
# Total GULP energy -694418.427274 kJ/mol
# GULP energy per Si atom -12400.329058 kJ/mol
# Density = 1.962955 g / cm^3
# Si number density = 19.674328 Si / 1000 Ang^3
#
#
#
# Elastic Constant Matrix: (Units=GPa)
#
#
# Indices 1 2 3 4 5 6 
#
# 1 88.9211 51.8120 29.7755 0.0000 0.0000 0.0000
# 2 51.8120 111.2694 43.6600 0.0000 0.0000 0.0000
# 3 29.7755 43.6600 87.6155 0.0000 0.0000 0.0000
# 4 0.0000 0.0000 0.0000 28.8530 0.0000 0.0000
# 5 0.0000 0.0000 0.0000 0.0000 21.7908 0.0000
# 6 0.0000 0.0000 0.0000 0.0000 0.0000 23.1608
#
#
#
# Elastic Compliance Matrix: (Units=1/GPa)
#
#
# Indices 1 2 3 4 5 6 
#
# 1 0.015741 -0.006502 -0.002109 0.000000 0.000000 0.000000
# 2 -0.006502 0.013857 -0.004696 0.000000 0.000000 0.000000
# 3 -0.002109 -0.004696 0.014470 0.000000 0.000000 0.000000
# 4 0.000000 0.000000 0.000000 0.034658 0.000000 0.000000
# 5 0.000000 0.000000 0.000000 0.000000 0.045891 0.000000
# 6 0.000000 0.000000 0.000000 0.000000 0.000000 0.043176
#
#
# Mechanical properties :
#
#
# Convention : Reuss Voigt Hill
#
# Bulk Modulus (GPa) = 57.29214 59.81122 58.55168
# Shear Modulus (GPa) = 24.97178 25.59816 25.28497
#
# Velocity S-wave (km/s) = 3.56653 3.61098 3.58882
# Velocity P-wave (km/s) = 6.79291 6.91753 6.85550
#
# Compressibility (1/GPa) = 0.01745440
#
# Stress axis : x y z
#
# Youngs Moduli (GPa) = 63.52933 72.16434 69.10725
#
# Poissons Ratio (x) = 0.46921 0.14577
# Poissons Ratio (y) = 0.41306 0.32450
# Poissons Ratio (z) = 0.13401 0.33886
#
# Static dielectric constant tensor:
#      x y z
#    x 3.569260 0.000000 0.000000 
#    y 0.000000 3.825860 0.000000 
#    z 0.000000 0.000000 3.421610 
# 
# 
# High freq. dielectric constant tensor:
#      x y z
#    x 1.759990 0.000000 0.000000 
#    y 0.000000 1.773960 0.000000 
#    z 0.000000 0.000000 1.751230 
# 
# From -- ./inp_files/10984.got.cif
#   From: 2010.03.12/outbox.cif.g09.slc.cpg/sg51_6_cif.got.tgz:10984.got - 2010.04.16 13:43:02.
