data_PCOD8213607
_publ_section_title
;
Structure prediction by ZEFSAII (Michael W. Deem and Ramdas Pophale) SiO2 
 PCOD8213607
Probable space group: P M M A
;
_chemical_formula_sum "Si O2"
_cell_formula_units_Z 56
_cell_length_a 9.043313
_cell_length_b 15.986073
_cell_length_c 19.481564
_cell_angle_alpha 90.000000
_cell_angle_beta 90.000000
_cell_angle_gamma 90.000000
_cell_volume 2816.392466
_symmetry_space_group_name_H-M "P M M A"
_symmetry_group_IT_number 51
_symmetry_cell_setting 'orthorhombic'
loop_
_space_group_symop_operation_xyz
x,y,z
1/2-x,-y,z
1/2+x,-y,-z
-x,y,-z
-x,-y,-z
1/2+x,y,-z
1/2-x,y,z
x,-y,z
loop_
_atom_site_type_symbol
_atom_site_label
_atom_site_fract_x
_atom_site_fract_y
_atom_site_fract_z
Si Si1 0.922649 0.338763 0.702780
Si Si2 0.079549 0.093678 0.167427
Si Si3 0.423120 0.590998 0.153915
Si Si4 0.574371 0.752188 0.926791
Si Si5 0.423039 0.904940 0.566774
Si Si6 0.424764 0.168913 0.711068
Si Si7 0.417192 0.400795 0.567472
O O1 0.750000 0.329199 0.686975
O O2 0.953312 0.402897 0.764586
O O3 0.988873 0.252511 0.730218
O O4 0.002686 0.368417 0.634648
O O5 0.250000 0.109474 0.187499
O O6 0.026630 0.163569 0.113198
O O7 0.979989 0.098872 0.235845
O O8 0.058130 0.000000 0.136624
O O9 0.250000 0.592771 0.140185
O O10 0.487761 0.500000 0.129967
O O11 0.490337 0.669469 0.111927
O O12 0.750000 0.747982 0.934745
O O13 0.500000 0.756357 0.000000
O O14 0.500000 0.864178 0.500000
O O15 0.250000 0.900237 0.555060
O O16 0.471234 0.854836 0.633973
O O17 0.477245 0.000000 0.576291
O O18 0.250000 0.180679 0.717954
O O19 0.500000 0.366299 0.500000
O O20 0.250000 0.366022 0.566821
O O21 0.419134 0.500000 0.567807
#
# Coordination Sequence:
#
# PCOD8213607 Si02
#       7
#     8   8   8   8   8   8   8
#     4  11  21  36  58  83 114 153 199 246 299 356
#     4  10  21  39  62  87 117 155 198 242 291 353
#     4   9  18  35  60  86 115 153 195 237 287 349
#     4  10  21  39  60  88 122 154 192 235 286 349
#     4   9  19  35  53  75 105 142 185 234 286 342
#     4  11  22  36  56  83 117 151 193 246 299 351
#     4  10  21  37  56  81 114 152 198 252 307 363
#
# _framework density 19.883593000000001
#
# number of rings (size 3 to 8) (size 9 to 14) (size 15 to 20)
#    0.000    2.000    1.429    2.143    0.000    5.143 
#    0.000    2.857    0.000    1.714    0.000    0.000 
#    0.000    0.000    0.000    0.000    0.000    0.000 
#
# Total GULP energy -694341.530206 kJ/mol
# GULP energy per Si atom -12398.955897 kJ/mol
# Density = 1.983834 g / cm^3
# Si number density = 19.883593 Si / 1000 Ang^3
#
#
#
# Elastic Constant Matrix: (Units=GPa)
#
#
# Indices 1 2 3 4 5 6 
#
# 1 72.6544 39.6025 49.6024 0.0000 0.0000 0.0000
# 2 39.6025 113.2456 66.4275 0.0000 0.0000 0.0000
# 3 49.6024 66.4275 134.3937 0.0000 0.0000 0.0000
# 4 0.0000 0.0000 0.0000 26.8987 0.0000 0.0000
# 5 0.0000 0.0000 0.0000 0.0000 38.0709 0.0000
# 6 0.0000 0.0000 0.0000 0.0000 0.0000 20.6581
#
#
#
# Elastic Compliance Matrix: (Units=1/GPa)
#
#
# Indices 1 2 3 4 5 6 
#
# 1 0.019411 -0.003642 -0.005364 0.000000 0.000000 0.000000
# 2 -0.003642 0.013119 -0.005140 0.000000 0.000000 0.000000
# 3 -0.005364 -0.005140 0.011962 0.000000 0.000000 0.000000
# 4 0.000000 0.000000 0.000000 0.037177 0.000000 0.000000
# 5 0.000000 0.000000 0.000000 0.000000 0.026267 0.000000
# 6 0.000000 0.000000 0.000000 0.000000 0.000000 0.048407
#
#
# Mechanical properties :
#
#
# Convention : Reuss Voigt Hill
#
# Bulk Modulus (GPa) = 61.73207 70.17317 65.95262
# Shear Modulus (GPa) = 26.31102 28.10296 27.20699
#
# Velocity S-wave (km/s) = 3.64160 3.76357 3.70309
# Velocity P-wave (km/s) = 6.98540 7.36577 7.17810
#
# Compressibility (1/GPa) = 0.01619903
#
# Stress axis : x y z
#
# Youngs Moduli (GPa) = 51.51697 76.22493 83.60144
#
# Poissons Ratio (x) = 0.27757 0.44847
# Poissons Ratio (y) = 0.18760 0.42975
# Poissons Ratio (z) = 0.27636 0.39183
#
# Static dielectric constant tensor:
#      x y z
#    x 3.530490 0.000000 0.000000 
#    y 0.000000 3.918980 0.000000 
#    z 0.000000 0.000000 3.619630 
# 
# 
# High freq. dielectric constant tensor:
#      x y z
#    x 1.759460 0.000000 0.000000 
#    y 0.000000 1.783710 0.000000 
#    z 0.000000 0.000000 1.776200 
# 
# From -- ./inp_files/32042.got.cif
#   From: 2010.03.12/outbox.cif.g09.slc.cpg/sg51_17_cif.got.tgz:32042.got - 2010.04.16 13:43:02.
