data_PCOD8213426
_publ_section_title
;
Structure prediction by ZEFSAII (Michael W. Deem and Ramdas Pophale) SiO2 
 PCOD8213426
Probable space group: P M M A
;
_chemical_formula_sum "Si O2"
_cell_formula_units_Z 44
_cell_length_a 9.362234
_cell_length_b 7.956456
_cell_length_c 29.673001
_cell_angle_alpha 90.000000
_cell_angle_beta 90.000000
_cell_angle_gamma 90.000000
_cell_volume 2210.347865
_symmetry_space_group_name_H-M "P M M A"
_symmetry_group_IT_number 51
_symmetry_cell_setting 'orthorhombic'
loop_
_space_group_symop_operation_xyz
x,y,z
1/2-x,-y,z
1/2+x,-y,-z
-x,y,-z
-x,-y,-z
1/2+x,y,-z
1/2-x,y,z
x,-y,z
loop_
_atom_site_type_symbol
_atom_site_label
_atom_site_fract_x
_atom_site_fract_y
_atom_site_fract_z
Si Si1 0.590007 0.194338 0.627388
Si Si2 0.083263 0.500000 0.046167
Si Si3 0.089389 0.307817 0.276199
Si Si4 0.916490 0.194825 0.889291
Si Si5 0.093413 0.806751 0.804205
Si Si6 0.412381 0.300926 0.542720
O O1 0.750000 0.254425 0.613300
O O2 0.537938 0.290794 0.672126
O O3 0.480076 0.229759 0.587875
O O4 0.590119 0.000000 0.639469
O O5 0.250000 0.500000 0.035568
O O6 0.041116 0.327046 0.071837
O O7 0.000000 0.500000 0.000000
O O8 0.250000 0.233628 0.271713
O O9 0.086322 0.500000 0.261451
O O10 0.983119 0.210452 0.243708
O O11 0.750000 0.207428 0.877837
O O12 0.998080 0.263254 0.845060
O O13 0.955498 0.000000 0.902606
O O14 0.250000 0.718127 0.803198
O O15 0.116185 0.000000 0.813987
O O16 0.500000 0.230346 0.500000
O O17 0.250000 0.236412 0.538820
O O18 0.419523 0.500000 0.544105
#
# Coordination Sequence:
#
# PCOD8213426 Si02
#       6
#     8   4   8   8   8   8
#     4  10  21  37  57  80 107 141 181 224 270 323
#     4  10  22  38  58  86 116 150 194 240 289 346
#     4  10  21  36  56  81 109 145 186 226 272 329
#     4   9  19  37  59  82 113 153 194 238 286 341
#     4  10  21  36  55  82 114 147 185 231 283 335
#     4  10  21  37  58  82 107 138 176 220 271 326
#
# _framework density 19.906368000000001
#
# number of rings (size 3 to 8) (size 9 to 14) (size 15 to 20)
#    0.000    2.182    0.000    2.182    1.273    6.545 
#    0.000    0.000    0.000    0.000    0.000    0.000 
#    0.000    0.000    0.000    0.000    0.000    0.000 
#
# Total GULP energy -545548.295766 kJ/mol
# GULP energy per Si atom -12398.824904 kJ/mol
# Density = 1.986106 g / cm^3
# Si number density = 19.906368 Si / 1000 Ang^3
#
#
#
# Elastic Constant Matrix: (Units=GPa)
#
#
# Indices 1 2 3 4 5 6 
#
# 1 104.3699 40.0615 70.3830 0.0000 0.0000 0.0000
# 2 40.0615 55.6724 42.7742 0.0000 0.0000 0.0000
# 3 70.3830 42.7742 136.6967 0.0000 0.0000 0.0000
# 4 0.0000 0.0000 0.0000 32.8561 0.0000 0.0000
# 5 0.0000 0.0000 0.0000 0.0000 39.5780 0.0000
# 6 0.0000 0.0000 0.0000 0.0000 0.0000 20.4417
#
#
#
# Elastic Compliance Matrix: (Units=1/GPa)
#
#
# Indices 1 2 3 4 5 6 
#
# 1 0.016546 -0.007058 -0.006311 0.000000 0.000000 0.000000
# 2 -0.007058 0.026658 -0.004708 0.000000 0.000000 0.000000
# 3 -0.006311 -0.004708 0.012038 0.000000 0.000000 0.000000
# 4 0.000000 0.000000 0.000000 0.030436 0.000000 0.000000
# 5 0.000000 0.000000 0.000000 0.000000 0.025267 0.000000
# 6 0.000000 0.000000 0.000000 0.000000 0.000000 0.048920
#
#
# Mechanical properties :
#
#
# Convention : Reuss Voigt Hill
#
# Bulk Modulus (GPa) = 52.38517 67.01960 59.70239
# Shear Modulus (GPa) = 24.70601 28.14319 26.42460
#
# Velocity S-wave (km/s) = 3.52676 3.76410 3.64736
# Velocity P-wave (km/s) = 6.55416 7.25478 6.91335
#
# Compressibility (1/GPa) = 0.01908937
#
# Stress axis : x y z
#
# Youngs Moduli (GPa) = 60.43687 37.51229 83.07060
#
# Poissons Ratio (x) = 0.26475 0.52425
# Poissons Ratio (y) = 0.42655 0.39107
# Poissons Ratio (z) = 0.38141 0.17660
#
# Static dielectric constant tensor:
#      x y z
#    x 3.915020 0.000000 0.000000 
#    y 0.000000 3.673460 0.000000 
#    z 0.000000 0.000000 3.495800 
# 
# 
# High freq. dielectric constant tensor:
#      x y z
#    x 1.775870 0.000000 0.000000 
#    y 0.000000 1.774300 0.000000 
#    z 0.000000 0.000000 1.774290 
# 
# From -- ./inp_files/36824.got.cif
#   From: 2010.03.12/outbox.cif.g09.slc.cpg/sg51_19_cif.got.tgz:36824.got - 2010.04.16 13:43:02.
