data_PCOD8213289
_publ_section_title
;
Structure prediction by ZEFSAII (Michael W. Deem and Ramdas Pophale) SiO2 
 PCOD8213289
Probable space group: P M M A
;
_chemical_formula_sum "Si O2"
_cell_formula_units_Z 48
_cell_length_a 9.232263
_cell_length_b 9.278482
_cell_length_c 30.806823
_cell_angle_alpha 90.000000
_cell_angle_beta 90.000000
_cell_angle_gamma 90.000000
_cell_volume 2638.955158
_symmetry_space_group_name_H-M "P M M A"
_symmetry_group_IT_number 51
_symmetry_cell_setting 'orthorhombic'
loop_
_space_group_symop_operation_xyz
x,y,z
1/2-x,-y,z
1/2+x,-y,-z
-x,y,-z
-x,-y,-z
1/2+x,y,-z
1/2-x,y,z
x,-y,z
loop_
_atom_site_type_symbol
_atom_site_label
_atom_site_fract_x
_atom_site_fract_y
_atom_site_fract_z
Si Si1 0.917722 0.669246 0.128214
Si Si2 0.920326 0.166340 0.796945
Si Si3 0.413676 0.671762 0.458513
Si Si4 0.082752 0.331592 0.625563
Si Si5 0.083570 0.167411 0.710740
Si Si6 0.081177 0.165237 0.957294
O O1 0.750000 0.706626 0.137210
O O2 0.944943 0.500000 0.125792
O O3 0.969560 0.738309 0.083018
O O4 0.013909 0.734921 0.165972
O O5 0.750000 0.191089 0.794896
O O6 0.987618 0.216600 0.751372
O O7 0.960060 0.000000 0.806437
O O8 0.500000 0.733268 0.500000
O O9 0.250000 0.730773 0.459899
O O10 0.415867 0.500000 0.459525
O O11 0.490511 0.727882 0.414851
O O12 0.250000 0.295906 0.616015
O O13 0.057621 0.500000 0.632584
O O14 0.027623 0.252938 0.668798
O O15 0.250000 0.205839 0.721259
O O16 0.063288 0.000000 0.700673
O O17 0.250000 0.183083 0.966284
O O18 0.039439 0.000000 0.947069
O O19 0.000000 0.221695 0.000000
#
# Coordination Sequence:
#
# PCOD8213289 Si02
#       6
#     8   8   8   8   8   8
#     4  10  21  36  54  77 105 137 172 209 252 302
#     4  10  21  36  54  76 101 131 169 211 253 299
#     4   9  16  26  42  65  93 124 157 194 237 284
#     4   9  17  29  46  69  95 122 155 196 240 286
#     4   9  18  33  52  72  96 129 165 200 243 296
#     4   9  18  33  53  76 102 134 172 211 249 293
#
# _framework density 18.189017
#
# number of rings (size 3 to 8) (size 9 to 14) (size 15 to 20)
#    0.000    2.667    0.000    1.500    0.000    6.333 
#    0.000    3.333    0.000    0.500    0.000    0.000 
#    0.000    0.000    0.000    0.000    0.000    0.000 
#
# Total GULP energy -595322.290140 kJ/mol
# GULP energy per Si atom -12402.547711 kJ/mol
# Density = 1.814762 g / cm^3
# Si number density = 18.189017 Si / 1000 Ang^3
#
#
#
# Elastic Constant Matrix: (Units=GPa)
#
#
# Indices 1 2 3 4 5 6 
#
# 1 93.9848 40.7387 88.3656 0.0000 0.0000 0.0000
# 2 40.7387 54.8427 67.1038 0.0000 0.0000 0.0000
# 3 88.3656 67.1038 190.5852 0.0000 0.0000 0.0000
# 4 0.0000 0.0000 0.0000 36.6872 0.0000 0.0000
# 5 0.0000 0.0000 0.0000 0.0000 38.8470 0.0000
# 6 0.0000 0.0000 0.0000 0.0000 0.0000 19.3651
#
#
#
# Elastic Compliance Matrix: (Units=1/GPa)
#
#
# Indices 1 2 3 4 5 6 
#
# 1 0.019982 -0.006162 -0.007095 0.000000 0.000000 0.000000
# 2 -0.006162 0.033935 -0.009091 0.000000 0.000000 0.000000
# 3 -0.007095 -0.009091 0.011738 0.000000 0.000000 0.000000
# 4 0.000000 0.000000 0.000000 0.027257 0.000000 0.000000
# 5 0.000000 0.000000 0.000000 0.000000 0.025742 0.000000
# 6 0.000000 0.000000 0.000000 0.000000 0.000000 0.051639
#
#
# Mechanical properties :
#
#
# Convention : Reuss Voigt Hill
#
# Bulk Modulus (GPa) = 47.71427 81.31433 64.51430
# Shear Modulus (GPa) = 22.52500 28.52684 25.52592
#
# Velocity S-wave (km/s) = 3.52289 3.96454 3.75022
# Velocity P-wave (km/s) = 6.54500 8.10919 7.36872
#
# Compressibility (1/GPa) = 0.02095809
#
# Stress axis : x y z
#
# Youngs Moduli (GPa) = 50.04558 29.46815 85.19523
#
# Poissons Ratio (x) = 0.18157 0.60448
# Poissons Ratio (y) = 0.30836 0.77455
# Poissons Ratio (z) = 0.35508 0.26791
#
# Static dielectric constant tensor:
#      x y z
#    x 3.387040 0.000000 0.000000 
#    y 0.000000 3.137720 0.000000 
#    z 0.000000 0.000000 3.526880 
# 
# 
# High freq. dielectric constant tensor:
#      x y z
#    x 1.703090 0.000000 0.000000 
#    y 0.000000 1.679120 0.000000 
#    z 0.000000 0.000000 1.717730 
# 
# From -- ./inp_files/36123.got.cif
#   From: 2010.03.12/outbox.cif.g09.slc.cpg/sg51_19_cif.got.tgz:36123.got - 2010.04.16 13:43:02.
