data_PCOD8213232
_publ_section_title
;
Structure prediction by ZEFSAII (Michael W. Deem and Ramdas Pophale) SiO2 
 PCOD8213232
Probable space group: P M M A
;
_chemical_formula_sum "Si O2"
_cell_formula_units_Z 40
_cell_length_a 9.410143
_cell_length_b 9.443581
_cell_length_c 25.618943
_cell_angle_alpha 90.000000
_cell_angle_beta 90.000000
_cell_angle_gamma 90.000000
_cell_volume 2276.638838
_symmetry_space_group_name_H-M "P M M A"
_symmetry_group_IT_number 51
_symmetry_cell_setting 'orthorhombic'
loop_
_space_group_symop_operation_xyz
x,y,z
1/2-x,-y,z
1/2+x,-y,-z
-x,y,-z
-x,-y,-z
1/2+x,y,-z
1/2-x,y,z
x,-y,z
loop_
_atom_site_type_symbol
_atom_site_label
_atom_site_fract_x
_atom_site_fract_y
_atom_site_fract_z
Si Si1 0.915150 0.834425 0.948627
Si Si2 0.415051 0.164178 0.449485
Si Si3 0.084576 0.335848 0.349793
Si Si4 0.593127 0.331926 0.253210
Si Si5 0.414768 0.665995 0.863608
O O1 0.750000 0.794471 0.955694
O O2 0.979812 0.751272 0.900241
O O3 0.935401 0.000000 0.937935
O O4 0.000000 0.786755 0.000000
O O5 0.500000 0.217330 0.500000
O O6 0.250000 0.194919 0.459712
O O7 0.472257 0.251255 0.399924
O O8 0.444689 0.000000 0.438293
O O9 0.250000 0.309972 0.341877
O O10 0.047488 0.500000 0.358472
O O11 0.011527 0.273269 0.297724
O O12 0.750000 0.271747 0.265006
O O13 0.596133 0.500000 0.254668
O O14 0.544967 0.285781 0.195267
O O15 0.250000 0.702646 0.875473
O O16 0.441727 0.500000 0.871798
#
# Coordination Sequence:
#
# PCOD8213232 Si02
#       5
#     8   8   8   8   8
#     4  10  21  36  53  73  98 130 166 202 243 290
#     4   9  18  32  47  63  87 119 151 185 228 274
#     4   9  17  29  46  68  92 118 150 187 226 270
#     4   8  15  29  48  70  96 124 153 187 229 275
#     4   9  18  33  53  76 101 129 162 200 241 286
#
# _framework density 17.569759000000001
#
# number of rings (size 3 to 8) (size 9 to 14) (size 15 to 20)
#    0.000    3.000    0.000    1.800    0.000    4.000 
#    0.000    3.000    0.000    3.600    0.000    0.000 
#    0.000    0.000    0.000    0.000    0.000    0.000 
#
# Total GULP energy -495931.669451 kJ/mol
# GULP energy per Si atom -12398.291736 kJ/mol
# Density = 1.752977 g / cm^3
# Si number density = 17.569759 Si / 1000 Ang^3
#
#
#
# Elastic Constant Matrix: (Units=GPa)
#
#
# Indices 1 2 3 4 5 6 
#
# 1 95.1063 40.8004 90.8501 0.0000 0.0000 0.0000
# 2 40.8004 40.1316 56.4501 0.0000 0.0000 0.0000
# 3 90.8501 56.4501 178.6394 0.0000 0.0000 0.0000
# 4 0.0000 0.0000 0.0000 -6.6774 0.0000 0.0000
# 5 0.0000 0.0000 0.0000 0.0000 40.9616 0.0000
# 6 0.0000 0.0000 0.0000 0.0000 0.0000 23.0209
#
#
#
# Elastic Compliance Matrix: (Units=1/GPa)
#
#
# Indices 1 2 3 4 5 6 
#
# 1 0.023616 -0.012809 -0.007963 0.000000 0.000000 0.000000
# 2 -0.012809 0.051804 -0.009856 0.000000 0.000000 0.000000
# 3 -0.007963 -0.009856 0.012762 0.000000 0.000000 0.000000
# 4 0.000000 0.000000 0.000000 -0.149758 0.000000 0.000000
# 5 0.000000 0.000000 0.000000 0.000000 0.024413 0.000000
# 6 0.000000 0.000000 0.000000 0.000000 0.000000 0.043439
#
#
# Mechanical properties :
#
#
# Convention : Reuss Voigt Hill
#
# Bulk Modulus (GPa) = 37.13778 76.67537 56.90657
# Shear Modulus (GPa) = 65.35498 19.84613 42.60056
#
# Velocity S-wave (km/s) = 6.10559 3.36454 4.92942
# Velocity P-wave (km/s) = 8.41947 7.66999 8.05345
#
# Compressibility (1/GPa) = 0.02692676
#
# Stress axis : x y z
#
# Youngs Moduli (GPa) = 42.34452 19.30357 78.35883
#
# Poissons Ratio (x) = 0.24726 0.62394
# Poissons Ratio (y) = 0.54239 0.77229
# Poissons Ratio (z) = 0.33717 0.19025
#
# Static dielectric constant tensor:
#      x y z
#    x 3.391720 0.000000 0.000000 
#    y 0.000000 3.008830 0.000000 
#    z 0.000000 0.000000 3.517740 
# 
# 
# High freq. dielectric constant tensor:
#      x y z
#    x 1.678100 0.000000 0.000000 
#    y 0.000000 1.651470 0.000000 
#    z 0.000000 0.000000 1.691290 
# 
# From -- ./inp_files/31356.got.cif
#   From: 2010.03.12/outbox.cif.g09.slc.cpg/sg51_16_cif.got.tgz:31356.got - 2010.04.16 13:43:02.
