data_PCOD8213479
_publ_section_title
;
Structure prediction by ZEFSAII (Michael W. Deem and Ramdas Pophale) SiO2 
 PCOD8213479
Probable space group: P M M A
;
_chemical_formula_sum "Si O2"
_cell_formula_units_Z 48
_cell_length_a 9.823153
_cell_length_b 9.042627
_cell_length_c 28.469452
_cell_angle_alpha 90.000000
_cell_angle_beta 90.000000
_cell_angle_gamma 90.000000
_cell_volume 2528.859103
_symmetry_space_group_name_H-M "P M M A"
_symmetry_group_IT_number 51
_symmetry_cell_setting 'orthorhombic'
loop_
_space_group_symop_operation_xyz
x,y,z
1/2-x,-y,z
1/2+x,-y,-z
-x,y,-z
-x,-y,-z
1/2+x,y,-z
1/2-x,y,z
x,-y,z
loop_
_atom_site_type_symbol
_atom_site_label
_atom_site_fract_x
_atom_site_fract_y
_atom_site_fract_z
Si Si1 0.406519 0.326469 0.042883
Si Si2 0.088270 0.166382 0.136070
Si Si3 0.250000 0.671193 0.426460
Si Si4 0.476670 0.828023 0.595193
Si Si5 0.906598 0.673049 0.771092
Si Si6 0.250000 0.328722 0.537468
Si Si7 0.903553 0.167887 0.298934
O O1 0.250000 0.282384 0.032332
O O2 0.420484 0.500000 0.051350
O O3 0.464354 0.247484 0.089345
O O4 0.500000 0.272446 0.000000
O O5 0.250000 0.170984 0.136331
O O6 0.033729 0.248474 0.182421
O O7 0.031597 0.000000 0.136283
O O8 0.250000 0.500000 0.411639
O O9 0.378115 0.750832 0.403529
O O10 0.250000 0.689770 0.482003
O O11 0.384823 0.749488 0.556269
O O12 0.407809 0.805921 0.645539
O O13 0.491196 0.000000 0.582008
O O14 0.750000 0.717979 0.761954
O O15 0.921748 0.500000 0.778892
O O16 0.993550 0.721751 0.726390
O O17 0.250000 0.500000 0.552602
O O18 0.750000 0.199939 0.281844
O O19 0.946509 0.000000 0.286852
#
# Coordination Sequence:
#
# PCOD8213479 Si02
#       7
#     8   8   4   8   8   4   8
#     4   9  17  30  49  73 103 139 178 222 271 323
#     4   9  17  31  52  77 105 141 182 225 274 324
#     4  11  25  41  59  89 123 151 189 237 286 333
#     4  11  23  41  63  88 116 152 194 235 281 338
#     4  10  21  36  57  86 113 141 183 231 277 331
#     4  11  23  41  63  87 119 157 189 231 286 339
#     4  10  22  41  60  81 112 147 183 226 279 335
#
# _framework density 18.980891
#
# number of rings (size 3 to 8) (size 9 to 14) (size 15 to 20)
#    0.000    2.000    0.833    2.500    1.167    8.333 
#    0.000    0.833    0.000    3.000    0.000    0.000 
#    0.000    0.000    0.000    0.000    0.000    0.000 
#
# Total GULP energy -595389.318191 kJ/mol
# GULP energy per Si atom -12403.944129 kJ/mol
# Density = 1.893769 g / cm^3
# Si number density = 18.980891 Si / 1000 Ang^3
#
#
#
# Elastic Constant Matrix: (Units=GPa)
#
#
# Indices 1 2 3 4 5 6 
#
# 1 82.5814 38.6257 23.1413 0.0000 0.0000 0.0000
# 2 38.6257 105.8107 44.1758 0.0000 0.0000 0.0000
# 3 23.1413 44.1758 73.9468 0.0000 0.0000 0.0000
# 4 0.0000 0.0000 0.0000 37.9847 0.0000 0.0000
# 5 0.0000 0.0000 0.0000 0.0000 32.0653 0.0000
# 6 0.0000 0.0000 0.0000 0.0000 0.0000 29.5211
#
#
#
# Elastic Compliance Matrix: (Units=1/GPa)
#
#
# Indices 1 2 3 4 5 6 
#
# 1 0.014794 -0.004620 -0.001870 0.000000 0.000000 0.000000
# 2 -0.004620 0.014034 -0.006938 0.000000 0.000000 0.000000
# 3 -0.001870 -0.006938 0.018253 0.000000 0.000000 0.000000
# 4 0.000000 0.000000 0.000000 0.026326 0.000000 0.000000
# 5 0.000000 0.000000 0.000000 0.000000 0.031186 0.000000
# 6 0.000000 0.000000 0.000000 0.000000 0.000000 0.033874
#
#
# Mechanical properties :
#
#
# Convention : Reuss Voigt Hill
#
# Bulk Modulus (GPa) = 49.44222 52.69162 51.06692
# Shear Modulus (GPa) = 29.05869 30.34062 29.69965
#
# Velocity S-wave (km/s) = 3.91697 4.00244 3.95994
# Velocity P-wave (km/s) = 6.82363 7.01284 6.91888
#
# Compressibility (1/GPa) = 0.02022563
#
# Stress axis : x y z
#
# Youngs Moduli (GPa) = 67.59461 71.25580 54.78483
#
# Poissons Ratio (x) = 0.32919 0.10244
# Poissons Ratio (y) = 0.31228 0.38010
# Poissons Ratio (z) = 0.12639 0.49438
#
# Static dielectric constant tensor:
#      x y z
#    x 3.273460 0.000000 0.000000 
#    y 0.000000 3.583830 0.000000 
#    z 0.000000 0.000000 3.490920 
# 
# 
# High freq. dielectric constant tensor:
#      x y z
#    x 1.722790 0.000000 0.000000 
#    y 0.000000 1.746530 0.000000 
#    z 0.000000 0.000000 1.742370 
# 
# From -- ./inp_files/37154.got.cif
#   From: 2010.03.12/outbox.cif.g09.slc.cpg/sg51_19_cif.got.tgz:37154.got - 2010.04.16 13:43:02.
