data_PCOD8213218
_publ_section_title
;
Structure prediction by ZEFSAII (Michael W. Deem and Ramdas Pophale) SiO2 
 PCOD8213218
Probable space group: P M M A
;
_chemical_formula_sum "Si O2"
_cell_formula_units_Z 40
_cell_length_a 9.656215
_cell_length_b 8.793816
_cell_length_c 25.828885
_cell_angle_alpha 90.000000
_cell_angle_beta 90.000000
_cell_angle_gamma 90.000000
_cell_volume 2193.259201
_symmetry_space_group_name_H-M "P M M A"
_symmetry_group_IT_number 51
_symmetry_cell_setting 'orthorhombic'
loop_
_space_group_symop_operation_xyz
x,y,z
1/2-x,-y,z
1/2+x,-y,-z
-x,y,-z
-x,-y,-z
1/2+x,y,-z
1/2-x,y,z
x,-y,z
loop_
_atom_site_type_symbol
_atom_site_label
_atom_site_fract_x
_atom_site_fract_y
_atom_site_fract_z
Si Si1 0.094867 0.180864 0.045098
Si Si2 0.595201 0.819120 0.840765
Si Si3 0.909431 0.178668 0.364939
Si Si4 0.408298 0.680271 0.452321
Si Si5 0.097229 0.180584 0.751526
O O1 0.250000 0.242871 0.037059
O O2 0.039797 0.229587 0.102194
O O3 0.094797 0.000000 0.041029
O O4 0.000000 0.252977 0.000000
O O5 0.750000 0.756530 0.833026
O O6 0.502323 0.747104 0.795127
O O7 0.595048 0.000000 0.836674
O O8 0.750000 0.226171 0.376946
O O9 0.949806 0.225404 0.306323
O O10 0.018219 0.266713 0.400085
O O11 0.927250 0.000000 0.373849
O O12 0.500000 0.744072 0.500000
O O13 0.250000 0.743142 0.455668
O O14 0.405479 0.500000 0.453306
O O15 0.250000 0.245821 0.762186
O O16 0.099597 0.000000 0.755996
#
# Coordination Sequence:
#
# PCOD8213218 Si02
#       5
#     8   8   8   8   8
#     4   8  13  19  25  35  53  79 115 159 202 242
#     4   8  13  20  29  42  62  89 122 161 204 248
#     4   9  18  32  49  70  95 120 148 184 223 263
#     4  10  21  36  53  72  93 119 151 183 217 261
#     4   8  14  24  37  54  76 101 130 165 205 249
#
# _framework density 18.237698999999999
#
# number of rings (size 3 to 8) (size 9 to 14) (size 15 to 20)
#    0.000    3.400    0.000    3.000    0.000    3.600 
#    0.000    6.000    0.000    0.000    0.000    0.000 
#    0.000    0.000    0.000    0.000    0.000    1.000 
#
# Total GULP energy -495652.640366 kJ/mol
# GULP energy per Si atom -12391.316009 kJ/mol
# Density = 1.819619 g / cm^3
# Si number density = 18.237699 Si / 1000 Ang^3
#
#
#
# Elastic Constant Matrix: (Units=GPa)
#
#
# Indices 1 2 3 4 5 6 
#
# 1 126.6521 8.9105 101.9400 0.0000 0.0000 0.0000
# 2 8.9105 2.4230 7.6110 0.0000 0.0000 0.0000
# 3 101.9400 7.6110 172.3273 0.0000 0.0000 0.0000
# 4 0.0000 0.0000 0.0000 -2.7548 0.0000 0.0000
# 5 0.0000 0.0000 0.0000 0.0000 44.1861 0.0000
# 6 0.0000 0.0000 0.0000 0.0000 0.0000 13.9969
#
#
#
# Elastic Compliance Matrix: (Units=1/GPa)
#
#
# Indices 1 2 3 4 5 6 
#
# 1 0.017532 -0.037034 -0.008735 0.000000 0.000000 0.000000
# 2 -0.037034 0.557419 -0.002711 0.000000 0.000000 0.000000
# 3 -0.008735 -0.002711 0.011090 0.000000 0.000000 0.000000
# 4 0.000000 0.000000 0.000000 -0.363001 0.000000 0.000000
# 5 0.000000 0.000000 0.000000 0.000000 0.022632 0.000000
# 6 0.000000 0.000000 0.000000 0.000000 0.000000 0.071444
#
#
# Mechanical properties :
#
#
# Convention : Reuss Voigt Hill
#
# Bulk Modulus (GPa) = 2.04466 59.81393 30.92929
# Shear Modulus (GPa) = 8.66392 23.28171 15.97282
#
# Velocity S-wave (km/s) = 2.18194 3.57679 2.96262
# Velocity P-wave (km/s) = 2.73338 7.06583 5.35711
#
# Compressibility (1/GPa) = 0.48907942
#
# Stress axis : x y z
#
# Youngs Moduli (GPa) = 57.03797 1.79398 90.17031
#
# Poissons Ratio (x) = 0.06644 0.78768
# Poissons Ratio (y) = 2.11236 0.24449
# Poissons Ratio (z) = 0.49825 0.00486
#
# Static dielectric constant tensor:
#      x y z
#    x 3.709450 0.000000 0.000000 
#    y 0.000000 2.625220 0.000000 
#    z 0.000000 0.000000 3.730540 
# 
# 
# High freq. dielectric constant tensor:
#      x y z
#    x 1.708250 0.000000 0.000000 
#    y 0.000000 1.631470 0.000000 
#    z 0.000000 0.000000 1.723710 
# 
# From -- ./inp_files/32799.got.cif
#   From: 2010.03.12/outbox.cif.g09.slc.cpg/sg51_17_cif.got.tgz:32799.got - 2010.04.16 13:43:02.
