data_PCOD8213960
_publ_section_title
;
Structure prediction by ZEFSAII (Michael W. Deem and Ramdas Pophale) SiO2 
 PCOD8213960
Probable space group: P M M A
;
_chemical_formula_sum "Si O2"
_cell_formula_units_Z 56
_cell_length_a 14.461250
_cell_length_b 8.686185
_cell_length_c 22.268219
_cell_angle_alpha 90.000000
_cell_angle_beta 90.000000
_cell_angle_gamma 90.000000
_cell_volume 2797.179860
_symmetry_space_group_name_H-M "P M M A"
_symmetry_group_IT_number 51
_symmetry_cell_setting 'orthorhombic'
loop_
_space_group_symop_operation_xyz
x,y,z
1/2-x,-y,z
1/2+x,-y,-z
-x,y,-z
-x,-y,-z
1/2+x,y,-z
1/2-x,y,z
x,-y,z
loop_
_atom_site_type_symbol
_atom_site_label
_atom_site_fract_x
_atom_site_fract_y
_atom_site_fract_z
Si Si1 0.065459 0.180357 0.334856
Si Si2 0.061837 0.180884 0.555342
Si Si3 0.140485 0.673052 0.987384
Si Si4 0.857259 0.179686 0.136045
Si Si5 0.014657 0.319508 0.209521
Si Si6 0.250000 0.681483 0.383748
Si Si7 0.750000 0.318451 0.480811
Si Si8 0.140573 0.177748 0.110032
O O1 0.027863 0.227867 0.270612
O O2 0.160968 0.264648 0.347638
O O3 0.988969 0.228759 0.383573
O O4 0.084803 0.000000 0.337135
O O5 0.160563 0.262452 0.555100
O O6 0.000000 0.241011 0.500000
O O7 0.078400 0.000000 0.550207
O O8 0.250000 0.669461 0.990115
O O9 0.100342 0.500000 0.983421
O O10 0.102448 0.755423 0.047087
O O11 0.107978 0.769828 0.929800
O O12 0.750000 0.219599 0.145587
O O13 0.913745 0.275244 0.184995
O O14 0.877311 0.000000 0.143849
O O15 0.020187 0.500000 0.221851
O O16 0.094645 0.272024 0.163503
O O17 0.250000 0.500000 0.386488
O O18 0.250000 0.750434 0.451398
O O19 0.750000 0.500000 0.482892
O O20 0.250000 0.198671 0.115610
O O21 0.111341 0.000000 0.114448
#
# Coordination Sequence:
#
# PCOD8213960 Si02
#       8
#     8   8   8   8   8   4   4   8
#     4  11  24  43  66  91 123 165 210 253 298 357
#     4  10  21  40  66  94 125 164 209 256 300 356
#     4   9  17  32  57  89 122 154 193 247 311 365
#     4  10  21  40  65  89 116 154 203 254 305 366
#     4  12  26  42  61  87 122 160 203 252 306 366
#     4  11  23  39  63  97 131 165 200 243 302 363
#     4  11  23  37  63  99 133 165 198 249 312 363
#     4  10  21  38  60  87 121 160 203 249 301 362
#
# _framework density 20.020164999999999
#
# number of rings (size 3 to 8) (size 9 to 14) (size 15 to 20)
#    0.000    1.571    1.429    3.429    1.000    6.000 
#    1.286    2.857    0.000    0.000    0.000    0.000 
#    0.000    0.000    0.000    0.000    0.000    0.000 
#
# Total GULP energy -694691.513752 kJ/mol
# GULP energy per Si atom -12405.205603 kJ/mol
# Density = 1.997460 g / cm^3
# Si number density = 20.020165 Si / 1000 Ang^3
#
#
#
# Elastic Constant Matrix: (Units=GPa)
#
#
# Indices 1 2 3 4 5 6 
#
# 1 110.6832 25.4472 49.0685 0.0000 0.0000 0.0000
# 2 25.4472 56.2128 12.8661 0.0000 0.0000 0.0000
# 3 49.0685 12.8661 129.3972 0.0000 0.0000 0.0000
# 4 0.0000 0.0000 0.0000 32.8046 0.0000 0.0000
# 5 0.0000 0.0000 0.0000 0.0000 29.1675 0.0000
# 6 0.0000 0.0000 0.0000 0.0000 0.0000 -4.1089
#
#
#
# Elastic Compliance Matrix: (Units=1/GPa)
#
#
# Indices 1 2 3 4 5 6 
#
# 1 0.011852 -0.004438 -0.004053 0.000000 0.000000 0.000000
# 2 -0.004438 0.019865 -0.000292 0.000000 0.000000 0.000000
# 3 -0.004053 -0.000292 0.009294 0.000000 0.000000 0.000000
# 4 0.000000 0.000000 0.000000 0.030484 0.000000 0.000000
# 5 0.000000 0.000000 0.000000 0.000000 0.034285 0.000000
# 6 0.000000 0.000000 0.000000 0.000000 0.000000 -0.243373
#
#
# Mechanical properties :
#
#
# Convention : Reuss Voigt Hill
#
# Bulk Modulus (GPa) = 42.65279 52.33964 47.49622
# Shear Modulus (GPa) = -44.55834 25.50006 -9.52914
#
# Velocity S-wave (km/s) = -4.72282 3.57279 -2.18406
# Velocity P-wave (km/s) = 2.89636 6.57419 4.17319
#
# Compressibility (1/GPa) = 0.02344512
#
# Stress axis : x y z
#
# Youngs Moduli (GPa) = 84.37488 50.33890 107.59409
#
# Poissons Ratio (x) = 0.22338 0.43609
# Poissons Ratio (y) = 0.37442 0.03147
# Poissons Ratio (z) = 0.34198 0.01472
#
# Static dielectric constant tensor:
#      x y z
#    x 3.587520 0.000000 0.000000 
#    y 0.000000 3.704850 0.000000 
#    z 0.000000 0.000000 3.717710 
# 
# 
# High freq. dielectric constant tensor:
#      x y z
#    x 1.788640 0.000000 0.000000 
#    y 0.000000 1.790180 0.000000 
#    z 0.000000 0.000000 1.780930 
# 
# From -- ./inp_files/33497.got.cif
#   From: 2010.03.12/outbox.cif.g09.slc.cpg/sg51_17_cif.got.tgz:33497.got - 2010.04.16 13:43:02.
