data_PCOD8213096
_publ_section_title
;
Structure prediction by ZEFSAII (Michael W. Deem and Ramdas Pophale) SiO2 
 PCOD8213096
Probable space group: P M M A
;
_chemical_formula_sum "Si O2"
_cell_formula_units_Z 64
_cell_length_a 8.811109
_cell_length_b 14.367453
_cell_length_c 25.366199
_cell_angle_alpha 90.000000
_cell_angle_beta 90.000000
_cell_angle_gamma 90.000000
_cell_volume 3211.188162
_symmetry_space_group_name_H-M "P M M A"
_symmetry_group_IT_number 51
_symmetry_cell_setting 'orthorhombic'
loop_
_space_group_symop_operation_xyz
x,y,z
1/2-x,-y,z
1/2+x,-y,-z
-x,y,-z
-x,-y,-z
1/2+x,y,-z
1/2-x,y,z
x,-y,z
loop_
_atom_site_type_symbol
_atom_site_label
_atom_site_fract_x
_atom_site_fract_y
_atom_site_fract_z
Si Si1 0.571321 0.290086 0.553690
Si Si2 0.923474 0.103115 0.289544
Si Si3 0.429256 0.898302 0.399546
Si Si4 0.427709 0.100787 0.057229
Si Si5 0.074388 0.706589 0.757386
Si Si6 0.926030 0.390897 0.659665
Si Si7 0.925347 0.393201 0.853589
Si Si8 0.571035 0.283920 0.057532
O O1 0.500000 0.329459 0.500000
O O2 0.750000 0.290642 0.546957
O O3 0.508578 0.184800 0.563716
O O4 0.522764 0.355898 0.602033
O O5 0.750000 0.109691 0.308911
O O6 0.955636 0.182149 0.245925
O O7 0.027929 0.123309 0.339555
O O8 0.957820 0.000000 0.265777
O O9 0.250000 0.899182 0.402276
O O10 0.494503 0.000000 0.417201
O O11 0.250000 0.122291 0.052394
O O12 0.509910 0.188072 0.085410
O O13 0.454794 0.000000 0.085692
O O14 0.500000 0.095017 0.000000
O O15 0.250000 0.684866 0.769508
O O16 0.029677 0.659000 0.702609
O O17 0.971967 0.668736 0.804157
O O18 0.750000 0.366272 0.670299
O O19 0.955474 0.500000 0.663006
O O20 0.750000 0.375062 0.866420
O O21 0.956702 0.500000 0.838919
O O22 0.022543 0.368649 0.905243
O O23 0.750000 0.280101 0.052231
O O24 0.500000 0.298723 0.000000
#
# Coordination Sequence:
#
# PCOD8213096 Si02
#       8
#     8   8   8   8   8   8   8   8
#     4  10  21  35  51  75 108 144 185 232 282 338
#     4   9  18  33  55  84 116 148 181 220 272 334
#     4   9  17  31  52  77 105 140 183 228 274 330
#     4   9  16  28  50  81 117 156 198 241 283 333
#     4  11  22  37  61  90 117 145 183 233 285 339
#     4  10  21  38  58  79 106 144 187 232 287 346
#     4  11  25  44  64  86 115 153 196 243 294 346
#     4  11  22  38  62  90 123 161 200 244 294 349
#
# _framework density 19.930319000000001
#
# number of rings (size 3 to 8) (size 9 to 14) (size 15 to 20)
#    0.000    2.000    1.250    3.375    0.000    5.750 
#    0.000    0.625    0.000    2.250    0.000    0.000 
#    0.000    0.000    0.000    0.000    0.000    0.000 
#
# Total GULP energy -793402.320089 kJ/mol
# GULP energy per Si atom -12396.911251 kJ/mol
# Density = 1.988496 g / cm^3
# Si number density = 19.930319 Si / 1000 Ang^3
#
#
#
# Elastic Constant Matrix: (Units=GPa)
#
#
# Indices 1 2 3 4 5 6 
#
# 1 75.4154 36.7606 27.1892 0.0000 0.0000 0.0000
# 2 36.7606 103.8384 43.2808 0.0000 0.0000 0.0000
# 3 27.1892 43.2808 86.2755 0.0000 0.0000 0.0000
# 4 0.0000 0.0000 0.0000 27.3086 0.0000 0.0000
# 5 0.0000 0.0000 0.0000 0.0000 32.0016 0.0000
# 6 0.0000 0.0000 0.0000 0.0000 0.0000 27.4229
#
#
#
# Elastic Compliance Matrix: (Units=1/GPa)
#
#
# Indices 1 2 3 4 5 6 
#
# 1 0.016573 -0.004666 -0.002882 0.000000 0.000000 0.000000
# 2 -0.004666 0.013490 -0.005297 0.000000 0.000000 0.000000
# 3 -0.002882 -0.005297 0.015156 0.000000 0.000000 0.000000
# 4 0.000000 0.000000 0.000000 0.036618 0.000000 0.000000
# 5 0.000000 0.000000 0.000000 0.000000 0.031248 0.000000
# 6 0.000000 0.000000 0.000000 0.000000 0.000000 0.036466
#
#
# Mechanical properties :
#
#
# Convention : Reuss Voigt Hill
#
# Bulk Modulus (GPa) = 51.20472 53.33229 52.26850
# Shear Modulus (GPa) = 27.50993 27.89988 27.70491
#
# Velocity S-wave (km/s) = 3.71928 3.74554 3.73243
# Velocity P-wave (km/s) = 6.64768 6.74707 6.69756
#
# Compressibility (1/GPa) = 0.01952945
#
# Stress axis : x y z
#
# Youngs Moduli (GPa) = 60.33764 74.12921 65.97893
#
# Poissons Ratio (x) = 0.34588 0.19017
# Poissons Ratio (y) = 0.28153 0.34948
# Poissons Ratio (z) = 0.17391 0.39266
#
# Static dielectric constant tensor:
#      x y z
#    x 3.697940 0.000000 0.000000 
#    y 0.000000 4.279880 0.000000 
#    z 0.000000 0.000000 3.356380 
# 
# 
# High freq. dielectric constant tensor:
#      x y z
#    x 1.776750 0.000000 0.000000 
#    y 0.000000 1.796070 0.000000 
#    z 0.000000 0.000000 1.749280 
# 
# From -- ./inp_files/34873.got.cif
#   From: 2010.03.12/outbox.cif.g09.slc.cpg/sg51_18_cif.got.tgz:34873.got - 2010.04.16 13:43:02.
