data_PCOD8213779
_publ_section_title
;
Structure prediction by ZEFSAII (Michael W. Deem and Ramdas Pophale) SiO2 
 PCOD8213779
Probable space group: P M M A
;
_chemical_formula_sum "Si O2"
_cell_formula_units_Z 48
_cell_length_a 16.760098
_cell_length_b 8.802648
_cell_length_c 16.356417
_cell_angle_alpha 90.000000
_cell_angle_beta 90.000000
_cell_angle_gamma 90.000000
_cell_volume 2413.115246
_symmetry_space_group_name_H-M "P M M A"
_symmetry_group_IT_number 51
_symmetry_cell_setting 'orthorhombic'
loop_
_space_group_symop_operation_xyz
x,y,z
1/2-x,-y,z
1/2+x,-y,-z
-x,y,-z
-x,-y,-z
1/2+x,y,-z
1/2-x,y,z
x,-y,z
loop_
_atom_site_type_symbol
_atom_site_label
_atom_site_fract_x
_atom_site_fract_y
_atom_site_fract_z
Si Si1 0.916748 0.180967 0.544627
Si Si2 0.892814 0.179636 0.198298
Si Si3 0.412173 0.677768 0.974493
Si Si4 0.250000 0.672597 0.710336
Si Si5 0.750000 0.673945 0.482646
Si Si6 0.658618 0.830608 0.875208
Si Si7 0.056542 0.819869 0.272907
O O1 0.833334 0.248167 0.510699
O O2 0.923830 0.243390 0.637317
O O3 0.000000 0.232658 0.500000
O O4 0.909221 0.000000 0.538769
O O5 0.883220 0.239287 0.106649
O O6 0.825395 0.240421 0.256369
O O7 0.972505 0.241702 0.240611
O O8 0.889522 0.000000 0.194648
O O9 0.408732 0.500000 0.958217
O O10 0.500000 0.733018 0.000000
O O11 0.353494 0.721904 0.047670
O O12 0.250000 0.500000 0.741855
O O13 0.250000 0.682714 0.613946
O O14 0.750000 0.500000 0.513512
O O15 0.750000 0.841891 0.854149
O O16 0.619628 0.760188 0.793727
O O17 0.623756 0.000000 0.893834
O O18 0.056789 0.000000 0.278098
#
# Coordination Sequence:
#
# PCOD8213779 Si02
#       7
#     8   8   8   4   4   8   8
#     4  10  21  39  66  96 126 161 207 261 314 368
#     4  11  22  39  65  91 118 156 205 252 300 357
#     4  11  23  39  58  83 119 161 201 243 301 358
#     4  11  25  43  61  86 125 160 197 249 304 361
#     4  11  25  43  63  92 129 170 205 247 312 381
#     4  10  21  37  59  85 116 155 203 251 299 353
#     4   9  19  36  61  91 119 153 198 253 304 350
#
# _framework density 19.891299
#
# number of rings (size 3 to 8) (size 9 to 14) (size 15 to 20)
#    0.000    1.667    1.667    2.500    2.333    4.000 
#    0.000    2.500    0.000    0.000    0.000    0.000 
#    0.000    0.000    0.000    0.000    0.000    0.000 
#
# Total GULP energy -595090.054722 kJ/mol
# GULP energy per Si atom -12397.709473 kJ/mol
# Density = 1.984603 g / cm^3
# Si number density = 19.891299 Si / 1000 Ang^3
#
#
#
# Elastic Constant Matrix: (Units=GPa)
#
#
# Indices 1 2 3 4 5 6 
#
# 1 142.7302 38.1786 58.9379 0.0000 0.0000 0.0000
# 2 38.1786 62.1865 33.7566 0.0000 0.0000 0.0000
# 3 58.9379 33.7566 139.4001 0.0000 0.0000 0.0000
# 4 0.0000 0.0000 0.0000 21.7112 0.0000 0.0000
# 5 0.0000 0.0000 0.0000 0.0000 23.3473 0.0000
# 6 0.0000 0.0000 0.0000 0.0000 0.0000 26.0436
#
#
#
# Elastic Compliance Matrix: (Units=1/GPa)
#
#
# Indices 1 2 3 4 5 6 
#
# 1 0.009326 -0.004128 -0.002943 0.000000 0.000000 0.000000
# 2 -0.004128 0.020341 -0.003181 0.000000 0.000000 0.000000
# 3 -0.002943 -0.003181 0.009188 0.000000 0.000000 0.000000
# 4 0.000000 0.000000 0.000000 0.046059 0.000000 0.000000
# 5 0.000000 0.000000 0.000000 0.000000 0.042832 0.000000
# 6 0.000000 0.000000 0.000000 0.000000 0.000000 0.038397
#
#
# Mechanical properties :
#
#
# Convention : Reuss Voigt Hill
#
# Bulk Modulus (GPa) = 54.48988 67.34032 60.91510
# Shear Modulus (GPa) = 25.93849 28.45000 27.19424
#
# Velocity S-wave (km/s) = 3.61503 3.78600 3.70150
# Velocity P-wave (km/s) = 6.69909 7.28281 6.99704
#
# Compressibility (1/GPa) = 0.01835203
#
# Stress axis : x y z
#
# Youngs Moduli (GPa) = 107.23016 49.16100 108.83477
#
# Poissons Ratio (x) = 0.20292 0.32034
# Poissons Ratio (y) = 0.44261 0.34616
# Poissons Ratio (z) = 0.31562 0.15636
#
# Static dielectric constant tensor:
#      x y z
#    x 3.763030 0.000000 0.000000 
#    y 0.000000 3.522660 0.000000 
#    z 0.000000 0.000000 3.840200 
# 
# 
# High freq. dielectric constant tensor:
#      x y z
#    x 1.789570 0.000000 0.000000 
#    y 0.000000 1.757350 0.000000 
#    z 0.000000 0.000000 1.791670 
# 
# From -- ./inp_files/24840.got.cif
#   From: 2010.03.12/outbox.cif.g09.slc.cpg/sg51_13_cif.got.tgz:24840.got - 2010.04.16 13:43:02.
