data_PCOD8213791
_publ_section_title
;
Structure prediction by ZEFSAII (Michael W. Deem and Ramdas Pophale) SiO2 
 PCOD8213791
Probable space group: P M M A
;
_chemical_formula_sum "Si O2"
_cell_formula_units_Z 56
_cell_length_a 8.878316
_cell_length_b 21.102461
_cell_length_c 15.405091
_cell_angle_alpha 90.000000
_cell_angle_beta 90.000000
_cell_angle_gamma 90.000000
_cell_volume 2886.210305
_symmetry_space_group_name_H-M "P M M A"
_symmetry_group_IT_number 51
_symmetry_cell_setting 'orthorhombic'
loop_
_space_group_symop_operation_xyz
x,y,z
1/2-x,-y,z
1/2+x,-y,-z
-x,y,-z
-x,-y,-z
1/2+x,y,-z
1/2-x,y,z
x,-y,z
loop_
_atom_site_type_symbol
_atom_site_label
_atom_site_fract_x
_atom_site_fract_y
_atom_site_fract_z
Si Si1 0.928073 0.633178 0.410465
Si Si2 0.923782 0.293748 0.742987
Si Si3 0.070140 0.500000 0.855995
Si Si4 0.928526 0.500000 0.341192
Si Si5 0.074968 0.854130 0.256133
Si Si6 0.572926 0.927904 0.410071
Si Si7 0.927082 0.927712 0.912219
Si Si8 0.428257 0.629028 0.086749
O O1 0.750000 0.634000 0.419575
O O2 0.989662 0.562488 0.389616
O O3 0.000000 0.657006 0.500000
O O4 0.974385 0.680457 0.334432
O O5 0.750000 0.307895 0.721198
O O6 0.955589 0.219871 0.752845
O O7 0.972325 0.326742 0.832477
O O8 0.250000 0.500000 0.862637
O O9 0.011472 0.500000 0.756965
O O10 0.003721 0.439180 0.903010
O O11 0.750000 0.500000 0.339875
O O12 0.250000 0.869856 0.270968
O O13 0.014399 0.886666 0.168474
O O14 0.982350 0.881091 0.336074
O O15 0.500000 0.905590 0.500000
O O16 0.750000 0.921784 0.419968
O O17 0.524261 0.000000 0.387781
O O18 0.750000 0.921794 0.922618
O O19 0.978465 0.000000 0.896426
O O20 0.000000 0.900489 0.000000
O O21 0.250000 0.622227 0.076730
O O22 0.500000 0.660038 0.000000
#
# Coordination Sequence:
#
# PCOD8213791 Si02
#       8
#     8   8   4   4   8   8   8   8
#     4  11  22  39  61  86 114 147 186 231 284 340
#     4  10  23  41  58  81 113 151 194 237 278 331
#     4  11  20  37  62  87 114 144 186 237 290 343
#     4   9  19  35  59  87 113 141 179 230 284 337
#     4  10  21  38  59  82 113 152 193 234 280 332
#     4  10  21  37  59  88 118 148 186 233 283 336
#     4   9  18  33  55  83 113 145 181 225 276 327
#     4  11  23  39  59  85 115 150 191 236 289 343
#
# _framework density 19.402607
#
# number of rings (size 3 to 8) (size 9 to 14) (size 15 to 20)
#    0.000    1.857    1.429    2.357    0.000    4.286 
#    0.000    2.500    0.000    0.000    0.000    0.000 
#    0.000    0.000    0.000    0.000    0.000    0.000 
#
# Total GULP energy -694657.324143 kJ/mol
# GULP energy per Si atom -12404.595074 kJ/mol
# Density = 1.935845 g / cm^3
# Si number density = 19.402607 Si / 1000 Ang^3
#
#
#
# Elastic Constant Matrix: (Units=GPa)
#
#
# Indices 1 2 3 4 5 6 
#
# 1 70.6323 39.0407 59.4531 0.0000 0.0000 0.0000
# 2 39.0407 99.2481 66.2704 0.0000 0.0000 0.0000
# 3 59.4531 66.2704 173.0504 0.0000 0.0000 0.0000
# 4 0.0000 0.0000 0.0000 -20.7665 0.0000 0.0000
# 5 0.0000 0.0000 0.0000 0.0000 36.3481 0.0000
# 6 0.0000 0.0000 0.0000 0.0000 0.0000 23.8548
#
#
#
# Elastic Compliance Matrix: (Units=1/GPa)
#
#
# Indices 1 2 3 4 5 6 
#
# 1 0.021449 -0.004725 -0.005560 0.000000 0.000000 0.000000
# 2 -0.004725 0.014578 -0.003959 0.000000 0.000000 0.000000
# 3 -0.005560 -0.003959 0.009205 0.000000 0.000000 0.000000
# 4 0.000000 0.000000 0.000000 -0.048155 0.000000 0.000000
# 5 0.000000 0.000000 0.000000 0.000000 0.027512 0.000000
# 6 0.000000 0.000000 0.000000 0.000000 0.000000 0.041920
#
#
# Mechanical properties :
#
#
# Convention : Reuss Voigt Hill
#
# Bulk Modulus (GPa) = 59.72219 74.71771 67.21995
# Shear Modulus (GPa) = 49.71185 19.76506 34.73846
#
# Velocity S-wave (km/s) = 5.06723 3.19514 4.23590
# Velocity P-wave (km/s) = 8.06741 7.22528 7.65793
#
# Compressibility (1/GPa) = 0.01674420
#
# Stress axis : x y z
#
# Youngs Moduli (GPa) = 46.62184 68.59519 108.63659
#
# Poissons Ratio (x) = 0.32412 0.60397
# Poissons Ratio (y) = 0.22029 0.43014
# Poissons Ratio (z) = 0.25920 0.27160
#
# Static dielectric constant tensor:
#      x y z
#    x 4.043950 0.000000 0.000000 
#    y 0.000000 3.545610 0.000000 
#    z 0.000000 0.000000 3.736030 
# 
# 
# High freq. dielectric constant tensor:
#      x y z
#    x 1.750090 0.000000 0.000000 
#    y 0.000000 1.750230 0.000000 
#    z 0.000000 0.000000 1.772010 
# 
# From -- ./inp_files/21903.got.cif
#   From: 2010.03.12/outbox.cif.g09.slc.cpg/sg51_11_cif.got.tgz:21903.got - 2010.04.16 13:43:02.
