data_PCOD8213986
_publ_section_title
;
Structure prediction by ZEFSAII (Michael W. Deem and Ramdas Pophale) SiO2 
 PCOD8213986
Probable space group: P M M A
;
_chemical_formula_sum "Si O2"
_cell_formula_units_Z 48
_cell_length_a 8.940292
_cell_length_b 14.874924
_cell_length_c 18.683740
_cell_angle_alpha 90.000000
_cell_angle_beta 90.000000
_cell_angle_gamma 90.000000
_cell_volume 2484.678912
_symmetry_space_group_name_H-M "P M M A"
_symmetry_group_IT_number 51
_symmetry_cell_setting 'orthorhombic'
loop_
_space_group_symop_operation_xyz
x,y,z
1/2-x,-y,z
1/2+x,-y,-z
-x,y,-z
-x,-y,-z
1/2+x,y,-z
1/2-x,y,z
x,-y,z
loop_
_atom_site_type_symbol
_atom_site_label
_atom_site_fract_x
_atom_site_fract_y
_atom_site_fract_z
Si Si1 0.423829 0.765699 0.424930
Si Si2 0.079130 0.895566 0.682439
Si Si3 0.926643 0.262275 0.924472
Si Si4 0.422460 0.398306 0.330665
Si Si5 0.923543 0.103189 0.153190
Si Si6 0.922479 0.395532 0.183424
O O1 0.500000 0.784013 0.500000
O O2 0.250000 0.774946 0.438078
O O3 0.470214 0.840006 0.367661
O O4 0.467034 0.666881 0.395767
O O5 0.250000 0.869689 0.665501
O O6 0.041142 0.872748 0.764601
O O7 0.051458 0.000000 0.667277
O O8 0.750000 0.264522 0.932594
O O9 0.975725 0.164158 0.897630
O O10 0.977396 0.339181 0.870291
O O11 0.000000 0.284226 0.000000
O O12 0.250000 0.384291 0.307748
O O13 0.451646 0.500000 0.356791
O O14 0.526140 0.373873 0.263739
O O15 0.750000 0.121453 0.136510
O O16 0.964428 0.000000 0.137157
O O17 0.750000 0.366715 0.175851
O O18 0.946358 0.500000 0.165480
#
# Coordination Sequence:
#
# PCOD8213986 Si02
#       6
#     8   8   8   8   8   8
#     4  11  23  36  53  79 111 148 185 225 274 325
#     4   9  19  37  60  83 108 141 180 224 274 326
#     4  12  25  39  57  82 115 153 189 229 277 329
#     4   9  19  37  59  83 111 143 182 227 274 326
#     4   9  19  38  63  88 114 145 183 229 279 331
#     4  10  21  38  61  87 113 144 184 229 278 333
#
# _framework density 19.318390000000001
#
# number of rings (size 3 to 8) (size 9 to 14) (size 15 to 20)
#    0.000    2.000    0.000    4.500    0.000    7.667 
#    0.000    1.667    0.000    0.000    0.000    0.000 
#    0.000    0.000    0.000    0.000    0.000    0.000 
#
# Total GULP energy -595397.246462 kJ/mol
# GULP energy per Si atom -12404.109301 kJ/mol
# Density = 1.927442 g / cm^3
# Si number density = 19.318390 Si / 1000 Ang^3
#
#
#
# Elastic Constant Matrix: (Units=GPa)
#
#
# Indices 1 2 3 4 5 6 
#
# 1 94.7649 25.5233 22.8321 0.0000 0.0000 0.0000
# 2 25.5233 51.0353 6.4203 0.0000 0.0000 0.0000
# 3 22.8321 6.4203 33.6786 0.0000 0.0000 0.0000
# 4 0.0000 0.0000 0.0000 0.5675 0.0000 0.0000
# 5 0.0000 0.0000 0.0000 0.0000 29.9195 0.0000
# 6 0.0000 0.0000 0.0000 0.0000 0.0000 32.9830
#
#
#
# Elastic Compliance Matrix: (Units=1/GPa)
#
#
# Indices 1 2 3 4 5 6 
#
# 1 0.014227 -0.006047 -0.008492 0.000000 0.000000 0.000000
# 2 -0.006047 0.022646 -0.000218 0.000000 0.000000 0.000000
# 3 -0.008492 -0.000218 0.035491 0.000000 0.000000 0.000000
# 4 0.000000 0.000000 0.000000 1.761974 0.000000 0.000000
# 5 0.000000 0.000000 0.000000 0.000000 0.033423 0.000000
# 6 0.000000 0.000000 0.000000 0.000000 0.000000 0.030319
#
#
# Mechanical properties :
#
#
# Convention : Reuss Voigt Hill
#
# Bulk Modulus (GPa) = 23.33703 32.11447 27.72575
# Shear Modulus (GPa) = 2.57483 21.00754 11.79119
#
# Velocity S-wave (km/s) = 1.15574 3.30121 2.47323
# Velocity P-wave (km/s) = 3.72658 5.58485 4.74752
#
# Compressibility (1/GPa) = 0.04285036
#
# Stress axis : x y z
#
# Youngs Moduli (GPa) = 70.28815 44.15843 28.17593
#
# Poissons Ratio (x) = 0.26702 0.23928
# Poissons Ratio (y) = 0.42502 0.00613
# Poissons Ratio (z) = 0.59692 0.00961
#
# Static dielectric constant tensor:
#      x y z
#    x 3.538450 0.000000 0.000000 
#    y 0.000000 3.638120 0.000000 
#    z 0.000000 0.000000 3.453650 
# 
# 
# High freq. dielectric constant tensor:
#      x y z
#    x 1.754390 0.000000 0.000000 
#    y 0.000000 1.764750 0.000000 
#    z 0.000000 0.000000 1.747310 
# 
# From -- ./inp_files/27518.got.cif
#   From: 2010.03.12/outbox.cif.g09.slc.cpg/sg51_14_cif.got.tgz:27518.got - 2010.04.16 13:43:02.
