data_PCOD8213150
_publ_section_title
;
Structure prediction by ZEFSAII (Michael W. Deem and Ramdas Pophale) SiO2 
 PCOD8213150
Probable space group: P M M A
;
_chemical_formula_sum "Si O2"
_cell_formula_units_Z 64
_cell_length_a 17.805969
_cell_length_b 19.106435
_cell_length_c 10.269398
_cell_angle_alpha 90.000000
_cell_angle_beta 90.000000
_cell_angle_gamma 90.000000
_cell_volume 3493.737407
_symmetry_space_group_name_H-M "P M M A"
_symmetry_group_IT_number 51
_symmetry_cell_setting 'orthorhombic'
loop_
_space_group_symop_operation_xyz
x,y,z
1/2-x,-y,z
1/2+x,-y,-z
-x,y,-z
-x,-y,-z
1/2+x,y,-z
1/2-x,y,z
x,-y,z
loop_
_atom_site_type_symbol
_atom_site_label
_atom_site_fract_x
_atom_site_fract_y
_atom_site_fract_z
Si Si1 0.088290 0.709952 0.506101
Si Si2 0.083992 0.788750 0.764279
Si Si3 0.662661 0.578624 0.582786
Si Si4 0.162474 0.920572 0.675268
Si Si5 0.660920 0.576402 0.875717
Si Si6 0.161405 0.720235 0.008397
Si Si7 0.163645 0.920294 0.375478
Si Si8 0.406967 0.206905 0.252843
O O1 0.114102 0.752086 0.633247
O O2 0.120893 0.631705 0.513699
O O3 0.119437 0.748443 0.377828
O O4 0.000000 0.705449 0.500000
O O5 0.113421 0.868617 0.764368
O O6 0.117335 0.746651 0.884053
O O7 0.994697 0.786602 0.777106
O O8 0.750000 0.596568 0.579371
O O9 0.647510 0.500000 0.532392
O O10 0.630236 0.587642 0.729195
O O11 0.250000 0.903267 0.693973
O O12 0.138592 0.911131 0.525141
O O13 0.145664 0.000000 0.720302
O O14 0.750000 0.576000 0.867230
O O15 0.633184 0.500000 0.928879
O O16 0.633806 0.640078 0.966736
O O17 0.250000 0.724091 0.982960
O O18 0.141498 0.768108 0.131116
O O19 0.250000 0.897790 0.359327
O O20 0.111666 0.873848 0.282254
O O21 0.151960 0.000000 0.331120
#
# Coordination Sequence:
#
# PCOD8213150 Si02
#       8
#     8   8   8   8   8   8   8   8
#     4  10  21  35  53  80 112 149 183 220 271 328
#     4  11  23  37  53  82 118 147 183 228 273 331
#     4   9  17  31  54  82 107 137 184 234 275 322
#     4   9  18  34  56  82 113 147 181 222 276 334
#     4   8  15  30  54  81 104 132 178 229 272 321
#     4  11  22  37  58  83 109 147 187 229 283 328
#     4   9  18  33  56  86 113 140 183 234 274 316
#     4  11  21  37  57  80 111 149 188 226 270 326
#
# _framework density 18.318491999999999
#
# number of rings (size 3 to 8) (size 9 to 14) (size 15 to 20)
#    0.000    2.250    2.500    2.625    0.000    2.250 
#    0.000    2.500    0.000    7.500    0.000    0.000 
#    0.000    0.000    0.000    0.000    0.000    0.000 
#
# Total GULP energy -793579.598870 kJ/mol
# GULP energy per Si atom -12399.681232 kJ/mol
# Density = 1.827680 g / cm^3
# Si number density = 18.318492 Si / 1000 Ang^3
#
#
#
# Elastic Constant Matrix: (Units=GPa)
#
#
# Indices 1 2 3 4 5 6 
#
# 1 31.2066 27.5744 22.5436 0.0000 0.0000 0.0000
# 2 27.5744 126.1500 39.4796 0.0000 0.0000 0.0000
# 3 22.5436 39.4796 66.5600 0.0000 0.0000 0.0000
# 4 0.0000 0.0000 0.0000 31.5001 0.0000 0.0000
# 5 0.0000 0.0000 0.0000 0.0000 20.1931 0.0000
# 6 0.0000 0.0000 0.0000 0.0000 0.0000 25.5917
#
#
#
# Elastic Compliance Matrix: (Units=1/GPa)
#
#
# Indices 1 2 3 4 5 6 
#
# 1 0.046280 -0.006398 -0.011880 0.000000 0.000000 0.000000
# 2 -0.006398 0.010619 -0.004131 0.000000 0.000000 0.000000
# 3 -0.011880 -0.004131 0.021498 0.000000 0.000000 0.000000
# 4 0.000000 0.000000 0.000000 0.031746 0.000000 0.000000
# 5 0.000000 0.000000 0.000000 0.000000 0.049522 0.000000
# 6 0.000000 0.000000 0.000000 0.000000 0.000000 0.039075
#
#
# Mechanical properties :
#
#
# Convention : Reuss Voigt Hill
#
# Bulk Modulus (GPa) = 29.78135 44.79019 37.28577
# Shear Modulus (GPa) = 19.62704 24.41159 22.01932
#
# Velocity S-wave (km/s) = 3.27683 3.65447 3.47079
# Velocity P-wave (km/s) = 5.53260 6.50467 6.03823
#
# Compressibility (1/GPa) = 0.03357807
#
# Stress axis : x y z
#
# Youngs Moduli (GPa) = 21.60767 94.17504 46.51571
#
# Poissons Ratio (x) = 0.60255 0.55260
# Poissons Ratio (y) = 0.13825 0.19217
# Poissons Ratio (z) = 0.25669 0.38906
#
# Static dielectric constant tensor:
#      x y z
#    x 3.139570 0.000000 0.000000 
#    y 0.000000 3.623680 0.000000 
#    z 0.000000 0.000000 3.233960 
# 
# 
# High freq. dielectric constant tensor:
#      x y z
#    x 1.694910 0.000000 0.000000 
#    y 0.000000 1.726130 0.000000 
#    z 0.000000 0.000000 1.684900 
# 
# From -- ./inp_files/11201.got.cif
#   From: 2010.03.12/outbox.cif.g09.slc.cpg/sg51_6_cif.got.tgz:11201.got - 2010.04.16 13:43:02.
