data_PCOD8213990
_publ_section_title
;
Structure prediction by ZEFSAII (Michael W. Deem and Ramdas Pophale) SiO2 
 PCOD8213990
Probable space group: P M M A
;
_chemical_formula_sum "Si O2"
_cell_formula_units_Z 64
_cell_length_a 14.533530
_cell_length_b 9.003118
_cell_length_c 24.189290
_cell_angle_alpha 90.000000
_cell_angle_beta 90.000000
_cell_angle_gamma 90.000000
_cell_volume 3165.098098
_symmetry_space_group_name_H-M "P M M A"
_symmetry_group_IT_number 51
_symmetry_cell_setting 'orthorhombic'
loop_
_space_group_symop_operation_xyz
x,y,z
1/2-x,-y,z
1/2+x,-y,-z
-x,y,-z
-x,-y,-z
1/2+x,y,-z
1/2-x,y,z
x,-y,z
loop_
_atom_site_type_symbol
_atom_site_label
_atom_site_fract_x
_atom_site_fract_y
_atom_site_fract_z
Si Si1 0.855655 0.825430 0.865714
Si Si2 0.859087 0.667567 0.514794
Si Si3 0.351112 0.175788 0.014392
Si Si4 0.983662 0.327212 0.317009
Si Si5 0.641373 0.172461 0.404843
Si Si6 0.640316 0.829967 0.104527
Si Si7 0.015658 0.329474 0.809758
Si Si8 0.643707 0.824900 0.626270
O O1 0.750000 0.772533 0.859656
O O2 0.917570 0.747386 0.820019
O O3 0.861771 0.000000 0.856219
O O4 0.897879 0.781856 0.926812
O O5 0.750000 0.665681 0.512636
O O6 0.898407 0.500000 0.517946
O O7 0.897167 0.747846 0.459996
O O8 0.891649 0.760580 0.567845
O O9 0.250000 0.247777 0.016045
O O10 0.398898 0.224074 0.956312
O O11 0.340766 0.000000 0.011619
O O12 0.988789 0.500000 0.333014
O O13 0.955904 0.304236 0.253490
O O14 0.083262 0.252348 0.326468
O O15 0.905346 0.246589 0.352114
O O16 0.750000 0.194823 0.398728
O O17 0.614587 0.000000 0.407954
O O18 0.750000 0.811428 0.105776
O O19 0.596918 0.733186 0.152596
O O20 0.611445 0.000000 0.115124
O O21 0.003077 0.500000 0.824207
O O22 0.750000 0.785081 0.637522
O O23 0.627295 0.000000 0.626161
#
# Coordination Sequence:
#
# PCOD8213990 Si02
#       8
#     8   8   8   8   8   8   8   8
#     4   9  18  35  60  85 109 141 182 228 275 325
#     4   9  17  32  57  88 120 151 181 214 263 334
#     4   7  12  27  53  84 111 135 172 222 273 325
#     4  11  25  42  57  76 107 150 196 233 270 327
#     4  10  21  38  61  88 116 144 179 230 284 326
#     4   9  18  35  60  85 109 141 182 228 275 325
#     4  11  25  40  53  76 112 150 187 229 276 329
#     4  10  21  38  61  88 116 144 179 230 284 326
#
# _framework density 20.220541999999998
#
# number of rings (size 3 to 8) (size 9 to 14) (size 15 to 20)
#    0.000    2.500    0.000    3.375    0.000    7.500 
#    0.000   10.625    0.000    2.250    0.000    0.000 
#    0.000    0.000    0.000    0.000    0.000    0.000 
#
# Total GULP energy -793279.923484 kJ/mol
# GULP energy per Si atom -12394.998804 kJ/mol
# Density = 2.017452 g / cm^3
# Si number density = 20.220542 Si / 1000 Ang^3
#
#
#
# Elastic Constant Matrix: (Units=GPa)
#
#
# Indices 1 2 3 4 5 6 
#
# 1 25.7287 12.2329 -1.2799 0.0000 0.0000 0.0000
# 2 12.2329 95.0511 35.8351 0.0000 0.0000 0.0000
# 3 -1.2799 35.8351 74.4256 0.0000 0.0000 0.0000
# 4 0.0000 0.0000 0.0000 28.8212 0.0000 0.0000
# 5 0.0000 0.0000 0.0000 0.0000 58.3771 0.0000
# 6 0.0000 0.0000 0.0000 0.0000 0.0000 5.0368
#
#
#
# Elastic Compliance Matrix: (Units=1/GPa)
#
#
# Indices 1 2 3 4 5 6 
#
# 1 0.042401 -0.007003 0.004101 0.000000 0.000000 0.000000
# 2 -0.007003 0.014011 -0.006866 0.000000 0.000000 0.000000
# 3 0.004101 -0.006866 0.016813 0.000000 0.000000 0.000000
# 4 0.000000 0.000000 0.000000 0.034697 0.000000 0.000000
# 5 0.000000 0.000000 0.000000 0.000000 0.017130 0.000000
# 6 0.000000 0.000000 0.000000 0.000000 0.000000 0.198540
#
#
# Mechanical properties :
#
#
# Convention : Reuss Voigt Hill
#
# Bulk Modulus (GPa) = 18.62631 32.08684 25.35658
# Shear Modulus (GPa) = 13.84953 28.34149 21.09551
#
# Velocity S-wave (km/s) = 2.61994 3.74788 3.23347
# Velocity P-wave (km/s) = 4.28762 5.88487 5.14856
#
# Compressibility (1/GPa) = 0.05368750
#
# Stress axis : x y z
#
# Youngs Moduli (GPa) = 23.58450 71.37440 59.47826
#
# Poissons Ratio (x) = 0.49984 -0.24393
# Poissons Ratio (y) = 0.16516 0.40840
# Poissons Ratio (z) = -0.09672 0.49009
#
# Static dielectric constant tensor:
#      x y z
#    x 3.508030 0.000000 0.000000 
#    y 0.000000 3.574260 0.000000 
#    z 0.000000 0.000000 3.805280 
# 
# 
# High freq. dielectric constant tensor:
#      x y z
#    x 1.785510 0.000000 0.000000 
#    y 0.000000 1.775520 0.000000 
#    z 0.000000 0.000000 1.795250 
# 
# From -- ./inp_files/35865.got.cif
#   From: 2010.03.12/outbox.cif.g09.slc.cpg/sg51_18_cif.got.tgz:35865.got - 2010.04.16 13:43:02.
