data_PCOD8213223
_publ_section_title
;
Structure prediction by ZEFSAII (Michael W. Deem and Ramdas Pophale) SiO2 
 PCOD8213223
Probable space group: P M M A
;
_chemical_formula_sum "Si O2"
_cell_formula_units_Z 56
_cell_length_a 21.028236
_cell_length_b 14.428634
_cell_length_c 10.174427
_cell_angle_alpha 90.000000
_cell_angle_beta 90.000000
_cell_angle_gamma 90.000000
_cell_volume 3087.009882
_symmetry_space_group_name_H-M "P M M A"
_symmetry_group_IT_number 51
_symmetry_cell_setting 'orthorhombic'
loop_
_space_group_symop_operation_xyz
x,y,z
1/2-x,-y,z
1/2+x,-y,-z
-x,y,-z
-x,-y,-z
1/2+x,y,-z
1/2-x,y,z
x,-y,z
loop_
_atom_site_type_symbol
_atom_site_label
_atom_site_fract_x
_atom_site_fract_y
_atom_site_fract_z
Si Si1 0.928134 0.250378 0.517131
Si Si2 0.250000 0.108733 0.386621
Si Si3 0.820794 0.400301 0.223323
Si Si4 0.115201 0.889987 0.279286
Si Si5 0.126230 0.211402 0.764410
Si Si6 0.320812 0.604321 0.465407
Si Si7 0.250000 0.889215 0.682817
Si Si8 0.426303 0.100423 0.995245
O O1 0.929984 0.164442 0.618700
O O2 0.906612 0.211376 0.376800
O O3 0.878992 0.327700 0.575092
O O4 0.000000 0.290509 0.500000
O O5 0.312254 0.140201 0.308017
O O6 0.250000 0.150930 0.533804
O O7 0.250000 0.000000 0.405091
O O8 0.750000 0.390818 0.164534
O O9 0.850160 0.500000 0.178924
O O10 0.863144 0.314614 0.177193
O O11 0.816990 0.396351 0.379176
O O12 0.103321 0.000000 0.297650
O O13 0.100065 0.857006 0.131459
O O14 0.190009 0.151660 0.758095
O O15 0.082135 0.166592 0.872445
O O16 0.250000 0.636582 0.413145
O O17 0.335208 0.500000 0.413034
O O18 0.250000 0.000000 0.689792
O O19 0.392948 0.000000 0.972884
O O20 0.500000 0.083793 0.000000
#
# Coordination Sequence:
#
# PCOD8213223 Si02
#       8
#     8   4   8   8   8   8   4   8
#     4  11  22  32  53  84 110 142 184 227 272 326
#     4   9  18  33  51  74 105 140 174 219 275 324
#     4   8  14  27  48  76 105 131 165 211 267 326
#     4  10  21  36  53  73 106 148 183 218 271 333
#     4  11  20  33  56  80 108 138 181 230 275 317
#     4   8  16  31  53  78 106 140 175 218 275 331
#     4  11  20  31  52  86 113 132 173 239 286 306
#     4  10  22  39  54  71 104 148 187 225 270 326
#
# _framework density 18.140530999999999
#
# number of rings (size 3 to 8) (size 9 to 14) (size 15 to 20)
#    0.000    2.286    2.143    2.143    2.000    1.714 
#    0.000    1.429    0.000    1.286    0.000    2.000 
#    0.000    0.000    0.000    0.000    0.000    0.000 
#
# Total GULP energy -693976.523805 kJ/mol
# GULP energy per Si atom -12392.437925 kJ/mol
# Density = 1.809924 g / cm^3
# Si number density = 18.140531 Si / 1000 Ang^3
#
#
#
# Elastic Constant Matrix: (Units=GPa)
#
#
# Indices 1 2 3 4 5 6 
#
# 1 80.9650 29.9998 8.9473 0.0000 0.0000 0.0000
# 2 29.9998 97.0663 36.0594 0.0000 0.0000 0.0000
# 3 8.9473 36.0594 67.2465 0.0000 0.0000 0.0000
# 4 0.0000 0.0000 0.0000 104.5307 0.0000 0.0000
# 5 0.0000 0.0000 0.0000 0.0000 23.5029 0.0000
# 6 0.0000 0.0000 0.0000 0.0000 0.0000 -45.8819
#
#
#
# Elastic Compliance Matrix: (Units=1/GPa)
#
#
# Indices 1 2 3 4 5 6 
#
# 1 0.013966 -0.004528 0.000570 0.000000 0.000000 0.000000
# 2 -0.004528 0.014333 -0.007083 0.000000 0.000000 0.000000
# 3 0.000570 -0.007083 0.018593 0.000000 0.000000 0.000000
# 4 0.000000 0.000000 0.000000 0.009567 0.000000 0.000000
# 5 0.000000 0.000000 0.000000 0.000000 0.042548 0.000000
# 6 0.000000 0.000000 0.000000 0.000000 0.000000 -0.021795
#
#
# Mechanical properties :
#
#
# Convention : Reuss Voigt Hill
#
# Bulk Modulus (GPa) = 40.30792 43.92119 42.11456
# Shear Modulus (GPa) = 46.48391 27.78176 37.13284
#
# Velocity S-wave (km/s) = 5.06754 3.91765 4.52924
# Velocity P-wave (km/s) = 7.51718 6.68791 7.11464
#
# Compressibility (1/GPa) = 0.02480902
#
# Stress axis : x y z
#
# Youngs Moduli (GPa) = 71.60348 69.76859 53.78335
#
# Poissons Ratio (x) = 0.31592 -0.03065
# Poissons Ratio (y) = 0.32422 0.38096
# Poissons Ratio (z) = -0.04080 0.49419
#
# Static dielectric constant tensor:
#      x y z
#    x 3.466550 0.000000 0.000000 
#    y 0.000000 3.727970 0.000000 
#    z 0.000000 0.000000 3.022590 
# 
# 
# High freq. dielectric constant tensor:
#      x y z
#    x 1.699160 0.000000 0.000000 
#    y 0.000000 1.705500 0.000000 
#    z 0.000000 0.000000 1.664280 
# 
# From -- ./inp_files/11047.got.cif
#   From: 2010.03.12/outbox.cif.g09.slc.cpg/sg51_6_cif.got.tgz:11047.got - 2010.04.16 13:43:02.
