data_PCOD8213335
_publ_section_title
;
Structure prediction by ZEFSAII (Michael W. Deem and Ramdas Pophale) SiO2 
 PCOD8213335
Probable space group: P M M A
;
_chemical_formula_sum "Si O2"
_cell_formula_units_Z 40
_cell_length_a 9.065619
_cell_length_b 9.323076
_cell_length_c 25.193714
_cell_angle_alpha 90.000000
_cell_angle_beta 90.000000
_cell_angle_gamma 90.000000
_cell_volume 2129.358975
_symmetry_space_group_name_H-M "P M M A"
_symmetry_group_IT_number 51
_symmetry_cell_setting 'orthorhombic'
loop_
_space_group_symop_operation_xyz
x,y,z
1/2-x,-y,z
1/2+x,-y,-z
-x,y,-z
-x,-y,-z
1/2+x,y,-z
1/2-x,y,z
x,-y,z
loop_
_atom_site_type_symbol
_atom_site_label
_atom_site_fract_x
_atom_site_fract_y
_atom_site_fract_z
Si Si1 0.920278 0.334475 0.237010
Si Si2 0.421157 0.168499 0.147642
Si Si3 0.577372 0.665454 0.054435
Si Si4 0.578162 0.835019 0.552383
Si Si5 0.083202 0.333339 0.640792
O O1 0.750000 0.300939 0.223506
O O2 0.954469 0.500000 0.223811
O O3 0.954426 0.300764 0.298188
O O4 0.026441 0.233622 0.203275
O O5 0.250000 0.204694 0.139054
O O6 0.514898 0.236651 0.100671
O O7 0.450681 0.000000 0.148603
O O8 0.750000 0.693953 0.048302
O O9 0.543799 0.500000 0.068238
O O10 0.500000 0.711344 0.000000
O O11 0.500000 0.771282 0.500000
O O12 0.750000 0.813086 0.544267
O O13 0.529358 0.752874 0.604794
O O14 0.533652 0.000000 0.560038
O O15 0.250000 0.284674 0.628101
O O16 0.063712 0.500000 0.628564
#
# Coordination Sequence:
#
# PCOD8213335 Si02
#       5
#     8   8   8   8   8
#     4   9  19  37  59  81 106 139 180 223 267 318
#     4  11  24  38  53  79 114 148 182 221 266 316
#     4  10  21  38  61  86 110 140 180 223 268 320
#     4  10  21  36  54  77 106 141 180 220 264 317
#     4   9  19  36  57  81 108 138 175 220 269 320
#
# _framework density 18.784996
#
# number of rings (size 3 to 8) (size 9 to 14) (size 15 to 20)
#    0.000    2.200    0.000    3.600    0.000    9.600 
#    0.000    6.000    0.000    0.000    0.000    0.000 
#    0.000    0.000    0.000    0.000    0.000    0.000 
#
# Total GULP energy -496161.038227 kJ/mol
# GULP energy per Si atom -12404.025956 kJ/mol
# Density = 1.874224 g / cm^3
# Si number density = 18.784996 Si / 1000 Ang^3
#
#
#
# Elastic Constant Matrix: (Units=GPa)
#
#
# Indices 1 2 3 4 5 6 
#
# 1 91.1936 51.5866 60.3360 0.0000 0.0000 0.0000
# 2 51.5866 74.7623 59.9807 0.0000 0.0000 0.0000
# 3 60.3360 59.9807 119.4548 0.0000 0.0000 0.0000
# 4 0.0000 0.0000 0.0000 131.7954 0.0000 0.0000
# 5 0.0000 0.0000 0.0000 0.0000 41.6808 0.0000
# 6 0.0000 0.0000 0.0000 0.0000 0.0000 34.2912
#
#
#
# Elastic Compliance Matrix: (Units=1/GPa)
#
#
# Indices 1 2 3 4 5 6 
#
# 1 0.019777 -0.009431 -0.005253 0.000000 0.000000 0.000000
# 2 -0.009431 0.026897 -0.008742 0.000000 0.000000 0.000000
# 3 -0.005253 -0.008742 0.015414 0.000000 0.000000 0.000000
# 4 0.000000 0.000000 0.000000 0.007588 0.000000 0.000000
# 5 0.000000 0.000000 0.000000 0.000000 0.023992 0.000000
# 6 0.000000 0.000000 0.000000 0.000000 0.000000 0.029162
#
#
# Mechanical properties :
#
#
# Convention : Reuss Voigt Hill
#
# Bulk Modulus (GPa) = 65.63942 69.91302 67.77622
# Shear Modulus (GPa) = 28.61068 49.12064 38.86566
#
# Velocity S-wave (km/s) = 3.90687 5.11914 4.55353
# Velocity P-wave (km/s) = 7.44109 8.49936 7.98777
#
# Compressibility (1/GPa) = 0.01523475
#
# Stress axis : x y z
#
# Youngs Moduli (GPa) = 50.56483 37.17924 64.87515
#
# Poissons Ratio (x) = 0.35065 0.34082
# Poissons Ratio (y) = 0.47689 0.56712
# Poissons Ratio (z) = 0.26564 0.32501
#
# Static dielectric constant tensor:
#      x y z
#    x 3.531170 0.000000 0.000000 
#    y 0.000000 3.366210 0.000000 
#    z 0.000000 0.000000 3.507830 
# 
# 
# High freq. dielectric constant tensor:
#      x y z
#    x 1.736200 0.000000 0.000000 
#    y 0.000000 1.722880 0.000000 
#    z 0.000000 0.000000 1.741820 
# 
# From -- ./inp_files/34291.got.cif
#   From: 2010.03.12/outbox.cif.g09.slc.cpg/sg51_18_cif.got.tgz:34291.got - 2010.04.16 13:43:02.
