data_PCOD8213394
_publ_section_title
;
Structure prediction by ZEFSAII (Michael W. Deem and Ramdas Pophale) SiO2 
 PCOD8213394
Probable space group: P M M A
;
_chemical_formula_sum "Si O2"
_cell_formula_units_Z 56
_cell_length_a 9.039698
_cell_length_b 14.449566
_cell_length_c 23.098714
_cell_angle_alpha 90.000000
_cell_angle_beta 90.000000
_cell_angle_gamma 90.000000
_cell_volume 3017.147390
_symmetry_space_group_name_H-M "P M M A"
_symmetry_group_IT_number 51
_symmetry_cell_setting 'orthorhombic'
loop_
_space_group_symop_operation_xyz
x,y,z
1/2-x,-y,z
1/2+x,-y,-z
-x,y,-z
-x,-y,-z
1/2+x,y,-z
1/2-x,y,z
x,-y,z
loop_
_atom_site_type_symbol
_atom_site_label
_atom_site_fract_x
_atom_site_fract_y
_atom_site_fract_z
Si Si1 0.920270 0.894513 0.893117
Si Si2 0.575951 0.726004 0.057736
Si Si3 0.919219 0.893671 0.759125
Si Si4 0.924118 0.894540 0.441244
Si Si5 0.575500 0.773324 0.333289
Si Si6 0.424203 0.605700 0.284957
Si Si7 0.920019 0.393143 0.166728
O O1 0.750000 0.869395 0.905523
O O2 0.957645 0.878279 0.826000
O O3 0.025104 0.831293 0.932157
O O4 0.953161 0.000000 0.910373
O O5 0.750000 0.721785 0.049266
O O6 0.523115 0.664247 0.111753
O O7 0.500000 0.686060 0.000000
O O8 0.750000 0.864940 0.746129
O O9 0.030037 0.830579 0.723166
O O10 0.945011 0.000000 0.741728
O O11 0.750000 0.887300 0.449613
O O12 0.979793 0.828268 0.389889
O O13 0.000000 0.859925 0.500000
O O14 0.971616 0.000000 0.426726
O O15 0.750000 0.760056 0.333543
O O16 0.499248 0.672298 0.332510
O O17 0.250000 0.619550 0.286592
O O18 0.469489 0.500000 0.299235
O O19 0.481184 0.634859 0.221552
O O20 0.750000 0.369949 0.181821
O O21 0.940578 0.500000 0.150825
#
# Coordination Sequence:
#
# PCOD8213394 Si02
#       7
#     8   8   8   8   8   8   8
#     4   9  19  36  54  71  96 130 166 207 253 300
#     4  11  23  36  52  74  98 128 166 207 251 301
#     4   9  18  32  51  77 107 137 169 207 255 310
#     4   9  19  35  53  76 108 145 183 219 255 298
#     4  11  21  32  51  79 110 142 175 215 261 308
#     4  10  21  36  55  80 107 136 172 213 258 310
#     4   9  19  37  58  79 104 132 163 203 255 312
#
# _framework density 18.560576999999999
#
# number of rings (size 3 to 8) (size 9 to 14) (size 15 to 20)
#    0.000    2.286    0.000    3.429    0.000    7.714 
#    0.000    2.857    0.000    0.429    0.000    0.000 
#    0.000    0.000    0.000    0.000    0.000    0.000 
#
# Total GULP energy -694582.888403 kJ/mol
# GULP energy per Si atom -12403.265864 kJ/mol
# Density = 1.851833 g / cm^3
# Si number density = 18.560577 Si / 1000 Ang^3
#
#
#
# Elastic Constant Matrix: (Units=GPa)
#
#
# Indices 1 2 3 4 5 6 
#
# 1 62.9724 38.1677 39.5034 0.0000 0.0000 0.0000
# 2 38.1677 96.2366 57.8042 0.0000 0.0000 0.0000
# 3 39.5034 57.8042 88.3270 0.0000 0.0000 0.0000
# 4 0.0000 0.0000 0.0000 26.9501 0.0000 0.0000
# 5 0.0000 0.0000 0.0000 0.0000 32.4597 0.0000
# 6 0.0000 0.0000 0.0000 0.0000 0.0000 30.7251
#
#
#
# Elastic Compliance Matrix: (Units=1/GPa)
#
#
# Indices 1 2 3 4 5 6 
#
# 1 0.023415 -0.004937 -0.007241 0.000000 0.000000 0.000000
# 2 -0.004937 0.018162 -0.009678 0.000000 0.000000 0.000000
# 3 -0.007241 -0.009678 0.020894 0.000000 0.000000 0.000000
# 4 0.000000 0.000000 0.000000 0.037106 0.000000 0.000000
# 5 0.000000 0.000000 0.000000 0.000000 0.030807 0.000000
# 6 0.000000 0.000000 0.000000 0.000000 0.000000 0.032547
#
#
# Mechanical properties :
#
#
# Convention : Reuss Voigt Hill
#
# Bulk Modulus (GPa) = 53.30910 57.60961 55.45936
# Shear Modulus (GPa) = 23.48579 25.49769 24.49174
#
# Velocity S-wave (km/s) = 3.56105 3.71044 3.63651
# Velocity P-wave (km/s) = 6.75959 7.03296 6.89763
#
# Compressibility (1/GPa) = 0.01875852
#
# Stress axis : x y z
#
# Youngs Moduli (GPa) = 42.70820 55.05989 47.86172
#
# Poissons Ratio (x) = 0.27183 0.34657
# Poissons Ratio (y) = 0.21085 0.46320
# Poissons Ratio (z) = 0.30925 0.53286
#
# Static dielectric constant tensor:
#      x y z
#    x 3.320300 0.000000 0.000000 
#    y 0.000000 3.537600 0.000000 
#    z 0.000000 0.000000 3.334320 
# 
# 
# High freq. dielectric constant tensor:
#      x y z
#    x 1.719870 0.000000 0.000000 
#    y 0.000000 1.723630 0.000000 
#    z 0.000000 0.000000 1.705490 
# 
# From -- ./inp_files/31870.got.cif
#   From: 2010.03.12/outbox.cif.g09.slc.cpg/sg51_16_cif.got.tgz:31870.got - 2010.04.16 13:43:02.
