data_PCOD8213239
_publ_section_title
;
Structure prediction by ZEFSAII (Michael W. Deem and Ramdas Pophale) SiO2 
 PCOD8213239
Probable space group: P M M A
;
_chemical_formula_sum "Si O2"
_cell_formula_units_Z 56
_cell_length_a 8.984081
_cell_length_b 22.216464
_cell_length_c 14.787771
_cell_angle_alpha 90.000000
_cell_angle_beta 90.000000
_cell_angle_gamma 90.000000
_cell_volume 2951.557938
_symmetry_space_group_name_H-M "P M M A"
_symmetry_group_IT_number 51
_symmetry_cell_setting 'orthorhombic'
loop_
_space_group_symop_operation_xyz
x,y,z
1/2-x,-y,z
1/2+x,-y,-z
-x,y,-z
-x,-y,-z
1/2+x,y,-z
1/2-x,y,z
x,-y,z
loop_
_atom_site_type_symbol
_atom_site_label
_atom_site_fract_x
_atom_site_fract_y
_atom_site_fract_z
Si Si1 0.076196 0.244532 0.910593
Si Si2 0.573686 0.297744 0.594477
Si Si3 0.426409 0.655955 0.769511
Si Si4 0.576409 0.159632 0.591879
Si Si5 0.422582 0.891268 0.911720
Si Si6 0.921702 0.067451 0.281252
Si Si7 0.921553 0.571013 0.907450
O O1 0.250000 0.247303 0.927763
O O2 0.031019 0.283808 0.824212
O O3 0.019568 0.176672 0.892985
O O4 0.000000 0.271843 0.000000
O O5 0.500000 0.317320 0.500000
O O6 0.750000 0.308109 0.589643
O O7 0.502543 0.339434 0.671617
O O8 0.533130 0.228184 0.615570
O O9 0.250000 0.647670 0.758297
O O10 0.493948 0.599117 0.821869
O O11 0.500000 0.138116 0.500000
O O12 0.750000 0.152432 0.577626
O O13 0.524765 0.115731 0.670771
O O14 0.250000 0.890590 0.933176
O O15 0.460238 0.931662 0.825072
O O16 0.500000 0.919437 0.000000
O O17 0.750000 0.085764 0.296837
O O18 0.953123 0.000000 0.317372
O O19 0.750000 0.592060 0.909978
O O20 0.934808 0.500000 0.895905
O O21 0.000000 0.592441 0.000000
#
# Coordination Sequence:
#
# PCOD8213239 Si02
#       7
#     8   8   8   8   8   8   8
#     4   9  18  30  46  71 102 134 167 208 258 312
#     4  10  21  37  57  82 110 139 174 217 267 323
#     4  11  21  33  54  82 111 145 183 223 269 319
#     4  10  21  37  58  81 105 135 169 211 264 321
#     4   9  18  33  50  69  97 132 169 209 256 309
#     4  10  21  36  53  73  99 133 173 217 264 316
#     4  10  21  37  56  80 114 155 196 235 272 313
#
# _framework density 18.973030999999999
#
# number of rings (size 3 to 8) (size 9 to 14) (size 15 to 20)
#    0.000    2.143    0.000    3.000    0.000    7.429 
#    0.000    2.857    0.000    0.429    0.000    0.000 
#    0.000    0.000    0.000    0.000    0.000    0.000 
#
# Total GULP energy -694547.634392 kJ/mol
# GULP energy per Si atom -12402.636328 kJ/mol
# Density = 1.892985 g / cm^3
# Si number density = 18.973031 Si / 1000 Ang^3
#
#
#
# Elastic Constant Matrix: (Units=GPa)
#
#
# Indices 1 2 3 4 5 6 
#
# 1 85.3980 33.1214 57.5223 0.0000 0.0000 0.0000
# 2 33.1214 50.6832 38.9994 0.0000 0.0000 0.0000
# 3 57.5223 38.9994 128.9360 0.0000 0.0000 0.0000
# 4 0.0000 0.0000 0.0000 22.3122 0.0000 0.0000
# 5 0.0000 0.0000 0.0000 0.0000 39.9965 0.0000
# 6 0.0000 0.0000 0.0000 0.0000 0.0000 20.7102
#
#
#
# Elastic Compliance Matrix: (Units=1/GPa)
#
#
# Indices 1 2 3 4 5 6 
#
# 1 0.018734 -0.007574 -0.006067 0.000000 0.000000 0.000000
# 2 -0.007574 0.028778 -0.005325 0.000000 0.000000 0.000000
# 3 -0.006067 -0.005325 0.012073 0.000000 0.000000 0.000000
# 4 0.000000 0.000000 0.000000 0.044819 0.000000 0.000000
# 5 0.000000 0.000000 0.000000 0.000000 0.025002 0.000000
# 6 0.000000 0.000000 0.000000 0.000000 0.000000 0.048285
#
#
# Mechanical properties :
#
#
# Convention : Reuss Voigt Hill
#
# Bulk Modulus (GPa) = 46.18497 58.25592 52.22045
# Shear Modulus (GPa) = 22.43745 25.62872 24.03308
#
# Velocity S-wave (km/s) = 3.44262 3.67931 3.56293
# Velocity P-wave (km/s) = 6.34015 6.98720 6.67152
#
# Compressibility (1/GPa) = 0.02165206
#
# Stress axis : x y z
#
# Youngs Moduli (GPa) = 53.37872 34.74885 82.82861
#
# Poissons Ratio (x) = 0.26320 0.50250
# Poissons Ratio (y) = 0.40431 0.44109
# Poissons Ratio (z) = 0.32384 0.18505
#
# Static dielectric constant tensor:
#      x y z
#    x 3.551020 0.000000 0.000000 
#    y 0.000000 3.355690 0.000000 
#    z 0.000000 0.000000 3.468800 
# 
# 
# High freq. dielectric constant tensor:
#      x y z
#    x 1.741830 0.000000 0.000000 
#    y 0.000000 1.721670 0.000000 
#    z 0.000000 0.000000 1.737840 
# 
# From -- ./inp_files/21694.got.cif
#   From: 2010.03.12/outbox.cif.g09.slc.cpg/sg51_11_cif.got.tgz:21694.got - 2010.04.16 13:43:02.
