data_PCOD8213580
_publ_section_title
;
Structure prediction by ZEFSAII (Michael W. Deem and Ramdas Pophale) SiO2 
 PCOD8213580
Probable space group: P M M A
;
_chemical_formula_sum "Si O2"
_cell_formula_units_Z 56
_cell_length_a 9.056815
_cell_length_b 14.279163
_cell_length_c 20.993145
_cell_angle_alpha 90.000000
_cell_angle_beta 90.000000
_cell_angle_gamma 90.000000
_cell_volume 2714.911976
_symmetry_space_group_name_H-M "P M M A"
_symmetry_group_IT_number 51
_symmetry_cell_setting 'orthorhombic'
loop_
_space_group_symop_operation_xyz
x,y,z
1/2-x,-y,z
1/2+x,-y,-z
-x,y,-z
-x,-y,-z
1/2+x,y,-z
1/2-x,y,z
x,-y,z
loop_
_atom_site_type_symbol
_atom_site_label
_atom_site_fract_x
_atom_site_fract_y
_atom_site_fract_z
Si Si1 0.419287 0.209872 0.936452
Si Si2 0.081003 0.605283 0.871143
Si Si3 0.422714 0.391177 0.621170
Si Si4 0.575194 0.103905 0.681293
Si Si5 0.574227 0.773241 0.562944
Si Si6 0.085726 0.389157 0.252903
Si Si7 0.917821 0.888748 0.822683
O O1 0.250000 0.182652 0.944589
O O2 0.440851 0.322317 0.929040
O O3 0.477203 0.157023 0.874557
O O4 0.500000 0.175471 0.000000
O O5 0.250000 0.604543 0.847449
O O6 0.033776 0.500000 0.892556
O O7 0.981712 0.645075 0.813667
O O8 0.250000 0.369437 0.616667
O O9 0.457105 0.500000 0.609151
O O10 0.512224 0.332583 0.568615
O O11 0.481455 0.356978 0.689803
O O12 0.750000 0.096359 0.677572
O O13 0.516806 0.169390 0.624454
O O14 0.532672 0.144544 0.751394
O O15 0.507009 0.000000 0.672143
O O16 0.500000 0.818426 0.500000
O O17 0.750000 0.772798 0.556286
O O18 0.250000 0.345714 0.261945
O O19 0.094679 0.500000 0.251264
O O20 0.750000 0.857425 0.836511
O O21 0.932062 0.000000 0.826387
#
# Coordination Sequence:
#
# PCOD8213580 Si02
#       7
#     8   8   8   8   8   8   8
#     4  11  24  39  57  85 118 156 197 242 292 346
#     4   9  19  36  55  78 113 155 196 239 288 339
#     4  10  21  37  56  79 113 156 198 243 292 341
#     4   8  17  37  64  91 117 148 188 234 289 349
#     4  11  23  38  58  87 120 157 197 240 289 346
#     4   9  17  30  51  80 109 141 187 238 286 338
#     4   9  19  39  66  91 115 147 188 238 295 352
#
# _framework density 20.626821
#
# number of rings (size 3 to 8) (size 9 to 14) (size 15 to 20)
#    0.000    2.429    0.000    2.571    2.000    5.143 
#    0.000    0.714    0.000    3.000    0.000    0.000 
#    0.000    0.000    0.000    0.000    0.000    0.000 
#
# Total GULP energy -694307.912391 kJ/mol
# GULP energy per Si atom -12398.355578 kJ/mol
# Density = 2.057987 g / cm^3
# Si number density = 20.626821 Si / 1000 Ang^3
#
#
#
# Elastic Constant Matrix: (Units=GPa)
#
#
# Indices 1 2 3 4 5 6 
#
# 1 102.3372 34.8134 62.7176 0.0000 0.0000 0.0000
# 2 34.8134 51.8996 52.7378 0.0000 0.0000 0.0000
# 3 62.7176 52.7378 153.0998 0.0000 0.0000 0.0000
# 4 0.0000 0.0000 0.0000 22.8727 0.0000 0.0000
# 5 0.0000 0.0000 0.0000 0.0000 35.0416 0.0000
# 6 0.0000 0.0000 0.0000 0.0000 0.0000 20.8532
#
#
#
# Elastic Compliance Matrix: (Units=1/GPa)
#
#
# Indices 1 2 3 4 5 6 
#
# 1 0.013991 -0.005479 -0.003844 0.000000 0.000000 0.000000
# 2 -0.005479 0.031790 -0.008706 0.000000 0.000000 0.000000
# 3 -0.003844 -0.008706 0.011105 0.000000 0.000000 0.000000
# 4 0.000000 0.000000 0.000000 0.043720 0.000000 0.000000
# 5 0.000000 0.000000 0.000000 0.000000 0.028537 0.000000
# 6 0.000000 0.000000 0.000000 0.000000 0.000000 0.047954
#
#
# Mechanical properties :
#
#
# Convention : Reuss Voigt Hill
#
# Bulk Modulus (GPa) = 48.01187 67.54156 57.77671
# Shear Modulus (GPa) = 22.71695 26.22469 24.47082
#
# Velocity S-wave (km/s) = 3.32223 3.56952 3.44809
# Velocity P-wave (km/s) = 6.16792 7.05721 6.62750
#
# Compressibility (1/GPa) = 0.02082818
#
# Stress axis : x y z
#
# Youngs Moduli (GPa) = 71.47241 31.45668 90.04547
#
# Poissons Ratio (x) = 0.17234 0.34617
# Poissons Ratio (y) = 0.39158 0.78395
# Poissons Ratio (z) = 0.27477 0.27387
#
# Static dielectric constant tensor:
#      x y z
#    x 3.656130 0.000000 0.000000 
#    y 0.000000 3.808490 0.000000 
#    z 0.000000 0.000000 3.751020 
# 
# 
# High freq. dielectric constant tensor:
#      x y z
#    x 1.792810 0.000000 0.000000 
#    y 0.000000 1.805290 0.000000 
#    z 0.000000 0.000000 1.804100 
# 
# From -- ./inp_files/31934.got.cif
#   From: 2010.03.12/outbox.cif.g09.slc.cpg/sg51_16_cif.got.tgz:31934.got - 2010.04.16 13:43:02.
