data_PCOD8213053
_publ_section_title
;
Structure prediction by ZEFSAII (Michael W. Deem and Ramdas Pophale) SiO2 
 PCOD8213053
Probable space group: P M M A
;
_chemical_formula_sum "Si O2"
_cell_formula_units_Z 64
_cell_length_a 19.953578
_cell_length_b 8.986802
_cell_length_c 17.933186
_cell_angle_alpha 90.000000
_cell_angle_beta 90.000000
_cell_angle_gamma 90.000000
_cell_volume 3215.758374
_symmetry_space_group_name_H-M "P M M A"
_symmetry_group_IT_number 51
_symmetry_cell_setting 'orthorhombic'
loop_
_space_group_symop_operation_xyz
x,y,z
1/2-x,-y,z
1/2+x,-y,-z
-x,y,-z
-x,-y,-z
1/2+x,y,-z
1/2-x,y,z
x,-y,z
loop_
_atom_site_type_symbol
_atom_site_label
_atom_site_fract_x
_atom_site_fract_y
_atom_site_fract_z
Si Si1 0.008604 0.668788 0.880493
Si Si2 0.325761 0.674641 0.366552
Si Si3 0.323001 0.673272 0.775847
Si Si4 0.963472 0.323525 0.572843
Si Si5 0.173337 0.837470 0.220136
Si Si6 0.860565 0.329900 0.927836
Si Si7 0.961890 0.326193 0.283620
Si Si8 0.361957 0.824740 0.923624
O O1 0.037321 0.500000 0.885743
O O2 0.998216 0.711213 0.793017
O O3 0.060022 0.782668 0.917237
O O4 0.940709 0.682060 0.926035
O O5 0.250000 0.727612 0.390471
O O6 0.324261 0.500000 0.351792
O O7 0.383348 0.715852 0.427543
O O8 0.354514 0.746689 0.290670
O O9 0.250000 0.699116 0.737204
O O10 0.334537 0.500000 0.793889
O O11 0.384247 0.731001 0.723831
O O12 0.321715 0.760073 0.853831
O O13 0.971804 0.500000 0.573125
O O14 0.000000 0.255441 0.500000
O O15 0.000726 0.252557 0.645585
O O16 0.250000 0.864359 0.238325
O O17 0.168538 0.744346 0.145276
O O18 0.137700 0.000000 0.212603
O O19 0.836478 0.500000 0.930618
O O20 0.832650 0.244866 0.000197
O O21 0.960975 0.500000 0.298389
O O22 0.352362 0.000000 0.926881
#
# Coordination Sequence:
#
# PCOD8213053 Si02
#       8
#     8   8   8   8   8   8   8   8
#     4   9  18  33  51  69  92 127 171 212 253 307
#     4   9  17  31  51  74 102 139 180 214 249 305
#     4   9  18  34  53  69  89 125 174 222 265 313
#     4   9  16  27  47  78 113 141 165 203 256 306
#     4  10  21  35  50  71  99 130 167 212 258 303
#     4  11  21  33  51  72  97 132 170 210 258 312
#     4   8  14  27  47  70  95 125 163 205 251 304
#     4  11  22  33  47  70 100 130 163 211 266 314
#
# _framework density 19.901993000000001
#
# number of rings (size 3 to 8) (size 9 to 14) (size 15 to 20)
#    0.000    2.500    0.000    3.750    0.000    6.000 
#    0.000    0.625    0.000    4.125    0.000    0.000 
#    0.000    4.000    0.000    0.000    0.000    0.000 
#
# Total GULP energy -793073.116045 kJ/mol
# GULP energy per Si atom -12391.767438 kJ/mol
# Density = 1.985669 g / cm^3
# Si number density = 19.901993 Si / 1000 Ang^3
#
#
#
# Elastic Constant Matrix: (Units=GPa)
#
#
# Indices 1 2 3 4 5 6 
#
# 1 95.1777 19.2279 42.4263 0.0000 0.0000 0.0000
# 2 19.2279 73.6691 25.9064 0.0000 0.0000 0.0000
# 3 42.4263 25.9064 107.4099 0.0000 0.0000 0.0000
# 4 0.0000 0.0000 0.0000 3.5312 0.0000 0.0000
# 5 0.0000 0.0000 0.0000 0.0000 14.5946 0.0000
# 6 0.0000 0.0000 0.0000 0.0000 0.0000 12.4795
#
#
#
# Elastic Compliance Matrix: (Units=1/GPa)
#
#
# Indices 1 2 3 4 5 6 
#
# 1 0.012950 -0.001728 -0.004698 0.000000 0.000000 0.000000
# 2 -0.001728 0.015063 -0.002951 0.000000 0.000000 0.000000
# 3 -0.004698 -0.002951 0.011878 0.000000 0.000000 0.000000
# 4 0.000000 0.000000 0.000000 0.283189 0.000000 0.000000
# 5 0.000000 0.000000 0.000000 0.000000 0.068518 0.000000
# 6 0.000000 0.000000 0.000000 0.000000 0.000000 0.080132
#
#
# Mechanical properties :
#
#
# Convention : Reuss Voigt Hill
#
# Bulk Modulus (GPa) = 47.31063 50.15309 48.73186
# Shear Modulus (GPa) = 10.04967 18.70081 14.37524
#
# Velocity S-wave (km/s) = 2.24956 3.06869 2.69048
# Velocity P-wave (km/s) = 5.52909 6.14903 5.84728
#
# Compressibility (1/GPa) = 0.02113690
#
# Stress axis : x y z
#
# Youngs Moduli (GPa) = 77.21954 66.38887 84.19170
#
# Poissons Ratio (x) = 0.11470 0.39557
# Poissons Ratio (y) = 0.13342 0.24841
# Poissons Ratio (z) = 0.36282 0.19589
#
# Static dielectric constant tensor:
#      x y z
#    x 3.841060 0.000000 0.000000 
#    y 0.000000 3.447010 0.000000 
#    z 0.000000 0.000000 3.631830 
# 
# 
# High freq. dielectric constant tensor:
#      x y z
#    x 1.783560 0.000000 0.000000 
#    y 0.000000 1.740720 0.000000 
#    z 0.000000 0.000000 1.754310 
# 
# From -- ./inp_files/30540.got.cif
#   From: 2010.03.12/outbox.cif.g09.slc.cpg/sg51_16_cif.got.tgz:30540.got - 2010.04.16 13:43:02.
