data_PCOD8213525
_publ_section_title
;
Structure prediction by ZEFSAII (Michael W. Deem and Ramdas Pophale) SiO2 
 PCOD8213525
Probable space group: P M M A
;
_chemical_formula_sum "Si O2"
_cell_formula_units_Z 64
_cell_length_a 14.232669
_cell_length_b 9.295642
_cell_length_c 26.110843
_cell_angle_alpha 90.000000
_cell_angle_beta 90.000000
_cell_angle_gamma 90.000000
_cell_volume 3454.511417
_symmetry_space_group_name_H-M "P M M A"
_symmetry_group_IT_number 51
_symmetry_cell_setting 'orthorhombic'
loop_
_space_group_symop_operation_xyz
x,y,z
1/2-x,-y,z
1/2+x,-y,-z
-x,y,-z
-x,-y,-z
1/2+x,y,-z
1/2-x,y,z
x,-y,z
loop_
_atom_site_type_symbol
_atom_site_label
_atom_site_fract_x
_atom_site_fract_y
_atom_site_fract_z
Si Si1 0.991542 0.168557 0.786642
Si Si2 0.356961 0.166045 0.871433
Si Si3 0.860603 0.164528 0.613558
Si Si4 0.138705 0.159798 0.499977
Si Si5 0.510882 0.332239 0.057613
Si Si6 0.858717 0.667179 0.859178
Si Si7 0.356580 0.667125 0.595565
Si Si8 0.997382 0.669538 0.681543
O O1 0.899526 0.237066 0.813076
O O2 0.012839 0.247471 0.733985
O O3 0.083800 0.197077 0.820435
O O4 0.972545 0.000000 0.777767
O O5 0.250000 0.214931 0.861356
O O6 0.399098 0.254829 0.918426
O O7 0.362722 0.000000 0.886846
O O8 0.750000 0.178222 0.619289
O O9 0.893658 0.211839 0.556408
O O10 0.903777 0.273463 0.654413
O O11 0.892048 0.000000 0.624370
O O12 0.250000 0.161591 0.501107
O O13 0.098276 0.258869 0.545234
O O14 0.100353 0.000000 0.510175
O O15 0.533632 0.500000 0.058035
O O16 0.415463 0.297372 0.088799
O O17 0.500000 0.274303 0.000000
O O18 0.750000 0.707729 0.868152
O O19 0.870148 0.500000 0.844218
O O20 0.250000 0.719191 0.605175
O O21 0.361387 0.500000 0.584082
O O22 0.414232 0.708695 0.645911
O O23 0.988036 0.500000 0.691706
#
# Coordination Sequence:
#
# PCOD8213525 Si02
#       8
#     8   8   8   8   8   8   8   8
#     4  10  21  37  55  74  99 131 170 218 265 307
#     4   9  19  36  56  78 105 139 179 219 260 307
#     4   9  19  36  55  75 101 132 166 205 250 302
#     4   8  15  30  52  75  98 127 164 204 246 296
#     4   9  18  32  52  82 117 147 177 214 253 297
#     4   9  18  34  55  77 104 140 178 214 254 300
#     4   9  19  35  52  72 101 134 165 200 246 302
#     4  11  23  36  52  76 103 131 167 210 257 309
#
# _framework density 18.526499000000001
#
# number of rings (size 3 to 8) (size 9 to 14) (size 15 to 20)
#    0.000    2.750    0.000    1.500    0.000    5.000 
#    0.000    5.000    0.000    0.000    0.000    0.000 
#    0.000    0.000    0.000    0.000    0.000    0.000 
#
# Total GULP energy -793550.228074 kJ/mol
# GULP energy per Si atom -12399.222314 kJ/mol
# Density = 1.848433 g / cm^3
# Si number density = 18.526499 Si / 1000 Ang^3
#
#
#
# Elastic Constant Matrix: (Units=GPa)
#
#
# Indices 1 2 3 4 5 6 
#
# 1 104.6917 43.0841 48.6179 0.0000 0.0000 0.0000
# 2 43.0841 73.7824 64.2130 0.0000 0.0000 0.0000
# 3 48.6179 64.2130 142.2882 0.0000 0.0000 0.0000
# 4 0.0000 0.0000 0.0000 34.0371 0.0000 0.0000
# 5 0.0000 0.0000 0.0000 0.0000 20.1120 0.0000
# 6 0.0000 0.0000 0.0000 0.0000 0.0000 23.6366
#
#
#
# Elastic Compliance Matrix: (Units=1/GPa)
#
#
# Indices 1 2 3 4 5 6 
#
# 1 0.012804 -0.006042 -0.001648 0.000000 0.000000 0.000000
# 2 -0.006042 0.025171 -0.009295 0.000000 0.000000 0.000000
# 3 -0.001648 -0.009295 0.011786 0.000000 0.000000 0.000000
# 4 0.000000 0.000000 0.000000 0.029380 0.000000 0.000000
# 5 0.000000 0.000000 0.000000 0.000000 0.049721 0.000000
# 6 0.000000 0.000000 0.000000 0.000000 0.000000 0.042307
#
#
# Mechanical properties :
#
#
# Convention : Reuss Voigt Hill
#
# Bulk Modulus (GPa) = 63.33036 70.28803 66.80920
# Shear Modulus (GPa) = 23.76396 26.54696 25.15546
#
# Velocity S-wave (km/s) = 3.58537 3.78950 3.68884
# Velocity P-wave (km/s) = 7.16922 7.56099 7.36771
#
# Compressibility (1/GPa) = 0.01579021
#
# Stress axis : x y z
#
# Youngs Moduli (GPa) = 78.10177 39.72840 84.84832
#
# Poissons Ratio (x) = 0.24005 0.13984
# Poissons Ratio (y) = 0.47191 0.78865
# Poissons Ratio (z) = 0.12872 0.36927
#
# Static dielectric constant tensor:
#      x y z
#    x 3.415400 0.000000 0.000000 
#    y 0.000000 3.467950 0.000000 
#    z 0.000000 0.000000 3.483720 
# 
# 
# High freq. dielectric constant tensor:
#      x y z
#    x 1.719280 0.000000 0.000000 
#    y 0.000000 1.716270 0.000000 
#    z 0.000000 0.000000 1.718600 
# 
# From -- ./inp_files/35634.got.cif
#   From: 2010.03.12/outbox.cif.g09.slc.cpg/sg51_18_cif.got.tgz:35634.got - 2010.04.16 13:43:02.
