data_PCOD8213705
_publ_section_title
;
Structure prediction by ZEFSAII (Michael W. Deem and Ramdas Pophale) SiO2 
 PCOD8213705
Probable space group: P M M A
;
_chemical_formula_sum "Si O2"
_cell_formula_units_Z 48
_cell_length_a 8.970827
_cell_length_b 9.832494
_cell_length_c 29.259107
_cell_angle_alpha 90.000000
_cell_angle_beta 90.000000
_cell_angle_gamma 90.000000
_cell_volume 2580.817166
_symmetry_space_group_name_H-M "P M M A"
_symmetry_group_IT_number 51
_symmetry_cell_setting 'orthorhombic'
loop_
_space_group_symop_operation_xyz
x,y,z
1/2-x,-y,z
1/2+x,-y,-z
-x,y,-z
-x,-y,-z
1/2+x,y,-z
1/2-x,y,z
x,-y,z
loop_
_atom_site_type_symbol
_atom_site_label
_atom_site_fract_x
_atom_site_fract_y
_atom_site_fract_z
Si Si1 0.425503 0.654568 0.872259
Si Si2 0.074387 0.260297 0.604565
Si Si3 0.076101 0.345627 0.221289
Si Si4 0.075293 0.159031 0.306060
Si Si5 0.072712 0.500000 0.449938
Si Si6 0.074617 0.155483 0.953302
Si Si7 0.079274 0.000000 0.547406
O O1 0.250000 0.669792 0.867581
O O2 0.472563 0.500000 0.883673
O O3 0.494620 0.702326 0.824524
O O4 0.487318 0.751282 0.912313
O O5 0.250000 0.295590 0.604125
O O6 0.020538 0.236619 0.655932
O O7 0.978923 0.373526 0.579684
O O8 0.032407 0.127529 0.576804
O O9 0.250000 0.340652 0.211400
O O10 0.028248 0.500000 0.235389
O O11 0.031527 0.237175 0.259853
O O12 0.250000 0.174544 0.317246
O O13 0.030516 0.000000 0.302046
O O14 0.250000 0.500000 0.456074
O O15 0.000000 0.500000 0.500000
O O16 0.250000 0.172840 0.959038
O O17 0.030104 0.000000 0.942540
O O18 0.000000 0.206118 0.000000
O O19 0.000000 0.000000 0.500000
O O20 0.250000 0.000000 0.535084
#
# Coordination Sequence:
#
# PCOD8213705 Si02
#       7
#     8   8   8   8   4   8   4
#     4   9  18  33  51  73 102 135 174 219 269 323
#     4  11  23  41  61  88 119 152 191 235 281 335
#     4   9  19  35  54  77 107 142 182 227 275 329
#     4  10  21  37  57  83 114 149 187 229 280 335
#     4  12  26  44  64  90 120 154 192 234 281 334
#     4   9  18  32  49  71 101 136 174 216 263 318
#     4  10  22  38  60  86 116 148 186 228 275 328
#
# _framework density 18.598761
#
# number of rings (size 3 to 8) (size 9 to 14) (size 15 to 20)
#    0.000    2.167    0.833    1.750    1.167    5.000 
#    0.000    0.000    0.000    0.000    0.000    0.000 
#    0.000    0.000    0.000    0.000    0.000    0.000 
#
# Total GULP energy -595228.768506 kJ/mol
# GULP energy per Si atom -12400.599344 kJ/mol
# Density = 1.855643 g / cm^3
# Si number density = 18.598761 Si / 1000 Ang^3
#
#
#
# Elastic Constant Matrix: (Units=GPa)
#
#
# Indices 1 2 3 4 5 6 
#
# 1 57.7927 49.4456 56.6434 0.0000 0.0000 0.0000
# 2 49.4456 120.8047 87.1101 0.0000 0.0000 0.0000
# 3 56.6434 87.1101 170.4578 0.0000 0.0000 0.0000
# 4 0.0000 0.0000 0.0000 43.2277 0.0000 0.0000
# 5 0.0000 0.0000 0.0000 0.0000 39.5868 0.0000
# 6 0.0000 0.0000 0.0000 0.0000 0.0000 24.8150
#
#
#
# Elastic Compliance Matrix: (Units=1/GPa)
#
#
# Indices 1 2 3 4 5 6 
#
# 1 0.029885 -0.008030 -0.005827 0.000000 0.000000 0.000000
# 2 -0.008030 0.015266 -0.005133 0.000000 0.000000 0.000000
# 3 -0.005827 -0.005133 0.010426 0.000000 0.000000 0.000000
# 4 0.000000 0.000000 0.000000 0.023133 0.000000 0.000000
# 5 0.000000 0.000000 0.000000 0.000000 0.025261 0.000000
# 6 0.000000 0.000000 0.000000 0.000000 0.000000 0.040298
#
#
# Mechanical properties :
#
#
# Convention : Reuss Voigt Hill
#
# Bulk Modulus (GPa) = 56.83013 81.71705 69.27359
# Shear Modulus (GPa) = 26.57951 31.91630 29.24790
#
# Velocity S-wave (km/s) = 3.78445 4.14701 3.96987
# Velocity P-wave (km/s) = 7.05112 8.18306 7.63809
#
# Compressibility (1/GPa) = 0.01759630
#
# Stress axis : x y z
#
# Youngs Moduli (GPa) = 33.46199 65.50557 95.91367
#
# Poissons Ratio (x) = 0.52601 0.55889
# Poissons Ratio (y) = 0.26870 0.49233
# Poissons Ratio (z) = 0.19498 0.33624
#
# Static dielectric constant tensor:
#      x y z
#    x 3.334670 0.000000 0.000000 
#    y 0.000000 3.580610 0.000000 
#    z 0.000000 0.000000 3.501670 
# 
# 
# High freq. dielectric constant tensor:
#      x y z
#    x 1.717060 0.000000 0.000000 
#    y 0.000000 1.730310 0.000000 
#    z 0.000000 0.000000 1.730590 
# 
# From -- ./inp_files/37187.got.cif
#   From: 2010.03.12/outbox.cif.g09.slc.cpg/sg51_19_cif.got.tgz:37187.got - 2010.04.16 13:43:02.
