data_PCOD8213758
_publ_section_title
;
Structure prediction by ZEFSAII (Michael W. Deem and Ramdas Pophale) SiO2 
 PCOD8213758
Probable space group: P M M A
;
_chemical_formula_sum "Si O2"
_cell_formula_units_Z 48
_cell_length_a 9.340170
_cell_length_b 9.225234
_cell_length_c 28.695181
_cell_angle_alpha 90.000000
_cell_angle_beta 90.000000
_cell_angle_gamma 90.000000
_cell_volume 2472.527555
_symmetry_space_group_name_H-M "P M M A"
_symmetry_group_IT_number 51
_symmetry_cell_setting 'orthorhombic'
loop_
_space_group_symop_operation_xyz
x,y,z
1/2-x,-y,z
1/2+x,-y,-z
-x,y,-z
-x,-y,-z
1/2+x,y,-z
1/2-x,y,z
x,-y,z
loop_
_atom_site_type_symbol
_atom_site_label
_atom_site_fract_x
_atom_site_fract_y
_atom_site_fract_z
Si Si1 0.914379 0.829652 0.719130
Si Si2 0.750000 0.171504 0.035907
Si Si3 0.089497 0.331719 0.794688
Si Si4 0.250000 0.660311 0.057382
Si Si5 0.083498 0.669229 0.453063
Si Si6 0.955119 0.335170 0.100652
Si Si7 0.915389 0.171410 0.372145
O O1 0.750000 0.782432 0.710385
O O2 0.973555 0.755473 0.765387
O O3 0.011826 0.778541 0.675972
O O4 0.926148 0.000000 0.726488
O O5 0.888464 0.232728 0.061601
O O6 0.750000 0.000000 0.037587
O O7 0.750000 0.219575 0.982374
O O8 0.250000 0.303128 0.775543
O O9 0.048510 0.500000 0.791775
O O10 0.083256 0.278058 0.848038
O O11 0.250000 0.500000 0.033653
O O12 0.377750 0.677708 0.093357
O O13 0.250000 0.715946 0.457502
O O14 0.070665 0.500000 0.441724
O O15 0.000000 0.709274 0.500000
O O16 0.006317 0.756552 0.412678
O O17 0.899063 0.500000 0.094361
O O18 0.750000 0.223777 0.373102
O O19 0.925216 0.000000 0.378497
#
# Coordination Sequence:
#
# PCOD8213758 Si02
#       7
#     8   4   8   4   8   8   8
#     4  10  22  39  59  85 117 152 188 231 287 346
#     4  12  24  38  58  86 118 152 186 230 283 336
#     4  10  21  38  61  86 112 144 188 238 281 331
#     4  10  22  38  62  86 110 150 192 232 283 336
#     4  10  21  37  58  85 118 156 198 246 300 351
#     4  10  21  40  62  84 112 148 191 234 279 337
#     4  10  21  38  60  85 115 155 200 242 285 342
#
# _framework density 19.413330999999999
#
# number of rings (size 3 to 8) (size 9 to 14) (size 15 to 20)
#    0.000    1.833    0.833    2.750    1.167    7.667 
#    0.000    0.000    0.000    0.000    0.000    0.000 
#    0.000    0.000    0.000    0.000    0.000    0.000 
#
# Total GULP energy -595285.286581 kJ/mol
# GULP energy per Si atom -12401.776804 kJ/mol
# Density = 1.936915 g / cm^3
# Si number density = 19.413331 Si / 1000 Ang^3
#
#
#
# Elastic Constant Matrix: (Units=GPa)
#
#
# Indices 1 2 3 4 5 6 
#
# 1 160.1656 37.9589 56.6640 0.0000 0.0000 0.0000
# 2 37.9589 55.5325 37.2769 0.0000 0.0000 0.0000
# 3 56.6640 37.2769 106.2512 0.0000 0.0000 0.0000
# 4 0.0000 0.0000 0.0000 49.6310 0.0000 0.0000
# 5 0.0000 0.0000 0.0000 0.0000 30.8337 0.0000
# 6 0.0000 0.0000 0.0000 0.0000 0.0000 33.4831
#
#
#
# Elastic Compliance Matrix: (Units=1/GPa)
#
#
# Indices 1 2 3 4 5 6 
#
# 1 0.008180 -0.003483 -0.003140 0.000000 0.000000 0.000000
# 2 -0.003483 0.025038 -0.006927 0.000000 0.000000 0.000000
# 3 -0.003140 -0.006927 0.013517 0.000000 0.000000 0.000000
# 4 0.000000 0.000000 0.000000 0.020149 0.000000 0.000000
# 5 0.000000 0.000000 0.000000 0.000000 0.032432 0.000000
# 6 0.000000 0.000000 0.000000 0.000000 0.000000 0.029866
#
#
# Mechanical properties :
#
#
# Convention : Reuss Voigt Hill
#
# Bulk Modulus (GPa) = 50.93207 65.08321 58.00764
# Shear Modulus (GPa) = 30.70748 35.45953 33.08350
#
# Velocity S-wave (km/s) = 3.98147 4.27846 4.13263
# Velocity P-wave (km/s) = 6.88685 7.61608 7.26063
#
# Compressibility (1/GPa) = 0.01963400
#
# Stress axis : x y z
#
# Youngs Moduli (GPa) = 122.24769 39.93905 73.98358
#
# Poissons Ratio (x) = 0.13913 0.23233
# Poissons Ratio (y) = 0.42585 0.51245
# Poissons Ratio (z) = 0.38390 0.27664
#
# Static dielectric constant tensor:
#      x y z
#    x 3.843640 0.000000 0.000000 
#    y 0.000000 3.394340 0.000000 
#    z 0.000000 0.000000 3.537290 
# 
# 
# High freq. dielectric constant tensor:
#      x y z
#    x 1.777430 0.000000 0.000000 
#    y 0.000000 1.739750 0.000000 
#    z 0.000000 0.000000 1.760840 
# 
# From -- ./inp_files/37125.got.cif
#   From: 2010.03.12/outbox.cif.g09.slc.cpg/sg51_19_cif.got.tgz:37125.got - 2010.04.16 13:43:02.
