data_PCOD8213158
_publ_section_title
;
Structure prediction by ZEFSAII (Michael W. Deem and Ramdas Pophale) SiO2 
 PCOD8213158
Probable space group: P M M A
;
_chemical_formula_sum "Si O2"
_cell_formula_units_Z 64
_cell_length_a 16.085842
_cell_length_b 9.205386
_cell_length_c 22.126164
_cell_angle_alpha 90.000000
_cell_angle_beta 90.000000
_cell_angle_gamma 90.000000
_cell_volume 3276.362373
_symmetry_space_group_name_H-M "P M M A"
_symmetry_group_IT_number 51
_symmetry_cell_setting 'orthorhombic'
loop_
_space_group_symop_operation_xyz
x,y,z
1/2-x,-y,z
1/2+x,-y,-z
-x,y,-z
-x,-y,-z
1/2+x,y,-z
1/2-x,y,z
x,-y,z
loop_
_atom_site_type_symbol
_atom_site_label
_atom_site_fract_x
_atom_site_fract_y
_atom_site_fract_z
Si Si1 0.653523 0.835284 0.767962
Si Si2 0.110557 0.338379 0.118591
Si Si3 0.002082 0.328166 0.567542
Si Si4 0.844020 0.326293 0.352651
Si Si5 0.657499 0.162069 0.992776
Si Si6 0.421520 0.337979 0.901617
Si Si7 0.653567 0.664808 0.219088
Si Si8 0.155498 0.331470 0.354307
O O1 0.750000 0.830707 0.784489
O O2 0.605709 0.741466 0.817306
O O3 0.636227 0.765428 0.703359
O O4 0.619984 0.000000 0.767502
O O5 0.149442 0.500000 0.126252
O O6 0.162636 0.246308 0.070662
O O7 0.019005 0.351712 0.093100
O O8 0.011581 0.500000 0.565309
O O9 0.083606 0.265920 0.602882
O O10 0.000000 0.262693 0.500000
O O11 0.913633 0.284668 0.596857
O O12 0.750000 0.276422 0.372549
O O13 0.844858 0.500000 0.350433
O O14 0.864250 0.264184 0.285080
O O15 0.750000 0.154484 0.019157
O O16 0.622032 0.000000 0.981431
O O17 0.602453 0.240350 0.042242
O O18 0.381121 0.500000 0.907160
O O19 0.394736 0.262716 0.837601
O O20 0.750000 0.675092 0.204006
O O21 0.621886 0.500000 0.222782
O O22 0.250000 0.302961 0.378654
O O23 0.145182 0.500000 0.336578
#
# Coordination Sequence:
#
# PCOD8213158 Si02
#       8
#     8   8   8   8   8   8   8   8
#     4  10  21  37  56  78 105 139 180 222 268 323
#     4  11  23  36  55  83 109 135 172 219 270 322
#     4   9  17  27  43  70 106 146 181 217 265 318
#     4   8  14  24  40  64  96 133 173 217 263 312
#     4  11  24  40  56  74 102 142 182 218 261 316
#     4  10  21  35  54  79 104 132 170 219 270 321
#     4   8  14  26  45  69  95 125 162 207 260 310
#     4   9  18  32  51  76 108 144 181 224 274 325
#
# _framework density 19.533859
#
# number of rings (size 3 to 8) (size 9 to 14) (size 15 to 20)
#    0.000    2.500    0.000    3.000    1.750    6.750 
#    0.000    2.500    0.000    0.375    0.000    0.000 
#    0.000    0.500    0.000    0.000    0.000    0.000 
#
# Total GULP energy -793232.063209 kJ/mol
# GULP energy per Si atom -12394.250988 kJ/mol
# Density = 1.948940 g / cm^3
# Si number density = 19.533859 Si / 1000 Ang^3
#
#
#
# Elastic Constant Matrix: (Units=GPa)
#
#
# Indices 1 2 3 4 5 6 
#
# 1 88.5150 28.5171 53.5951 0.0000 0.0000 0.0000
# 2 28.5171 90.5309 49.3522 0.0000 0.0000 0.0000
# 3 53.5951 49.3522 129.1877 0.0000 0.0000 0.0000
# 4 0.0000 0.0000 0.0000 3.1664 0.0000 0.0000
# 5 0.0000 0.0000 0.0000 0.0000 36.5617 0.0000
# 6 0.0000 0.0000 0.0000 0.0000 0.0000 10.5253
#
#
#
# Elastic Compliance Matrix: (Units=1/GPa)
#
#
# Indices 1 2 3 4 5 6 
#
# 1 0.015296 -0.001716 -0.005690 0.000000 0.000000 0.000000
# 2 -0.001716 0.014144 -0.004691 0.000000 0.000000 0.000000
# 3 -0.005690 -0.004691 0.011893 0.000000 0.000000 0.000000
# 4 0.000000 0.000000 0.000000 0.315812 0.000000 0.000000
# 5 0.000000 0.000000 0.000000 0.000000 0.027351 0.000000
# 6 0.000000 0.000000 0.000000 0.000000 0.000000 0.095009
#
#
# Mechanical properties :
#
#
# Convention : Reuss Voigt Hill
#
# Bulk Modulus (GPa) = 58.34966 63.46247 60.90607
# Shear Modulus (GPa) = 9.81524 21.83531 15.82528
#
# Velocity S-wave (km/s) = 2.24402 3.34701 2.84939
# Velocity P-wave (km/s) = 6.05393 6.89170 6.48636
#
# Compressibility (1/GPa) = 0.01713806
#
# Stress axis : x y z
#
# Youngs Moduli (GPa) = 65.37799 70.70151 84.08052
#
# Poissons Ratio (x) = 0.12134 0.47841
# Poissons Ratio (y) = 0.11221 0.39444
# Poissons Ratio (z) = 0.37200 0.33168
#
# Static dielectric constant tensor:
#      x y z
#    x 3.602940 0.000000 0.000000 
#    y 0.000000 3.304240 0.000000 
#    z 0.000000 0.000000 3.704080 
# 
# 
# High freq. dielectric constant tensor:
#      x y z
#    x 1.765520 0.000000 0.000000 
#    y 0.000000 1.712860 0.000000 
#    z 0.000000 0.000000 1.763050 
# 
# From -- ./inp_files/35786.got.cif
#   From: 2010.03.12/outbox.cif.g09.slc.cpg/sg51_18_cif.got.tgz:35786.got - 2010.04.16 13:43:02.
