data_PCOD8213712
_publ_section_title
;
Structure prediction by ZEFSAII (Michael W. Deem and Ramdas Pophale) SiO2 
 PCOD8213712
Probable space group: P M M A
;
_chemical_formula_sum "Si O2"
_cell_formula_units_Z 64
_cell_length_a 30.727989
_cell_length_b 8.931589
_cell_length_c 12.018783
_cell_angle_alpha 90.000000
_cell_angle_beta 90.000000
_cell_angle_gamma 90.000000
_cell_volume 3298.552213
_symmetry_space_group_name_H-M "P M M A"
_symmetry_group_IT_number 51
_symmetry_cell_setting 'orthorhombic'
loop_
_space_group_symop_operation_xyz
x,y,z
1/2-x,-y,z
1/2+x,-y,-z
-x,y,-z
-x,-y,-z
1/2+x,y,-z
1/2-x,y,z
x,-y,z
loop_
_atom_site_type_symbol
_atom_site_label
_atom_site_fract_x
_atom_site_fract_y
_atom_site_fract_z
Si Si1 0.700485 0.675228 0.504866
Si Si2 0.327558 0.676023 0.249569
Si Si3 0.418955 0.822726 0.247028
Si Si4 0.048394 0.178048 0.483771
Si Si5 0.874019 0.822626 0.362269
Si Si6 0.950794 0.670394 0.962817
Si Si7 0.702187 0.828849 0.959125
Si Si8 0.878291 0.822893 0.108412
O O1 0.750000 0.717742 0.474008
O O2 0.692129 0.500000 0.491539
O O3 0.691956 0.724926 0.631958
O O4 0.668639 0.760157 0.421966
O O5 0.336169 0.500000 0.245303
O O6 0.371020 0.765925 0.223233
O O7 0.295730 0.725496 0.150671
O O8 0.434524 0.762291 0.366015
O O9 0.450264 0.756763 0.153666
O O10 0.420281 0.000000 0.240634
O O11 0.081806 0.236188 0.578102
O O12 0.000000 0.244977 0.500000
O O13 0.046507 0.000000 0.485922
O O14 0.874932 0.766980 0.235420
O O15 0.871240 0.000000 0.370389
O O16 0.935331 0.500000 0.946636
O O17 0.919868 0.746558 0.053437
O O18 0.000000 0.680197 0.000000
O O19 0.750000 0.816157 0.015656
O O20 0.692355 0.000000 0.924181
O O21 0.665924 0.772642 0.046360
O O22 0.885084 0.000000 0.102788
#
# Coordination Sequence:
#
# PCOD8213712 Si02
#       8
#     8   8   8   8   8   8   8   8
#     4  10  22  39  58  83 118 158 197 238 288 349
#     4  11  21  36  59  86 120 154 193 241 293 348
#     4  11  21  36  63  91 119 152 193 242 294 346
#     4   9  19  35  57  87 120 150 187 238 289 340
#     4  10  21  38  60  86 116 151 196 245 290 341
#     4  11  25  42  60  86 122 158 195 240 290 347
#     4  10  21  37  57  84 117 151 192 243 295 347
#     4  10  22  39  61  87 117 154 197 243 292 346
#
# _framework density 19.402450000000002
#
# number of rings (size 3 to 8) (size 9 to 14) (size 15 to 20)
#    0.000    1.750    2.500    1.500    1.750    3.500 
#    0.000    1.250    0.000    1.875    0.000    0.000 
#    0.000    0.000    0.000    0.000    0.000    0.000 
#
# Total GULP energy -793707.778043 kJ/mol
# GULP energy per Si atom -12401.684032 kJ/mol
# Density = 1.935829 g / cm^3
# Si number density = 19.402450 Si / 1000 Ang^3
#
#
#
# Elastic Constant Matrix: (Units=GPa)
#
#
# Indices 1 2 3 4 5 6 
#
# 1 123.8786 28.7171 59.3889 0.0000 0.0000 0.0000
# 2 28.7171 48.6722 41.8151 0.0000 0.0000 0.0000
# 3 59.3889 41.8151 157.4146 0.0000 0.0000 0.0000
# 4 0.0000 0.0000 0.0000 23.2929 0.0000 0.0000
# 5 0.0000 0.0000 0.0000 0.0000 23.1807 0.0000
# 6 0.0000 0.0000 0.0000 0.0000 0.0000 24.9647
#
#
#
# Elastic Compliance Matrix: (Units=1/GPa)
#
#
# Indices 1 2 3 4 5 6 
#
# 1 0.010308 -0.003551 -0.002946 0.000000 0.000000 0.000000
# 2 -0.003551 0.027844 -0.006057 0.000000 0.000000 0.000000
# 3 -0.002946 -0.006057 0.009073 0.000000 0.000000 0.000000
# 4 0.000000 0.000000 0.000000 0.042932 0.000000 0.000000
# 5 0.000000 0.000000 0.000000 0.000000 0.043139 0.000000
# 6 0.000000 0.000000 0.000000 0.000000 0.000000 0.040056
#
#
# Mechanical properties :
#
#
# Convention : Reuss Voigt Hill
#
# Bulk Modulus (GPa) = 45.21192 65.53419 55.37306
# Shear Modulus (GPa) = 24.29169 27.62395 25.95782
#
# Velocity S-wave (km/s) = 3.54219 3.77733 3.66165
# Velocity P-wave (km/s) = 6.33105 7.27145 6.81748
#
# Compressibility (1/GPa) = 0.02211806
#
# Stress axis : x y z
#
# Youngs Moduli (GPa) = 97.01420 35.91411 110.21918
#
# Poissons Ratio (x) = 0.12753 0.32466
# Poissons Ratio (y) = 0.34451 0.66756
# Poissons Ratio (z) = 0.28576 0.21752
#
# Static dielectric constant tensor:
#      x y z
#    x 3.772980 0.000000 0.000000 
#    y 0.000000 3.395990 0.000000 
#    z 0.000000 0.000000 3.732050 
# 
# 
# High freq. dielectric constant tensor:
#      x y z
#    x 1.768400 0.000000 0.000000 
#    y 0.000000 1.738530 0.000000 
#    z 0.000000 0.000000 1.761160 
# 
# From -- ./inp_files/19492.got.cif
#   From: 2010.03.12/outbox.cif.g09.slc.cpg/sg51_10_cif.got.tgz:19492.got - 2010.04.16 13:43:02.
