data_PCOD8213119
_publ_section_title
;
Structure prediction by ZEFSAII (Michael W. Deem and Ramdas Pophale) SiO2 
 PCOD8213119
Probable space group: P M M A
;
_chemical_formula_sum "Si O2"
_cell_formula_units_Z 48
_cell_length_a 29.787844
_cell_length_b 9.016840
_cell_length_c 9.568164
_cell_angle_alpha 90.000000
_cell_angle_beta 90.000000
_cell_angle_gamma 90.000000
_cell_volume 2569.934442
_symmetry_space_group_name_H-M "P M M A"
_symmetry_group_IT_number 51
_symmetry_cell_setting 'orthorhombic'
loop_
_space_group_symop_operation_xyz
x,y,z
1/2-x,-y,z
1/2+x,-y,-z
-x,y,-z
-x,-y,-z
1/2+x,y,-z
1/2-x,y,z
x,-y,z
loop_
_atom_site_type_symbol
_atom_site_label
_atom_site_fract_x
_atom_site_fract_y
_atom_site_fract_z
Si Si1 0.995079 0.325743 0.341926
Si Si2 0.825071 0.326206 0.857206
Si Si3 0.321968 0.172843 0.856331
Si Si4 0.250000 0.322868 0.668476
Si Si5 0.750000 0.325029 0.646497
Si Si6 0.072667 0.672007 0.133999
Si Si7 0.426225 0.828251 0.849888
O O1 0.986231 0.500000 0.335789
O O2 0.040343 0.280982 0.260213
O O3 0.000000 0.269501 0.500000
O O4 0.952106 0.246437 0.277273
O O5 0.818176 0.500000 0.888608
O O6 0.794678 0.271884 0.727943
O O7 0.876629 0.289191 0.819811
O O8 0.808992 0.236184 0.992373
O O9 0.294545 0.260350 0.739883
O O10 0.373931 0.202245 0.824406
O O11 0.309555 0.000000 0.852336
O O12 0.250000 0.500000 0.676781
O O13 0.250000 0.261136 0.509830
O O14 0.750000 0.500000 0.636916
O O15 0.067689 0.500000 0.096703
O O16 0.057807 0.760321 0.996666
O O17 0.437880 0.000000 0.853948
#
# Coordination Sequence:
#
# PCOD8213119 Si02
#       7
#     8   8   8   4   4   8   8
#     4  10  21  35  52  77 108 141 176 216 264 314
#     4   9  17  33  56  79 103 134 175 219 260 305
#     4  10  21  37  55  78 107 137 173 217 262 309
#     4  11  22  35  54  80 108 141 176 211 258 312
#     4   9  19  33  52  80 108 133 168 213 256 304
#     4   9  18  33  54  78 104 136 174 217 262 307
#     4  10  21  36  55  78 104 137 176 218 263 310
#
# _framework density 18.677519
#
# number of rings (size 3 to 8) (size 9 to 14) (size 15 to 20)
#    0.000    2.333    0.000    2.250    0.000    7.000 
#    0.000    5.000    0.000    4.000    0.000    0.000 
#    0.000    0.000    0.000    0.000    0.000    0.000 
#
# Total GULP energy -595357.026652 kJ/mol
# GULP energy per Si atom -12403.271389 kJ/mol
# Density = 1.863501 g / cm^3
# Si number density = 18.677519 Si / 1000 Ang^3
#
#
#
# Elastic Constant Matrix: (Units=GPa)
#
#
# Indices 1 2 3 4 5 6 
#
# 1 103.1943 45.9023 88.1728 0.0000 0.0000 0.0000
# 2 45.9023 68.8646 63.4057 0.0000 0.0000 0.0000
# 3 88.1728 63.4057 182.6926 0.0000 0.0000 0.0000
# 4 0.0000 0.0000 0.0000 -0.7025 0.0000 0.0000
# 5 0.0000 0.0000 0.0000 0.0000 21.9666 0.0000
# 6 0.0000 0.0000 0.0000 0.0000 0.0000 27.4281
#
#
#
# Elastic Compliance Matrix: (Units=1/GPa)
#
#
# Indices 1 2 3 4 5 6 
#
# 1 0.017972 -0.005868 -0.006637 0.000000 0.000000 0.000000
# 2 -0.005868 0.023257 -0.005239 0.000000 0.000000 0.000000
# 3 -0.006637 -0.005239 0.010495 0.000000 0.000000 0.000000
# 4 0.000000 0.000000 0.000000 -1.423395 0.000000 0.000000
# 5 0.000000 0.000000 0.000000 0.000000 0.045524 0.000000
# 6 0.000000 0.000000 0.000000 0.000000 0.000000 0.036459
#
#
# Mechanical properties :
#
#
# Convention : Reuss Voigt Hill
#
# Bulk Modulus (GPa) = 61.59727 83.30144 72.44935
# Shear Modulus (GPa) = -4.00388 20.22315 8.10964
#
# Velocity S-wave (km/s) = -1.46572 3.29409 2.08599
# Velocity P-wave (km/s) = 5.49422 7.69186 6.68398
#
# Compressibility (1/GPa) = 0.01623449
#
# Stress axis : x y z
#
# Youngs Moduli (GPa) = 55.64335 42.99810 95.28121
#
# Poissons Ratio (x) = 0.25232 0.63238
# Poissons Ratio (y) = 0.32653 0.49921
# Poissons Ratio (z) = 0.36930 0.22528
#
# Static dielectric constant tensor:
#      x y z
#    x 3.578040 0.000000 0.000000 
#    y 0.000000 3.349650 0.000000 
#    z 0.000000 0.000000 3.522790 
# 
# 
# High freq. dielectric constant tensor:
#      x y z
#    x 1.738240 0.000000 0.000000 
#    y 0.000000 1.715820 0.000000 
#    z 0.000000 0.000000 1.721420 
# 
# From -- ./inp_files/12889.got.cif
#   From: 2010.03.12/outbox.cif.g09.slc.cpg/sg51_7_cif.got.tgz:12889.got - 2010.04.16 13:43:02.
