data_PCOD8213725
_publ_section_title
;
Structure prediction by ZEFSAII (Michael W. Deem and Ramdas Pophale) SiO2 
 PCOD8213725
Probable space group: P M M A
;
_chemical_formula_sum "Si O2"
_cell_formula_units_Z 64
_cell_length_a 14.625312
_cell_length_b 9.169027
_cell_length_c 25.979401
_cell_angle_alpha 90.000000
_cell_angle_beta 90.000000
_cell_angle_gamma 90.000000
_cell_volume 3483.834572
_symmetry_space_group_name_H-M "P M M A"
_symmetry_group_IT_number 51
_symmetry_cell_setting 'orthorhombic'
loop_
_space_group_symop_operation_xyz
x,y,z
1/2-x,-y,z
1/2+x,-y,-z
-x,y,-z
-x,-y,-z
1/2+x,y,-z
1/2-x,y,z
x,-y,z
loop_
_atom_site_type_symbol
_atom_site_label
_atom_site_fract_x
_atom_site_fract_y
_atom_site_fract_z
Si Si1 0.856729 0.834436 0.759081
Si Si2 0.855760 0.167844 0.876925
Si Si3 0.000002 0.827335 0.581514
Si Si4 0.495863 0.330047 0.939957
Si Si5 0.852707 0.827268 0.500026
Si Si6 0.643412 0.831065 0.127996
Si Si7 0.994137 0.329768 0.689487
Si Si8 0.145704 0.331980 0.770122
O O1 0.750000 0.817301 0.748274
O O2 0.879242 0.793470 0.817962
O O3 0.907478 0.724531 0.721466
O O4 0.887849 0.000000 0.747643
O O5 0.750000 0.196547 0.888521
O O6 0.912020 0.272605 0.913881
O O7 0.881105 0.000000 0.888106
O O8 0.908768 0.777865 0.550681
O O9 0.090699 0.777217 0.550357
O O10 0.000674 0.749872 0.635679
O O11 0.999933 0.000000 0.589683
O O12 0.485690 0.500000 0.928102
O O13 0.407773 0.247202 0.918409
O O14 0.500000 0.296664 0.000000
O O15 0.750000 0.758944 0.499979
O O16 0.845983 0.000000 0.499885
O O17 0.750000 0.803712 0.119118
O O18 0.611052 0.764739 0.182283
O O19 0.617246 0.000000 0.128323
O O20 0.982470 0.500000 0.679587
O O21 0.086334 0.292690 0.720448
O O22 0.250000 0.294560 0.755912
O O23 0.133878 0.500000 0.786274
#
# Coordination Sequence:
#
# PCOD8213725 Si02
#       8
#     8   8   8   8   8   8   8   8
#     4   9  19  36  56  77 102 135 173 210 254 309
#     4   9  19  37  60  83 106 134 172 221 271 314
#     4   9  18  32  51  75 100 130 170 212 256 305
#     4  11  24  38  53  77 108 142 178 214 258 316
#     4   8  15  31  54  75  95 125 170 219 260 301
#     4  10  21  37  58  82 105 133 174 223 270 314
#     4  11  22  33  49  77 112 143 171 210 255 301
#     4   9  19  36  55  75 104 143 179 209 252 312
#
# _framework density 18.370563000000001
#
# number of rings (size 3 to 8) (size 9 to 14) (size 15 to 20)
#    0.000    2.500    0.000    3.375    0.000    7.250 
#    0.000    6.250    0.000    0.750    0.000    0.000 
#    0.000    0.000    0.000    0.000    0.000    0.000 
#
# Total GULP energy -793664.964333 kJ/mol
# GULP energy per Si atom -12401.015068 kJ/mol
# Density = 1.832875 g / cm^3
# Si number density = 18.370563 Si / 1000 Ang^3
#
#
#
# Elastic Constant Matrix: (Units=GPa)
#
#
# Indices 1 2 3 4 5 6 
#
# 1 117.9131 50.3027 74.3917 0.0000 0.0000 0.0000
# 2 50.3027 83.2168 75.3951 0.0000 0.0000 0.0000
# 3 74.3917 75.3951 149.0955 0.0000 0.0000 0.0000
# 4 0.0000 0.0000 0.0000 22.8685 0.0000 0.0000
# 5 0.0000 0.0000 0.0000 0.0000 -30.7554 0.0000
# 6 0.0000 0.0000 0.0000 0.0000 0.0000 26.0453
#
#
#
# Elastic Compliance Matrix: (Units=1/GPa)
#
#
# Indices 1 2 3 4 5 6 
#
# 1 0.012949 -0.003643 -0.004619 0.000000 0.000000 0.000000
# 2 -0.003643 0.023202 -0.009915 0.000000 0.000000 0.000000
# 3 -0.004619 -0.009915 0.014026 0.000000 0.000000 0.000000
# 4 0.000000 0.000000 0.000000 0.043728 0.000000 0.000000
# 5 0.000000 0.000000 0.000000 0.000000 -0.032515 0.000000
# 6 0.000000 0.000000 0.000000 0.000000 0.000000 0.038395
#
#
# Mechanical properties :
#
#
# Convention : Reuss Voigt Hill
#
# Bulk Modulus (GPa) = 72.34336 83.37827 77.86081
# Shear Modulus (GPa) = 35.52488 13.64074 24.58281
#
# Velocity S-wave (km/s) = 4.40226 2.72790 3.66206
# Velocity P-wave (km/s) = 8.08118 7.44361 7.76894
#
# Compressibility (1/GPa) = 0.01382297
#
# Stress axis : x y z
#
# Youngs Moduli (GPa) = 77.22712 43.09952 71.29712
#
# Poissons Ratio (x) = 0.15699 0.32931
# Poissons Ratio (y) = 0.28130 0.70694
# Poissons Ratio (z) = 0.35670 0.42735
#
# Static dielectric constant tensor:
#      x y z
#    x 3.618030 0.000000 0.000000 
#    y 0.000000 3.290720 0.000000 
#    z 0.000000 0.000000 3.317130 
# 
# 
# High freq. dielectric constant tensor:
#      x y z
#    x 1.724110 0.000000 0.000000 
#    y 0.000000 1.700440 0.000000 
#    z 0.000000 0.000000 1.710720 
# 
# From -- ./inp_files/35623.got.cif
#   From: 2010.03.12/outbox.cif.g09.slc.cpg/sg51_18_cif.got.tgz:35623.got - 2010.04.16 13:43:02.
