data_PCOD8213346
_publ_section_title
;
Structure prediction by ZEFSAII (Michael W. Deem and Ramdas Pophale) SiO2 
 PCOD8213346
Probable space group: P M M A
;
_chemical_formula_sum "Si O2"
_cell_formula_units_Z 56
_cell_length_a 14.396102
_cell_length_b 8.768162
_cell_length_c 23.695226
_cell_angle_alpha 90.000000
_cell_angle_beta 90.000000
_cell_angle_gamma 90.000000
_cell_volume 2990.985692
_symmetry_space_group_name_H-M "P M M A"
_symmetry_group_IT_number 51
_symmetry_cell_setting 'orthorhombic'
loop_
_space_group_symop_operation_xyz
x,y,z
1/2-x,-y,z
1/2+x,-y,-z
-x,y,-z
-x,-y,-z
1/2+x,y,-z
1/2-x,y,z
x,-y,z
loop_
_atom_site_type_symbol
_atom_site_label
_atom_site_fract_x
_atom_site_fract_y
_atom_site_fract_z
Si Si1 0.859117 0.325628 0.063302
Si Si2 0.355865 0.819799 0.346398
Si Si3 0.999897 0.320797 0.734951
Si Si4 0.355644 0.181168 0.654062
Si Si5 0.856081 0.823968 0.948363
Si Si6 0.498947 0.180061 0.562406
Si Si7 0.996624 0.822563 0.144648
O O1 0.750000 0.301742 0.069036
O O2 0.888990 0.500000 0.072629
O O3 0.903920 0.219952 0.110916
O O4 0.892268 0.273908 0.001261
O O5 0.250000 0.762439 0.349891
O O6 0.406410 0.741528 0.293895
O O7 0.407407 0.772587 0.404459
O O8 0.361608 0.000000 0.336947
O O9 0.004401 0.500000 0.726935
O O10 0.996062 0.279238 0.800148
O O11 0.092949 0.249218 0.708348
O O12 0.250000 0.241073 0.651734
O O13 0.408811 0.236726 0.597367
O O14 0.359470 0.000000 0.659362
O O15 0.750000 0.784938 0.933557
O O16 0.914854 0.780625 0.893541
O O17 0.869255 0.000000 0.964930
O O18 0.500000 0.255610 0.500000
O O19 0.493640 0.000000 0.556201
O O20 0.994259 0.000000 0.161159
#
# Coordination Sequence:
#
# PCOD8213346 Si02
#       7
#     8   8   8   8   8   8   8
#     4  10  21  36  54  78 108 139 170 208 256 308
#     4   9  18  34  55  77 105 142 179 215 259 310
#     4  11  23  37  53  75 104 136 175 223 268 313
#     4   9  18  34  55  77 104 140 178 215 259 311
#     4   9  19  36  56  78 104 134 168 206 252 309
#     4   8  14  26  48  82 116 138 166 213 262 307
#     4  11  22  36  56  79 103 135 174 215 262 313
#
# _framework density 18.722923999999999
#
# number of rings (size 3 to 8) (size 9 to 14) (size 15 to 20)
#    0.000    2.429    0.000    3.429    0.000    6.000 
#    0.000    4.286    0.000    6.857    0.000    8.000 
#    0.000    0.000    0.000    0.000    0.000    0.000 
#
# Total GULP energy -694465.629721 kJ/mol
# GULP energy per Si atom -12401.171959 kJ/mol
# Density = 1.868031 g / cm^3
# Si number density = 18.722924 Si / 1000 Ang^3
#
#
#
# Elastic Constant Matrix: (Units=GPa)
#
#
# Indices 1 2 3 4 5 6 
#
# 1 135.4333 36.1606 65.1096 0.0000 0.0000 0.0000
# 2 36.1606 39.5971 24.0349 0.0000 0.0000 0.0000
# 3 65.1096 24.0349 133.6474 0.0000 0.0000 0.0000
# 4 0.0000 0.0000 0.0000 -0.3665 0.0000 0.0000
# 5 0.0000 0.0000 0.0000 0.0000 21.9097 0.0000
# 6 0.0000 0.0000 0.0000 0.0000 0.0000 18.0544
#
#
#
# Elastic Compliance Matrix: (Units=1/GPa)
#
#
# Indices 1 2 3 4 5 6 
#
# 1 0.011525 -0.007989 -0.004178 0.000000 0.000000 0.000000
# 2 -0.007989 0.033887 -0.002202 0.000000 0.000000 0.000000
# 3 -0.004178 -0.002202 0.009914 0.000000 0.000000 0.000000
# 4 0.000000 0.000000 0.000000 -2.728713 0.000000 0.000000
# 5 0.000000 0.000000 0.000000 0.000000 0.045642 0.000000
# 6 0.000000 0.000000 0.000000 0.000000 0.000000 0.055388
#
#
# Mechanical properties :
#
#
# Convention : Reuss Voigt Hill
#
# Bulk Modulus (GPa) = 37.61171 62.14312 49.87741
# Shear Modulus (GPa) = -1.97258 20.14437 9.08590
#
# Velocity S-wave (km/s) = -1.02755 3.28368 2.20530
# Velocity P-wave (km/s) = 4.32717 6.90215 5.76039
#
# Compressibility (1/GPa) = 0.02658746
#
# Stress axis : x y z
#
# Youngs Moduli (GPa) = 86.76456 29.51003 100.86876
#
# Poissons Ratio (x) = 0.23576 0.42144
# Poissons Ratio (y) = 0.69317 0.22212
# Poissons Ratio (z) = 0.36252 0.06498
#
# Static dielectric constant tensor:
#      x y z
#    x 3.638620 0.000000 0.000000 
#    y 0.000000 3.255540 0.000000 
#    z 0.000000 0.000000 3.536900 
# 
# 
# High freq. dielectric constant tensor:
#      x y z
#    x 1.733980 0.000000 0.000000 
#    y 0.000000 1.708740 0.000000 
#    z 0.000000 0.000000 1.727550 
# 
# From -- ./inp_files/33408.got.cif
#   From: 2010.03.12/outbox.cif.g09.slc.cpg/sg51_17_cif.got.tgz:33408.got - 2010.04.16 13:43:02.
