data_PCOD8213681
_publ_section_title
;
Structure prediction by ZEFSAII (Michael W. Deem and Ramdas Pophale) SiO2 
 PCOD8213681
Probable space group: P M M A
;
_chemical_formula_sum "Si O2"
_cell_formula_units_Z 28
_cell_length_a 9.077970
_cell_length_b 7.867771
_cell_length_c 19.385946
_cell_angle_alpha 90.000000
_cell_angle_beta 90.000000
_cell_angle_gamma 90.000000
_cell_volume 1384.609964
_symmetry_space_group_name_H-M "P M M A"
_symmetry_group_IT_number 51
_symmetry_cell_setting 'orthorhombic'
loop_
_space_group_symop_operation_xyz
x,y,z
1/2-x,-y,z
1/2+x,-y,-z
-x,y,-z
-x,-y,-z
1/2+x,y,-z
1/2-x,y,z
x,-y,z
loop_
_atom_site_type_symbol
_atom_site_label
_atom_site_fract_x
_atom_site_fract_y
_atom_site_fract_z
Si Si1 0.579979 0.699577 0.930783
Si Si2 0.083375 0.193486 0.796853
Si Si3 0.419248 0.310470 0.332748
Si Si4 0.076243 0.000000 0.426925
O O1 0.750000 0.751766 0.935739
O O2 0.559007 0.500000 0.919977
O O3 0.507038 0.794341 0.867046
O O4 0.500000 0.762153 0.000000
O O5 0.250000 0.256944 0.809616
O O6 0.011185 0.306908 0.737552
O O7 0.080134 0.000000 0.771210
O O8 0.250000 0.272312 0.313582
O O9 0.437098 0.500000 0.364882
O O10 0.476170 0.169550 0.386689
O O11 0.000000 0.000000 0.500000
O O12 0.250000 0.000000 0.438232
#
# Coordination Sequence:
#
# PCOD8213681 Si02
#       4
#     8   8   8   4
#     4  10  21  37  57  81 111 150 196 246 300 356
#     4  11  23  37  56  84 117 153 196 245 297 352
#     4  10  21  39  63  89 118 157 201 242 292 350
#     4  10  22  40  62  90 125 158 193 240 288 346
#
# _framework density 20.222301000000002
#
# number of rings (size 3 to 8) (size 9 to 14) (size 15 to 20)
#    0.000    1.714    1.429    2.571    0.000    9.714 
#    0.000    0.000    0.000    0.000    0.000    0.000 
#    0.000    0.000    0.000    0.000    0.000    0.000 
#
# Total GULP energy -347320.773411 kJ/mol
# GULP energy per Si atom -12404.313336 kJ/mol
# Density = 2.017627 g / cm^3
# Si number density = 20.222301 Si / 1000 Ang^3
#
#
#
# Elastic Constant Matrix: (Units=GPa)
#
#
# Indices 1 2 3 4 5 6 
#
# 1 113.1348 37.2160 57.7311 0.0000 0.0000 0.0000
# 2 37.2160 107.7512 53.1236 0.0000 0.0000 0.0000
# 3 57.7311 53.1236 141.7467 0.0000 0.0000 0.0000
# 4 0.0000 0.0000 0.0000 27.1620 0.0000 0.0000
# 5 0.0000 0.0000 0.0000 0.0000 43.3852 0.0000
# 6 0.0000 0.0000 0.0000 0.0000 0.0000 16.9099
#
#
#
# Elastic Compliance Matrix: (Units=1/GPa)
#
#
# Indices 1 2 3 4 5 6 
#
# 1 0.011513 -0.002042 -0.003924 0.000000 0.000000 0.000000
# 2 -0.002042 0.011746 -0.003571 0.000000 0.000000 0.000000
# 3 -0.003924 -0.003571 0.009991 0.000000 0.000000 0.000000
# 4 0.000000 0.000000 0.000000 0.036816 0.000000 0.000000
# 5 0.000000 0.000000 0.000000 0.000000 0.023049 0.000000
# 6 0.000000 0.000000 0.000000 0.000000 0.000000 0.059137
#
#
# Mechanical properties :
#
#
# Convention : Reuss Voigt Hill
#
# Bulk Modulus (GPa) = 70.53317 73.19714 71.86515
# Shear Modulus (GPa) = 28.40079 31.79554 30.09816
#
# Velocity S-wave (km/s) = 3.75164 3.96953 3.86212
# Velocity P-wave (km/s) = 7.32946 7.56864 7.45001
#
# Compressibility (1/GPa) = 0.01417773
#
# Stress axis : x y z
#
# Youngs Moduli (GPa) = 86.85863 85.13327 100.08901
#
# Poissons Ratio (x) = 0.17384 0.39273
# Poissons Ratio (y) = 0.17736 0.35738
# Poissons Ratio (z) = 0.34081 0.30398
#
# Static dielectric constant tensor:
#      x y z
#    x 3.637080 0.000000 0.000000 
#    y 0.000000 3.720650 0.000000 
#    z 0.000000 0.000000 3.497450 
# 
# 
# High freq. dielectric constant tensor:
#      x y z
#    x 1.793310 0.000000 0.000000 
#    y 0.000000 1.796970 0.000000 
#    z 0.000000 0.000000 1.781020 
# 
# From -- ./inp_files/26883.got.cif
#   From: 2010.03.12/outbox.cif.g09.slc.cpg/sg51_14_cif.got.tgz:26883.got - 2010.04.16 13:43:02.
