data_PCOD8213625
_publ_section_title
;
Structure prediction by ZEFSAII (Michael W. Deem and Ramdas Pophale) SiO2 
 PCOD8213625
Probable space group: P M M A
;
_chemical_formula_sum "Si O2"
_cell_formula_units_Z 48
_cell_length_a 9.141861
_cell_length_b 8.715830
_cell_length_c 30.879058
_cell_angle_alpha 90.000000
_cell_angle_beta 90.000000
_cell_angle_gamma 90.000000
_cell_volume 2460.409571
_symmetry_space_group_name_H-M "P M M A"
_symmetry_group_IT_number 51
_symmetry_cell_setting 'orthorhombic'
loop_
_space_group_symop_operation_xyz
x,y,z
1/2-x,-y,z
1/2+x,-y,-z
-x,y,-z
-x,-y,-z
1/2+x,y,-z
1/2-x,y,z
x,-y,z
loop_
_atom_site_type_symbol
_atom_site_label
_atom_site_fract_x
_atom_site_fract_y
_atom_site_fract_z
Si Si1 0.414954 0.317259 0.374284
Si Si2 0.085499 0.818154 0.958420
Si Si3 0.419266 0.323259 0.710303
Si Si4 0.918660 0.679084 0.878696
Si Si5 0.915321 0.683027 0.457905
Si Si6 0.580581 0.178122 0.199542
O O1 0.250000 0.254368 0.376660
O O2 0.417824 0.500000 0.375305
O O3 0.488457 0.258708 0.330003
O O4 0.504335 0.252194 0.415233
O O5 0.250000 0.751243 0.958795
O O6 0.005766 0.770676 0.914859
O O7 0.089548 0.000000 0.960472
O O8 0.000000 0.750872 0.000000
O O9 0.250000 0.304589 0.698088
O O10 0.457188 0.500000 0.720524
O O11 0.462255 0.222207 0.751673
O O12 0.750000 0.728448 0.880736
O O13 0.938868 0.500000 0.886970
O O14 0.981647 0.721477 0.831996
O O15 0.750000 0.745955 0.458747
O O16 0.915760 0.500000 0.457645
O O17 0.000000 0.745479 0.500000
O O18 0.750000 0.217295 0.190573
O O19 0.547872 0.000000 0.191813
#
# Coordination Sequence:
#
# PCOD8213625 Si02
#       6
#     8   8   8   8   8   8
#     4   9  16  25  38  58  85 118 157 200 245 294
#     4  10  21  38  61  87 114 146 183 221 263 311
#     4   9  17  30  48  69  95 128 164 203 250 303
#     4  11  24  39  56  81 112 145 181 220 263 311
#     4   9  15  22  33  51  79 116 156 196 240 292
#     4  10  21  37  57  80 105 135 173 216 263 315
#
# _framework density 19.508946999999999
#
# number of rings (size 3 to 8) (size 9 to 14) (size 15 to 20)
#    0.000    2.333    0.000    3.000    0.000   10.333 
#    0.000    1.667    0.000    0.000    0.000    0.000 
#    0.000    0.667    0.000    1.833    0.000    3.333 
#
# Total GULP energy -595326.550926 kJ/mol
# GULP energy per Si atom -12402.636478 kJ/mol
# Density = 1.946454 g / cm^3
# Si number density = 19.508947 Si / 1000 Ang^3
#
#
#
# Elastic Constant Matrix: (Units=GPa)
#
#
# Indices 1 2 3 4 5 6 
#
# 1 151.0438 14.1439 80.0355 0.0000 0.0000 0.0000
# 2 14.1439 12.6701 5.9195 0.0000 0.0000 0.0000
# 3 80.0355 5.9195 136.0697 0.0000 0.0000 0.0000
# 4 0.0000 0.0000 0.0000 -0.8060 0.0000 0.0000
# 5 0.0000 0.0000 0.0000 0.0000 45.0062 0.0000
# 6 0.0000 0.0000 0.0000 0.0000 0.0000 13.8528
#
#
#
# Elastic Compliance Matrix: (Units=1/GPa)
#
#
# Indices 1 2 3 4 5 6 
#
# 1 0.010548 -0.009060 -0.005810 0.000000 0.000000 0.000000
# 2 -0.009060 0.088346 0.001486 0.000000 0.000000 0.000000
# 3 -0.005810 0.001486 0.010702 0.000000 0.000000 0.000000
# 4 0.000000 0.000000 0.000000 -1.240738 0.000000 0.000000
# 5 0.000000 0.000000 0.000000 0.000000 0.022219 0.000000
# 6 0.000000 0.000000 0.000000 0.000000 0.000000 0.072187
#
#
# Mechanical properties :
#
#
# Convention : Reuss Voigt Hill
#
# Bulk Modulus (GPa) = 12.07336 55.55347 33.81341
# Shear Modulus (GPa) = -5.08979 24.92292 9.91656
#
# Velocity S-wave (km/s) = -1.61698 3.57811 2.25702
# Velocity P-wave (km/s) = 1.64800 6.75338 4.91549
#
# Compressibility (1/GPa) = 0.08282700
#
# Stress axis : x y z
#
# Youngs Moduli (GPa) = 94.80892 11.31914 93.44159
#
# Poissons Ratio (x) = 0.10255 0.54288
# Poissons Ratio (y) = 0.85897 -0.13883
# Poissons Ratio (z) = 0.55083 -0.01682
#
# Static dielectric constant tensor:
#      x y z
#    x 3.803670 0.000000 0.000000 
#    y 0.000000 3.089940 0.000000 
#    z 0.000000 0.000000 3.694710 
# 
# 
# High freq. dielectric constant tensor:
#      x y z
#    x 1.769520 0.000000 0.000000 
#    y 0.000000 1.713710 0.000000 
#    z 0.000000 0.000000 1.776290 
# 
# From -- ./inp_files/37040.got.cif
#   From: 2010.03.12/outbox.cif.g09.slc.cpg/sg51_19_cif.got.tgz:37040.got - 2010.04.16 13:43:02.
