data_PCOD8213831
_publ_section_title
;
Structure prediction by ZEFSAII (Michael W. Deem and Ramdas Pophale) SiO2 
 PCOD8213831
Probable space group: P M M A
;
_chemical_formula_sum "Si O2"
_cell_formula_units_Z 48
_cell_length_a 9.149838
_cell_length_b 18.139750
_cell_length_c 14.227005
_cell_angle_alpha 90.000000
_cell_angle_beta 90.000000
_cell_angle_gamma 90.000000
_cell_volume 2361.338165
_symmetry_space_group_name_H-M "P M M A"
_symmetry_group_IT_number 51
_symmetry_cell_setting 'orthorhombic'
loop_
_space_group_symop_operation_xyz
x,y,z
1/2-x,-y,z
1/2+x,-y,-z
-x,y,-z
-x,-y,-z
1/2+x,y,-z
1/2-x,y,z
x,-y,z
loop_
_atom_site_type_symbol
_atom_site_label
_atom_site_fract_x
_atom_site_fract_y
_atom_site_fract_z
Si Si1 0.093970 0.500000 0.364573
Si Si2 0.418515 0.197455 0.090886
Si Si3 0.000000 0.621209 0.500000
Si Si4 0.079329 0.000000 0.400425
Si Si5 0.587218 0.711319 0.335975
Si Si6 0.424178 0.500000 0.822533
Si Si7 0.077442 0.645337 0.166741
Si Si8 0.421578 0.148089 0.294518
O O1 0.250000 0.500000 0.309945
O O2 0.094877 0.571039 0.431083
O O3 0.963523 0.500000 0.288648
O O4 0.250000 0.186682 0.070451
O O5 0.458083 0.284007 0.102513
O O6 0.464246 0.151806 0.183897
O O7 0.500000 0.165266 0.000000
O O8 0.103371 0.673380 0.562690
O O9 0.033941 0.069926 0.337786
O O10 0.000000 0.000000 0.500000
O O11 0.250000 0.000000 0.422215
O O12 0.750000 0.719186 0.292320
O O13 0.484628 0.661061 0.270450
O O14 0.514024 0.791107 0.350127
O O15 0.250000 0.500000 0.834746
O O16 0.494082 0.427422 0.872035
O O17 0.250000 0.630684 0.173198
O O18 0.250000 0.165540 0.306303
#
# Coordination Sequence:
#
# PCOD8213831 Si02
#       8
#     4   8   4   4   8   4   8   8
#     4  11  23  37  52  69 104 154 196 247 308 360
#     4   9  19  37  63  91 117 150 190 239 297 359
#     4  11  24  34  50  77 112 144 202 245 304 346
#     4  10  22  42  65  90 126 170 207 244 283 338
#     4  11  22  35  54  81 111 146 195 248 292 342
#     4  12  23  35  53  78 107 144 196 249 299 352
#     4  10  21  38  57  78 110 151 191 233 296 361
#     4   9  21  41  62  87 122 161 198 237 294 354
#
# _framework density 20.327456999999999
#
# number of rings (size 3 to 8) (size 9 to 14) (size 15 to 20)
#    0.000    1.833    1.667    3.250    1.167    7.333 
#    0.000    0.833    0.000    0.000    0.000    0.000 
#    0.000    0.000    0.000    0.000    0.000    0.000 
#
# Total GULP energy -595050.380810 kJ/mol
# GULP energy per Si atom -12396.882934 kJ/mol
# Density = 2.028119 g / cm^3
# Si number density = 20.327457 Si / 1000 Ang^3
#
#
#
# Elastic Constant Matrix: (Units=GPa)
#
#
# Indices 1 2 3 4 5 6 
#
# 1 104.5712 45.0292 34.0329 0.0000 0.0000 0.0000
# 2 45.0292 131.8219 48.6105 0.0000 0.0000 0.0000
# 3 34.0329 48.6105 102.8134 0.0000 0.0000 0.0000
# 4 0.0000 0.0000 0.0000 22.4027 0.0000 0.0000
# 5 0.0000 0.0000 0.0000 0.0000 28.6052 0.0000
# 6 0.0000 0.0000 0.0000 0.0000 0.0000 17.6225
#
#
#
# Elastic Compliance Matrix: (Units=1/GPa)
#
#
# Indices 1 2 3 4 5 6 
#
# 1 0.011681 -0.003106 -0.002398 0.000000 0.000000 0.000000
# 2 -0.003106 0.010014 -0.003706 0.000000 0.000000 0.000000
# 3 -0.002398 -0.003706 0.012273 0.000000 0.000000 0.000000
# 4 0.000000 0.000000 0.000000 0.044637 0.000000 0.000000
# 5 0.000000 0.000000 0.000000 0.000000 0.034959 0.000000
# 6 0.000000 0.000000 0.000000 0.000000 0.000000 0.056746
#
#
# Mechanical properties :
#
#
# Convention : Reuss Voigt Hill
#
# Bulk Modulus (GPa) = 64.32352 66.06129 65.19240
# Shear Modulus (GPa) = 25.78499 27.82835 26.80667
#
# Velocity S-wave (km/s) = 3.56544 3.70402 3.63539
# Velocity P-wave (km/s) = 6.97583 7.13177 7.05423
#
# Compressibility (1/GPa) = 0.01554641
#
# Stress axis : x y z
#
# Youngs Moduli (GPa) = 85.61154 99.86364 81.48242
#
# Poissons Ratio (x) = 0.31015 0.19540
# Poissons Ratio (y) = 0.26588 0.30201
# Poissons Ratio (z) = 0.20531 0.37014
#
# Static dielectric constant tensor:
#      x y z
#    x 3.541090 0.000000 0.000000 
#    y 0.000000 3.824270 0.000000 
#    z 0.000000 0.000000 3.495910 
# 
# 
# High freq. dielectric constant tensor:
#      x y z
#    x 1.791170 0.000000 0.000000 
#    y 0.000000 1.789020 0.000000 
#    z 0.000000 0.000000 1.779220 
# 
# From -- ./inp_files/21261.got.cif
#   From: 2010.03.12/outbox.cif.g09.slc.cpg/sg51_11_cif.got.tgz:21261.got - 2010.04.16 13:43:02.
