data_PCOD8213833
_publ_section_title
;
Structure prediction by ZEFSAII (Michael W. Deem and Ramdas Pophale) SiO2 
 PCOD8213833
Probable space group: P M M A
;
_chemical_formula_sum "Si O2"
_cell_formula_units_Z 64
_cell_length_a 18.318341
_cell_length_b 28.049655
_cell_length_c 6.850378
_cell_angle_alpha 90.000000
_cell_angle_beta 90.000000
_cell_angle_gamma 90.000000
_cell_volume 3519.882770
_symmetry_space_group_name_H-M "P M M A"
_symmetry_group_IT_number 51
_symmetry_cell_setting 'orthorhombic'
loop_
_space_group_symop_operation_xyz
x,y,z
1/2-x,-y,z
1/2+x,-y,-z
-x,y,-z
-x,-y,-z
1/2+x,y,-z
1/2-x,y,z
x,-y,z
loop_
_atom_site_type_symbol
_atom_site_label
_atom_site_fract_x
_atom_site_fract_y
_atom_site_fract_z
Si Si1 0.334288 0.445006 0.769908
Si Si2 0.080052 0.127548 0.547598
Si Si3 0.334766 0.119230 0.151285
Si Si4 0.334112 0.301801 0.781451
Si Si5 0.925623 0.055728 0.112732
Si Si6 0.834829 0.806360 0.168104
Si Si7 0.832200 0.377324 0.888067
Si Si8 0.086352 0.629198 0.506974
O O1 0.250000 0.436958 0.707058
O O2 0.356585 0.500000 0.766389
O O3 0.346070 0.425494 0.988676
O O4 0.385939 0.417456 0.620059
O O5 0.121984 0.115407 0.350800
O O6 0.073735 0.079451 0.674318
O O7 0.121103 0.169270 0.659294
O O8 0.000000 0.147143 0.500000
O O9 0.250000 0.114066 0.198658
O O10 0.358026 0.075781 0.011544
O O11 0.352401 0.169200 0.040698
O O12 0.250000 0.303914 0.713080
O O13 0.358715 0.248587 0.836455
O O14 0.346375 0.332130 0.975133
O O15 0.382676 0.322625 0.605491
O O16 0.914878 0.000000 0.143643
O O17 0.000000 0.068327 0.000000
O O18 0.750000 0.812416 0.217997
O O19 0.750000 0.376703 0.804408
O O20 0.888829 0.374626 0.714814
O O21 0.000000 0.631039 0.500000
#
# Coordination Sequence:
#
# PCOD8213833 Si02
#       8
#     8   8   8   8   8   8   8   8
#     4   9  19  36  56  78 104 139 187 233 268 317
#     4  11  21  35  57  85 112 147 186 225 274 333
#     4  10  21  38  57  81 113 146 183 233 285 333
#     4   9  19  37  57  78 104 142 189 229 268 322
#     4  10  21  38  59  82 111 149 189 228 274 330
#     4   9  20  37  57  80 110 144 182 231 282 332
#     4   9  18  35  57  76  99 138 183 226 269 318
#     4  11  22  34  52  81 116 145 175 221 279 332
#
# _framework density 18.182424000000001
#
# number of rings (size 3 to 8) (size 9 to 14) (size 15 to 20)
#    0.000    2.250    1.250    2.250    0.000    5.750 
#    0.000    5.625    0.000    0.000    0.000    0.000 
#    0.000    0.000    0.000    0.000    0.000    0.000 
#
# Total GULP energy -793744.587572 kJ/mol
# GULP energy per Si atom -12402.259181 kJ/mol
# Density = 1.814104 g / cm^3
# Si number density = 18.182424 Si / 1000 Ang^3
#
#
#
# Elastic Constant Matrix: (Units=GPa)
#
#
# Indices 1 2 3 4 5 6 
#
# 1 105.6069 49.0488 63.5407 0.0000 0.0000 0.0000
# 2 49.0488 143.5210 54.2255 0.0000 0.0000 0.0000
# 3 63.5407 54.2255 118.4805 0.0000 0.0000 0.0000
# 4 0.0000 0.0000 0.0000 17.2531 0.0000 0.0000
# 5 0.0000 0.0000 0.0000 0.0000 30.8534 0.0000
# 6 0.0000 0.0000 0.0000 0.0000 0.0000 29.7138
#
#
#
# Elastic Compliance Matrix: (Units=1/GPa)
#
#
# Indices 1 2 3 4 5 6 
#
# 1 0.014669 -0.002468 -0.006738 0.000000 0.000000 0.000000
# 2 -0.002468 0.008839 -0.002722 0.000000 0.000000 0.000000
# 3 -0.006738 -0.002722 0.013299 0.000000 0.000000 0.000000
# 4 0.000000 0.000000 0.000000 0.057961 0.000000 0.000000
# 5 0.000000 0.000000 0.000000 0.000000 0.032411 0.000000
# 6 0.000000 0.000000 0.000000 0.000000 0.000000 0.033654
#
#
# Mechanical properties :
#
#
# Convention : Reuss Voigt Hill
#
# Bulk Modulus (GPa) = 77.20165 77.91537 77.55851
# Shear Modulus (GPa) = 26.45408 28.95027 27.70218
#
# Velocity S-wave (km/s) = 3.81849 3.99458 3.90753
# Velocity P-wave (km/s) = 7.87355 8.01378 7.94397
#
# Compressibility (1/GPa) = 0.01295309
#
# Stress axis : x y z
#
# Youngs Moduli (GPa) = 68.17133 113.12929 75.19118
#
# Poissons Ratio (x) = 0.27915 0.50660
# Poissons Ratio (y) = 0.16822 0.20469
# Poissons Ratio (z) = 0.45931 0.30797
#
# Static dielectric constant tensor:
#      x y z
#    x -26.883870 0.000000 0.000000 
#    y 0.000000 3.477370 0.000000 
#    z 0.000000 0.000000 3.354010 
# 
# 
# High freq. dielectric constant tensor:
#      x y z
#    x 1.703820 0.000000 0.000000 
#    y 0.000000 1.704950 0.000000 
#    z 0.000000 0.000000 1.708950 
# 
# From -- ./inp_files/2114.got.cif
#   From: 2010.03.12/outbox.cif.g09.slc.cpg/sg51_2_cif.got.tgz:2114.got - 2010.04.16 13:43:02.
