data_PCOD8213020
_publ_section_title
;
Structure prediction by ZEFSAII (Michael W. Deem and Ramdas Pophale) SiO2 
 PCOD8213020
Probable space group: P M M A
;
_chemical_formula_sum "Si O2"
_cell_formula_units_Z 48
_cell_length_a 9.540788
_cell_length_b 31.236662
_cell_length_c 9.016977
_cell_angle_alpha 90.000000
_cell_angle_beta 90.000000
_cell_angle_gamma 90.000000
_cell_volume 2687.260856
_symmetry_space_group_name_H-M "P M M A"
_symmetry_group_IT_number 51
_symmetry_cell_setting 'orthorhombic'
loop_
_space_group_symop_operation_xyz
x,y,z
1/2-x,-y,z
1/2+x,-y,-z
-x,y,-z
-x,-y,-z
1/2+x,y,-z
1/2-x,y,z
x,-y,z
loop_
_atom_site_type_symbol
_atom_site_label
_atom_site_fract_x
_atom_site_fract_y
_atom_site_fract_z
Si Si1 0.089673 0.454786 0.146054
Si Si2 0.086570 0.283927 0.351663
Si Si3 0.587473 0.796606 0.851470
Si Si4 0.087145 0.875680 0.352411
Si Si5 0.586351 0.361926 0.849067
Si Si6 0.911908 0.048681 0.858037
O O1 0.250000 0.453997 0.094894
O O2 0.060766 0.500000 0.236769
O O3 0.057612 0.409219 0.225847
O O4 0.000000 0.456297 0.000000
O O5 0.250000 0.285293 0.392599
O O6 0.050461 0.244466 0.246171
O O7 0.036936 0.327300 0.270588
O O8 0.000000 0.278248 0.500000
O O9 0.750000 0.797605 0.895061
O O10 0.543904 0.838922 0.762377
O O11 0.500000 0.794306 0.000000
O O12 0.250000 0.872360 0.394213
O O13 0.049475 0.921502 0.280705
O O14 0.000000 0.869450 0.500000
O O15 0.750000 0.355213 0.887555
O O16 0.500000 0.355935 0.000000
O O17 0.750000 0.054066 0.901908
O O18 0.948061 0.000000 0.812321
O O19 0.000000 0.063364 0.000000
#
# Coordination Sequence:
#
# PCOD8213020 Si02
#       6
#     8   8   8   8   8   8
#     4   8  13  22  38  61  88 116 146 184 229 272
#     4  10  21  35  50  70  96 125 158 194 233 280
#     4  10  21  36  54  76  99 124 158 198 238 283
#     4  10  21  35  51  74 103 132 163 199 239 285
#     4   9  17  29  46  69  94 120 154 193 232 278
#     4   9  18  33  52  74 100 130 166 206 244 284
#
# _framework density 17.862054000000001
#
# number of rings (size 3 to 8) (size 9 to 14) (size 15 to 20)
#    0.000    2.667    0.000    1.500    0.000    3.000 
#    0.000    0.000    0.000    0.500    0.000    0.000 
#    0.000    0.000    0.000    0.000    0.000    0.000 
#
# Total GULP energy -594858.237131 kJ/mol
# GULP energy per Si atom -12392.879940 kJ/mol
# Density = 1.782140 g / cm^3
# Si number density = 17.862054 Si / 1000 Ang^3
#
#
#
# Elastic Constant Matrix: (Units=GPa)
#
#
# Indices 1 2 3 4 5 6 
#
# 1 56.4487 46.0427 61.5469 0.0000 0.0000 0.0000
# 2 46.0427 148.1848 71.0822 0.0000 0.0000 0.0000
# 3 61.5469 71.0822 121.9749 0.0000 0.0000 0.0000
# 4 0.0000 0.0000 0.0000 0.9005 0.0000 0.0000
# 5 0.0000 0.0000 0.0000 0.0000 34.3517 0.0000
# 6 0.0000 0.0000 0.0000 0.0000 0.0000 14.6149
#
#
#
# Elastic Compliance Matrix: (Units=1/GPa)
#
#
# Indices 1 2 3 4 5 6 
#
# 1 0.040945 -0.003903 -0.018386 0.000000 0.000000 0.000000
# 2 -0.003903 0.009739 -0.003706 0.000000 0.000000 0.000000
# 3 -0.018386 -0.003706 0.019636 0.000000 0.000000 0.000000
# 4 0.000000 0.000000 0.000000 1.110481 0.000000 0.000000
# 5 0.000000 0.000000 0.000000 0.000000 0.029111 0.000000
# 6 0.000000 0.000000 0.000000 0.000000 0.000000 0.068423
#
#
# Mechanical properties :
#
#
# Convention : Reuss Voigt Hill
#
# Bulk Modulus (GPa) = 54.55617 75.99465 65.27541
# Shear Modulus (GPa) = 3.74130 19.83587 11.78859
#
# Velocity S-wave (km/s) = 1.44883 3.33604 2.57179
# Velocity P-wave (km/s) = 5.77998 7.58133 6.74109
#
# Compressibility (1/GPa) = 0.01832973
#
# Stress axis : x y z
#
# Youngs Moduli (GPa) = 24.42309 102.68331 50.92809
#
# Poissons Ratio (x) = 0.40073 0.93636
# Poissons Ratio (y) = 0.09531 0.18875
# Poissons Ratio (z) = 0.44904 0.38056
#
# Static dielectric constant tensor:
#      x y z
#    x 3.303590 0.000000 0.000000 
#    y 0.000000 4.009130 0.000000 
#    z 0.000000 0.000000 2.972710 
# 
# 
# High freq. dielectric constant tensor:
#      x y z
#    x 1.690160 0.000000 0.000000 
#    y 0.000000 1.724540 0.000000 
#    z 0.000000 0.000000 1.654850 
# 
# From -- ./inp_files/6034.got.cif
#   From: 2010.03.12/outbox.cif.g09.slc.cpg/sg51_4_cif.got.tgz:6034.got - 2010.04.16 13:43:02.
