data_PCOD8213694
_publ_section_title
;
Structure prediction by ZEFSAII (Michael W. Deem and Ramdas Pophale) SiO2 
 PCOD8213694
Probable space group: P M M A
;
_chemical_formula_sum "Si O2"
_cell_formula_units_Z 40
_cell_length_a 14.462763
_cell_length_b 9.191644
_cell_length_c 14.778997
_cell_angle_alpha 90.000000
_cell_angle_beta 90.000000
_cell_angle_gamma 90.000000
_cell_volume 1964.669151
_symmetry_space_group_name_H-M "P M M A"
_symmetry_group_IT_number 51
_symmetry_cell_setting 'orthorhombic'
loop_
_space_group_symop_operation_xyz
x,y,z
1/2-x,-y,z
1/2+x,-y,-z
-x,y,-z
-x,-y,-z
1/2+x,y,-z
1/2-x,y,z
x,-y,z
loop_
_atom_site_type_symbol
_atom_site_label
_atom_site_fract_x
_atom_site_fract_y
_atom_site_fract_z
Si Si1 0.644867 0.332543 0.742277
Si Si2 0.360140 0.335828 0.909248
Si Si3 0.012128 0.331488 0.603190
Si Si4 0.360187 0.164026 0.082262
Si Si5 0.141347 0.167954 0.732054
O O1 0.750000 0.288422 0.718242
O O2 0.639331 0.500000 0.772301
O O3 0.584167 0.300331 0.654048
O O4 0.605160 0.238528 0.825438
O O5 0.250000 0.335548 0.912058
O O6 0.398794 0.500000 0.907564
O O7 0.395676 0.252958 0.820175
O O8 0.400242 0.252883 0.996864
O O9 0.041053 0.500000 0.611040
O O10 0.093550 0.234231 0.643856
O O11 0.000000 0.283510 0.500000
O O12 0.250000 0.166553 0.079154
O O13 0.398192 0.000000 0.078111
O O14 0.250000 0.189101 0.719438
O O15 0.114659 0.000000 0.743439
#
# Coordination Sequence:
#
# PCOD8213694 Si02
#       5
#     8   8   8   8   8
#     4   9  18  34  55  79 109 144 181 222 270 325
#     4   9  16  28  50  79 110 145 182 220 265 318
#     4  10  22  39  59  83 109 140 182 232 282 329
#     4   9  16  27  47  77 111 145 180 218 263 318
#     4  10  21  37  57  82 113 148 184 224 272 325
#
# _framework density 20.359660999999999
#
# number of rings (size 3 to 8) (size 9 to 14) (size 15 to 20)
#    0.000    2.600    0.000    1.800    0.000    8.000 
#    0.000    3.000    0.000    8.400    0.000    0.000 
#    0.000    0.000    0.000    0.000    0.000    0.000 
#
# Total GULP energy -496135.320413 kJ/mol
# GULP energy per Si atom -12403.383010 kJ/mol
# Density = 2.031332 g / cm^3
# Si number density = 20.359661 Si / 1000 Ang^3
#
#
#
# Elastic Constant Matrix: (Units=GPa)
#
#
# Indices 1 2 3 4 5 6 
#
# 1 43.7234 43.9067 45.5546 0.0000 0.0000 0.0000
# 2 43.9067 156.9779 101.3388 0.0000 0.0000 0.0000
# 3 45.5546 101.3388 195.0078 0.0000 0.0000 0.0000
# 4 0.0000 0.0000 0.0000 20.0813 0.0000 0.0000
# 5 0.0000 0.0000 0.0000 0.0000 -17.1384 0.0000
# 6 0.0000 0.0000 0.0000 0.0000 0.0000 22.3236
#
#
#
# Elastic Compliance Matrix: (Units=1/GPa)
#
#
# Indices 1 2 3 4 5 6 
#
# 1 0.034297 -0.006652 -0.004555 0.000000 0.000000 0.000000
# 2 -0.006652 0.010877 -0.004098 0.000000 0.000000 0.000000
# 3 -0.004555 -0.004098 0.008322 0.000000 0.000000 0.000000
# 4 0.000000 0.000000 0.000000 0.049798 0.000000 0.000000
# 5 0.000000 0.000000 0.000000 0.000000 -0.058349 0.000000
# 6 0.000000 0.000000 0.000000 0.000000 0.000000 0.044796
#
#
# Mechanical properties :
#
#
# Convention : Reuss Voigt Hill
#
# Bulk Modulus (GPa) = 43.69793 86.36771 65.03282
# Shear Modulus (GPa) = 39.06891 18.71390 28.89141
#
# Velocity S-wave (km/s) = 4.38532 3.03506 3.77112
# Velocity P-wave (km/s) = 6.86666 7.40238 7.13954
#
# Compressibility (1/GPa) = 0.02288438
#
# Stress axis : x y z
#
# Youngs Moduli (GPa) = 29.15709 91.94024 120.16741
#
# Poissons Ratio (x) = 0.61162 0.54735
# Poissons Ratio (y) = 0.19396 0.49247
# Poissons Ratio (z) = 0.13281 0.37679
#
# Static dielectric constant tensor:
#      x y z
#    x 3.425230 0.000000 0.000000 
#    y 0.000000 3.798740 0.000000 
#    z 0.000000 0.000000 3.679670 
# 
# 
# High freq. dielectric constant tensor:
#      x y z
#    x 1.783660 0.000000 0.000000 
#    y 0.000000 1.799000 0.000000 
#    z 0.000000 0.000000 1.791570 
# 
# From -- ./inp_files/17087.got.cif
#   From: 2010.03.12/outbox.cif.g09.slc.cpg/sg51_9_cif.got.tgz:17087.got - 2010.04.16 13:43:02.
