data_PCOD8213828
_publ_section_title
;
Structure prediction by ZEFSAII (Michael W. Deem and Ramdas Pophale) SiO2 
 PCOD8213828
Probable space group: P M M A
;
_chemical_formula_sum "Si O2"
_cell_formula_units_Z 52
_cell_length_a 8.974048
_cell_length_b 19.824565
_cell_length_c 15.152300
_cell_angle_alpha 90.000000
_cell_angle_beta 90.000000
_cell_angle_gamma 90.000000
_cell_volume 2695.694143
_symmetry_space_group_name_H-M "P M M A"
_symmetry_group_IT_number 51
_symmetry_cell_setting 'orthorhombic'
loop_
_space_group_symop_operation_xyz
x,y,z
1/2-x,-y,z
1/2+x,-y,-z
-x,y,-z
-x,-y,-z
1/2+x,y,-z
1/2-x,y,z
x,-y,z
loop_
_atom_site_type_symbol
_atom_site_label
_atom_site_fract_x
_atom_site_fract_y
_atom_site_fract_z
Si Si1 0.576067 0.000000 0.591913
Si Si2 0.925717 0.310171 0.778288
Si Si3 0.925886 0.423375 0.908460
Si Si4 0.424969 0.802365 0.087134
Si Si5 0.084910 0.922569 0.844695
Si Si6 0.571541 0.738074 0.591289
Si Si7 0.082930 0.127565 0.655480
O O1 0.500000 0.000000 0.500000
O O2 0.523357 0.935021 0.642337
O O3 0.750000 0.000000 0.581350
O O4 0.750000 0.312842 0.780018
O O5 0.987706 0.376407 0.828789
O O6 0.978413 0.242526 0.829166
O O7 0.976000 0.308858 0.675053
O O8 0.750000 0.415012 0.920254
O O9 0.970194 0.500000 0.884668
O O10 0.000000 0.400555 0.000000
O O11 0.250000 0.798496 0.075584
O O12 0.472084 0.881321 0.093461
O O13 0.500000 0.770749 0.000000
O O14 0.250000 0.925723 0.887344
O O15 0.096136 0.873497 0.760214
O O16 0.029081 0.000000 0.827789
O O17 0.500000 0.709536 0.500000
O O18 0.750000 0.743496 0.581655
O O19 0.500833 0.810329 0.611274
O O20 0.250000 0.121585 0.613670
#
# Coordination Sequence:
#
# PCOD8213828 Si02
#       7
#     4   8   8   8   8   8   8
#     4  12  24  36  52  74 101 134 175 222 282 344
#     4   9  19  35  56  82 114 147 184 227 271 326
#     4   9  17  32  56  87 121 155 187 222 268 323
#     4  11  22  37  56  80 107 140 181 226 275 327
#     4  10  21  38  57  76 101 134 176 226 276 330
#     4  11  22  38  56  79 108 142 184 229 277 329
#     4  11  21  37  56  77 103 133 175 227 283 337
#
# _framework density 19.290023000000001
#
# number of rings (size 3 to 8) (size 9 to 14) (size 15 to 20)
#    0.000    1.692    2.308    3.000    0.000    1.231 
#    0.000    2.308    0.000    0.462    0.000    0.000 
#    0.000    0.000    0.000    0.000    0.000    0.154 
#
# Total GULP energy -644291.662990 kJ/mol
# GULP energy per Si atom -12390.224288 kJ/mol
# Density = 1.924612 g / cm^3
# Si number density = 19.290023 Si / 1000 Ang^3
#
#
#
# Elastic Constant Matrix: (Units=GPa)
#
#
# Indices 1 2 3 4 5 6 
#
# 1 94.5846 32.4803 43.7172 0.0000 0.0000 0.0000
# 2 32.4803 105.2663 59.4311 0.0000 0.0000 0.0000
# 3 43.7172 59.4311 138.6514 0.0000 0.0000 0.0000
# 4 0.0000 0.0000 0.0000 27.7140 0.0000 0.0000
# 5 0.0000 0.0000 0.0000 0.0000 29.5288 0.0000
# 6 0.0000 0.0000 0.0000 0.0000 0.0000 13.7176
#
#
#
# Elastic Compliance Matrix: (Units=1/GPa)
#
#
# Indices 1 2 3 4 5 6 
#
# 1 0.012750 -0.002196 -0.003079 0.000000 0.000000 0.000000
# 2 -0.002196 0.012911 -0.004842 0.000000 0.000000 0.000000
# 3 -0.003079 -0.004842 0.010258 0.000000 0.000000 0.000000
# 4 0.000000 0.000000 0.000000 0.036083 0.000000 0.000000
# 5 0.000000 0.000000 0.000000 0.000000 0.033865 0.000000
# 6 0.000000 0.000000 0.000000 0.000000 0.000000 0.072899
#
#
# Mechanical properties :
#
#
# Convention : Reuss Voigt Hill
#
# Bulk Modulus (GPa) = 63.74993 67.75106 65.75050
# Shear Modulus (GPa) = 24.48253 27.71699 26.09976
#
# Velocity S-wave (km/s) = 3.56642 3.79470 3.68233
# Velocity P-wave (km/s) = 7.07665 7.37552 7.22763
#
# Compressibility (1/GPa) = 0.01568629
#
# Stress axis : x y z
#
# Youngs Moduli (GPa) = 78.43384 77.45495 97.48084
#
# Poissons Ratio (x) = 0.17007 0.30013
# Poissons Ratio (y) = 0.17222 0.47197
# Poissons Ratio (z) = 0.24148 0.37501
#
# Static dielectric constant tensor:
#      x y z
#    x 3.434920 0.000000 0.000000 
#    y 0.000000 3.468310 0.000000 
#    z 0.000000 0.000000 3.852280 
# 
# 
# High freq. dielectric constant tensor:
#      x y z
#    x 1.743790 0.000000 0.000000 
#    y 0.000000 1.728060 0.000000 
#    z 0.000000 0.000000 1.754030 
# 
# From -- ./inp_files/21593.got.cif
#   From: 2010.03.12/outbox.cif.g09.slc.cpg/sg51_11_cif.got.tgz:21593.got - 2010.04.16 13:43:02.
