data_PCOD8213571
_publ_section_title
;
Structure prediction by ZEFSAII (Michael W. Deem and Ramdas Pophale) SiO2 
 PCOD8213571
Probable space group: P M M A
;
_chemical_formula_sum "Si O2"
_cell_formula_units_Z 64
_cell_length_a 8.979496
_cell_length_b 28.429345
_cell_length_c 13.784745
_cell_angle_alpha 90.000000
_cell_angle_beta 90.000000
_cell_angle_gamma 90.000000
_cell_volume 3518.986103
_symmetry_space_group_name_H-M "P M M A"
_symmetry_group_IT_number 51
_symmetry_cell_setting 'orthorhombic'
loop_
_space_group_symop_operation_xyz
x,y,z
1/2-x,-y,z
1/2+x,-y,-z
-x,y,-z
-x,-y,-z
1/2+x,y,-z
1/2-x,y,z
x,-y,z
loop_
_atom_site_type_symbol
_atom_site_label
_atom_site_fract_x
_atom_site_fract_y
_atom_site_fract_z
Si Si1 0.924364 0.052901 0.099319
Si Si2 0.577807 0.273671 0.294765
Si Si3 0.416847 0.555847 0.906252
Si Si4 0.575149 0.860932 0.225119
Si Si5 0.075698 0.445503 0.289329
Si Si6 0.921570 0.772645 0.100021
Si Si7 0.572934 0.810858 0.602649
Si Si8 0.423292 0.633080 0.597336
O O1 0.750000 0.056060 0.080605
O O2 0.970784 0.087522 0.186641
O O3 0.974089 0.000000 0.127948
O O4 0.000000 0.069380 0.000000
O O5 0.750000 0.259392 0.313021
O O6 0.536564 0.266186 0.181767
O O7 0.477768 0.240785 0.362902
O O8 0.548805 0.327956 0.320010
O O9 0.250000 0.576695 0.900382
O O10 0.410349 0.500000 0.914213
O O11 0.507655 0.571580 0.812213
O O12 0.500000 0.576998 0.000000
O O13 0.750000 0.857164 0.250067
O O14 0.532230 0.823666 0.141274
O O15 0.481518 0.850501 0.321620
O O16 0.250000 0.435465 0.287167
O O17 0.040293 0.500000 0.309281
O O18 0.999014 0.416020 0.374083
O O19 0.750000 0.771371 0.074846
O O20 0.000000 0.760196 0.000000
O O21 0.500000 0.823037 0.500000
O O22 0.750000 0.812079 0.593698
O O23 0.500000 0.651907 0.500000
O O24 0.250000 0.624122 0.578791
#
# Coordination Sequence:
#
# PCOD8213571 Si02
#       8
#     8   8   8   8   8   8   8   8
#     4   9  17  29  47  72 103 140 179 220 266 313
#     4   9  20  38  56  77 106 137 169 207 251 300
#     4   9  16  28  49  76 104 133 165 202 244 288
#     4   9  18  32  48  70 104 140 175 218 263 307
#     4  10  21  37  56  79 107 137 171 211 253 300
#     4   9  17  30  49  74 105 138 169 204 247 296
#     4  11  21  33  53  78 102 130 167 212 261 312
#     4  11  23  39  59  79 102 133 169 210 256 307
#
# _framework density 18.187055999999998
#
# number of rings (size 3 to 8) (size 9 to 14) (size 15 to 20)
#    0.000    2.375    0.000    3.750    0.000    7.000 
#    0.000    0.625    0.000    1.875    0.000    0.000 
#    0.000    0.000    0.000    0.000    0.000    0.000 
#
# Total GULP energy -793651.016031 kJ/mol
# GULP energy per Si atom -12400.797125 kJ/mol
# Density = 1.814566 g / cm^3
# Si number density = 18.187056 Si / 1000 Ang^3
#
#
#
# Elastic Constant Matrix: (Units=GPa)
#
#
# Indices 1 2 3 4 5 6 
#
# 1 107.9964 47.9959 64.3193 0.0000 0.0000 0.0000
# 2 47.9959 85.8003 55.1367 0.0000 0.0000 0.0000
# 3 64.3193 55.1367 133.8376 0.0000 0.0000 0.0000
# 4 0.0000 0.0000 0.0000 21.0283 0.0000 0.0000
# 5 0.0000 0.0000 0.0000 0.0000 37.4023 0.0000
# 6 0.0000 0.0000 0.0000 0.0000 0.0000 19.6178
#
#
#
# Elastic Compliance Matrix: (Units=1/GPa)
#
#
# Indices 1 2 3 4 5 6 
#
# 1 0.014335 -0.004885 -0.004877 0.000000 0.000000 0.000000
# 2 -0.004885 0.017516 -0.004868 0.000000 0.000000 0.000000
# 3 -0.004877 -0.004868 0.011821 0.000000 0.000000 0.000000
# 4 0.000000 0.000000 0.000000 0.047555 0.000000 0.000000
# 5 0.000000 0.000000 0.000000 0.000000 0.026736 0.000000
# 6 0.000000 0.000000 0.000000 0.000000 0.000000 0.050974
#
#
# Mechanical properties :
#
#
# Convention : Reuss Voigt Hill
#
# Bulk Modulus (GPa) = 69.38703 73.61537 71.50120
# Shear Modulus (GPa) = 24.63035 26.28849 25.45942
#
# Velocity S-wave (km/s) = 3.68405 3.80603 3.74554
# Velocity P-wave (km/s) = 7.50540 7.73816 7.62267
#
# Compressibility (1/GPa) = 0.01441191
#
# Stress axis : x y z
#
# Youngs Moduli (GPa) = 69.75973 57.09012 84.59573
#
# Poissons Ratio (x) = 0.27889 0.41253
# Poissons Ratio (y) = 0.34078 0.41185
# Poissons Ratio (z) = 0.34019 0.27794
#
# Static dielectric constant tensor:
#      x y z
#    x 3.426860 0.000000 0.000000 
#    y 0.000000 3.252640 0.000000 
#    z 0.000000 0.000000 3.401160 
# 
# 
# High freq. dielectric constant tensor:
#      x y z
#    x 1.709260 0.000000 0.000000 
#    y 0.000000 1.684050 0.000000 
#    z 0.000000 0.000000 1.704870 
# 
# From -- ./inp_files/14867.got.cif
#   From: 2010.03.12/outbox.cif.g09.slc.cpg/sg51_8_cif.got.tgz:14867.got - 2010.04.16 13:43:02.
