data_PCOD8213410
_publ_section_title
;
Structure prediction by ZEFSAII (Michael W. Deem and Ramdas Pophale) SiO2 
 PCOD8213410
Probable space group: P M M A
;
_chemical_formula_sum "Si O2"
_cell_formula_units_Z 48
_cell_length_a 8.940083
_cell_length_b 9.198514
_cell_length_c 30.591025
_cell_angle_alpha 90.000000
_cell_angle_beta 90.000000
_cell_angle_gamma 90.000000
_cell_volume 2515.667583
_symmetry_space_group_name_H-M "P M M A"
_symmetry_group_IT_number 51
_symmetry_cell_setting 'orthorhombic'
loop_
_space_group_symop_operation_xyz
x,y,z
1/2-x,-y,z
1/2+x,-y,-z
-x,y,-z
-x,-y,-z
1/2+x,y,-z
1/2-x,y,z
x,-y,z
loop_
_atom_site_type_symbol
_atom_site_label
_atom_site_fract_x
_atom_site_fract_y
_atom_site_fract_z
Si Si1 0.574361 0.666844 0.044935
Si Si2 0.421822 0.667752 0.290983
Si Si3 0.574424 0.334083 0.455406
Si Si4 0.922282 0.829533 0.622238
Si Si5 0.423317 0.669498 0.798207
Si Si6 0.577130 0.829208 0.876440
O O1 0.750000 0.687665 0.040337
O O2 0.531668 0.500000 0.055123
O O3 0.516240 0.766329 0.083616
O O4 0.500000 0.719466 0.000000
O O5 0.250000 0.701381 0.278700
O O6 0.443767 0.500000 0.303565
O O7 0.475958 0.761917 0.332015
O O8 0.525092 0.711926 0.250354
O O9 0.500000 0.277535 0.500000
O O10 0.750000 0.319092 0.461018
O O11 0.525873 0.500000 0.445814
O O12 0.522235 0.233664 0.416121
O O13 0.750000 0.788773 0.613283
O O14 0.948147 0.000000 0.624752
O O15 0.250000 0.709370 0.803884
O O16 0.452453 0.500000 0.807414
O O17 0.520897 0.761454 0.831501
O O18 0.750000 0.789146 0.883054
O O19 0.550487 0.000000 0.874396
#
# Coordination Sequence:
#
# PCOD8213410 Si02
#       6
#     8   8   8   8   8   8
#     4  10  21  38  61  87 113 144 184 228 274 325
#     4   9  18  34  56  80 108 145 186 226 268 317
#     4  10  21  37  58  82 107 139 181 227 273 322
#     4  10  21  36  55  81 113 147 181 220 269 324
#     4  10  21  37  58  84 112 143 182 228 276 326
#     4  11  24  39  56  81 113 149 187 227 274 327
#
# _framework density 19.080421999999999
#
# number of rings (size 3 to 8) (size 9 to 14) (size 15 to 20)
#    0.000    2.000    0.000    3.000    0.000    9.333 
#    0.000    3.333    0.000    0.000    0.000    0.000 
#    0.000    0.000    0.000    0.000    0.000    0.000 
#
# Total GULP energy -595471.969228 kJ/mol
# GULP energy per Si atom -12405.666026 kJ/mol
# Density = 1.903699 g / cm^3
# Si number density = 19.080422 Si / 1000 Ang^3
#
#
#
# Elastic Constant Matrix: (Units=GPa)
#
#
# Indices 1 2 3 4 5 6 
#
# 1 70.7526 39.8960 46.0396 0.0000 0.0000 0.0000
# 2 39.8960 74.3167 60.4594 0.0000 0.0000 0.0000
# 3 46.0396 60.4594 129.3663 0.0000 0.0000 0.0000
# 4 0.0000 0.0000 0.0000 -36.5896 0.0000 0.0000
# 5 0.0000 0.0000 0.0000 0.0000 40.0672 0.0000
# 6 0.0000 0.0000 0.0000 0.0000 0.0000 28.1889
#
#
#
# Elastic Compliance Matrix: (Units=1/GPa)
#
#
# Indices 1 2 3 4 5 6 
#
# 1 0.021261 -0.008484 -0.003602 0.000000 0.000000 0.000000
# 2 -0.008484 0.025096 -0.008709 0.000000 0.000000 0.000000
# 3 -0.003602 -0.008709 0.013082 0.000000 0.000000 0.000000
# 4 0.000000 0.000000 0.000000 -0.027330 0.000000 0.000000
# 5 0.000000 0.000000 0.000000 0.000000 0.024958 0.000000
# 6 0.000000 0.000000 0.000000 0.000000 0.000000 0.035475
#
#
# Mechanical properties :
#
#
# Convention : Reuss Voigt Hill
#
# Bulk Modulus (GPa) = 56.02367 63.02508 59.52437
# Shear Modulus (GPa) = 35.69372 14.86933 25.28153
#
# Velocity S-wave (km/s) = 4.32985 2.79462 3.64400
# Velocity P-wave (km/s) = 7.37715 6.59668 6.99781
#
# Compressibility (1/GPa) = 0.01784960
#
# Stress axis : x y z
#
# Youngs Moduli (GPa) = 47.03401 39.84774 76.44089
#
# Poissons Ratio (x) = 0.33806 0.27532
# Poissons Ratio (y) = 0.39902 0.66574
# Poissons Ratio (z) = 0.16940 0.34704
#
# Static dielectric constant tensor:
#      x y z
#    x 3.558370 0.000000 0.000000 
#    y 0.000000 3.468790 0.000000 
#    z 0.000000 0.000000 3.614130 
# 
# 
# High freq. dielectric constant tensor:
#      x y z
#    x 1.748800 0.000000 0.000000 
#    y 0.000000 1.736810 0.000000 
#    z 0.000000 0.000000 1.754790 
# 
# From -- ./inp_files/36957.got.cif
#   From: 2010.03.12/outbox.cif.g09.slc.cpg/sg51_19_cif.got.tgz:36957.got - 2010.04.16 13:43:02.
