data_PCOD8213066
_publ_section_title
;
Structure prediction by ZEFSAII (Michael W. Deem and Ramdas Pophale) SiO2 
 PCOD8213066
Probable space group: P M M A
;
_chemical_formula_sum "Si O2"
_cell_formula_units_Z 48
_cell_length_a 9.604005
_cell_length_b 30.322144
_cell_length_c 9.321952
_cell_angle_alpha 90.000000
_cell_angle_beta 90.000000
_cell_angle_gamma 90.000000
_cell_volume 2714.683140
_symmetry_space_group_name_H-M "P M M A"
_symmetry_group_IT_number 51
_symmetry_cell_setting 'orthorhombic'
loop_
_space_group_symop_operation_xyz
x,y,z
1/2-x,-y,z
1/2+x,-y,-z
-x,y,-z
-x,-y,-z
1/2+x,y,-z
1/2-x,y,z
x,-y,z
loop_
_atom_site_type_symbol
_atom_site_label
_atom_site_fract_x
_atom_site_fract_y
_atom_site_fract_z
Si Si1 0.088115 0.375529 0.644018
Si Si2 0.587647 0.296225 0.144457
Si Si3 0.410874 0.550568 0.864182
Si Si4 0.910637 0.778908 0.361054
Si Si5 0.410765 0.120820 0.636355
Si Si6 0.590717 0.951000 0.139013
O O1 0.250000 0.373331 0.601509
O O2 0.047883 0.336182 0.750872
O O3 0.050785 0.421161 0.724079
O O4 0.000000 0.371707 0.500000
O O5 0.750000 0.297593 0.103134
O O6 0.547560 0.251144 0.226205
O O7 0.500000 0.299796 0.000000
O O8 0.250000 0.557304 0.906101
O O9 0.445534 0.500000 0.826456
O O10 0.500000 0.566906 0.000000
O O11 0.750000 0.771269 0.403453
O O12 0.939276 0.829151 0.312715
O O13 0.000000 0.765751 0.500000
O O14 0.500000 0.108848 0.500000
O O15 0.250000 0.113578 0.597709
O O16 0.462403 0.086621 0.754800
O O17 0.750000 0.942656 0.095772
O O18 0.572049 0.000000 0.206879
O O19 0.500000 0.945923 0.000000
#
# Coordination Sequence:
#
# PCOD8213066 Si02
#       6
#     8   8   8   8   8   8
#     4  10  21  35  51  73 100 129 162 200 240 283
#     4  10  21  35  51  73  99 126 159 198 238 282
#     4   9  18  33  52  74 100 129 162 200 240 283
#     4   9  18  33  51  71  96 125 157 193 234 281
#     4   9  18  32  49  70  96 124 155 193 235 279
#     4   9  18  32  48  67  93 124 157 194 235 278
#
# _framework density 17.681619999999999
#
# number of rings (size 3 to 8) (size 9 to 14) (size 15 to 20)
#    0.000    2.667    0.000    1.000    0.000    4.000 
#    0.000    0.000    0.000    0.000    0.000    0.000 
#    0.000    0.000    0.000    0.000    0.000    0.000 
#
# Total GULP energy -595224.743517 kJ/mol
# GULP energy per Si atom -12400.515490 kJ/mol
# Density = 1.764138 g / cm^3
# Si number density = 17.681620 Si / 1000 Ang^3
#
#
#
# Elastic Constant Matrix: (Units=GPa)
#
#
# Indices 1 2 3 4 5 6 
#
# 1 64.9483 52.0574 72.1061 0.0000 0.0000 0.0000
# 2 52.0574 118.6720 87.1815 0.0000 0.0000 0.0000
# 3 72.1061 87.1815 144.0978 0.0000 0.0000 0.0000
# 4 0.0000 0.0000 0.0000 27.4306 0.0000 0.0000
# 5 0.0000 0.0000 0.0000 0.0000 38.4932 0.0000
# 6 0.0000 0.0000 0.0000 0.0000 0.0000 22.6061
#
#
#
# Elastic Compliance Matrix: (Units=1/GPa)
#
#
# Indices 1 2 3 4 5 6 
#
# 1 0.035987 -0.004603 -0.015223 0.000000 0.000000 0.000000
# 2 -0.004603 0.015757 -0.007230 0.000000 0.000000 0.000000
# 3 -0.015223 -0.007230 0.018932 0.000000 0.000000 0.000000
# 4 0.000000 0.000000 0.000000 0.036456 0.000000 0.000000
# 5 0.000000 0.000000 0.000000 0.000000 0.025979 0.000000
# 6 0.000000 0.000000 0.000000 0.000000 0.000000 0.044236
#
#
# Mechanical properties :
#
#
# Convention : Reuss Voigt Hill
#
# Bulk Modulus (GPa) = 60.37243 83.37869 71.87556
# Shear Modulus (GPa) = 21.09897 25.46420 23.28159
#
# Velocity S-wave (km/s) = 3.45812 3.79905 3.63259
# Velocity P-wave (km/s) = 7.08259 8.15485 7.63756
#
# Compressibility (1/GPa) = 0.01656385
#
# Stress axis : x y z
#
# Youngs Moduli (GPa) = 27.78811 63.46277 52.82180
#
# Poissons Ratio (x) = 0.29210 0.80410
# Poissons Ratio (y) = 0.12790 0.38191
# Poissons Ratio (z) = 0.42301 0.45885
#
# Static dielectric constant tensor:
#      x y z
#    x 3.264270 0.000000 0.000000 
#    y 0.000000 3.594170 0.000000 
#    z 0.000000 0.000000 3.117080 
# 
# 
# High freq. dielectric constant tensor:
#      x y z
#    x 1.682370 0.000000 0.000000 
#    y 0.000000 1.701550 0.000000 
#    z 0.000000 0.000000 1.671260 
# 
# From -- ./inp_files/5950.got.cif
#   From: 2010.03.12/outbox.cif.g09.slc.cpg/sg51_3_cif.got.tgz:5950.got - 2010.04.16 13:43:02.
