data_PCOD8213745
_publ_section_title
;
Structure prediction by ZEFSAII (Michael W. Deem and Ramdas Pophale) SiO2 
 PCOD8213745
Probable space group: P M M A
;
_chemical_formula_sum "Si O2"
_cell_formula_units_Z 48
_cell_length_a 28.593292
_cell_length_b 8.881214
_cell_length_c 9.898377
_cell_angle_alpha 90.000000
_cell_angle_beta 90.000000
_cell_angle_gamma 90.000000
_cell_volume 2513.624988
_symmetry_space_group_name_H-M "P M M A"
_symmetry_group_IT_number 51
_symmetry_cell_setting 'orthorhombic'
loop_
_space_group_symop_operation_xyz
x,y,z
1/2-x,-y,z
1/2+x,-y,-z
-x,y,-z
-x,-y,-z
1/2+x,y,-z
1/2-x,y,z
x,-y,z
loop_
_atom_site_type_symbol
_atom_site_label
_atom_site_fract_x
_atom_site_fract_y
_atom_site_fract_z
Si Si1 0.694992 0.171619 0.276971
Si Si2 0.622304 0.322017 0.782732
Si Si3 0.981407 0.327190 0.850254
Si Si4 0.803578 0.677681 0.998729
Si Si5 0.035263 0.176079 0.617475
Si Si6 0.371776 0.321468 0.521568
O O1 0.750000 0.184593 0.294335
O O2 0.673582 0.259564 0.403153
O O3 0.677598 0.000000 0.277793
O O4 0.679022 0.245579 0.136358
O O5 0.626135 0.500000 0.778480
O O6 0.572258 0.271869 0.842283
O O7 0.663715 0.259314 0.878306
O O8 0.628329 0.257223 0.631472
O O9 0.985496 0.500000 0.800234
O O10 0.012983 0.219942 0.759543
O O11 0.000000 0.308759 0.000000
O O12 0.750000 0.721240 0.964646
O O13 0.809289 0.500000 0.017948
O O14 0.082804 0.266804 0.600822
O O15 0.000000 0.225340 0.500000
O O16 0.046306 0.000000 0.613668
O O17 0.370649 0.500000 0.522357
#
# Coordination Sequence:
#
# PCOD8213745 Si02
#       6
#     8   8   8   8   8   8
#     4  10  22  40  59  84 119 153 188 233 285 343
#     4   9  19  35  55  84 115 145 188 240 288 334
#     4  10  21  37  58  84 114 151 195 239 284 339
#     4   9  18  35  59  85 113 147 188 234 284 341
#     4  11  23  39  58  83 118 156 192 232 284 341
#     4  11  22  37  61  87 114 151 194 238 285 338
#
# _framework density 19.095927
#
# number of rings (size 3 to 8) (size 9 to 14) (size 15 to 20)
#    0.000    2.000    1.667    1.500    2.333    2.667 
#    0.000    4.167    0.000    2.000    0.000    0.000 
#    0.000    0.000    0.000    0.000    0.000    0.000 
#
# Total GULP energy -595375.556114 kJ/mol
# GULP energy per Si atom -12403.657419 kJ/mol
# Density = 1.905246 g / cm^3
# Si number density = 19.095927 Si / 1000 Ang^3
#
#
#
# Elastic Constant Matrix: (Units=GPa)
#
#
# Indices 1 2 3 4 5 6 
#
# 1 95.2375 29.2431 71.8897 0.0000 0.0000 0.0000
# 2 29.2431 58.4422 36.1687 0.0000 0.0000 0.0000
# 3 71.8897 36.1687 134.7281 0.0000 0.0000 0.0000
# 4 0.0000 0.0000 0.0000 1.5698 0.0000 0.0000
# 5 0.0000 0.0000 0.0000 0.0000 41.9221 0.0000
# 6 0.0000 0.0000 0.0000 0.0000 0.0000 24.1000
#
#
#
# Elastic Compliance Matrix: (Units=1/GPa)
#
#
# Indices 1 2 3 4 5 6 
#
# 1 0.018232 -0.003720 -0.008730 0.000000 0.000000 0.000000
# 2 -0.003720 0.021279 -0.003728 0.000000 0.000000 0.000000
# 3 -0.008730 -0.003728 0.013081 0.000000 0.000000 0.000000
# 4 0.000000 0.000000 0.000000 0.637012 0.000000 0.000000
# 5 0.000000 0.000000 0.000000 0.000000 0.023854 0.000000
# 6 0.000000 0.000000 0.000000 0.000000 0.000000 0.041494
#
#
# Mechanical properties :
#
#
# Convention : Reuss Voigt Hill
#
# Bulk Modulus (GPa) = 49.41306 62.55678 55.98492
# Shear Modulus (GPa) = 6.29681 23.59214 14.94448
#
# Velocity S-wave (km/s) = 1.81786 3.51872 2.80053
# Velocity P-wave (km/s) = 5.50805 7.02416 6.31179
#
# Compressibility (1/GPa) = 0.02023756
#
# Stress axis : x y z
#
# Youngs Moduli (GPa) = 54.84878 46.99395 76.44608
#
# Poissons Ratio (x) = 0.17483 0.66735
# Poissons Ratio (y) = 0.20405 0.28495
# Poissons Ratio (z) = 0.47881 0.17517
#
# Static dielectric constant tensor:
#      x y z
#    x 3.593890 0.000000 0.000000 
#    y 0.000000 3.360860 0.000000 
#    z 0.000000 0.000000 3.614860 
# 
# 
# High freq. dielectric constant tensor:
#      x y z
#    x 1.750390 0.000000 0.000000 
#    y 0.000000 1.726780 0.000000 
#    z 0.000000 0.000000 1.750590 
# 
# From -- ./inp_files/12752.got.cif
#   From: 2010.03.12/outbox.cif.g09.slc.cpg/sg51_7_cif.got.tgz:12752.got - 2010.04.16 13:43:02.
