data_PCOD8213059
_publ_section_title
;
Structure prediction by ZEFSAII (Michael W. Deem and Ramdas Pophale) SiO2 
 PCOD8213059
Probable space group: P M M A
;
_chemical_formula_sum "Si O2"
_cell_formula_units_Z 64
_cell_length_a 9.282786
_cell_length_b 20.332529
_cell_length_c 18.372953
_cell_angle_alpha 90.000000
_cell_angle_beta 90.000000
_cell_angle_gamma 90.000000
_cell_volume 3467.757367
_symmetry_space_group_name_H-M "P M M A"
_symmetry_group_IT_number 51
_symmetry_cell_setting 'orthorhombic'
loop_
_space_group_symop_operation_xyz
x,y,z
1/2-x,-y,z
1/2+x,-y,-z
-x,y,-z
-x,-y,-z
1/2+x,y,-z
1/2-x,y,z
x,-y,z
loop_
_atom_site_type_symbol
_atom_site_label
_atom_site_fract_x
_atom_site_fract_y
_atom_site_fract_z
Si Si1 0.587650 0.428088 0.347657
Si Si2 0.912619 0.428010 0.174672
Si Si3 0.082276 0.923366 0.844809
Si Si4 0.420993 0.814449 0.072798
Si Si5 0.417326 0.696339 0.179388
Si Si6 0.580749 0.696162 0.654479
Si Si7 0.419043 0.826312 0.426143
Si Si8 0.413993 0.924171 0.299717
O O1 0.750000 0.415357 0.374281
O O2 0.534682 0.500000 0.375739
O O3 0.579758 0.427376 0.261184
O O4 0.488390 0.370034 0.379036
O O5 0.750000 0.417151 0.147617
O O6 0.968182 0.500000 0.147105
O O7 0.007256 0.367902 0.143986
O O8 0.250000 0.903444 0.847597
O O9 0.991311 0.883723 0.904459
O O10 0.020333 0.905933 0.765577
O O11 0.060375 0.000000 0.862494
O O12 0.250000 0.822960 0.060638
O O13 0.457279 0.760868 0.134176
O O14 0.500000 0.790233 0.000000
O O15 0.250000 0.680917 0.176213
O O16 0.468653 0.708877 0.262247
O O17 0.750000 0.687620 0.650473
O O18 0.527474 0.756900 0.606036
O O19 0.500000 0.842420 0.500000
O O20 0.250000 0.825510 0.441580
O O21 0.461462 0.882890 0.369469
O O22 0.250000 0.906226 0.275979
O O23 0.426825 0.000000 0.321658
#
# Coordination Sequence:
#
# PCOD8213059 Si02
#       8
#     8   8   8   8   8   8   8   8
#     4   8  14  25  42  67  97 124 154 197 247 297
#     4   8  14  25  43  70 102 131 160 200 251 303
#     4  10  21  37  58  84 109 133 167 210 254 304
#     4  11  23  38  55  76 105 140 176 214 257 305
#     4   9  18  32  51  74  99 130 168 210 255 303
#     4   9  17  30  48  70  97 128 163 204 249 299
#     4  10  21  35  50  72 103 137 173 212 253 299
#     4   9  18  35  58  80 104 136 170 206 252 302
#
# _framework density 18.455732000000001
#
# number of rings (size 3 to 8) (size 9 to 14) (size 15 to 20)
#    0.000    2.750    0.000    2.250    0.000    5.750 
#    0.000    5.000    0.000    0.750    0.000    0.000 
#    0.000    0.000    0.000    0.000    0.000    0.000 
#
# Total GULP energy -793478.041788 kJ/mol
# GULP energy per Si atom -12398.094403 kJ/mol
# Density = 1.841373 g / cm^3
# Si number density = 18.455732 Si / 1000 Ang^3
#
#
#
# Elastic Constant Matrix: (Units=GPa)
#
#
# Indices 1 2 3 4 5 6 
#
# 1 62.7628 36.6924 21.8354 0.0000 0.0000 0.0000
# 2 36.6924 85.4064 16.4155 0.0000 0.0000 0.0000
# 3 21.8354 16.4155 39.3369 0.0000 0.0000 0.0000
# 4 0.0000 0.0000 0.0000 5.7697 0.0000 0.0000
# 5 0.0000 0.0000 0.0000 0.0000 27.3464 0.0000
# 6 0.0000 0.0000 0.0000 0.0000 0.0000 31.8562
#
#
#
# Elastic Compliance Matrix: (Units=1/GPa)
#
#
# Indices 1 2 3 4 5 6 
#
# 1 0.024415 -0.008572 -0.009975 0.000000 0.000000 0.000000
# 2 -0.008572 0.015739 -0.001810 0.000000 0.000000 0.000000
# 3 -0.009975 -0.001810 0.031714 0.000000 0.000000 0.000000
# 4 0.000000 0.000000 0.000000 0.173320 0.000000 0.000000
# 5 0.000000 0.000000 0.000000 0.000000 0.036568 0.000000
# 6 0.000000 0.000000 0.000000 0.000000 0.000000 0.031391
#
#
# Mechanical properties :
#
#
# Convention : Reuss Voigt Hill
#
# Bulk Modulus (GPa) = 32.09881 37.48808 34.79345
# Shear Modulus (GPa) = 13.72701 20.49865 17.11283
#
# Velocity S-wave (km/s) = 2.73019 3.33632 3.04836
# Velocity P-wave (km/s) = 5.23151 5.93278 5.59315
#
# Compressibility (1/GPa) = 0.03115380
#
# Stress axis : x y z
#
# Youngs Moduli (GPa) = 40.95904 63.53560 31.53192
#
# Poissons Ratio (x) = 0.54461 0.31454
# Poissons Ratio (y) = 0.35109 0.05707
# Poissons Ratio (z) = 0.40858 0.11500
#
# Static dielectric constant tensor:
#      x y z
#    x 3.408470 0.000000 0.000000 
#    y 0.000000 3.758670 0.000000 
#    z 0.000000 0.000000 3.087300 
# 
# 
# High freq. dielectric constant tensor:
#      x y z
#    x 1.711650 0.000000 0.000000 
#    y 0.000000 1.731370 0.000000 
#    z 0.000000 0.000000 1.680180 
# 
# From -- ./inp_files/28390.got.cif
#   From: 2010.03.12/outbox.cif.g09.slc.cpg/sg51_15_cif.got.tgz:28390.got - 2010.04.16 13:43:02.
