data_PCOD8213866
_publ_section_title
;
Structure prediction by ZEFSAII (Michael W. Deem and Ramdas Pophale) SiO2 
 PCOD8213866
Probable space group: P M M A
;
_chemical_formula_sum "Si O2"
_cell_formula_units_Z 64
_cell_length_a 9.068060
_cell_length_b 14.709751
_cell_length_c 24.235862
_cell_angle_alpha 90.000000
_cell_angle_beta 90.000000
_cell_angle_gamma 90.000000
_cell_volume 3232.795086
_symmetry_space_group_name_H-M "P M M A"
_symmetry_group_IT_number 51
_symmetry_cell_setting 'orthorhombic'
loop_
_space_group_symop_operation_xyz
x,y,z
1/2-x,-y,z
1/2+x,-y,-z
-x,y,-z
-x,-y,-z
1/2+x,y,-z
1/2-x,y,z
x,-y,z
loop_
_atom_site_type_symbol
_atom_site_label
_atom_site_fract_x
_atom_site_fract_y
_atom_site_fract_z
Si Si1 0.573806 0.245784 0.057199
Si Si2 0.578424 0.605670 0.657415
Si Si3 0.076580 0.101639 0.375296
Si Si4 0.078087 0.606703 0.124231
Si Si5 0.422969 0.729650 0.443347
Si Si6 0.586845 0.107972 0.267905
Si Si7 0.415938 0.392150 0.765870
Si Si8 0.074721 0.101401 0.852413
O O1 0.750000 0.251369 0.051756
O O2 0.509457 0.343171 0.075420
O O3 0.519685 0.170040 0.100798
O O4 0.500000 0.217107 0.000000
O O5 0.750000 0.622755 0.669628
O O6 0.544614 0.500000 0.647492
O O7 0.525575 0.658445 0.603048
O O8 0.488387 0.645024 0.709622
O O9 0.250000 0.100511 0.368314
O O10 0.029372 0.168670 0.424695
O O11 0.015308 0.141659 0.317817
O O12 0.016058 0.000000 0.388393
O O13 0.250000 0.631707 0.122308
O O14 0.052065 0.500000 0.115608
O O15 0.011811 0.640894 0.182317
O O16 0.500000 0.703383 0.500000
O O17 0.250000 0.723142 0.453002
O O18 0.750000 0.148799 0.277419
O O19 0.522754 0.138388 0.208030
O O20 0.594325 0.000000 0.267374
O O21 0.250000 0.353448 0.771767
O O22 0.415174 0.500000 0.763748
O O23 0.250000 0.096292 0.851483
O O24 0.011039 0.000000 0.864372
#
# Coordination Sequence:
#
# PCOD8213866 Si02
#       8
#     8   8   8   8   8   8   8   8
#     4  11  23  38  56  79 108 143 185 229 268 313
#     4   9  18  34  54  75 103 137 168 204 255 310
#     4   9  18  33  51  72 101 132 160 200 255 306
#     4  10  21  38  59  81 108 143 179 219 270 323
#     4  10  22  37  51  71  98 131 174 217 255 301
#     4   8  14  28  52  79 103 129 165 205 247 302
#     4   9  17  31  54  84 112 136 168 211 259 314
#     4   8  16  33  56  81 110 142 174 213 263 316
#
# _framework density 19.79711
#
# number of rings (size 3 to 8) (size 9 to 14) (size 15 to 20)
#    0.000    2.750    0.000    1.875    0.000    5.250 
#    0.000    3.750    0.000    2.625    0.000    0.000 
#    0.000    0.000    0.000    0.000    0.000    0.000 
#
# Total GULP energy -793480.642527 kJ/mol
# GULP energy per Si atom -12398.135039 kJ/mol
# Density = 1.975205 g / cm^3
# Si number density = 19.797110 Si / 1000 Ang^3
#
#
#
# Elastic Constant Matrix: (Units=GPa)
#
#
# Indices 1 2 3 4 5 6 
#
# 1 60.1520 14.2310 27.7911 0.0000 0.0000 0.0000
# 2 14.2310 36.6197 6.5248 0.0000 0.0000 0.0000
# 3 27.7911 6.5248 95.8286 0.0000 0.0000 0.0000
# 4 0.0000 0.0000 0.0000 32.2540 0.0000 0.0000
# 5 0.0000 0.0000 0.0000 0.0000 39.6180 0.0000
# 6 0.0000 0.0000 0.0000 0.0000 0.0000 14.1463
#
#
#
# Elastic Compliance Matrix: (Units=1/GPa)
#
#
# Indices 1 2 3 4 5 6 
#
# 1 0.020884 -0.007123 -0.005572 0.000000 0.000000 0.000000
# 2 -0.007123 0.030073 0.000018 0.000000 0.000000 0.000000
# 3 -0.005572 0.000018 0.012050 0.000000 0.000000 0.000000
# 4 0.000000 0.000000 0.000000 0.031004 0.000000 0.000000
# 5 0.000000 0.000000 0.000000 0.000000 0.025241 0.000000
# 6 0.000000 0.000000 0.000000 0.000000 0.000000 0.070690
#
#
# Mechanical properties :
#
#
# Convention : Reuss Voigt Hill
#
# Bulk Modulus (GPa) = 26.55797 32.18823 29.37310
# Shear Modulus (GPa) = 21.94472 26.80720 24.37596
#
# Velocity S-wave (km/s) = 3.33300 3.68380 3.51278
# Velocity P-wave (km/s) = 5.31564 5.86414 5.59661
#
# Compressibility (1/GPa) = 0.03765348
#
# Stress axis : x y z
#
# Youngs Moduli (GPa) = 47.88377 33.25285 82.98856
#
# Poissons Ratio (x) = 0.23686 0.46237
# Poissons Ratio (y) = 0.34108 -0.00151
# Poissons Ratio (z) = 0.26679 -0.00060
#
# Static dielectric constant tensor:
#      x y z
#    x 3.513330 0.000000 0.000000 
#    y 0.000000 3.709430 0.000000 
#    z 0.000000 0.000000 3.727270 
# 
# 
# High freq. dielectric constant tensor:
#      x y z
#    x 1.754290 0.000000 0.000000 
#    y 0.000000 1.769500 0.000000 
#    z 0.000000 0.000000 1.772240 
# 
# From -- ./inp_files/34976.got.cif
#   From: 2010.03.12/outbox.cif.g09.slc.cpg/sg51_18_cif.got.tgz:34976.got - 2010.04.16 13:43:02.
