data_PCOD8213008
_publ_section_title
;
Structure prediction by ZEFSAII (Michael W. Deem and Ramdas Pophale) SiO2 
 PCOD8213008
Probable space group: P M M A
;
_chemical_formula_sum "Si O2"
_cell_formula_units_Z 48
_cell_length_a 9.158649
_cell_length_b 9.316487
_cell_length_c 31.279438
_cell_angle_alpha 90.000000
_cell_angle_beta 90.000000
_cell_angle_gamma 90.000000
_cell_volume 2668.962913
_symmetry_space_group_name_H-M "P M M A"
_symmetry_group_IT_number 51
_symmetry_cell_setting 'orthorhombic'
loop_
_space_group_symop_operation_xyz
x,y,z
1/2-x,-y,z
1/2+x,-y,-z
-x,y,-z
-x,-y,-z
1/2+x,y,-z
1/2-x,y,z
x,-y,z
loop_
_atom_site_type_symbol
_atom_site_label
_atom_site_fract_x
_atom_site_fract_y
_atom_site_fract_z
Si Si1 0.079388 0.835030 0.957624
Si Si2 0.580296 0.332496 0.125593
Si Si3 0.091116 0.169340 0.291066
Si Si4 0.575562 0.836778 0.801209
Si Si5 0.576719 0.165677 0.616338
Si Si6 0.917492 0.330472 0.457794
O O1 0.250000 0.814334 0.965117
O O2 0.023692 0.742571 0.917606
O O3 0.037913 0.000000 0.948546
O O4 0.000000 0.777719 0.000000
O O5 0.750000 0.298425 0.132997
O O6 0.548995 0.500000 0.121370
O O7 0.491236 0.272023 0.165227
O O8 0.250000 0.243655 0.290981
O O9 0.012564 0.209648 0.246058
O O10 0.014671 0.210745 0.336189
O O11 0.113800 0.000000 0.291157
O O12 0.750000 0.824764 0.801410
O O13 0.527841 0.000000 0.812207
O O14 0.750000 0.193427 0.613609
O O15 0.492143 0.263014 0.583265
O O16 0.541478 0.000000 0.606540
O O17 0.750000 0.280826 0.460812
O O18 0.931496 0.500000 0.453437
O O19 0.000000 0.274766 0.500000
#
# Coordination Sequence:
#
# PCOD8213008 Si02
#       6
#     8   8   8   8   8   8
#     4   9  18  33  52  72  94 122 159 202 244 288
#     4  10  21  35  49  69 101 137 167 197 239 290
#     4   7  12  26  48  73  99 125 156 197 242 286
#     4   9  17  31  53  77  98 125 165 208 244 282
#     4   9  17  31  53  78 101 126 158 198 245 294
#     4  10  21  36  52  70  95 129 167 204 242 287
#
# _framework density 17.984511999999999
#
# number of rings (size 3 to 8) (size 9 to 14) (size 15 to 20)
#    0.000    3.000    0.000    3.000    0.000    4.000 
#    0.000    3.333    0.000    8.000    0.000    0.000 
#    0.000    0.000    0.000    0.000    0.000    0.000 
#
# Total GULP energy -594805.702200 kJ/mol
# GULP energy per Si atom -12391.785462 kJ/mol
# Density = 1.794358 g / cm^3
# Si number density = 17.984512 Si / 1000 Ang^3
#
#
#
# Elastic Constant Matrix: (Units=GPa)
#
#
# Indices 1 2 3 4 5 6 
#
# 1 48.9569 25.8546 53.4609 0.0000 0.0000 0.0000
# 2 25.8546 47.9917 55.0416 0.0000 0.0000 0.0000
# 3 53.4609 55.0416 186.5032 0.0000 0.0000 0.0000
# 4 0.0000 0.0000 0.0000 -4.5715 0.0000 0.0000
# 5 0.0000 0.0000 0.0000 0.0000 24.3280 0.0000
# 6 0.0000 0.0000 0.0000 0.0000 0.0000 24.8905
#
#
#
# Elastic Compliance Matrix: (Units=1/GPa)
#
#
# Indices 1 2 3 4 5 6 
#
# 1 0.032858 -0.010429 -0.006341 0.000000 0.000000 0.000000
# 2 -0.010429 0.034809 -0.007283 0.000000 0.000000 0.000000
# 3 -0.006341 -0.007283 0.009329 0.000000 0.000000 0.000000
# 4 0.000000 0.000000 0.000000 -0.218749 0.000000 0.000000
# 5 0.000000 0.000000 0.000000 0.000000 0.041105 0.000000
# 6 0.000000 0.000000 0.000000 0.000000 0.000000 0.040176
#
#
# Mechanical properties :
#
#
# Convention : Reuss Voigt Hill
#
# Bulk Modulus (GPa) = 34.61555 61.35175 47.98365
# Shear Modulus (GPa) = -1828.06735 18.86906 -904.59915
#
# Velocity S-wave (km/s) = -31.91668 3.24262 -22.45172
# Velocity P-wave (km/s) = 36.59157 6.94314 25.40409
#
# Compressibility (1/GPa) = 0.02888875
#
# Stress axis : x y z
#
# Youngs Moduli (GPa) = 30.43383 28.72834 107.19390
#
# Poissons Ratio (x) = 0.29962 0.67969
# Poissons Ratio (y) = 0.31741 0.78073
# Poissons Ratio (z) = 0.19297 0.20924
#
# Static dielectric constant tensor:
#      x y z
#    x 3.079860 0.000000 0.000000 
#    y 0.000000 3.086370 0.000000 
#    z 0.000000 0.000000 3.744230 
# 
# 
# High freq. dielectric constant tensor:
#      x y z
#    x 1.669450 0.000000 0.000000 
#    y 0.000000 1.672210 0.000000 
#    z 0.000000 0.000000 1.720220 
# 
# From -- ./inp_files/36951.got.cif
#   From: 2010.03.12/outbox.cif.g09.slc.cpg/sg51_19_cif.got.tgz:36951.got - 2010.04.16 13:43:02.
