data_PCOD8213078
_publ_section_title
;
Structure prediction by ZEFSAII (Michael W. Deem and Ramdas Pophale) SiO2 
 PCOD8213078
Probable space group: P M M A
;
_chemical_formula_sum "Si O2"
_cell_formula_units_Z 44
_cell_length_a 9.610657
_cell_length_b 28.104521
_cell_length_c 8.818567
_cell_angle_alpha 90.000000
_cell_angle_beta 90.000000
_cell_angle_gamma 90.000000
_cell_volume 2381.920622
_symmetry_space_group_name_H-M "P M M A"
_symmetry_group_IT_number 51
_symmetry_cell_setting 'orthorhombic'
loop_
_space_group_symop_operation_xyz
x,y,z
1/2-x,-y,z
1/2+x,-y,-z
-x,y,-z
-x,-y,-z
1/2+x,y,-z
1/2-x,y,z
x,-y,z
loop_
_atom_site_type_symbol
_atom_site_label
_atom_site_fract_x
_atom_site_fract_y
_atom_site_fract_z
Si Si1 0.910805 0.360504 0.852190
Si Si2 0.411530 0.818568 0.150412
Si Si3 0.589475 0.445949 0.644363
Si Si4 0.411472 0.909193 0.349455
Si Si5 0.088482 0.000000 0.150626
Si Si6 0.088805 0.728580 0.350138
O O1 0.750000 0.356947 0.899337
O O2 0.948384 0.412360 0.785593
O O3 0.947769 0.321863 0.724810
O O4 0.000000 0.350500 0.000000
O O5 0.250000 0.820259 0.104963
O O6 0.451021 0.861198 0.262293
O O7 0.451119 0.769354 0.231082
O O8 0.500000 0.823946 0.000000
O O9 0.500000 0.430449 0.500000
O O10 0.750000 0.439663 0.597951
O O11 0.555534 0.500000 0.693514
O O12 0.500000 0.912063 0.500000
O O13 0.250000 0.910247 0.394773
O O14 0.451797 0.953643 0.245661
O O15 0.250000 0.000000 0.105555
O O16 0.000000 0.000000 0.000000
O O17 0.250000 0.731887 0.396226
O O18 0.000000 0.735510 0.500000
#
# Coordination Sequence:
#
# PCOD8213078 Si02
#       6
#     8   8   8   8   4   8
#     4  10  21  35  51  74 103 133 167 207 250 298
#     4  10  21  36  54  78 106 135 170 210 252 301
#     4   9  18  33  52  74 100 130 166 207 249 296
#     4  10  21  36  54  78 106 136 173 213 253 302
#     4  10  21  36  54  78 106 136 173 214 256 304
#     4  10  21  36  54  77 103 132 169 210 251 299
#
# _framework density 18.472487999999998
#
# number of rings (size 3 to 8) (size 9 to 14) (size 15 to 20)
#    0.000    2.182    0.000    2.455    0.000    4.000 
#    0.000    0.000    0.000    0.000    0.000    0.000 
#    0.000    0.000    0.000    0.000    0.000    0.000 
#
# Total GULP energy -545811.984344 kJ/mol
# GULP energy per Si atom -12404.817826 kJ/mol
# Density = 1.843044 g / cm^3
# Si number density = 18.472488 Si / 1000 Ang^3
#
#
#
# Elastic Constant Matrix: (Units=GPa)
#
#
# Indices 1 2 3 4 5 6 
#
# 1 75.5038 41.5442 80.7022 0.0000 0.0000 0.0000
# 2 41.5442 109.4226 48.9104 0.0000 0.0000 0.0000
# 3 80.7022 48.9104 136.8367 0.0000 0.0000 0.0000
# 4 0.0000 0.0000 0.0000 27.7633 0.0000 0.0000
# 5 0.0000 0.0000 0.0000 0.0000 47.2817 0.0000
# 6 0.0000 0.0000 0.0000 0.0000 0.0000 2.7819
#
#
#
# Elastic Compliance Matrix: (Units=1/GPa)
#
#
# Indices 1 2 3 4 5 6 
#
# 1 0.038235 -0.005281 -0.020662 0.000000 0.000000 0.000000
# 2 -0.005281 0.011606 -0.001034 0.000000 0.000000 0.000000
# 3 -0.020662 -0.001034 0.019864 0.000000 0.000000 0.000000
# 4 0.000000 0.000000 0.000000 0.036019 0.000000 0.000000
# 5 0.000000 0.000000 0.000000 0.000000 0.021150 0.000000
# 6 0.000000 0.000000 0.000000 0.000000 0.000000 0.359464
#
#
# Mechanical properties :
#
#
# Convention : Reuss Voigt Hill
#
# Bulk Modulus (GPa) = 63.49038 73.78629 68.63833
# Shear Modulus (GPa) = 9.16521 25.60581 17.38551
#
# Velocity S-wave (km/s) = 2.22987 3.72716 3.07116
# Velocity P-wave (km/s) = 6.40895 7.65198 7.05788
#
# Compressibility (1/GPa) = 0.01575042
#
# Stress axis : x y z
#
# Youngs Moduli (GPa) = 26.15414 86.16247 50.34350
#
# Poissons Ratio (x) = 0.45501 1.04021
# Poissons Ratio (y) = 0.13811 0.05205
# Poissons Ratio (z) = 0.54040 0.08909
#
# Static dielectric constant tensor:
#      x y z
#    x 3.365530 0.000000 0.000000 
#    y 0.000000 3.749740 0.000000 
#    z 0.000000 0.000000 3.180370 
# 
# 
# High freq. dielectric constant tensor:
#      x y z
#    x 1.713570 0.000000 0.000000 
#    y 0.000000 1.739620 0.000000 
#    z 0.000000 0.000000 1.713290 
# 
# From -- ./inp_files/5870.got.cif
#   From: 2010.03.12/outbox.cif.g09.slc.cpg/sg51_3_cif.got.tgz:5870.got - 2010.04.16 13:43:02.
