data_PCOD8213868
_publ_section_title
;
Structure prediction by ZEFSAII (Michael W. Deem and Ramdas Pophale) SiO2 
 PCOD8213868
Probable space group: P M M A
;
_chemical_formula_sum "Si O2"
_cell_formula_units_Z 56
_cell_length_a 13.181113
_cell_length_b 8.831201
_cell_length_c 21.203483
_cell_angle_alpha 90.000000
_cell_angle_beta 90.000000
_cell_angle_gamma 90.000000
_cell_volume 2468.192675
_symmetry_space_group_name_H-M "P M M A"
_symmetry_group_IT_number 51
_symmetry_cell_setting 'orthorhombic'
loop_
_space_group_symop_operation_xyz
x,y,z
1/2-x,-y,z
1/2+x,-y,-z
-x,y,-z
-x,-y,-z
1/2+x,y,-z
1/2-x,y,z
x,-y,z
loop_
_atom_site_type_symbol
_atom_site_label
_atom_site_fract_x
_atom_site_fract_y
_atom_site_fract_z
Si Si1 0.135442 0.176605 0.532663
Si Si2 0.370607 0.330425 0.914894
Si Si3 0.371128 0.170651 0.037887
Si Si4 0.047328 0.177310 0.281800
Si Si5 0.635356 0.323085 0.225347
Si Si6 0.946123 0.679794 0.589838
Si Si7 0.369254 0.668169 0.161394
O O1 0.250000 0.200986 0.556162
O O2 0.124675 0.243517 0.462491
O O3 0.062238 0.266317 0.580161
O O4 0.105765 0.000000 0.531878
O O5 0.250000 0.312852 0.908867
O O6 0.398261 0.500000 0.935403
O O7 0.413124 0.294030 0.844602
O O8 0.415497 0.221194 0.969442
O O9 0.250000 0.188077 0.035779
O O10 0.416968 0.270503 0.095402
O O11 0.404598 0.000000 0.050426
O O12 0.093010 0.265112 0.342007
O O13 0.109538 0.222845 0.219968
O O14 0.929981 0.225999 0.274229
O O15 0.056251 0.000000 0.293650
O O16 0.750000 0.263602 0.229630
O O17 0.629908 0.500000 0.242322
O O18 0.938427 0.500000 0.584353
O O19 0.250000 0.661469 0.151640
O O20 0.413608 0.500000 0.174557
#
# Coordination Sequence:
#
# PCOD8213868 Si02
#       7
#     8   8   8   8   8   8   8
#     4  10  21  40  67  97 128 158 190 233 283 331
#     4   8  14  27  49  75 103 139 183 232 288 346
#     4   9  16  27  47  76 108 141 180 231 291 350
#     4  12  25  40  59  84 119 157 193 238 289 342
#     4   9  19  37  59  82 111 149 194 242 291 347
#     4  11  23  40  63  90 123 160 198 238 277 329
#     4  10  21  38  59  81 108 146 193 242 292 350
#
# _framework density 22.688666999999999
#
# number of rings (size 3 to 8) (size 9 to 14) (size 15 to 20)
#    0.000    2.143    0.000    5.571    0.000    5.714 
#    0.000    2.143    0.000    4.286    0.000    0.000 
#    0.000    0.000    0.000    0.000    0.000    0.000 
#
# Total GULP energy -694536.450977 kJ/mol
# GULP energy per Si atom -12402.436625 kJ/mol
# Density = 2.263703 g / cm^3
# Si number density = 22.688667 Si / 1000 Ang^3
#
#
#
# Elastic Constant Matrix: (Units=GPa)
#
#
# Indices 1 2 3 4 5 6 
#
# 1 19.1268 -3.3646 -13.1005 0.0000 0.0000 0.0000
# 2 -3.3646 111.4148 20.2309 0.0000 0.0000 0.0000
# 3 -13.1005 20.2309 94.9450 0.0000 0.0000 0.0000
# 4 0.0000 0.0000 0.0000 39.4248 0.0000 0.0000
# 5 0.0000 0.0000 0.0000 0.0000 22.3716 0.0000
# 6 0.0000 0.0000 0.0000 0.0000 0.0000 29.6895
#
#
#
# Elastic Compliance Matrix: (Units=1/GPa)
#
#
# Indices 1 2 3 4 5 6 
#
# 1 0.057750 0.000309 0.007902 0.000000 0.000000 0.000000
# 2 0.000309 0.009338 -0.001947 0.000000 0.000000 0.000000
# 3 0.007902 -0.001947 0.012038 0.000000 0.000000 0.000000
# 4 0.000000 0.000000 0.000000 0.025365 0.000000 0.000000
# 5 0.000000 0.000000 0.000000 0.000000 0.044700 0.000000
# 6 0.000000 0.000000 0.000000 0.000000 0.000000 0.033682
#
#
# Mechanical properties :
#
#
# Convention : Reuss Voigt Hill
#
# Bulk Modulus (GPa) = 10.91054 25.89090 18.40072
# Shear Modulus (GPa) = 24.88864 33.07858 28.98361
#
# Velocity S-wave (km/s) = 3.31564 3.82243 3.57802
# Velocity P-wave (km/s) = 4.41330 5.56035 5.01969
#
# Compressibility (1/GPa) = 0.09165451
#
# Stress axis : x y z
#
# Youngs Moduli (GPa) = 17.31608 107.08508 83.07235
#
# Poissons Ratio (x) = -0.03309 -0.65648
# Poissons Ratio (y) = -0.00535 0.16176
# Poissons Ratio (z) = -0.13684 0.20851
#
# Static dielectric constant tensor:
#      x y z
#    x 4.003860 0.000000 0.000000 
#    y 0.000000 3.976980 0.000000 
#    z 0.000000 0.000000 4.094260 
# 
# 
# High freq. dielectric constant tensor:
#      x y z
#    x 1.904860 0.000000 0.000000 
#    y 0.000000 1.889050 0.000000 
#    z 0.000000 0.000000 1.895370 
# 
# From -- ./inp_files/33381.got.cif
#   From: 2010.03.12/outbox.cif.g09.slc.cpg/sg51_17_cif.got.tgz:33381.got - 2010.04.16 13:43:02.
