data_PCOD8213783
_publ_section_title
;
Structure prediction by ZEFSAII (Michael W. Deem and Ramdas Pophale) SiO2 
 PCOD8213783
Probable space group: P M M A
;
_chemical_formula_sum "Si O2"
_cell_formula_units_Z 56
_cell_length_a 14.618931
_cell_length_b 9.070203
_cell_length_c 21.397595
_cell_angle_alpha 90.000000
_cell_angle_beta 90.000000
_cell_angle_gamma 90.000000
_cell_volume 2837.249882
_symmetry_space_group_name_H-M "P M M A"
_symmetry_group_IT_number 51
_symmetry_cell_setting 'orthorhombic'
loop_
_space_group_symop_operation_xyz
x,y,z
1/2-x,-y,z
1/2+x,-y,-z
-x,y,-z
-x,-y,-z
1/2+x,y,-z
1/2-x,y,z
x,-y,z
loop_
_atom_site_type_symbol
_atom_site_label
_atom_site_fract_x
_atom_site_fract_y
_atom_site_fract_z
Si Si1 0.358515 0.837004 0.012533
Si Si2 0.356331 0.328201 0.417356
Si Si3 0.486418 0.325085 0.781646
Si Si4 0.146017 0.673258 0.891851
Si Si5 0.144384 0.173546 0.150986
Si Si6 0.990434 0.173784 0.345631
Si Si7 0.145037 0.169317 0.543529
O O1 0.250000 0.842131 0.011075
O O2 0.387137 0.777845 0.081044
O O3 0.398763 0.000000 0.001953
O O4 0.396295 0.736281 0.956442
O O5 0.250000 0.296735 0.404735
O O6 0.379996 0.500000 0.413664
O O7 0.411765 0.241053 0.364550
O O8 0.385137 0.269347 0.485459
O O9 0.488220 0.500000 0.773588
O O10 0.413879 0.272262 0.833651
O O11 0.586859 0.267682 0.799743
O O12 0.455386 0.249683 0.717496
O O13 0.250000 0.728815 0.881311
O O14 0.142502 0.500000 0.898295
O O15 0.250000 0.212568 0.162678
O O16 0.127222 0.000000 0.160561
O O17 0.915741 0.214305 0.397646
O O18 0.000659 0.000000 0.335574
O O19 0.250000 0.197759 0.562182
O O20 0.128444 0.000000 0.523989
#
# Coordination Sequence:
#
# PCOD8213783 Si02
#       7
#     8   8   8   8   8   8   8
#     4   8  15  30  54  81 104 131 172 221 272 322
#     4  10  21  37  59  87 115 143 177 218 265 315
#     4  11  24  38  53  77 108 144 185 224 265 317
#     4   9  19  36  55  76 106 142 178 219 269 323
#     4   9  19  37  58  79 106 139 176 221 272 325
#     4  11  23  38  57  80 109 147 185 221 265 315
#     4   9  19  37  60  86 114 142 176 219 266 316
#
# _framework density 19.737423
#
# number of rings (size 3 to 8) (size 9 to 14) (size 15 to 20)
#    0.000    2.429    0.000    2.571    0.000    7.429 
#    0.000    4.286    0.000    0.000    0.000    0.000 
#    0.000    0.000    0.000    0.000    0.000    0.000 
#
# Total GULP energy -694487.181703 kJ/mol
# GULP energy per Si atom -12401.556816 kJ/mol
# Density = 1.969250 g / cm^3
# Si number density = 19.737423 Si / 1000 Ang^3
#
#
#
# Elastic Constant Matrix: (Units=GPa)
#
#
# Indices 1 2 3 4 5 6 
#
# 1 48.2875 18.0418 14.6242 0.0000 0.0000 0.0000
# 2 18.0418 57.2604 24.9472 0.0000 0.0000 0.0000
# 3 14.6242 24.9472 79.0549 0.0000 0.0000 0.0000
# 4 0.0000 0.0000 0.0000 90.3524 0.0000 0.0000
# 5 0.0000 0.0000 0.0000 0.0000 29.8074 0.0000
# 6 0.0000 0.0000 0.0000 0.0000 0.0000 21.9362
#
#
#
# Elastic Compliance Matrix: (Units=1/GPa)
#
#
# Indices 1 2 3 4 5 6 
#
# 1 0.023848 -0.006484 -0.002366 0.000000 0.000000 0.000000
# 2 -0.006484 0.022011 -0.005746 0.000000 0.000000 0.000000
# 3 -0.002366 -0.005746 0.014900 0.000000 0.000000 0.000000
# 4 0.000000 0.000000 0.000000 0.011068 0.000000 0.000000
# 5 0.000000 0.000000 0.000000 0.000000 0.033549 0.000000
# 6 0.000000 0.000000 0.000000 0.000000 0.000000 0.045587
#
#
# Mechanical properties :
#
#
# Convention : Reuss Voigt Hill
#
# Bulk Modulus (GPa) = 31.67768 33.31436 32.49602
# Shear Modulus (GPa) = 26.22244 36.88516 31.55380
#
# Velocity S-wave (km/s) = 3.64890 4.32764 4.00269
# Velocity P-wave (km/s) = 5.81696 6.47200 6.15320
#
# Compressibility (1/GPa) = 0.03156797
#
# Stress axis : x y z
#
# Youngs Moduli (GPa) = 41.93188 45.43276 67.11205
#
# Poissons Ratio (x) = 0.29456 0.15876
# Poissons Ratio (y) = 0.27187 0.38566
# Poissons Ratio (z) = 0.09920 0.26108
#
# Static dielectric constant tensor:
#      x y z
#    x 3.597540 0.000000 0.000000 
#    y 0.000000 3.560530 0.000000 
#    z 0.000000 0.000000 3.670560 
# 
# 
# High freq. dielectric constant tensor:
#      x y z
#    x 1.769140 0.000000 0.000000 
#    y 0.000000 1.764920 0.000000 
#    z 0.000000 0.000000 1.770810 
# 
# From -- ./inp_files/33302.got.cif
#   From: 2010.03.12/outbox.cif.g09.slc.cpg/sg51_17_cif.got.tgz:33302.got - 2010.04.16 13:43:02.
