data_PCOD8213041
_publ_section_title
;
Structure prediction by ZEFSAII (Michael W. Deem and Ramdas Pophale) SiO2 
 PCOD8213041
Probable space group: P M M A
;
_chemical_formula_sum "Si O2"
_cell_formula_units_Z 40
_cell_length_a 25.650929
_cell_length_b 8.937955
_cell_length_c 9.629293
_cell_angle_alpha 90.000000
_cell_angle_beta 90.000000
_cell_angle_gamma 90.000000
_cell_volume 2207.677665
_symmetry_space_group_name_H-M "P M M A"
_symmetry_group_IT_number 51
_symmetry_cell_setting 'orthorhombic'
loop_
_space_group_symop_operation_xyz
x,y,z
1/2-x,-y,z
1/2+x,-y,-z
-x,y,-z
-x,-y,-z
1/2+x,y,-z
1/2-x,y,z
x,-y,z
loop_
_atom_site_type_symbol
_atom_site_label
_atom_site_fract_x
_atom_site_fract_y
_atom_site_fract_z
Si Si1 0.957996 0.174659 0.387961
Si Si2 0.750000 0.821992 0.903537
Si Si3 0.750000 0.179132 0.590331
Si Si4 0.154337 0.821849 0.912185
Si Si5 0.952677 0.324480 0.098529
Si Si6 0.341246 0.825724 0.600558
O O1 0.967992 0.269021 0.250838
O O2 0.900262 0.207781 0.448501
O O3 0.000000 0.227654 0.500000
O O4 0.963905 0.000000 0.351116
O O5 0.750000 0.757421 0.747169
O O6 0.750000 0.000000 0.903931
O O7 0.801273 0.763456 0.983347
O O8 0.800751 0.244228 0.509780
O O9 0.750000 0.000000 0.596510
O O10 0.099227 0.754500 0.959920
O O11 0.167753 0.763310 0.756571
O O12 0.149268 0.000000 0.913721
O O13 0.942711 0.500000 0.101620
O O14 0.000000 0.278869 0.000000
O O15 0.329494 0.000000 0.605360
#
# Coordination Sequence:
#
# PCOD8213041 Si02
#       6
#     8   4   4   8   8   8
#     4   9  18  32  51  75  99 125 162 207 253 298
#     4   9  17  27  44  73 100 122 154 199 248 293
#     4   9  15  23  39  67  98 120 144 187 242 291
#     4   9  17  31  50  71  96 127 163 201 244 295
#     4  10  21  35  50  71 100 135 173 209 249 297
#     4   8  14  25  41  62  91 123 149 181 230 286
#
# _framework density 18.118587000000002
#
# number of rings (size 3 to 8) (size 9 to 14) (size 15 to 20)
#    0.000    3.000    0.000    2.400    0.000    6.000 
#    0.000    4.500    0.000    0.000    0.000    5.600 
#    0.000    0.000    0.000    0.000    0.000    0.000 
#
# Total GULP energy -495872.527298 kJ/mol
# GULP energy per Si atom -12396.813182 kJ/mol
# Density = 1.807735 g / cm^3
# Si number density = 18.118587 Si / 1000 Ang^3
#
#
#
# Elastic Constant Matrix: (Units=GPa)
#
#
# Indices 1 2 3 4 5 6 
#
# 1 174.2153 31.8420 106.7849 0.0000 0.0000 0.0000
# 2 31.8420 22.3156 20.1078 0.0000 0.0000 0.0000
# 3 106.7849 20.1078 126.3665 0.0000 0.0000 0.0000
# 4 0.0000 0.0000 0.0000 14.0516 0.0000 0.0000
# 5 0.0000 0.0000 0.0000 0.0000 40.2856 0.0000
# 6 0.0000 0.0000 0.0000 0.0000 0.0000 10.2150
#
#
#
# Elastic Compliance Matrix: (Units=1/GPa)
#
#
# Indices 1 2 3 4 5 6 
#
# 1 0.013804 -0.010724 -0.009959 0.000000 0.000000 0.000000
# 2 -0.010724 0.060643 -0.000588 0.000000 0.000000 0.000000
# 3 -0.009959 -0.000588 0.016423 0.000000 0.000000 0.000000
# 4 0.000000 0.000000 0.000000 0.071166 0.000000 0.000000
# 5 0.000000 0.000000 0.000000 0.000000 0.024823 0.000000
# 6 0.000000 0.000000 0.000000 0.000000 0.000000 0.097896
#
#
# Mechanical properties :
#
#
# Convention : Reuss Voigt Hill
#
# Bulk Modulus (GPa) = 20.69144 71.15187 45.92165
# Shear Modulus (GPa) = 14.56011 23.85461 19.20736
#
# Velocity S-wave (km/s) = 2.83786 3.63241 3.25944
# Velocity P-wave (km/s) = 4.70985 7.54638 6.29010
#
# Compressibility (1/GPa) = 0.04832917
#
# Stress axis : x y z
#
# Youngs Moduli (GPa) = 72.44158 16.49005 60.89175
#
# Poissons Ratio (x) = 0.17683 0.60641
# Poissons Ratio (y) = 0.77684 0.03579
# Poissons Ratio (z) = 0.72143 0.00969
#
# Static dielectric constant tensor:
#      x y z
#    x 3.581950 0.000000 0.000000 
#    y 0.000000 2.860150 0.000000 
#    z 0.000000 0.000000 3.506760 
# 
# 
# High freq. dielectric constant tensor:
#      x y z
#    x 1.716920 0.000000 0.000000 
#    y 0.000000 1.651610 0.000000 
#    z 0.000000 0.000000 1.699360 
# 
# From -- ./inp_files/12176.got.cif
#   From: 2010.03.12/outbox.cif.g09.slc.cpg/sg51_7_cif.got.tgz:12176.got - 2010.04.16 13:43:02.
