data_PCOD8213817
_publ_section_title
;
Structure prediction by ZEFSAII (Michael W. Deem and Ramdas Pophale) SiO2 
 PCOD8213817
Probable space group: P M M A
;
_chemical_formula_sum "Si O2"
_cell_formula_units_Z 64
_cell_length_a 8.734368
_cell_length_b 23.491689
_cell_length_c 14.585102
_cell_angle_alpha 90.000000
_cell_angle_beta 90.000000
_cell_angle_gamma 90.000000
_cell_volume 2992.644980
_symmetry_space_group_name_H-M "P M M A"
_symmetry_group_IT_number 51
_symmetry_cell_setting 'orthorhombic'
loop_
_space_group_symop_operation_xyz
x,y,z
1/2-x,-y,z
1/2+x,-y,-z
-x,y,-z
-x,-y,-z
1/2+x,y,-z
1/2-x,y,z
x,-y,z
loop_
_atom_site_type_symbol
_atom_site_label
_atom_site_fract_x
_atom_site_fract_y
_atom_site_fract_z
Si Si1 0.073788 0.670075 0.088691
Si Si2 0.422942 0.932253 0.407591
Si Si3 0.928694 0.438397 0.344182
Si Si4 0.931614 0.316817 0.405647
Si Si5 0.422863 0.436932 0.869717
Si Si6 0.928369 0.066436 0.219307
Si Si7 0.430552 0.841656 0.099774
Si Si8 0.928395 0.253832 0.226122
O O1 0.250000 0.687797 0.098728
O O2 0.049315 0.602246 0.080164
O O3 0.971108 0.688210 0.174400
O O4 0.000000 0.700952 0.000000
O O5 0.500000 0.907414 0.500000
O O6 0.250000 0.909527 0.402300
O O7 0.512577 0.910496 0.317696
O O8 0.427712 0.000000 0.410978
O O9 0.750000 0.437933 0.364917
O O10 0.995391 0.500000 0.381552
O O11 0.001693 0.380679 0.387626
O O12 0.960407 0.436572 0.237045
O O13 0.750000 0.321228 0.409139
O O14 0.977226 0.268698 0.330366
O O15 0.000000 0.293435 0.500000
O O16 0.250000 0.414041 0.887732
O O17 0.441402 0.500000 0.909969
O O18 0.750000 0.080207 0.213567
O O19 0.013429 0.096940 0.135189
O O20 0.964072 0.000000 0.208754
O O21 0.250000 0.841486 0.088819
O O22 0.477260 0.796704 0.178509
O O23 0.500000 0.827697 0.000000
O O24 0.750000 0.239144 0.218175
#
# Coordination Sequence:
#
# PCOD8213817 Si02
#       8
#     8   8   8   8   8   8   8   8
#     4  12  24  37  57  84 114 149 194 247 301 363
#     4   9  16  28  50  83 124 170 216 259 303 354
#     4   8  14  29  54  82 114 155 199 242 298 364
#     4  10  21  37  61  90 122 160 201 249 306 366
#     4   9  17  33  56  79 109 150 195 243 298 360
#     4  10  21  39  64  96 134 174 215 260 310 366
#     4  12  26  45  69  97 127 162 205 254 311 373
#     4  11  23  44  67  88 118 156 201 252 306 360
#
# _framework density 21.385762
#
# number of rings (size 3 to 8) (size 9 to 14) (size 15 to 20)
#    0.000    1.875    1.250    4.500    0.000    4.250 
#    0.000    0.625    0.000    1.500    0.000    0.000 
#    0.000    0.000    0.000    0.000    0.000    0.000 
#
# Total GULP energy -793214.858019 kJ/mol
# GULP energy per Si atom -12393.982157 kJ/mol
# Density = 2.133709 g / cm^3
# Si number density = 21.385762 Si / 1000 Ang^3
#
#
#
# Elastic Constant Matrix: (Units=GPa)
#
#
# Indices 1 2 3 4 5 6 
#
# 1 99.6421 40.0851 51.4633 0.0000 0.0000 0.0000
# 2 40.0851 80.2915 48.8446 0.0000 0.0000 0.0000
# 3 51.4633 48.8446 133.6310 0.0000 0.0000 0.0000
# 4 0.0000 0.0000 0.0000 18.3536 0.0000 0.0000
# 5 0.0000 0.0000 0.0000 0.0000 36.2198 0.0000
# 6 0.0000 0.0000 0.0000 0.0000 0.0000 28.8631
#
#
#
# Elastic Compliance Matrix: (Units=1/GPa)
#
#
# Indices 1 2 3 4 5 6 
#
# 1 0.013779 -0.004695 -0.003590 0.000000 0.000000 0.000000
# 2 -0.004695 0.017616 -0.004631 0.000000 0.000000 0.000000
# 3 -0.003590 -0.004631 0.010559 0.000000 0.000000 0.000000
# 4 0.000000 0.000000 0.000000 0.054485 0.000000 0.000000
# 5 0.000000 0.000000 0.000000 0.000000 0.027609 0.000000
# 6 0.000000 0.000000 0.000000 0.000000 0.000000 0.034646
#
#
# Mechanical properties :
#
#
# Convention : Reuss Voigt Hill
#
# Bulk Modulus (GPa) = 62.03050 66.03895 64.03473
# Shear Modulus (GPa) = 26.32966 28.23207 27.28087
#
# Velocity S-wave (km/s) = 3.51262 3.63731 3.57551
# Velocity P-wave (km/s) = 6.74684 6.97043 6.85955
#
# Compressibility (1/GPa) = 0.01612110
#
# Stress axis : x y z
#
# Youngs Moduli (GPa) = 72.57404 56.76790 94.70913
#
# Poissons Ratio (x) = 0.26652 0.34005
# Poissons Ratio (y) = 0.34073 0.43857
# Poissons Ratio (z) = 0.26057 0.26288
#
# Static dielectric constant tensor:
#      x y z
#    x 3.612110 0.000000 0.000000 
#    y 0.000000 3.853680 0.000000 
#    z 0.000000 0.000000 4.040690 
# 
# 
# High freq. dielectric constant tensor:
#      x y z
#    x 1.821880 0.000000 0.000000 
#    y 0.000000 1.828780 0.000000 
#    z 0.000000 0.000000 1.843110 
# 
# From -- ./inp_files/22379.got.cif
#   From: 2010.03.12/outbox.cif.g09.slc.cpg/sg51_12_cif.got.tgz:22379.got - 2010.04.16 13:43:02.
