data_PCOD8213468
_publ_section_title
;
Structure prediction by ZEFSAII (Michael W. Deem and Ramdas Pophale) SiO2 
 PCOD8213468
Probable space group: P M M A
;
_chemical_formula_sum "Si O2"
_cell_formula_units_Z 44
_cell_length_a 12.750781
_cell_length_b 16.170156
_cell_length_c 9.124377
_cell_angle_alpha 90.000000
_cell_angle_beta 90.000000
_cell_angle_gamma 90.000000
_cell_volume 1881.283374
_symmetry_space_group_name_H-M "P M M A"
_symmetry_group_IT_number 51
_symmetry_cell_setting 'orthorhombic'
loop_
_space_group_symop_operation_xyz
x,y,z
1/2-x,-y,z
1/2+x,-y,-z
-x,y,-z
-x,-y,-z
1/2+x,y,-z
1/2-x,y,z
x,-y,z
loop_
_atom_site_type_symbol
_atom_site_label
_atom_site_fract_x
_atom_site_fract_y
_atom_site_fract_z
Si Si1 0.872550 0.910198 0.566386
Si Si2 0.374485 0.906941 0.759412
Si Si3 0.626233 0.247569 0.733707
Si Si4 0.371008 0.409560 0.754375
Si Si5 0.500000 0.646281 0.500000
Si Si6 0.625328 0.747734 0.063135
O O1 0.750000 0.907055 0.531468
O O2 0.925141 0.893433 0.404854
O O3 0.899373 0.847030 0.695008
O O4 0.905807 0.000000 0.626542
O O5 0.250000 0.898555 0.751026
O O6 0.417054 0.832178 0.860904
O O7 0.403298 0.000000 0.816941
O O8 0.750000 0.267719 0.731150
O O9 0.571407 0.301153 0.609741
O O10 0.578940 0.260606 0.897850
O O11 0.250000 0.394650 0.723854
O O12 0.390504 0.500000 0.829254
O O13 0.425586 0.411149 0.596482
O O14 0.414014 0.333983 0.851414
O O15 0.750000 0.750339 0.052120
#
# Coordination Sequence:
#
# PCOD8213468 Si02
#       6
#     8   8   8   8   4   8
#     4   8  14  27  49  77 111 152 196 240 286 338
#     4   8  13  23  45  78 111 146 190 235 282 340
#     4  10  21  36  56  85 118 154 197 243 292 345
#     4  10  22  42  66  90 117 150 189 234 286 344
#     4  12  23  38  61  88 116 152 191 238 288 344
#     4   9  18  34  56  82 116 154 190 235 290 344
#
# _framework density 23.388289
#
# number of rings (size 3 to 8) (size 9 to 14) (size 15 to 20)
#    0.000    2.727    0.000    3.000    0.000    4.364 
#    0.000    6.818    0.000    5.455    0.000    5.091 
#    0.000    0.000    0.000    0.000    0.000    0.000 
#
# Total GULP energy -545377.693752 kJ/mol
# GULP energy per Si atom -12394.947585 kJ/mol
# Density = 2.333506 g / cm^3
# Si number density = 23.388289 Si / 1000 Ang^3
#
#
#
# Elastic Constant Matrix: (Units=GPa)
#
#
# Indices 1 2 3 4 5 6 
#
# 1 44.0653 41.8331 45.9843 0.0000 0.0000 0.0000
# 2 41.8331 181.7607 83.1283 0.0000 0.0000 0.0000
# 3 45.9843 83.1283 153.2466 0.0000 0.0000 0.0000
# 4 0.0000 0.0000 0.0000 14.7079 0.0000 0.0000
# 5 0.0000 0.0000 0.0000 0.0000 37.5627 0.0000
# 6 0.0000 0.0000 0.0000 0.0000 0.0000 1.6127
#
#
#
# Elastic Compliance Matrix: (Units=1/GPa)
#
#
# Indices 1 2 3 4 5 6 
#
# 1 0.035486 -0.004385 -0.008270 0.000000 0.000000 0.000000
# 2 -0.004385 0.007859 -0.002947 0.000000 0.000000 0.000000
# 3 -0.008270 -0.002947 0.010606 0.000000 0.000000 0.000000
# 4 0.000000 0.000000 0.000000 0.067991 0.000000 0.000000
# 5 0.000000 0.000000 0.000000 0.000000 0.026622 0.000000
# 6 0.000000 0.000000 0.000000 0.000000 0.000000 0.620081
#
#
# Mechanical properties :
#
#
# Convention : Reuss Voigt Hill
#
# Bulk Modulus (GPa) = 43.96205 80.10708 62.03457
# Shear Modulus (GPa) = 6.19248 24.65178 15.42213
#
# Velocity S-wave (km/s) = 1.62894 3.25009 2.57066
# Velocity P-wave (km/s) = 4.73026 6.95769 5.94915
#
# Compressibility (1/GPa) = 0.02274689
#
# Stress axis : x y z
#
# Youngs Moduli (GPa) = 28.17982 127.24379 94.29045
#
# Poissons Ratio (x) = 0.55800 0.77974
# Poissons Ratio (y) = 0.12358 0.27789
# Poissons Ratio (z) = 0.23303 0.37501
#
# Static dielectric constant tensor:
#      x y z
#    x 4.485780 0.000000 0.000000 
#    y 0.000000 4.301300 0.000000 
#    z 0.000000 0.000000 4.329890 
# 
# 
# High freq. dielectric constant tensor:
#      x y z
#    x 1.964260 0.000000 0.000000 
#    y 0.000000 1.917580 0.000000 
#    z 0.000000 0.000000 1.911450 
# 
# From -- ./inp_files/9479.got.cif
#   From: 2010.03.12/outbox.cif.g09.slc.cpg/sg51_5_cif.got.tgz:9479.got - 2010.04.16 13:43:02.
