data_PCOD8213633
_publ_section_title
;
Structure prediction by ZEFSAII (Michael W. Deem and Ramdas Pophale) SiO2 
 PCOD8213633
Probable space group: P M M A
;
_chemical_formula_sum "Si O2"
_cell_formula_units_Z 64
_cell_length_a 14.706831
_cell_length_b 9.199970
_cell_length_c 24.028969
_cell_angle_alpha 90.000000
_cell_angle_beta 90.000000
_cell_angle_gamma 90.000000
_cell_volume 3251.177271
_symmetry_space_group_name_H-M "P M M A"
_symmetry_group_IT_number 51
_symmetry_cell_setting 'orthorhombic'
loop_
_space_group_symop_operation_xyz
x,y,z
1/2-x,-y,z
1/2+x,-y,-z
-x,y,-z
-x,-y,-z
1/2+x,y,-z
1/2-x,y,z
x,-y,z
loop_
_atom_site_type_symbol
_atom_site_label
_atom_site_fract_x
_atom_site_fract_y
_atom_site_fract_z
Si Si1 0.146710 0.830259 0.928686
Si Si2 0.353954 0.331401 0.349309
Si Si3 0.358384 0.835774 0.457935
Si Si4 0.144319 0.169946 0.674453
Si Si5 0.508450 0.331324 0.868823
Si Si6 0.356502 0.165172 0.055116
Si Si7 0.858128 0.663954 0.435774
Si Si8 0.498808 0.667681 0.741222
O O1 0.250000 0.781233 0.918524
O O2 0.085481 0.742621 0.886025
O O3 0.135260 0.000000 0.916897
O O4 0.117122 0.794661 0.991874
O O5 0.250000 0.288572 0.335320
O O6 0.361070 0.500000 0.365350
O O7 0.392270 0.241065 0.401605
O O8 0.413900 0.291439 0.295852
O O9 0.250000 0.833690 0.460140
O O10 0.398161 0.748371 0.510803
O O11 0.395652 0.000000 0.459648
O O12 0.250000 0.201052 0.686513
O O13 0.109767 0.252015 0.619252
O O14 0.087134 0.232238 0.725946
O O15 0.125853 0.000000 0.666601
O O16 0.499806 0.500000 0.881760
O O17 0.593044 0.270793 0.903021
O O18 0.526938 0.299607 0.804271
O O19 0.250000 0.184822 0.064458
O O20 0.386417 0.000000 0.067554
O O21 0.750000 0.661540 0.438926
O O22 0.897052 0.500000 0.434328
O O23 0.470450 0.500000 0.732937
#
# Coordination Sequence:
#
# PCOD8213633 Si02
#       8
#     8   8   8   8   8   8   8   8
#     4   9  19  37  60  84 112 148 187 225 269 324
#     4   9  18  35  57  76  99 137 181 221 264 318
#     4   9  16  27  47  77 109 136 167 214 270 323
#     4  10  21  37  57  80 106 138 178 227 278 321
#     4  11  23  36  54  83 116 148 183 228 279 325
#     4   9  19  37  60  85 113 147 186 225 268 323
#     4   9  16  28  50  78 106 138 174 212 263 329
#     4  10  23  40  55  76 108 146 186 224 265 319
#
# _framework density 19.685176999999999
#
# number of rings (size 3 to 8) (size 9 to 14) (size 15 to 20)
#    0.000    2.500    0.000    2.625    0.000    8.750 
#    0.000    5.625    0.000    5.250    0.000    0.000 
#    0.000    0.000    0.000    0.000    0.000    0.000 
#
# Total GULP energy -793795.681879 kJ/mol
# GULP energy per Si atom -12403.057529 kJ/mol
# Density = 1.964037 g / cm^3
# Si number density = 19.685177 Si / 1000 Ang^3
#
#
#
# Elastic Constant Matrix: (Units=GPa)
#
#
# Indices 1 2 3 4 5 6 
#
# 1 42.2389 19.7582 15.9833 0.0000 0.0000 0.0000
# 2 19.7582 91.2541 38.3644 0.0000 0.0000 0.0000
# 3 15.9833 38.3644 79.8517 0.0000 0.0000 0.0000
# 4 0.0000 0.0000 0.0000 24.2140 0.0000 0.0000
# 5 0.0000 0.0000 0.0000 0.0000 20.5896 0.0000
# 6 0.0000 0.0000 0.0000 0.0000 0.0000 20.0775
#
#
#
# Elastic Compliance Matrix: (Units=1/GPa)
#
#
# Indices 1 2 3 4 5 6 
#
# 1 0.027001 -0.004479 -0.003253 0.000000 0.000000 0.000000
# 2 -0.004479 0.014475 -0.006058 0.000000 0.000000 0.000000
# 3 -0.003253 -0.006058 0.016085 0.000000 0.000000 0.000000
# 4 0.000000 0.000000 0.000000 0.041298 0.000000 0.000000
# 5 0.000000 0.000000 0.000000 0.000000 0.048568 0.000000
# 6 0.000000 0.000000 0.000000 0.000000 0.000000 0.049807
#
#
# Mechanical properties :
#
#
# Convention : Reuss Voigt Hill
#
# Bulk Modulus (GPa) = 33.35366 40.17293 36.76329
# Shear Modulus (GPa) = 21.29410 22.25881 21.77646
#
# Velocity S-wave (km/s) = 3.29254 3.36630 3.32962
# Velocity P-wave (km/s) = 5.60667 5.96333 5.78775
#
# Compressibility (1/GPa) = 0.02998172
#
# Stress axis : x y z
#
# Youngs Moduli (GPa) = 37.03608 69.08477 62.17037
#
# Poissons Ratio (x) = 0.30941 0.20223
# Poissons Ratio (y) = 0.16587 0.37663
# Poissons Ratio (z) = 0.12047 0.41851
#
# Static dielectric constant tensor:
#      x y z
#    x 3.431330 0.000000 0.000000 
#    y 0.000000 3.624350 0.000000 
#    z 0.000000 0.000000 3.561200 
# 
# 
# High freq. dielectric constant tensor:
#      x y z
#    x 1.762810 0.000000 0.000000 
#    y 0.000000 1.768690 0.000000 
#    z 0.000000 0.000000 1.763880 
# 
# From -- ./inp_files/35771.got.cif
#   From: 2010.03.12/outbox.cif.g09.slc.cpg/sg51_18_cif.got.tgz:35771.got - 2010.04.16 13:43:02.
