data_PCOD8213186
_publ_section_title
;
Structure prediction by ZEFSAII (Michael W. Deem and Ramdas Pophale) SiO2 
 PCOD8213186
Probable space group: P M M A
;
_chemical_formula_sum "Si O2"
_cell_formula_units_Z 44
_cell_length_a 9.227881
_cell_length_b 19.505250
_cell_length_c 12.830203
_cell_angle_alpha 90.000000
_cell_angle_beta 90.000000
_cell_angle_gamma 90.000000
_cell_volume 2309.335513
_symmetry_space_group_name_H-M "P M M A"
_symmetry_group_IT_number 51
_symmetry_cell_setting 'orthorhombic'
loop_
_space_group_symop_operation_xyz
x,y,z
1/2-x,-y,z
1/2+x,-y,-z
-x,y,-z
-x,-y,-z
1/2+x,y,-z
1/2-x,y,z
x,-y,z
loop_
_atom_site_type_symbol
_atom_site_label
_atom_site_fract_x
_atom_site_fract_y
_atom_site_fract_z
Si Si1 0.750000 0.080117 0.926555
Si Si2 0.084560 0.238924 0.401486
Si Si3 0.750000 0.079690 0.172710
Si Si4 0.519581 0.837921 0.800834
Si Si5 0.425161 0.500000 0.388657
Si Si6 0.913446 0.299406 0.097754
Si Si7 0.582465 0.368204 0.311799
O O1 0.611872 0.113673 0.874617
O O2 0.750000 0.000000 0.901678
O O3 0.750000 0.093602 0.049345
O O4 0.250000 0.259302 0.430058
O O5 0.000000 0.205721 0.500000
O O6 0.092748 0.184160 0.307681
O O7 0.990290 0.305554 0.372801
O O8 0.882493 0.116714 0.228810
O O9 0.750000 0.000000 0.199833
O O10 0.484978 0.771026 0.867077
O O11 0.250000 0.500000 0.395628
O O12 0.500000 0.500000 0.500000
O O13 0.482676 0.433947 0.328128
O O14 0.750000 0.284189 0.062957
O O15 0.919246 0.355182 0.188703
O O16 0.000000 0.330112 0.000000
O O17 0.750000 0.378098 0.349964
#
# Coordination Sequence:
#
# PCOD8213186 Si02
#       7
#     4   8   4   8   4   8   8
#     4  11  22  38  57  85 119 154 192 235 292 355
#     4  11  23  39  62  87 115 151 196 247 294 343
#     4  11  22  36  59  87 119 154 190 235 294 357
#     4  11  22  37  57  87 118 154 194 243 293 349
#     4  12  24  40  63  88 119 156 191 236 292 346
#     4  10  21  35  58  86 118 155 195 240 287 340
#     4  10  22  40  60  89 122 154 194 240 288 344
#
# _framework density 19.053099
#
# number of rings (size 3 to 8) (size 9 to 14) (size 15 to 20)
#    0.000    1.273    1.818    4.636    3.818    2.909 
#    0.000    0.455    0.000    3.273    0.000    0.000 
#    0.000    0.000    0.000    0.000    0.000    0.000 
#
# Total GULP energy -545598.678440 kJ/mol
# GULP energy per Si atom -12399.969965 kJ/mol
# Density = 1.900973 g / cm^3
# Si number density = 19.053099 Si / 1000 Ang^3
#
#
#
# Elastic Constant Matrix: (Units=GPa)
#
#
# Indices 1 2 3 4 5 6 
#
# 1 156.7965 37.5450 43.8944 0.0000 0.0000 0.0000
# 2 37.5450 95.7995 28.9828 0.0000 0.0000 0.0000
# 3 43.8944 28.9828 86.0308 0.0000 0.0000 0.0000
# 4 0.0000 0.0000 0.0000 21.8203 0.0000 0.0000
# 5 0.0000 0.0000 0.0000 0.0000 36.4465 0.0000
# 6 0.0000 0.0000 0.0000 0.0000 0.0000 31.9390
#
#
#
# Elastic Compliance Matrix: (Units=1/GPa)
#
#
# Indices 1 2 3 4 5 6 
#
# 1 0.007789 -0.002060 -0.003280 0.000000 0.000000 0.000000
# 2 -0.002060 0.012168 -0.003048 0.000000 0.000000 0.000000
# 3 -0.003280 -0.003048 0.014324 0.000000 0.000000 0.000000
# 4 0.000000 0.000000 0.000000 0.045829 0.000000 0.000000
# 5 0.000000 0.000000 0.000000 0.000000 0.027437 0.000000
# 6 0.000000 0.000000 0.000000 0.000000 0.000000 0.031310
#
#
# Mechanical properties :
#
#
# Convention : Reuss Voigt Hill
#
# Bulk Modulus (GPa) = 57.12823 62.16346 59.64585
# Shear Modulus (GPa) = 30.96560 33.25481 32.11020
#
# Velocity S-wave (km/s) = 4.03578 4.18230 4.10970
# Velocity P-wave (km/s) = 7.19483 7.48461 7.34115
#
# Compressibility (1/GPa) = 0.01750448
#
# Stress axis : x y z
#
# Youngs Moduli (GPa) = 128.38112 82.18213 69.81205
#
# Poissons Ratio (x) = 0.16933 0.22899
# Poissons Ratio (y) = 0.26451 0.21279
# Poissons Ratio (z) = 0.42111 0.25050
#
# Static dielectric constant tensor:
#      x y z
#    x 3.948080 0.000000 0.000000 
#    y 0.000000 3.204910 0.000000 
#    z 0.000000 0.000000 3.545750 
# 
# 
# High freq. dielectric constant tensor:
#      x y z
#    x 1.764380 0.000000 0.000000 
#    y 0.000000 1.728500 0.000000 
#    z 0.000000 0.000000 1.737630 
# 
# From -- ./inp_files/21004.got.cif
#   From: 2010.03.12/outbox.cif.g09.slc.cpg/sg51_11_cif.got.tgz:21004.got - 2010.04.16 13:43:02.
