data_PCOD8213084
_publ_section_title
;
Structure prediction by ZEFSAII (Michael W. Deem and Ramdas Pophale) SiO2 
 PCOD8213084
Probable space group: P M M A
;
_chemical_formula_sum "Si O2"
_cell_formula_units_Z 64
_cell_length_a 19.528905
_cell_length_b 8.816050
_cell_length_c 20.043559
_cell_angle_alpha 90.000000
_cell_angle_beta 90.000000
_cell_angle_gamma 90.000000
_cell_volume 3450.855516
_symmetry_space_group_name_H-M "P M M A"
_symmetry_group_IT_number 51
_symmetry_cell_setting 'orthorhombic'
loop_
_space_group_symop_operation_xyz
x,y,z
1/2-x,-y,z
1/2+x,-y,-z
-x,y,-z
-x,-y,-z
1/2+x,y,-z
1/2-x,y,z
x,-y,z
loop_
_atom_site_type_symbol
_atom_site_label
_atom_site_fract_x
_atom_site_fract_y
_atom_site_fract_z
Si Si1 0.920512 0.672009 0.677019
Si Si2 0.576728 0.323109 0.316713
Si Si3 0.570909 0.821615 0.177097
Si Si4 0.926702 0.676746 0.831320
Si Si5 0.670900 0.176043 0.936344
Si Si6 0.827363 0.177111 0.571693
Si Si7 0.827845 0.321176 0.435784
Si Si8 0.330256 0.324768 0.925877
O O1 0.900525 0.500000 0.659340
O O2 0.907728 0.705683 0.754549
O O3 0.873434 0.783042 0.634824
O O4 0.999352 0.703606 0.658897
O O5 0.588905 0.500000 0.299854
O O6 0.593250 0.227290 0.251053
O O7 0.626439 0.262158 0.374580
O O8 0.502669 0.735842 0.153322
O O9 0.631912 0.777681 0.128032
O O10 0.557557 0.000000 0.174949
O O11 0.923524 0.500000 0.849659
O O12 0.872225 0.769688 0.873503
O O13 0.750000 0.206760 0.919444
O O14 0.656839 0.000000 0.950567
O O15 0.647484 0.270830 0.000723
O O16 0.750000 0.234309 0.585399
O O17 0.856752 0.253963 0.504741
O O18 0.829377 0.000000 0.559983
O O19 0.750000 0.266938 0.423422
O O20 0.833315 0.500000 0.441147
O O21 0.250000 0.298363 0.915148
O O22 0.350691 0.500000 0.917117
#
# Coordination Sequence:
#
# PCOD8213084 Si02
#       8
#     8   8   8   8   8   8   8   8
#     4   9  19  35  54  75 102 137 175 217 259 306
#     4   9  19  36  55  78 107 138 176 218 261 312
#     4  11  22  36  56  82 112 143 177 221 273 322
#     4  10  21  38  58  80 108 143 184 224 264 317
#     4  10  21  37  57  83 114 143 175 221 274 323
#     4  10  21  35  51  74 105 137 171 216 266 315
#     4   9  18  34  56  78 102 136 176 215 256 308
#     4  10  21  38  59  81 108 144 184 223 263 314
#
# _framework density 18.546125
#
# number of rings (size 3 to 8) (size 9 to 14) (size 15 to 20)
#    0.000    2.250    0.000    3.375    0.000    7.250 
#    0.000    8.750    0.000    0.000    0.000    0.000 
#    0.000    0.000    0.000    0.000    0.000    0.000 
#
# Total GULP energy -793861.326966 kJ/mol
# GULP energy per Si atom -12404.083234 kJ/mol
# Density = 1.850391 g / cm^3
# Si number density = 18.546125 Si / 1000 Ang^3
#
#
#
# Elastic Constant Matrix: (Units=GPa)
#
#
# Indices 1 2 3 4 5 6 
#
# 1 73.7302 25.9058 60.2665 0.0000 0.0000 0.0000
# 2 25.9058 47.4740 30.2698 0.0000 0.0000 0.0000
# 3 60.2665 30.2698 98.7975 0.0000 0.0000 0.0000
# 4 0.0000 0.0000 0.0000 18.6639 0.0000 0.0000
# 5 0.0000 0.0000 0.0000 0.0000 33.0011 0.0000
# 6 0.0000 0.0000 0.0000 0.0000 0.0000 29.4637
#
#
#
# Elastic Compliance Matrix: (Units=1/GPa)
#
#
# Indices 1 2 3 4 5 6 
#
# 1 0.028155 -0.005484 -0.015494 0.000000 0.000000 0.000000
# 2 -0.005484 0.027246 -0.005002 0.000000 0.000000 0.000000
# 3 -0.015494 -0.005002 0.021106 0.000000 0.000000 0.000000
# 4 0.000000 0.000000 0.000000 0.053579 0.000000 0.000000
# 5 0.000000 0.000000 0.000000 0.000000 0.030302 0.000000
# 6 0.000000 0.000000 0.000000 0.000000 0.000000 0.033940
#
#
# Mechanical properties :
#
#
# Convention : Reuss Voigt Hill
#
# Bulk Modulus (GPa) = 40.74108 50.32067 45.53087
# Shear Modulus (GPa) = 19.64855 23.12971 21.38913
#
# Velocity S-wave (km/s) = 3.25844 3.53533 3.39970
# Velocity P-wave (km/s) = 6.01429 6.62241 6.32566
#
# Compressibility (1/GPa) = 0.02454525
#
# Stress axis : x y z
#
# Youngs Moduli (GPa) = 35.51807 36.70202 47.38050
#
# Poissons Ratio (x) = 0.20129 0.73412
# Poissons Ratio (y) = 0.19480 0.23701
# Poissons Ratio (z) = 0.55032 0.18360
#
# Static dielectric constant tensor:
#      x y z
#    x 3.426530 0.000000 0.000000 
#    y 0.000000 3.391620 0.000000 
#    z 0.000000 0.000000 3.403290 
# 
# 
# High freq. dielectric constant tensor:
#      x y z
#    x 1.717510 0.000000 0.000000 
#    y 0.000000 1.724160 0.000000 
#    z 0.000000 0.000000 1.723710 
# 
# From -- ./inp_files/30553.got.cif
#   From: 2010.03.12/outbox.cif.g09.slc.cpg/sg51_16_cif.got.tgz:30553.got - 2010.04.16 13:43:02.
