data_PCOD8213458
_publ_section_title
;
Structure prediction by ZEFSAII (Michael W. Deem and Ramdas Pophale) SiO2 
 PCOD8213458
Probable space group: P M M A
;
_chemical_formula_sum "Si O2"
_cell_formula_units_Z 40
_cell_length_a 9.349828
_cell_length_b 14.200037
_cell_length_c 15.480775
_cell_angle_alpha 90.000000
_cell_angle_beta 90.000000
_cell_angle_gamma 90.000000
_cell_volume 2055.350042
_symmetry_space_group_name_H-M "P M M A"
_symmetry_group_IT_number 51
_symmetry_cell_setting 'orthorhombic'
loop_
_space_group_symop_operation_xyz
x,y,z
1/2-x,-y,z
1/2+x,-y,-z
-x,y,-z
-x,-y,-z
1/2+x,y,-z
1/2-x,y,z
x,-y,z
loop_
_atom_site_type_symbol
_atom_site_label
_atom_site_fract_x
_atom_site_fract_y
_atom_site_fract_z
Si Si1 0.584189 0.705717 0.582604
Si Si2 0.585987 0.611163 0.760880
Si Si3 0.413258 0.895658 0.834386
Si Si4 0.083013 0.704085 0.915300
Si Si5 0.916040 0.104145 0.663656
O O1 0.500000 0.666099 0.500000
O O2 0.750000 0.688829 0.564337
O O3 0.535854 0.650286 0.668131
O O4 0.546922 0.816895 0.592941
O O5 0.750000 0.642004 0.779853
O O6 0.570606 0.500000 0.759497
O O7 0.481186 0.651742 0.832900
O O8 0.250000 0.893020 0.803101
O O9 0.440013 0.816871 0.907080
O O10 0.506457 0.869544 0.751921
O O11 0.452879 0.000000 0.870751
O O12 0.250000 0.677996 0.923772
O O13 0.000000 0.668683 0.000000
O O14 0.750000 0.107341 0.686537
O O15 0.961821 0.000000 0.629787
#
# Coordination Sequence:
#
# PCOD8213458 Si02
#       5
#     8   8   8   8   8
#     4  10  21  36  56  84 116 149 188 231 280 338
#     4  10  22  42  64  84 111 147 188 239 294 342
#     4   9  18  33  54  82 115 150 188 229 274 327
#     4  11  23  38  60  88 118 151 189 232 281 338
#     4   9  17  31  53  80 111 149 190 230 275 330
#
# _framework density 19.461406
#
# number of rings (size 3 to 8) (size 9 to 14) (size 15 to 20)
#    0.000    2.200    2.000    0.600    0.000    4.400 
#    0.000    0.000    0.000    0.000    0.000    0.000 
#    0.000    0.000    0.000    0.000    0.000    0.000 
#
# Total GULP energy -495941.834944 kJ/mol
# GULP energy per Si atom -12398.545874 kJ/mol
# Density = 1.941711 g / cm^3
# Si number density = 19.461406 Si / 1000 Ang^3
#
#
#
# Elastic Constant Matrix: (Units=GPa)
#
#
# Indices 1 2 3 4 5 6 
#
# 1 83.2778 39.4557 71.2435 0.0000 0.0000 0.0000
# 2 39.4557 78.1003 47.1097 0.0000 0.0000 0.0000
# 3 71.2435 47.1097 138.3198 0.0000 0.0000 0.0000
# 4 0.0000 0.0000 0.0000 10.8744 0.0000 0.0000
# 5 0.0000 0.0000 0.0000 0.0000 37.8866 0.0000
# 6 0.0000 0.0000 0.0000 0.0000 0.0000 23.5140
#
#
#
# Elastic Compliance Matrix: (Units=1/GPa)
#
#
# Indices 1 2 3 4 5 6 
#
# 1 0.023330 -0.005711 -0.010071 0.000000 0.000000 0.000000
# 2 -0.005711 0.017513 -0.003023 0.000000 0.000000 0.000000
# 3 -0.010071 -0.003023 0.013446 0.000000 0.000000 0.000000
# 4 0.000000 0.000000 0.000000 0.091959 0.000000 0.000000
# 5 0.000000 0.000000 0.000000 0.000000 0.026395 0.000000
# 6 0.000000 0.000000 0.000000 0.000000 0.000000 0.042528
#
#
# Mechanical properties :
#
#
# Convention : Reuss Voigt Hill
#
# Bulk Modulus (GPa) = 59.95787 68.36839 64.16313
# Shear Modulus (GPa) = 19.35437 23.91428 21.63432
#
# Velocity S-wave (km/s) = 3.15699 3.50923 3.33776
# Velocity P-wave (km/s) = 6.64562 7.18513 6.92064
#
# Compressibility (1/GPa) = 0.01667838
#
# Stress axis : x y z
#
# Youngs Moduli (GPa) = 42.86409 57.10141 74.36907
#
# Poissons Ratio (x) = 0.32611 0.74898
# Poissons Ratio (y) = 0.24480 0.22482
# Poissons Ratio (z) = 0.43169 0.17262
#
# Static dielectric constant tensor:
#      x y z
#    x 3.259610 0.000000 0.000000 
#    y 0.000000 3.796700 0.000000 
#    z 0.000000 0.000000 3.278280 
# 
# 
# High freq. dielectric constant tensor:
#      x y z
#    x 1.755720 0.000000 0.000000 
#    y 0.000000 1.766180 0.000000 
#    z 0.000000 0.000000 1.740660 
# 
# From -- ./inp_files/20473.got.cif
#   From: 2010.03.12/outbox.cif.g09.slc.cpg/sg51_11_cif.got.tgz:20473.got - 2010.04.16 13:43:02.
