data_PCOD8213241
_publ_section_title
;
Structure prediction by ZEFSAII (Michael W. Deem and Ramdas Pophale) SiO2 
 PCOD8213241
Probable space group: P M M A
;
_chemical_formula_sum "Si O2"
_cell_formula_units_Z 32
_cell_length_a 9.083184
_cell_length_b 9.777477
_cell_length_c 20.366073
_cell_angle_alpha 90.000000
_cell_angle_beta 90.000000
_cell_angle_gamma 90.000000
_cell_volume 1808.723624
_symmetry_space_group_name_H-M "P M M A"
_symmetry_group_IT_number 51
_symmetry_cell_setting 'orthorhombic'
loop_
_space_group_symop_operation_xyz
x,y,z
1/2-x,-y,z
1/2+x,-y,-z
-x,y,-z
-x,-y,-z
1/2+x,y,-z
1/2-x,y,z
x,-y,z
loop_
_atom_site_type_symbol
_atom_site_label
_atom_site_fract_x
_atom_site_fract_y
_atom_site_fract_z
Si Si1 0.077626 0.342883 0.433163
Si Si2 0.076674 0.656798 0.933995
Si Si3 0.920007 0.159940 0.328160
Si Si4 0.424804 0.151099 0.819299
O O1 0.250000 0.321056 0.442448
O O2 0.038478 0.500000 0.416740
O O3 0.000000 0.295661 0.500000
O O4 0.022072 0.248616 0.374702
O O5 0.250000 0.676849 0.942307
O O6 0.034376 0.500000 0.920641
O O7 0.012972 0.742509 0.872636
O O8 0.000000 0.711024 0.000000
O O9 0.750000 0.200883 0.338833
O O10 0.972014 0.194571 0.254017
O O11 0.942835 0.000000 0.343103
O O12 0.250000 0.147487 0.821881
O O13 0.486922 0.000000 0.835795
#
# Coordination Sequence:
#
# PCOD8213241 Si02
#       4
#     8   8   8   8
#     4  10  21  36  53  74 100 130 164 201 241 286
#     4   9  17  29  45  66  92 122 156 193 233 277
#     4   9  18  33  53  76 100 127 161 201 245 292
#     4   8  15  29  48  69  93 121 155 194 233 278
#
# _framework density 17.692034
#
# number of rings (size 3 to 8) (size 9 to 14) (size 15 to 20)
#    0.000    3.000    0.000    2.250    0.000    4.000 
#    0.000    3.750    0.000    4.500    0.000    0.000 
#    0.000    0.000    0.000    0.000    0.000    0.000 
#
# Total GULP energy -396756.672435 kJ/mol
# GULP energy per Si atom -12398.646014 kJ/mol
# Density = 1.765177 g / cm^3
# Si number density = 17.692034 Si / 1000 Ang^3
#
#
#
# Elastic Constant Matrix: (Units=GPa)
#
#
# Indices 1 2 3 4 5 6 
#
# 1 48.0923 35.0823 46.8964 0.0000 0.0000 0.0000
# 2 35.0823 84.6261 88.3253 0.0000 0.0000 0.0000
# 3 46.8964 88.3253 163.5471 0.0000 0.0000 0.0000
# 4 0.0000 0.0000 0.0000 34.7933 0.0000 0.0000
# 5 0.0000 0.0000 0.0000 0.0000 31.3234 0.0000
# 6 0.0000 0.0000 0.0000 0.0000 0.0000 23.8251
#
#
#
# Elastic Compliance Matrix: (Units=1/GPa)
#
#
# Indices 1 2 3 4 5 6 
#
# 1 0.031184 -0.008239 -0.004493 0.000000 0.000000 0.000000
# 2 -0.008239 0.029258 -0.013439 0.000000 0.000000 0.000000
# 3 -0.004493 -0.013439 0.014661 0.000000 0.000000 0.000000
# 4 0.000000 0.000000 0.000000 0.028741 0.000000 0.000000
# 5 0.000000 0.000000 0.000000 0.000000 0.031925 0.000000
# 6 0.000000 0.000000 0.000000 0.000000 0.000000 0.041973
#
#
# Mechanical properties :
#
#
# Convention : Reuss Voigt Hill
#
# Bulk Modulus (GPa) = 43.93128 70.76371 57.34749
# Shear Modulus (GPa) = 21.03761 26.38580 23.71170
#
# Velocity S-wave (km/s) = 3.45207 3.86605 3.66491
# Velocity P-wave (km/s) = 6.38546 7.74679 7.09883
#
# Compressibility (1/GPa) = 0.02276283
#
# Stress axis : x y z
#
# Youngs Moduli (GPa) = 32.06760 34.17816 68.21046
#
# Poissons Ratio (x) = 0.28158 0.30644
# Poissons Ratio (y) = 0.26419 0.91668
# Poissons Ratio (z) = 0.14407 0.45932
#
# Static dielectric constant tensor:
#      x y z
#    x 2.614060 0.000000 0.000000 
#    y 0.000000 3.407480 0.000000 
#    z 0.000000 0.000000 3.494190 
# 
# 
# High freq. dielectric constant tensor:
#      x y z
#    x 1.657170 0.000000 0.000000 
#    y 0.000000 1.683260 0.000000 
#    z 0.000000 0.000000 1.693550 
# 
# From -- ./inp_files/19994.got.cif
#   From: 2010.03.12/outbox.cif.g09.slc.cpg/sg51_10_cif.got.tgz:19994.got - 2010.04.16 13:43:02.
