data_PCOD8213243
_publ_section_title
;
Structure prediction by ZEFSAII (Michael W. Deem and Ramdas Pophale) SiO2 
 PCOD8213243
Probable space group: P M M A
;
_chemical_formula_sum "Si O2"
_cell_formula_units_Z 48
_cell_length_a 8.972369
_cell_length_b 9.700521
_cell_length_c 30.564646
_cell_angle_alpha 90.000000
_cell_angle_beta 90.000000
_cell_angle_gamma 90.000000
_cell_volume 2660.244516
_symmetry_space_group_name_H-M "P M M A"
_symmetry_group_IT_number 51
_symmetry_cell_setting 'orthorhombic'
loop_
_space_group_symop_operation_xyz
x,y,z
1/2-x,-y,z
1/2+x,-y,-z
-x,y,-z
-x,-y,-z
1/2+x,y,-z
1/2-x,y,z
x,-y,z
loop_
_atom_site_type_symbol
_atom_site_label
_atom_site_fract_x
_atom_site_fract_y
_atom_site_fract_z
Si Si1 0.923506 0.839402 0.618550
Si Si2 0.927031 0.652354 0.214040
Si Si3 0.421745 0.338494 0.883751
Si Si4 0.924597 0.658815 0.454856
Si Si5 0.924708 0.842459 0.955450
Si Si6 0.077178 0.159261 0.708106
O O1 0.750000 0.803945 0.615641
O O2 0.011877 0.752423 0.583248
O O3 0.982926 0.795883 0.666053
O O4 0.955086 0.000000 0.609750
O O5 0.750000 0.648726 0.214796
O O6 0.989698 0.500000 0.224856
O O7 0.976767 0.697731 0.165434
O O8 0.987596 0.757632 0.250426
O O9 0.250000 0.295875 0.890452
O O10 0.443099 0.500000 0.893073
O O11 0.523991 0.251971 0.915801
O O12 0.750000 0.684661 0.459291
O O13 0.961536 0.500000 0.444096
O O14 0.000000 0.704684 0.500000
O O15 0.750000 0.826996 0.961512
O O16 0.971515 0.000000 0.945609
O O17 0.000000 0.789644 0.000000
O O18 0.250000 0.193678 0.698916
O O19 0.054129 0.000000 0.719274
#
# Coordination Sequence:
#
# PCOD8213243 Si02
#       6
#     8   8   8   8   8   8
#     4  10  21  36  53  75 105 140 175 211 253 301
#     4   8  15  29  49  73 100 129 164 206 249 296
#     4   9  18  33  53  77 104 134 168 206 250 301
#     4  10  21  37  57  80 105 134 169 210 256 305
#     4  10  21  36  53  74 100 131 168 209 253 301
#     4   9  17  30  49  73 100 131 169 211 252 295
#
# _framework density 18.043455999999999
#
# number of rings (size 3 to 8) (size 9 to 14) (size 15 to 20)
#    0.000    2.667    0.000    2.500    0.000    5.333 
#    0.000    4.167    0.000    3.000    0.000    0.000 
#    0.000    0.000    0.000    0.000    0.000    0.000 
#
# Total GULP energy -595237.287359 kJ/mol
# GULP energy per Si atom -12400.776820 kJ/mol
# Density = 1.800239 g / cm^3
# Si number density = 18.043456 Si / 1000 Ang^3
#
#
#
# Elastic Constant Matrix: (Units=GPa)
#
#
# Indices 1 2 3 4 5 6 
#
# 1 67.2700 38.3623 53.4794 0.0000 0.0000 0.0000
# 2 38.3623 73.2893 79.9245 0.0000 0.0000 0.0000
# 3 53.4794 79.9245 156.5416 0.0000 0.0000 0.0000
# 4 0.0000 0.0000 0.0000 38.1107 0.0000 0.0000
# 5 0.0000 0.0000 0.0000 0.0000 32.0014 0.0000
# 6 0.0000 0.0000 0.0000 0.0000 0.0000 26.0495
#
#
#
# Elastic Compliance Matrix: (Units=1/GPa)
#
#
# Indices 1 2 3 4 5 6 
#
# 1 0.022107 -0.007525 -0.003710 0.000000 0.000000 0.000000
# 2 -0.007525 0.033347 -0.014455 0.000000 0.000000 0.000000
# 3 -0.003710 -0.014455 0.015036 0.000000 0.000000 0.000000
# 4 0.000000 0.000000 0.000000 0.026239 0.000000 0.000000
# 5 0.000000 0.000000 0.000000 0.000000 0.031249 0.000000
# 6 0.000000 0.000000 0.000000 0.000000 0.000000 0.038388
#
#
# Mechanical properties :
#
#
# Convention : Reuss Voigt Hill
#
# Bulk Modulus (GPa) = 52.33245 71.18149 61.75697
# Shear Modulus (GPa) = 22.30979 27.58796 24.94887
#
# Velocity S-wave (km/s) = 3.52013 3.91445 3.72252
# Velocity P-wave (km/s) = 6.75191 7.74379 7.26480
#
# Compressibility (1/GPa) = 0.01910860
#
# Stress axis : x y z
#
# Youngs Moduli (GPa) = 45.23554 29.98728 66.50792
#
# Poissons Ratio (x) = 0.22567 0.24675
# Poissons Ratio (y) = 0.34042 0.96138
# Poissons Ratio (z) = 0.16783 0.43347
#
# Static dielectric constant tensor:
#      x y z
#    x 3.117050 0.000000 0.000000 
#    y 0.000000 3.397670 0.000000 
#    z 0.000000 0.000000 3.545050 
# 
# 
# High freq. dielectric constant tensor:
#      x y z
#    x 1.686220 0.000000 0.000000 
#    y 0.000000 1.696050 0.000000 
#    z 0.000000 0.000000 1.708980 
# 
# From -- ./inp_files/37017.got.cif
#   From: 2010.03.12/outbox.cif.g09.slc.cpg/sg51_19_cif.got.tgz:37017.got - 2010.04.16 13:43:02.
