data_PCOD8213380
_publ_section_title
;
Structure prediction by ZEFSAII (Michael W. Deem and Ramdas Pophale) SiO2 
 PCOD8213380
Probable space group: P M M A
;
_chemical_formula_sum "Si O2"
_cell_formula_units_Z 56
_cell_length_a 13.716244
_cell_length_b 9.213277
_cell_length_c 23.483116
_cell_angle_alpha 90.000000
_cell_angle_beta 90.000000
_cell_angle_gamma 90.000000
_cell_volume 2967.597894
_symmetry_space_group_name_H-M "P M M A"
_symmetry_group_IT_number 51
_symmetry_cell_setting 'orthorhombic'
loop_
_space_group_symop_operation_xyz
x,y,z
1/2-x,-y,z
1/2+x,-y,-z
-x,y,-z
-x,-y,-z
1/2+x,y,-z
1/2-x,y,z
x,-y,z
loop_
_atom_site_type_symbol
_atom_site_label
_atom_site_fract_x
_atom_site_fract_y
_atom_site_fract_z
Si Si1 0.047365 0.671908 0.088661
Si Si2 0.356878 0.328137 0.972333
Si Si3 0.450828 0.332416 0.301481
Si Si4 0.358688 0.666968 0.639614
Si Si5 0.633803 0.163550 0.470786
Si Si6 0.637134 0.171415 0.804339
Si Si7 0.365575 0.663917 0.421421
O O1 0.055987 0.500000 0.099627
O O2 0.080989 0.757169 0.143576
O O3 0.935697 0.719247 0.074975
O O4 0.113015 0.723405 0.035462
O O5 0.250000 0.263884 0.957082
O O6 0.354336 0.500000 0.973822
O O7 0.424785 0.500000 0.287441
O O8 0.568069 0.311275 0.307208
O O9 0.410775 0.228605 0.253143
O O10 0.402348 0.281145 0.360380
O O11 0.250000 0.720166 0.657472
O O12 0.356030 0.500000 0.620787
O O13 0.401574 0.752732 0.585514
O O14 0.750000 0.170628 0.472899
O O15 0.590326 0.236455 0.528103
O O16 0.594938 0.000000 0.467862
O O17 0.750000 0.217201 0.806283
O O18 0.624000 0.000000 0.807266
O O19 0.250000 0.673057 0.421638
O O20 0.401992 0.500000 0.431797
#
# Coordination Sequence:
#
# PCOD8213380 Si02
#       7
#     8   8   8   8   8   8   8
#     4   9  17  31  55  83 109 143 183 216 251 298
#     4   8  14  27  51  85 118 143 174 219 261 293
#     4  10  21  36  55  76  96 127 173 216 254 301
#     4   9  18  34  54  74  97 125 161 209 260 306
#     4   9  17  29  47  71  98 129 162 196 245 311
#     4  11  24  39  54  75 105 138 170 209 258 307
#     4   9  17  30  48  70  96 124 157 203 255 303
#
# _framework density 18.870481999999999
#
# number of rings (size 3 to 8) (size 9 to 14) (size 15 to 20)
#    0.000    2.714    0.000    2.571    0.000    5.714 
#    0.000    6.429    0.000    5.571    0.000    0.000 
#    0.000    0.000    0.000    0.000    0.000    0.000 
#
# Total GULP energy -694284.656211 kJ/mol
# GULP energy per Si atom -12397.940289 kJ/mol
# Density = 1.882753 g / cm^3
# Si number density = 18.870482 Si / 1000 Ang^3
#
#
#
# Elastic Constant Matrix: (Units=GPa)
#
#
# Indices 1 2 3 4 5 6 
#
# 1 104.4758 37.7786 65.7721 0.0000 0.0000 0.0000
# 2 37.7786 74.8113 58.5318 0.0000 0.0000 0.0000
# 3 65.7721 58.5318 121.4519 0.0000 0.0000 0.0000
# 4 0.0000 0.0000 0.0000 -0.3131 0.0000 0.0000
# 5 0.0000 0.0000 0.0000 0.0000 27.9154 0.0000
# 6 0.0000 0.0000 0.0000 0.0000 0.0000 16.9866
#
#
#
# Elastic Compliance Matrix: (Units=1/GPa)
#
#
# Indices 1 2 3 4 5 6 
#
# 1 0.014692 -0.001917 -0.007033 0.000000 0.000000 0.000000
# 2 -0.001917 0.021708 -0.009424 0.000000 0.000000 0.000000
# 3 -0.007033 -0.009424 0.016584 0.000000 0.000000 0.000000
# 4 0.000000 0.000000 0.000000 -3.193950 0.000000 0.000000
# 5 0.000000 0.000000 0.000000 0.000000 0.035823 0.000000
# 6 0.000000 0.000000 0.000000 0.000000 0.000000 0.058870
#
#
# Mechanical properties :
#
#
# Convention : Reuss Voigt Hill
#
# Bulk Modulus (GPa) = 61.58652 69.43379 65.51015
# Shear Modulus (GPa) = -1.66438 18.16155 8.24859
#
# Velocity S-wave (km/s) = -0.94017 3.10567 2.09300
# Velocity P-wave (km/s) = 5.61504 7.05231 6.37432
#
# Compressibility (1/GPa) = 0.01623732
#
# Stress axis : x y z
#
# Youngs Moduli (GPa) = 68.06367 46.06584 60.29978
#
# Poissons Ratio (x) = 0.08831 0.42406
# Poissons Ratio (y) = 0.13048 0.56825
# Poissons Ratio (z) = 0.47867 0.43411
#
# Static dielectric constant tensor:
#      x y z
#    x 3.898420 0.000000 0.000000 
#    y 0.000000 3.289860 0.000000 
#    z 0.000000 0.000000 3.303540 
# 
# 
# High freq. dielectric constant tensor:
#      x y z
#    x 1.749880 0.000000 0.000000 
#    y 0.000000 1.709790 0.000000 
#    z 0.000000 0.000000 1.716510 
# 
# From -- ./inp_files/33297.got.cif
#   From: 2010.03.12/outbox.cif.g09.slc.cpg/sg51_17_cif.got.tgz:33297.got - 2010.04.16 13:43:02.
