data_PCOD8213941
_publ_section_title
;
Structure prediction by ZEFSAII (Michael W. Deem and Ramdas Pophale) SiO2 
 PCOD8213941
Probable space group: P M M A
;
_chemical_formula_sum "Si O2"
_cell_formula_units_Z 56
_cell_length_a 23.166151
_cell_length_b 13.626923
_cell_length_c 9.137515
_cell_angle_alpha 90.000000
_cell_angle_beta 90.000000
_cell_angle_gamma 90.000000
_cell_volume 2884.561400
_symmetry_space_group_name_H-M "P M M A"
_symmetry_group_IT_number 51
_symmetry_cell_setting 'orthorhombic'
loop_
_space_group_symop_operation_xyz
x,y,z
1/2-x,-y,z
1/2+x,-y,-z
-x,y,-z
-x,-y,-z
1/2+x,y,-z
1/2-x,y,z
x,-y,z
loop_
_atom_site_type_symbol
_atom_site_label
_atom_site_fract_x
_atom_site_fract_y
_atom_site_fract_z
Si Si1 0.336972 0.610930 0.832586
Si Si2 0.882462 0.113969 0.258633
Si Si3 0.313016 0.801176 0.996388
Si Si4 0.560949 0.610506 0.966131
Si Si5 0.883873 0.751215 0.740548
Si Si6 0.009145 0.110284 0.328690
Si Si7 0.318338 0.731381 0.553626
O O1 0.312220 0.500000 0.853881
O O2 0.304467 0.690068 0.934420
O O3 0.330773 0.640611 0.662710
O O4 0.403597 0.615026 0.882125
O O5 0.857793 0.136111 0.098643
O O6 0.949241 0.149126 0.257459
O O7 0.843342 0.168662 0.378249
O O8 0.878974 0.000000 0.298907
O O9 0.250000 0.851148 0.992713
O O10 0.335792 0.805798 0.161976
O O11 0.550077 0.500000 0.913893
O O12 0.593782 0.659137 0.831719
O O13 0.500000 0.663047 0.000000
O O14 0.852639 0.711029 0.595767
O O15 0.937274 0.822156 0.710887
O O16 0.000000 0.111442 0.500000
O O17 0.022682 0.000000 0.273346
O O18 0.250000 0.742675 0.525421
#
# Coordination Sequence:
#
# PCOD8213941 Si02
#       7
#     8   8   8   8   8   8   8
#     4   9  19  37  59  83 112 150 194 233 275 328
#     4  10  21  39  61  84 111 148 192 237 282 333
#     4  10  22  38  57  85 116 151 194 232 277 340
#     4   9  20  37  58  85 117 150 188 231 281 343
#     4  11  23  36  60  83 120 153 183 231 299 331
#     4  10  21  38  60  86 115 145 188 236 283 344
#     4  11  23  37  56  86 116 149 193 234 279 340
#
# _framework density 19.413696999999999
#
# number of rings (size 3 to 8) (size 9 to 14) (size 15 to 20)
#    0.000    2.000    1.429    2.143    6.000    3.429 
#    0.000    1.429    0.000    8.143    0.000    0.000 
#    0.000    0.000    0.000    0.000    0.000    0.000 
#
# Total GULP energy -694154.676893 kJ/mol
# GULP energy per Si atom -12395.619230 kJ/mol
# Density = 1.936951 g / cm^3
# Si number density = 19.413697 Si / 1000 Ang^3
#
#
#
# Elastic Constant Matrix: (Units=GPa)
#
#
# Indices 1 2 3 4 5 6 
#
# 1 160.1430 38.7903 54.2637 0.0000 0.0000 0.0000
# 2 38.7903 69.2788 17.3128 0.0000 0.0000 0.0000
# 3 54.2637 17.3128 107.9840 0.0000 0.0000 0.0000
# 4 0.0000 0.0000 0.0000 18.2040 0.0000 0.0000
# 5 0.0000 0.0000 0.0000 0.0000 26.9213 0.0000
# 6 0.0000 0.0000 0.0000 0.0000 0.0000 25.2990
#
#
#
# Elastic Compliance Matrix: (Units=1/GPa)
#
#
# Indices 1 2 3 4 5 6 
#
# 1 0.008385 -0.003794 -0.003605 0.000000 0.000000 0.000000
# 2 -0.003794 0.016754 -0.000780 0.000000 0.000000 0.000000
# 3 -0.003605 -0.000780 0.011197 0.000000 0.000000 0.000000
# 4 0.000000 0.000000 0.000000 0.054933 0.000000 0.000000
# 5 0.000000 0.000000 0.000000 0.000000 0.037145 0.000000
# 6 0.000000 0.000000 0.000000 0.000000 0.000000 0.039527
#
#
# Mechanical properties :
#
#
# Convention : Reuss Voigt Hill
#
# Bulk Modulus (GPa) = 50.05437 62.01549 56.03493
# Shear Modulus (GPa) = 26.18368 29.22079 27.70223
#
# Velocity S-wave (km/s) = 3.67648 3.88385 3.78159
# Velocity P-wave (km/s) = 6.62276 7.21983 6.92773
#
# Compressibility (1/GPa) = 0.01997828
#
# Stress axis : x y z
#
# Youngs Moduli (GPa) = 119.25986 59.68898 89.30676
#
# Poissons Ratio (x) = 0.22646 0.32198
# Poissons Ratio (y) = 0.45246 0.06962
# Poissons Ratio (z) = 0.42997 0.04653
#
# Static dielectric constant tensor:
#      x y z
#    x 3.954060 0.000000 0.000000 
#    y 0.000000 3.529220 0.000000 
#    z 0.000000 0.000000 3.528280 
# 
# 
# High freq. dielectric constant tensor:
#      x y z
#    x 1.774780 0.000000 0.000000 
#    y 0.000000 1.744740 0.000000 
#    z 0.000000 0.000000 1.748270 
# 
# From -- ./inp_files/11043.got.cif
#   From: 2010.03.12/outbox.cif.g09.slc.cpg/sg51_6_cif.got.tgz:11043.got - 2010.04.16 13:43:02.
