data_PCOD8213036
_publ_section_title
;
Structure prediction by ZEFSAII (Michael W. Deem and Ramdas Pophale) SiO2 
 PCOD8213036
Probable space group: P M M A
;
_chemical_formula_sum "Si O2"
_cell_formula_units_Z 48
_cell_length_a 9.654579
_cell_length_b 9.513954
_cell_length_c 30.789993
_cell_angle_alpha 90.000000
_cell_angle_beta 90.000000
_cell_angle_gamma 90.000000
_cell_volume 2828.160016
_symmetry_space_group_name_H-M "P M M A"
_symmetry_group_IT_number 51
_symmetry_cell_setting 'orthorhombic'
loop_
_space_group_symop_operation_xyz
x,y,z
1/2-x,-y,z
1/2+x,-y,-z
-x,y,-z
-x,-y,-z
1/2+x,y,-z
1/2-x,y,z
x,-y,z
loop_
_atom_site_type_symbol
_atom_site_label
_atom_site_fract_x
_atom_site_fract_y
_atom_site_fract_z
Si Si1 0.904278 0.667955 0.038029
Si Si2 0.413874 0.154617 0.790502
Si Si3 0.088621 0.836075 0.692884
Si Si4 0.415321 0.655837 0.866948
Si Si5 0.088415 0.664026 0.374709
Si Si6 0.409922 0.161208 0.458838
O O1 0.750000 0.725717 0.029715
O O2 0.903794 0.500000 0.037318
O O3 0.958792 0.716983 0.085654
O O4 0.000000 0.730896 0.000000
O O5 0.250000 0.147791 0.795977
O O6 0.448756 0.208902 0.742181
O O7 0.479365 0.252619 0.827815
O O8 0.477517 0.000000 0.797053
O O9 0.250000 0.809702 0.683034
O O10 0.997862 0.735951 0.663174
O O11 0.052437 0.000000 0.685074
O O12 0.250000 0.651406 0.864805
O O13 0.476196 0.500000 0.860805
O O14 0.250000 0.687142 0.364816
O O15 0.050495 0.500000 0.377695
O O16 0.046332 0.737781 0.419666
O O17 0.500000 0.206804 0.500000
O O18 0.250000 0.181521 0.471397
O O19 0.440744 0.000000 0.445349
#
# Coordination Sequence:
#
# PCOD8213036 Si02
#       6
#     8   8   8   8   8   8
#     4   8  13  21  34  53  76 102 134 170 206 247
#     4   8  14  25  41  62  87 112 140 178 221 262
#     4   9  18  32  50  72  95 120 155 196 233 273
#     4   8  13  21  35  56  79 104 137 175 213 255
#     4  10  21  35  50  71 100 131 160 190 228 276
#     4   9  18  33  52  72  94 123 159 195 229 267
#
# _framework density 16.972166000000001
#
# number of rings (size 3 to 8) (size 9 to 14) (size 15 to 20)
#    0.000    3.333    0.000    2.500    0.000    3.000 
#    0.000    3.333    0.000    1.500    0.000    2.333 
#    0.000    0.000    0.000    0.000    0.000    0.000 
#
# Total GULP energy -594909.046018 kJ/mol
# GULP energy per Si atom -12393.938459 kJ/mol
# Density = 1.693354 g / cm^3
# Si number density = 16.972166 Si / 1000 Ang^3
#
#
#
# Elastic Constant Matrix: (Units=GPa)
#
#
# Indices 1 2 3 4 5 6 
#
# 1 44.3817 37.3806 60.9412 0.0000 0.0000 0.0000
# 2 37.3806 87.5325 85.2904 0.0000 0.0000 0.0000
# 3 60.9412 85.2904 175.7671 0.0000 0.0000 0.0000
# 4 0.0000 0.0000 0.0000 26.2244 0.0000 0.0000
# 5 0.0000 0.0000 0.0000 0.0000 26.5408 0.0000
# 6 0.0000 0.0000 0.0000 0.0000 0.0000 17.5078
#
#
#
# Elastic Compliance Matrix: (Units=1/GPa)
#
#
# Indices 1 2 3 4 5 6 
#
# 1 0.045598 -0.007716 -0.012065 0.000000 0.000000 0.000000
# 2 -0.007716 0.022976 -0.008474 0.000000 0.000000 0.000000
# 3 -0.012065 -0.008474 0.013984 0.000000 0.000000 0.000000
# 4 0.000000 0.000000 0.000000 0.038132 0.000000 0.000000
# 5 0.000000 0.000000 0.000000 0.000000 0.037678 0.000000
# 6 0.000000 0.000000 0.000000 0.000000 0.000000 0.057117
#
#
# Mechanical properties :
#
#
# Convention : Reuss Voigt Hill
#
# Bulk Modulus (GPa) = 38.39079 74.98952 56.69015
# Shear Modulus (GPa) = 17.81393 22.32588 20.06990
#
# Velocity S-wave (km/s) = 3.24326 3.63084 3.44251
# Velocity P-wave (km/s) = 6.05755 7.86492 7.01965
#
# Compressibility (1/GPa) = 0.02604792
#
# Stress axis : x y z
#
# Youngs Moduli (GPa) = 21.93095 43.52304 71.50821
#
# Poissons Ratio (x) = 0.33584 0.86275
# Poissons Ratio (y) = 0.16923 0.60595
# Poissons Ratio (z) = 0.26460 0.36881
#
# Static dielectric constant tensor:
#      x y z
#    x 2.843380 0.000000 0.000000 
#    y 0.000000 3.200260 0.000000 
#    z 0.000000 0.000000 3.427690 
# 
# 
# High freq. dielectric constant tensor:
#      x y z
#    x 1.614140 0.000000 0.000000 
#    y 0.000000 1.635440 0.000000 
#    z 0.000000 0.000000 1.668970 
# 
# From -- ./inp_files/36507.got.cif
#   From: 2010.03.12/outbox.cif.g09.slc.cpg/sg51_19_cif.got.tgz:36507.got - 2010.04.16 13:43:02.
