data_PCOD8213778
_publ_section_title
;
Structure prediction by ZEFSAII (Michael W. Deem and Ramdas Pophale) SiO2 
 PCOD8213778
Probable space group: P M M A
;
_chemical_formula_sum "Si O2"
_cell_formula_units_Z 48
_cell_length_a 8.948901
_cell_length_b 18.314091
_cell_length_c 15.393038
_cell_angle_alpha 90.000000
_cell_angle_beta 90.000000
_cell_angle_gamma 90.000000
_cell_volume 2522.780195
_symmetry_space_group_name_H-M "P M M A"
_symmetry_group_IT_number 51
_symmetry_cell_setting 'orthorhombic'
loop_
_space_group_symop_operation_xyz
x,y,z
1/2-x,-y,z
1/2+x,-y,-z
-x,y,-z
-x,-y,-z
1/2+x,y,-z
1/2-x,y,z
x,-y,z
loop_
_atom_site_type_symbol
_atom_site_label
_atom_site_fract_x
_atom_site_fract_y
_atom_site_fract_z
Si Si1 0.074558 0.416708 0.910636
Si Si2 0.078149 0.333888 0.242721
Si Si3 0.576110 0.915030 0.089905
Si Si4 0.077313 0.838069 0.249960
Si Si5 0.424381 0.084745 0.590152
Si Si6 0.925389 0.416581 0.587315
O O1 0.250000 0.408377 0.921582
O O2 0.028477 0.500000 0.888572
O O3 0.019995 0.363765 0.835428
O O4 0.000000 0.390904 0.000000
O O5 0.250000 0.356255 0.226835
O O6 0.057675 0.248083 0.249224
O O7 0.017635 0.369131 0.331753
O O8 0.750000 0.895430 0.084756
O O9 0.500361 0.869398 0.165167
O O10 0.550515 0.000000 0.109788
O O11 0.500000 0.891946 0.000000
O O12 0.250000 0.861677 0.250795
O O13 0.997957 0.868198 0.334909
O O14 0.500000 0.107543 0.500000
O O15 0.250000 0.102820 0.584554
O O16 0.452741 0.000000 0.611015
O O17 0.750000 0.409209 0.575218
O O18 0.974966 0.500000 0.603654
O O19 0.000000 0.385420 0.500000
#
# Coordination Sequence:
#
# PCOD8213778 Si02
#       6
#     8   8   8   8   8   8
#     4  10  21  37  59  85 110 141 183 229 276 326
#     4  10  22  38  55  79 112 149 185 222 270 326
#     4  10  21  38  60  84 109 141 183 228 275 328
#     4  11  23  37  55  82 115 149 185 226 275 331
#     4  10  21  38  60  84 110 144 187 233 280 330
#     4   9  18  34  56  79 104 137 177 221 266 312
#
# _framework density 19.026627999999999
#
# number of rings (size 3 to 8) (size 9 to 14) (size 15 to 20)
#    0.000    2.000    0.000    3.000    0.000    9.000 
#    0.000    3.333    0.000    0.000    0.000    0.000 
#    0.000    0.000    0.000    0.000    0.000    0.000 
#
# Total GULP energy -595445.233800 kJ/mol
# GULP energy per Si atom -12405.109038 kJ/mol
# Density = 1.898332 g / cm^3
# Si number density = 19.026628 Si / 1000 Ang^3
#
#
#
# Elastic Constant Matrix: (Units=GPa)
#
#
# Indices 1 2 3 4 5 6 
#
# 1 111.8437 53.6500 80.9616 0.0000 0.0000 0.0000
# 2 53.6500 72.7619 71.4689 0.0000 0.0000 0.0000
# 3 80.9616 71.4689 175.1044 0.0000 0.0000 0.0000
# 4 0.0000 0.0000 0.0000 -15.1825 0.0000 0.0000
# 5 0.0000 0.0000 0.0000 0.0000 41.7867 0.0000
# 6 0.0000 0.0000 0.0000 0.0000 0.0000 28.8747
#
#
#
# Elastic Compliance Matrix: (Units=1/GPa)
#
#
# Indices 1 2 3 4 5 6 
#
# 1 0.015463 -0.007309 -0.004166 0.000000 0.000000 0.000000
# 2 -0.007309 0.026395 -0.007394 0.000000 0.000000 0.000000
# 3 -0.004166 -0.007394 0.010655 0.000000 0.000000 0.000000
# 4 0.000000 0.000000 0.000000 -0.065865 0.000000 0.000000
# 5 0.000000 0.000000 0.000000 0.000000 0.023931 0.000000
# 6 0.000000 0.000000 0.000000 0.000000 0.000000 0.034632
#
#
# Mechanical properties :
#
#
# Convention : Reuss Voigt Hill
#
# Bulk Modulus (GPa) = 67.68294 85.76344 76.72319
# Shear Modulus (GPa) = 56.89929 21.33775 39.11852
#
# Velocity S-wave (km/s) = 5.47449 3.35246 4.53922
# Velocity P-wave (km/s) = 8.69540 7.75620 8.23920
#
# Compressibility (1/GPa) = 0.01477477
#
# Stress axis : x y z
#
# Youngs Moduli (GPa) = 64.67009 37.88578 93.85333
#
# Poissons Ratio (x) = 0.27692 0.39102
# Poissons Ratio (y) = 0.47269 0.69392
# Poissons Ratio (z) = 0.26943 0.28011
#
# Static dielectric constant tensor:
#      x y z
#    x 3.589580 0.000000 0.000000 
#    y 0.000000 3.436930 0.000000 
#    z 0.000000 0.000000 3.610320 
# 
# 
# High freq. dielectric constant tensor:
#      x y z
#    x 1.749070 0.000000 0.000000 
#    y 0.000000 1.733630 0.000000 
#    z 0.000000 0.000000 1.755620 
# 
# From -- ./inp_files/21071.got.cif
#   From: 2010.03.12/outbox.cif.g09.slc.cpg/sg51_11_cif.got.tgz:21071.got - 2010.04.16 13:43:02.
