data_PCOD8213083
_publ_section_title
;
Structure prediction by ZEFSAII (Michael W. Deem and Ramdas Pophale) SiO2 
 PCOD8213083
Probable space group: P M M A
;
_chemical_formula_sum "Si O2"
_cell_formula_units_Z 40
_cell_length_a 14.347298
_cell_length_b 8.860300
_cell_length_c 16.678055
_cell_angle_alpha 90.000000
_cell_angle_beta 90.000000
_cell_angle_gamma 90.000000
_cell_volume 2120.137108
_symmetry_space_group_name_H-M "P M M A"
_symmetry_group_IT_number 51
_symmetry_cell_setting 'orthorhombic'
loop_
_space_group_symop_operation_xyz
x,y,z
1/2-x,-y,z
1/2+x,-y,-z
-x,y,-z
-x,-y,-z
1/2+x,y,-z
1/2-x,y,z
x,-y,z
loop_
_atom_site_type_symbol
_atom_site_label
_atom_site_fract_x
_atom_site_fract_y
_atom_site_fract_z
Si Si1 0.498812 0.823467 0.299639
Si Si2 0.143186 0.323689 0.594346
Si Si3 0.141382 0.320933 0.989494
Si Si4 0.011096 0.821124 0.116190
Si Si5 0.355312 0.822512 0.432420
O O1 0.591271 0.738355 0.327674
O O2 0.476133 0.778642 0.208838
O O3 0.413158 0.769854 0.355056
O O4 0.517283 0.000000 0.308055
O O5 0.250000 0.276562 0.605037
O O6 0.128751 0.500000 0.588228
O O7 0.102426 0.251189 0.512807
O O8 0.250000 0.277349 0.982984
O O9 0.126840 0.500000 0.989628
O O10 0.086273 0.248934 0.914597
O O11 0.099032 0.251683 0.070842
O O12 0.009970 0.000000 0.101364
O O13 0.250000 0.766069 0.418152
O O14 0.360309 0.000000 0.444418
#
# Coordination Sequence:
#
# PCOD8213083 Si02
#       5
#     8   8   8   8   8
#     4  10  21  35  53  79 107 136 172 214 261 309
#     4  10  21  35  51  74 104 139 179 219 259 304
#     4  10  21  38  59  80 106 141 175 210 259 318
#     4  10  21  36  56  83 110 136 173 220 263 310
#     4   9  18  34  54  74 101 138 176 214 258 308
#
# _framework density 18.866705
#
# number of rings (size 3 to 8) (size 9 to 14) (size 15 to 20)
#    0.000    2.200    0.000    3.600    0.000    9.200 
#    0.000    6.000    0.000    2.400    0.000    0.000 
#    0.000    0.000    0.000    0.000    0.000    0.000 
#
# Total GULP energy -496090.764288 kJ/mol
# GULP energy per Si atom -12402.269107 kJ/mol
# Density = 1.882376 g / cm^3
# Si number density = 18.866705 Si / 1000 Ang^3
#
#
#
# Elastic Constant Matrix: (Units=GPa)
#
#
# Indices 1 2 3 4 5 6 
#
# 1 89.3904 31.7220 23.5497 0.0000 0.0000 0.0000
# 2 31.7220 56.2289 24.8372 0.0000 0.0000 0.0000
# 3 23.5497 24.8372 93.2427 0.0000 0.0000 0.0000
# 4 0.0000 0.0000 0.0000 4.5096 0.0000 0.0000
# 5 0.0000 0.0000 0.0000 0.0000 18.5439 0.0000
# 6 0.0000 0.0000 0.0000 0.0000 0.0000 28.9222
#
#
#
# Elastic Compliance Matrix: (Units=1/GPa)
#
#
# Indices 1 2 3 4 5 6 
#
# 1 0.014207 -0.007287 -0.001647 0.000000 0.000000 0.000000
# 2 -0.007287 0.023894 -0.004524 0.000000 0.000000 0.000000
# 3 -0.001647 -0.004524 0.012346 0.000000 0.000000 0.000000
# 4 0.000000 0.000000 0.000000 0.221748 0.000000 0.000000
# 5 0.000000 0.000000 0.000000 0.000000 0.053926 0.000000
# 6 0.000000 0.000000 0.000000 0.000000 0.000000 0.034575
#
#
# Mechanical properties :
#
#
# Convention : Reuss Voigt Hill
#
# Bulk Modulus (GPa) = 42.49965 44.34221 43.42093
# Shear Modulus (GPa) = 12.64362 20.97869 16.81116
#
# Velocity S-wave (km/s) = 2.59154 3.33820 2.98828
# Velocity P-wave (km/s) = 5.61516 6.19774 5.91363
#
# Compressibility (1/GPa) = 0.02352961
#
# Stress axis : x y z
#
# Youngs Moduli (GPa) = 70.38844 41.85126 80.99937
#
# Poissons Ratio (x) = 0.30499 0.13340
# Poissons Ratio (y) = 0.51295 0.36646
# Poissons Ratio (z) = 0.11593 0.18934
#
# Static dielectric constant tensor:
#      x y z
#    x 3.629980 0.000000 0.000000 
#    y 0.000000 3.437550 0.000000 
#    z 0.000000 0.000000 3.553550 
# 
# 
# High freq. dielectric constant tensor:
#      x y z
#    x 1.737530 0.000000 0.000000 
#    y 0.000000 1.736300 0.000000 
#    z 0.000000 0.000000 1.733150 
# 
# From -- ./inp_files/23701.got.cif
#   From: 2010.03.12/outbox.cif.g09.slc.cpg/sg51_12_cif.got.tgz:23701.got - 2010.04.16 13:43:02.
