data_PCOD8213644
_publ_section_title
;
Structure prediction by ZEFSAII (Michael W. Deem and Ramdas Pophale) SiO2 
 PCOD8213644
Probable space group: P M M A
;
_chemical_formula_sum "Si O2"
_cell_formula_units_Z 56
_cell_length_a 8.828066
_cell_length_b 14.398759
_cell_length_c 23.429951
_cell_angle_alpha 90.000000
_cell_angle_beta 90.000000
_cell_angle_gamma 90.000000
_cell_volume 2978.255925
_symmetry_space_group_name_H-M "P M M A"
_symmetry_group_IT_number 51
_symmetry_cell_setting 'orthorhombic'
loop_
_space_group_symop_operation_xyz
x,y,z
1/2-x,-y,z
1/2+x,-y,-z
-x,y,-z
-x,-y,-z
1/2+x,y,-z
1/2-x,y,z
x,-y,z
loop_
_atom_site_type_symbol
_atom_site_label
_atom_site_fract_x
_atom_site_fract_y
_atom_site_fract_z
Si Si1 0.570715 0.712644 0.559078
Si Si2 0.929706 0.899099 0.612776
Si Si3 0.072072 0.227713 0.835401
Si Si4 0.078366 0.390295 0.662516
Si Si5 0.429102 0.105404 0.940874
Si Si6 0.576994 0.107641 0.741314
Si Si7 0.428543 0.606012 0.219390
O O1 0.500000 0.677487 0.500000
O O2 0.750000 0.706285 0.554914
O O3 0.513694 0.818295 0.570632
O O4 0.516385 0.647615 0.609756
O O5 0.750000 0.904063 0.613771
O O6 0.982803 0.876346 0.677006
O O7 0.994624 0.000000 0.593029
O O8 0.250000 0.244838 0.838318
O O9 0.012328 0.174382 0.891581
O O10 0.033975 0.165241 0.781043
O O11 0.989861 0.327789 0.831038
O O12 0.250000 0.352432 0.660740
O O13 0.074500 0.500000 0.657784
O O14 0.001525 0.358419 0.721474
O O15 0.250000 0.109358 0.946082
O O16 0.482723 0.000000 0.927043
O O17 0.500000 0.140364 0.000000
O O18 0.750000 0.143048 0.748530
O O19 0.566123 0.000000 0.757946
O O20 0.250000 0.615378 0.225120
O O21 0.476393 0.500000 0.205572
#
# Coordination Sequence:
#
# PCOD8213644 Si02
#       7
#     8   8   8   8   8   8   8
#     4  11  22  35  53  75 101 134 172 215 259 308
#     4   8  16  32  51  70  95 129 168 209 252 299
#     4  11  21  32  51  79 111 143 176 220 268 313
#     4  10  21  38  59  81 105 132 164 208 264 321
#     4   9  19  35  53  76 109 148 187 224 262 305
#     4   9  17  30  50  76 104 135 173 215 261 316
#     4  10  21  37  57  81 108 138 173 213 259 316
#
# _framework density 18.802951
#
# number of rings (size 3 to 8) (size 9 to 14) (size 15 to 20)
#    0.000    2.286    0.000    3.857    0.000    5.429 
#    0.000    2.143    0.000    3.429    0.000    0.000 
#    0.000    0.000    0.000    0.000    0.000    0.000 
#
# Total GULP energy -694415.167991 kJ/mol
# GULP energy per Si atom -12400.270857 kJ/mol
# Density = 1.876015 g / cm^3
# Si number density = 18.802951 Si / 1000 Ang^3
#
#
#
# Elastic Constant Matrix: (Units=GPa)
#
#
# Indices 1 2 3 4 5 6 
#
# 1 64.8317 30.9360 34.7447 0.0000 0.0000 0.0000
# 2 30.9360 76.0911 58.4816 0.0000 0.0000 0.0000
# 3 34.7447 58.4816 103.3279 0.0000 0.0000 0.0000
# 4 0.0000 0.0000 0.0000 24.5135 0.0000 0.0000
# 5 0.0000 0.0000 0.0000 0.0000 29.4416 0.0000
# 6 0.0000 0.0000 0.0000 0.0000 0.0000 27.4461
#
#
#
# Elastic Compliance Matrix: (Units=1/GPa)
#
#
# Indices 1 2 3 4 5 6 
#
# 1 0.019923 -0.005223 -0.003743 0.000000 0.000000 0.000000
# 2 -0.005223 0.024630 -0.012184 0.000000 0.000000 0.000000
# 3 -0.003743 -0.012184 0.017832 0.000000 0.000000 0.000000
# 4 0.000000 0.000000 0.000000 0.040794 0.000000 0.000000
# 5 0.000000 0.000000 0.000000 0.000000 0.033966 0.000000
# 6 0.000000 0.000000 0.000000 0.000000 0.000000 0.036435
#
#
# Mechanical properties :
#
#
# Convention : Reuss Voigt Hill
#
# Bulk Modulus (GPa) = 49.78781 54.73059 52.25920
# Shear Modulus (GPa) = 22.46446 24.28614 23.37530
#
# Velocity S-wave (km/s) = 3.46024 3.59780 3.52969
# Velocity P-wave (km/s) = 6.51924 6.81392 6.66821
#
# Compressibility (1/GPa) = 0.02008524
#
# Stress axis : x y z
#
# Youngs Moduli (GPa) = 50.19359 40.60137 56.07828
#
# Poissons Ratio (x) = 0.21207 0.20990
# Poissons Ratio (y) = 0.26217 0.68324
# Poissons Ratio (z) = 0.18787 0.49467
#
# Static dielectric constant tensor:
#      x y z
#    x 3.338950 0.000000 0.000000 
#    y 0.000000 3.743830 0.000000 
#    z 0.000000 0.000000 3.384830 
# 
# 
# High freq. dielectric constant tensor:
#      x y z
#    x 1.722050 0.000000 0.000000 
#    y 0.000000 1.735820 0.000000 
#    z 0.000000 0.000000 1.714980 
# 
# From -- ./inp_files/31956.got.cif
#   From: 2010.03.12/outbox.cif.g09.slc.cpg/sg51_16_cif.got.tgz:31956.got - 2010.04.16 13:43:02.
