data_PCOD8213888
_publ_section_title
;
Structure prediction by ZEFSAII (Michael W. Deem and Ramdas Pophale) SiO2 
 PCOD8213888
Probable space group: P M M A
;
_chemical_formula_sum "Si O2"
_cell_formula_units_Z 40
_cell_length_a 8.934280
_cell_length_b 7.477429
_cell_length_c 29.695928
_cell_angle_alpha 90.000000
_cell_angle_beta 90.000000
_cell_angle_gamma 90.000000
_cell_volume 1983.849666
_symmetry_space_group_name_H-M "P M M A"
_symmetry_group_IT_number 51
_symmetry_cell_setting 'orthorhombic'
loop_
_space_group_symop_operation_xyz
x,y,z
1/2-x,-y,z
1/2+x,-y,-z
-x,y,-z
-x,-y,-z
1/2+x,y,-z
1/2-x,y,z
x,-y,z
loop_
_atom_site_type_symbol
_atom_site_label
_atom_site_fract_x
_atom_site_fract_y
_atom_site_fract_z
Si Si1 0.928643 0.500000 0.696095
Si Si2 0.927148 0.500000 0.797809
Si Si3 0.918240 0.212112 0.544048
Si Si4 0.573329 0.202899 0.865511
Si Si5 0.925542 0.791560 0.364412
Si Si6 0.582011 0.787306 0.043937
O O1 0.750000 0.500000 0.692770
O O2 0.989347 0.500000 0.747227
O O3 0.991994 0.679648 0.673905
O O4 0.750000 0.500000 0.796038
O O5 0.983473 0.676956 0.823899
O O6 0.750000 0.289818 0.546951
O O7 0.000000 0.291600 0.500000
O O8 0.010853 0.272891 0.587624
O O9 0.913127 0.000000 0.540805
O O10 0.750000 0.216105 0.872031
O O11 0.500839 0.278810 0.911143
O O12 0.522404 0.000000 0.855425
O O13 0.750000 0.751127 0.363635
O O14 0.959986 0.000000 0.355774
O O15 0.750000 0.712537 0.044571
O O16 0.579395 0.000000 0.042030
O O17 0.500000 0.707814 0.000000
#
# Coordination Sequence:
#
# PCOD8213888 Si02
#       6
#     4   4   8   8   8   8
#     4  11  23  39  60  85 112 143 185 238 290 339
#     4   9  20  37  56  79 104 133 174 222 271 325
#     4   9  16  28  50  81 115 150 187 226 271 326
#     4   9  17  32  54  77 103 136 172 212 259 311
#     4  10  21  38  59  83 114 152 191 231 278 333
#     4   9  16  27  46  74 106 138 172 209 251 303
#
# _framework density 20.162818999999999
#
# number of rings (size 3 to 8) (size 9 to 14) (size 15 to 20)
#    0.000    2.600    0.000    2.100    0.000    6.800 
#    0.000    5.500    0.000    2.400    0.000    0.000 
#    0.000    0.000    0.000    0.000    0.000    0.000 
#
# Total GULP energy -495998.432591 kJ/mol
# GULP energy per Si atom -12399.960815 kJ/mol
# Density = 2.011693 g / cm^3
# Si number density = 20.162819 Si / 1000 Ang^3
#
#
#
# Elastic Constant Matrix: (Units=GPa)
#
#
# Indices 1 2 3 4 5 6 
#
# 1 114.1171 36.5228 73.4844 0.0000 0.0000 0.0000
# 2 36.5228 80.8533 68.2531 0.0000 0.0000 0.0000
# 3 73.4844 68.2531 212.0083 0.0000 0.0000 0.0000
# 4 0.0000 0.0000 0.0000 -68.3538 0.0000 0.0000
# 5 0.0000 0.0000 0.0000 0.0000 32.4647 0.0000
# 6 0.0000 0.0000 0.0000 0.0000 0.0000 15.9705
#
#
#
# Elastic Compliance Matrix: (Units=1/GPa)
#
#
# Indices 1 2 3 4 5 6 
#
# 1 0.011650 -0.002546 -0.003219 0.000000 0.000000 0.000000
# 2 -0.002546 0.017540 -0.004764 0.000000 0.000000 0.000000
# 3 -0.003219 -0.004764 0.007366 0.000000 0.000000 0.000000
# 4 0.000000 0.000000 0.000000 -0.014630 0.000000 0.000000
# 5 0.000000 0.000000 0.000000 0.000000 0.030803 0.000000
# 6 0.000000 0.000000 0.000000 0.000000 0.000000 0.062616
#
#
# Mechanical properties :
#
#
# Convention : Reuss Voigt Hill
#
# Bulk Modulus (GPa) = 64.51952 84.83323 74.67637
# Shear Modulus (GPa) = 35.31867 11.26418 23.29142
#
# Velocity S-wave (km/s) = 4.18984 2.36617 3.40246
# Velocity P-wave (km/s) = 7.44816 7.04489 7.24933
#
# Compressibility (1/GPa) = 0.01549919
#
# Stress axis : x y z
#
# Youngs Moduli (GPa) = 85.83544 57.01293 135.75501
#
# Poissons Ratio (x) = 0.14513 0.43694
# Poissons Ratio (y) = 0.21850 0.64679
# Poissons Ratio (z) = 0.27627 0.27163
#
# Static dielectric constant tensor:
#      x y z
#    x 3.677280 0.000000 0.000000 
#    y 0.000000 3.473380 0.000000 
#    z 0.000000 0.000000 3.855170 
# 
# 
# High freq. dielectric constant tensor:
#      x y z
#    x 1.783310 0.000000 0.000000 
#    y 0.000000 1.776010 0.000000 
#    z 0.000000 0.000000 1.788060 
# 
# From -- ./inp_files/36063.got.cif
#   From: 2010.03.12/outbox.cif.g09.slc.cpg/sg51_19_cif.got.tgz:36063.got - 2010.04.16 13:43:02.
