data_PCOD8213019
_publ_section_title
;
Structure prediction by ZEFSAII (Michael W. Deem and Ramdas Pophale) SiO2 
 PCOD8213019
Probable space group: P M M A
;
_chemical_formula_sum "Si O2"
_cell_formula_units_Z 64
_cell_length_a 18.504220
_cell_length_b 9.216049
_cell_length_c 20.729418
_cell_angle_alpha 90.000000
_cell_angle_beta 90.000000
_cell_angle_gamma 90.000000
_cell_volume 3535.107845
_symmetry_space_group_name_H-M "P M M A"
_symmetry_group_IT_number 51
_symmetry_cell_setting 'orthorhombic'
loop_
_space_group_symop_operation_xyz
x,y,z
1/2-x,-y,z
1/2+x,-y,-z
-x,y,-z
-x,-y,-z
1/2+x,y,-z
1/2-x,y,z
x,-y,z
loop_
_atom_site_type_symbol
_atom_site_label
_atom_site_fract_x
_atom_site_fract_y
_atom_site_fract_z
Si Si1 0.336198 0.664404 0.871054
Si Si2 0.664212 0.839107 0.759389
Si Si3 0.163954 0.836006 0.747016
Si Si4 0.168058 0.828307 0.384224
Si Si5 0.583576 0.330742 0.506023
Si Si6 0.163763 0.336948 0.119695
Si Si7 0.336130 0.835852 0.995676
Si Si8 0.665918 0.331760 0.378687
O O1 0.250000 0.663476 0.870673
O O2 0.365898 0.500000 0.871607
O O3 0.366359 0.746798 0.808019
O O4 0.365507 0.748462 0.933828
O O5 0.750000 0.847875 0.764024
O O6 0.642996 0.783342 0.688010
O O7 0.633357 0.731107 0.813789
O O8 0.632274 0.000000 0.771783
O O9 0.250000 0.835342 0.748752
O O10 0.136498 0.759891 0.681747
O O11 0.134012 0.000000 0.749726
O O12 0.250000 0.775160 0.397290
O O13 0.114197 0.752992 0.433050
O O14 0.163424 0.000000 0.392444
O O15 0.500000 0.292271 0.500000
O O16 0.597261 0.500000 0.517278
O O17 0.623300 0.277519 0.441390
O O18 0.250000 0.337360 0.119777
O O19 0.133711 0.500000 0.113437
O O20 0.134519 0.242821 0.059816
O O21 0.250000 0.837101 0.995406
O O22 0.366075 0.000000 0.993716
O O23 0.750000 0.302214 0.391387
O O24 0.651069 0.500000 0.363682
#
# Coordination Sequence:
#
# PCOD8213019 Si02
#       8
#     8   8   8   8   8   8   8   8
#     4   9  15  22  32  47  70 101 137 176 216 259
#     4   8  14  25  39  55  77 105 138 178 222 265
#     4   9  16  25  38  57  79 103 136 179 222 263
#     4   9  18  32  50  71  93 119 154 194 234 278
#     4  10  21  35  50  70  96 124 153 187 230 280
#     4   9  15  21  30  47  71 100 137 178 217 259
#     4   9  15  21  29  42  65 101 141 177 214 257
#     4   9  17  30  47  65  86 115 150 186 225 269
#
# _framework density 18.104116000000001
#
# number of rings (size 3 to 8) (size 9 to 14) (size 15 to 20)
#    0.000    3.000    0.000    2.625    0.000    8.000 
#    0.000    2.500    0.000    0.000    0.000    0.000 
#    0.000    0.000    0.000    1.125    0.000   23.000 
#
# Total GULP energy -793469.891619 kJ/mol
# GULP energy per Si atom -12397.967057 kJ/mol
# Density = 1.806291 g / cm^3
# Si number density = 18.104116 Si / 1000 Ang^3
#
#
#
# Elastic Constant Matrix: (Units=GPa)
#
#
# Indices 1 2 3 4 5 6 
#
# 1 24.6020 20.5292 32.8528 0.0000 0.0000 0.0000
# 2 20.5292 132.8828 95.6208 0.0000 0.0000 0.0000
# 3 32.8528 95.6208 190.3865 0.0000 0.0000 0.0000
# 4 0.0000 0.0000 0.0000 38.7798 0.0000 0.0000
# 5 0.0000 0.0000 0.0000 0.0000 -0.1792 0.0000
# 6 0.0000 0.0000 0.0000 0.0000 0.0000 9.5705
#
#
#
# Elastic Compliance Matrix: (Units=1/GPa)
#
#
# Indices 1 2 3 4 5 6 
#
# 1 0.053357 -0.002533 -0.007935 0.000000 0.000000 0.000000
# 2 -0.002533 0.011905 -0.005542 0.000000 0.000000 0.000000
# 3 -0.007935 -0.005542 0.009405 0.000000 0.000000 0.000000
# 4 0.000000 0.000000 0.000000 0.025787 0.000000 0.000000
# 5 0.000000 0.000000 0.000000 0.000000 -5.580382 0.000000
# 6 0.000000 0.000000 0.000000 0.000000 0.000000 0.104487
#
#
# Mechanical properties :
#
#
# Convention : Reuss Voigt Hill
#
# Bulk Modulus (GPa) = 23.44858 71.76411 47.60634
# Shear Modulus (GPa) = -0.93823 22.89214 10.97696
#
# Velocity S-wave (km/s) = -0.72067 3.55980 2.46504
# Velocity P-wave (km/s) = 3.50538 7.52476 5.86982
#
# Compressibility (1/GPa) = 0.04264651
#
# Stress axis : x y z
#
# Youngs Moduli (GPa) = 18.74171 84.00033 106.32519
#
# Poissons Ratio (x) = 0.21280 0.84367
# Poissons Ratio (y) = 0.04748 0.58925
# Poissons Ratio (z) = 0.14871 0.46552
#
# Static dielectric constant tensor:
#      x y z
#    x 2.589310 0.000000 0.000000 
#    y 0.000000 3.492310 0.000000 
#    z 0.000000 0.000000 3.607120 
# 
# 
# High freq. dielectric constant tensor:
#      x y z
#    x 1.618160 0.000000 0.000000 
#    y 0.000000 1.708380 0.000000 
#    z 0.000000 0.000000 1.720890 
# 
# From -- ./inp_files/34087.got.cif
#   From: 2010.03.12/outbox.cif.g09.slc.cpg/sg51_18_cif.got.tgz:34087.got - 2010.04.16 13:43:02.
