data_PCOD8213093
_publ_section_title
;
Structure prediction by ZEFSAII (Michael W. Deem and Ramdas Pophale) SiO2 
 PCOD8213093
Probable space group: P M M A
;
_chemical_formula_sum "Si O2"
_cell_formula_units_Z 56
_cell_length_a 19.217478
_cell_length_b 9.267957
_cell_length_c 16.168182
_cell_angle_alpha 90.000000
_cell_angle_beta 90.000000
_cell_angle_gamma 90.000000
_cell_volume 2879.662507
_symmetry_space_group_name_H-M "P M M A"
_symmetry_group_IT_number 51
_symmetry_cell_setting 'orthorhombic'
loop_
_space_group_symop_operation_xyz
x,y,z
1/2-x,-y,z
1/2+x,-y,-z
-x,y,-z
-x,-y,-z
1/2+x,y,-z
1/2-x,y,z
x,-y,z
loop_
_atom_site_type_symbol
_atom_site_label
_atom_site_fract_x
_atom_site_fract_y
_atom_site_fract_z
Si Si1 0.830182 0.832060 0.989672
Si Si2 0.170065 0.168770 0.656208
Si Si3 0.554383 0.334011 0.256173
Si Si4 0.669795 0.332359 0.511172
Si Si5 0.445180 0.333926 0.931253
Si Si6 0.588558 0.670147 0.669391
Si Si7 0.331284 0.335790 0.173713
O O1 0.750000 0.801252 0.010336
O O2 0.852944 0.760230 0.903795
O O3 0.846488 0.000000 0.984188
O O4 0.875149 0.760088 0.062027
O O5 0.250000 0.200111 0.680558
O O6 0.121327 0.235185 0.727147
O O7 0.150866 0.242404 0.569675
O O8 0.155496 0.000000 0.648427
O O9 0.575946 0.500000 0.270012
O O10 0.526790 0.311779 0.162166
O O11 0.492548 0.289558 0.319298
O O12 0.750000 0.309757 0.537639
O O13 0.654534 0.500000 0.492518
O O14 0.619926 0.270014 0.583583
O O15 0.426462 0.500000 0.948260
O O16 0.500000 0.278652 0.000000
O O17 0.600108 0.500000 0.669730
O O18 0.631443 0.733346 0.746642
O O19 0.250000 0.330031 0.191329
O O20 0.356168 0.500000 0.156263
#
# Coordination Sequence:
#
# PCOD8213093 Si02
#       7
#     8   8   8   8   8   8   8
#     4  10  21  35  51  75 107 141 178 221 269 320
#     4  10  22  40  58  76 104 141 179 221 267 312
#     4  10  21  36  56  81 107 137 173 216 265 315
#     4   9  17  32  57  85 110 139 176 214 253 304
#     4  10  21  38  59  81 106 138 178 223 270 321
#     4   9  17  31  53  82 112 139 172 215 262 311
#     4   9  16  29  52  79 108 143 180 217 259 310
#
# _framework density 19.446724
#
# number of rings (size 3 to 8) (size 9 to 14) (size 15 to 20)
#    0.000    2.429    0.000    2.143    0.000    7.714 
#    0.000    9.286    0.000    3.429    0.000    0.000 
#    0.000    0.000    0.000    0.000    0.000    0.000 
#
# Total GULP energy -694464.420740 kJ/mol
# GULP energy per Si atom -12401.150370 kJ/mol
# Density = 1.940246 g / cm^3
# Si number density = 19.446724 Si / 1000 Ang^3
#
#
#
# Elastic Constant Matrix: (Units=GPa)
#
#
# Indices 1 2 3 4 5 6 
#
# 1 84.8323 42.3729 54.1951 0.0000 0.0000 0.0000
# 2 42.3729 69.8471 38.0462 0.0000 0.0000 0.0000
# 3 54.1951 38.0462 96.0054 0.0000 0.0000 0.0000
# 4 0.0000 0.0000 0.0000 5.1335 0.0000 0.0000
# 5 0.0000 0.0000 0.0000 0.0000 39.6954 0.0000
# 6 0.0000 0.0000 0.0000 0.0000 0.0000 23.2799
#
#
#
# Elastic Compliance Matrix: (Units=1/GPa)
#
#
# Indices 1 2 3 4 5 6 
#
# 1 0.021614 -0.008246 -0.008933 0.000000 0.000000 0.000000
# 2 -0.008246 0.021404 -0.003827 0.000000 0.000000 0.000000
# 3 -0.008933 -0.003827 0.016976 0.000000 0.000000 0.000000
# 4 0.000000 0.000000 0.000000 0.194799 0.000000 0.000000
# 5 0.000000 0.000000 0.000000 0.000000 0.025192 0.000000
# 6 0.000000 0.000000 0.000000 0.000000 0.000000 0.042956
#
#
# Mechanical properties :
#
#
# Convention : Reuss Voigt Hill
#
# Bulk Modulus (GPa) = 55.61613 57.76812 56.69213
# Shear Modulus (GPa) = 13.47901 21.35981 17.41941
#
# Velocity S-wave (km/s) = 2.63558 3.31777 2.99616
# Velocity P-wave (km/s) = 6.15817 6.66687 6.41756
#
# Compressibility (1/GPa) = 0.01798039
#
# Stress axis : x y z
#
# Youngs Moduli (GPa) = 46.26701 46.71954 58.90816
#
# Poissons Ratio (x) = 0.38525 0.52623
# Poissons Ratio (y) = 0.38152 0.22547
# Poissons Ratio (z) = 0.41331 0.17882
#
# Static dielectric constant tensor:
#      x y z
#    x 3.544220 0.000000 0.000000 
#    y 0.000000 3.322730 0.000000 
#    z 0.000000 0.000000 3.551260 
# 
# 
# High freq. dielectric constant tensor:
#      x y z
#    x 1.760720 0.000000 0.000000 
#    y 0.000000 1.729810 0.000000 
#    z 0.000000 0.000000 1.757820 
# 
# From -- ./inp_files/25636.got.cif
#   From: 2010.03.12/outbox.cif.g09.slc.cpg/sg51_13_cif.got.tgz:25636.got - 2010.04.16 13:43:02.
