data_PCOD8213671
_publ_section_title
;
Structure prediction by ZEFSAII (Michael W. Deem and Ramdas Pophale) SiO2 
 PCOD8213671
Probable space group: P M M A
;
_chemical_formula_sum "Si O2"
_cell_formula_units_Z 48
_cell_length_a 8.853527
_cell_length_b 9.029340
_cell_length_c 30.750118
_cell_angle_alpha 90.000000
_cell_angle_beta 90.000000
_cell_angle_gamma 90.000000
_cell_volume 2458.210727
_symmetry_space_group_name_H-M "P M M A"
_symmetry_group_IT_number 51
_symmetry_cell_setting 'orthorhombic'
loop_
_space_group_symop_operation_xyz
x,y,z
1/2-x,-y,z
1/2+x,-y,-z
-x,y,-z
-x,-y,-z
1/2+x,y,-z
1/2-x,y,z
x,-y,z
loop_
_atom_site_type_symbol
_atom_site_label
_atom_site_fract_x
_atom_site_fract_y
_atom_site_fract_z
Si Si1 0.575298 0.827064 0.207011
Si Si2 0.927144 0.329977 0.376383
Si Si3 0.572447 0.669273 0.713191
Si Si4 0.920728 0.824317 0.543522
Si Si5 0.076452 0.674942 0.126004
Si Si6 0.074365 0.828949 0.953889
O O1 0.750000 0.789767 0.214726
O O2 0.481626 0.772716 0.248148
O O3 0.520691 0.745675 0.164073
O O4 0.547174 0.000000 0.200578
O O5 0.750000 0.306520 0.373504
O O6 0.971686 0.500000 0.384889
O O7 0.997888 0.273796 0.331291
O O8 0.990392 0.232069 0.414972
O O9 0.750000 0.684407 0.708116
O O10 0.524394 0.500000 0.723075
O O11 0.750000 0.764033 0.544454
O O12 0.000000 0.762849 0.500000
O O13 0.924662 0.000000 0.544186
O O14 0.250000 0.725880 0.130242
O O15 0.061826 0.500000 0.129400
O O16 0.010628 0.726949 0.080324
O O17 0.250000 0.786132 0.955653
O O18 0.052727 0.000000 0.940637
O O19 0.000000 0.795166 0.000000
#
# Coordination Sequence:
#
# PCOD8213671 Si02
#       6
#     8   8   8   8   8   8
#     4  11  24  40  59  85 115 148 188 232 279 333
#     4  10  21  37  58  84 113 147 186 228 277 332
#     4  10  21  38  60  85 113 146 185 229 278 332
#     4  10  21  37  57  81 110 146 187 231 280 332
#     4  11  24  40  59  85 116 151 191 234 282 335
#     4  10  21  38  61  88 117 151 191 234 282 335
#
# _framework density 19.526396999999999
#
# number of rings (size 3 to 8) (size 9 to 14) (size 15 to 20)
#    0.000    1.667    0.000    4.000    0.000   12.000 
#    0.000    0.000    0.000    0.000    0.000    0.000 
#    0.000    0.000    0.000    0.000    0.000    0.000 
#
# Total GULP energy -595487.848545 kJ/mol
# GULP energy per Si atom -12405.996845 kJ/mol
# Density = 1.948195 g / cm^3
# Si number density = 19.526397 Si / 1000 Ang^3
#
#
#
# Elastic Constant Matrix: (Units=GPa)
#
#
# Indices 1 2 3 4 5 6 
#
# 1 74.7827 30.4319 26.8962 0.0000 0.0000 0.0000
# 2 30.4319 45.5682 31.3943 0.0000 0.0000 0.0000
# 3 26.8962 31.3943 112.1465 0.0000 0.0000 0.0000
# 4 0.0000 0.0000 0.0000 34.9795 0.0000 0.0000
# 5 0.0000 0.0000 0.0000 0.0000 44.7451 0.0000
# 6 0.0000 0.0000 0.0000 0.0000 0.0000 31.5041
#
#
#
# Elastic Compliance Matrix: (Units=1/GPa)
#
#
# Indices 1 2 3 4 5 6 
#
# 1 0.018494 -0.011516 -0.001212 0.000000 0.000000 0.000000
# 2 -0.011516 0.034360 -0.006857 0.000000 0.000000 0.000000
# 3 -0.001212 -0.006857 0.011127 0.000000 0.000000 0.000000
# 4 0.000000 0.000000 0.000000 0.028588 0.000000 0.000000
# 5 0.000000 0.000000 0.000000 0.000000 0.022349 0.000000
# 6 0.000000 0.000000 0.000000 0.000000 0.000000 0.031742
#
#
# Mechanical properties :
#
#
# Convention : Reuss Voigt Hill
#
# Bulk Modulus (GPa) = 40.30326 45.54913 42.92620
# Shear Modulus (GPa) = 25.75986 31.83074 28.79530
#
# Velocity S-wave (km/s) = 3.63606 4.04188 3.84433
# Velocity P-wave (km/s) = 6.18976 6.72012 6.46038
#
# Compressibility (1/GPa) = 0.02481189
#
# Stress axis : x y z
#
# Youngs Moduli (GPa) = 54.07081 29.10348 89.87154
#
# Poissons Ratio (x) = 0.33517 0.10889
# Poissons Ratio (y) = 0.62270 0.61623
# Poissons Ratio (z) = 0.06551 0.19956
#
# Static dielectric constant tensor:
#      x y z
#    x 3.754540 0.000000 0.000000 
#    y 0.000000 3.517520 0.000000 
#    z 0.000000 0.000000 3.542330 
# 
# 
# High freq. dielectric constant tensor:
#      x y z
#    x 1.781120 0.000000 0.000000 
#    y 0.000000 1.754230 0.000000 
#    z 0.000000 0.000000 1.776880 
# 
# From -- ./inp_files/36923.got.cif
#   From: 2010.03.12/outbox.cif.g09.slc.cpg/sg51_19_cif.got.tgz:36923.got - 2010.04.16 13:43:02.
