data_PCOD8213545
_publ_section_title
;
Structure prediction by ZEFSAII (Michael W. Deem and Ramdas Pophale) SiO2 
 PCOD8213545
Probable space group: P M M A
;
_chemical_formula_sum "Si O2"
_cell_formula_units_Z 48
_cell_length_a 9.054742
_cell_length_b 7.550663
_cell_length_c 34.583186
_cell_angle_alpha 90.000000
_cell_angle_beta 90.000000
_cell_angle_gamma 90.000000
_cell_volume 2364.428405
_symmetry_space_group_name_H-M "P M M A"
_symmetry_group_IT_number 51
_symmetry_cell_setting 'orthorhombic'
loop_
_space_group_symop_operation_xyz
x,y,z
1/2-x,-y,z
1/2+x,-y,-z
-x,y,-z
-x,-y,-z
1/2+x,y,-z
1/2-x,y,z
x,-y,z
loop_
_atom_site_type_symbol
_atom_site_label
_atom_site_fract_x
_atom_site_fract_y
_atom_site_fract_z
Si Si1 0.076965 0.000000 0.098552
Si Si2 0.921999 0.299776 0.961158
Si Si3 0.414671 0.290218 0.692464
Si Si4 0.923574 0.706789 0.770102
Si Si5 0.086648 0.207880 0.463886
Si Si6 0.573962 0.000000 0.179622
Si Si7 0.585221 0.293077 0.619249
O O1 0.035001 0.174486 0.074341
O O2 0.971693 0.000000 0.135204
O O3 0.250000 0.000000 0.110395
O O4 0.750000 0.287998 0.969732
O O5 0.971130 0.500000 0.950614
O O6 0.000000 0.232307 0.000000
O O7 0.250000 0.211184 0.697714
O O8 0.405924 0.500000 0.689481
O O9 0.516375 0.233649 0.728317
O O10 0.485552 0.209384 0.653268
O O11 0.750000 0.746982 0.771666
O O12 0.956447 0.500000 0.778269
O O13 0.007460 0.822005 0.801883
O O14 0.250000 0.292459 0.463875
O O15 0.011021 0.252719 0.422565
O O16 0.000000 0.294424 0.500000
O O17 0.094595 0.000000 0.469911
O O18 0.750000 0.000000 0.184058
O O19 0.750000 0.208442 0.620723
O O20 0.596571 0.500000 0.626448
#
# Coordination Sequence:
#
# PCOD8213545 Si02
#       7
#     4   8   8   8   8   4   8
#     4  10  21  37  55  78 114 156 198 243 293 350
#     4   9  18  33  55  83 114 150 194 244 296 350
#     4   9  17  31  53  80 108 136 168 214 272 327
#     4  10  21  40  65  87 112 152 196 238 290 352
#     4   9  18  32  47  63  88 123 160 198 244 299
#     4  12  26  41  59  88 123 156 199 251 300 354
#     4   9  17  30  48  70  96 126 162 203 250 310
#
# _framework density 20.300892000000001
#
# number of rings (size 3 to 8) (size 9 to 14) (size 15 to 20)
#    0.000    2.500    0.000    2.000    0.000    5.333 
#    1.500    1.667    0.000    0.000    0.000    0.000 
#    0.000    0.000    0.000    0.000    0.000    0.000 
#
# Total GULP energy -595106.121489 kJ/mol
# GULP energy per Si atom -12398.044198 kJ/mol
# Density = 2.025469 g / cm^3
# Si number density = 20.300892 Si / 1000 Ang^3
#
#
#
# Elastic Constant Matrix: (Units=GPa)
#
#
# Indices 1 2 3 4 5 6 
#
# 1 122.0998 38.7145 83.0450 0.0000 0.0000 0.0000
# 2 38.7145 66.2319 49.7507 0.0000 0.0000 0.0000
# 3 83.0450 49.7507 178.7678 0.0000 0.0000 0.0000
# 4 0.0000 0.0000 0.0000 31.6755 0.0000 0.0000
# 5 0.0000 0.0000 0.0000 0.0000 37.5109 0.0000
# 6 0.0000 0.0000 0.0000 0.0000 0.0000 17.6919
#
#
#
# Elastic Compliance Matrix: (Units=1/GPa)
#
#
# Indices 1 2 3 4 5 6 
#
# 1 0.012678 -0.003776 -0.004839 0.000000 0.000000 0.000000
# 2 -0.003776 0.020214 -0.003871 0.000000 0.000000 0.000000
# 3 -0.004839 -0.003871 0.008919 0.000000 0.000000 0.000000
# 4 0.000000 0.000000 0.000000 0.031570 0.000000 0.000000
# 5 0.000000 0.000000 0.000000 0.000000 0.026659 0.000000
# 6 0.000000 0.000000 0.000000 0.000000 0.000000 0.056523
#
#
# Mechanical properties :
#
#
# Convention : Reuss Voigt Hill
#
# Bulk Modulus (GPa) = 59.38694 78.90220 69.14457
# Shear Modulus (GPa) = 26.71676 30.41493 28.56585
#
# Velocity S-wave (km/s) = 3.63166 3.87487 3.75523
# Velocity P-wave (km/s) = 6.84851 7.67921 7.27573
#
# Compressibility (1/GPa) = 0.01683872
#
# Stress axis : x y z
#
# Youngs Moduli (GPa) = 78.87460 49.47146 112.12055
#
# Poissons Ratio (x) = 0.18682 0.54252
# Poissons Ratio (y) = 0.29785 0.43404
# Poissons Ratio (z) = 0.38165 0.19151
#
# Static dielectric constant tensor:
#      x y z
#    x 3.855160 0.000000 0.000000 
#    y 0.000000 3.621500 0.000000 
#    z 0.000000 0.000000 3.740120 
# 
# 
# High freq. dielectric constant tensor:
#      x y z
#    x 1.785650 0.000000 0.000000 
#    y 0.000000 1.784760 0.000000 
#    z 0.000000 0.000000 1.795660 
# 
# From -- ./inp_files/37216.got.cif
#   From: 2010.03.12/outbox.cif.g09.slc.cpg/sg51_19_cif.got.tgz:37216.got - 2010.04.16 13:43:02.
