data_PCOD8213401
_publ_section_title
;
Structure prediction by ZEFSAII (Michael W. Deem and Ramdas Pophale) SiO2 
 PCOD8213401
Probable space group: P M M A
;
_chemical_formula_sum "Si O2"
_cell_formula_units_Z 40
_cell_length_a 9.032495
_cell_length_b 9.267356
_cell_length_c 25.520877
_cell_angle_alpha 90.000000
_cell_angle_beta 90.000000
_cell_angle_gamma 90.000000
_cell_volume 2136.284900
_symmetry_space_group_name_H-M "P M M A"
_symmetry_group_IT_number 51
_symmetry_cell_setting 'orthorhombic'
loop_
_space_group_symop_operation_xyz
x,y,z
1/2-x,-y,z
1/2+x,-y,-z
-x,y,-z
-x,-y,-z
1/2+x,y,-z
1/2-x,y,z
x,-y,z
loop_
_atom_site_type_symbol
_atom_site_label
_atom_site_fract_x
_atom_site_fract_y
_atom_site_fract_z
Si Si1 0.579063 0.833425 0.749051
Si Si2 0.919760 0.830283 0.145579
Si Si3 0.577483 0.332404 0.947111
Si Si4 0.579101 0.330781 0.645147
Si Si5 0.576320 0.834685 0.446463
O O1 0.750000 0.805986 0.763340
O O2 0.481192 0.782576 0.797998
O O3 0.528392 0.739049 0.699758
O O4 0.549878 0.000000 0.735055
O O5 0.750000 0.781387 0.141323
O O6 0.014474 0.753623 0.101532
O O7 0.938663 0.000000 0.137883
O O8 0.750000 0.300132 0.952500
O O9 0.543619 0.500000 0.937850
O O10 0.500000 0.276893 0.000000
O O11 0.750000 0.293448 0.633532
O O12 0.551176 0.500000 0.648750
O O13 0.479254 0.266775 0.599594
O O14 0.500000 0.783894 0.500000
O O15 0.750000 0.814423 0.453361
O O16 0.534033 0.000000 0.433484
#
# Coordination Sequence:
#
# PCOD8213401 Si02
#       5
#     8   8   8   8   8
#     4   9  18  34  55  77 105 143 183 222 264 312
#     4  10  21  36  55  81 111 142 178 221 268 317
#     4  10  21  37  57  80 107 141 180 221 267 320
#     4  10  21  36  55  81 112 144 178 218 266 319
#     4  10  21  37  58  82 107 139 180 223 267 317
#
# _framework density 18.724094999999998
#
# number of rings (size 3 to 8) (size 9 to 14) (size 15 to 20)
#    0.000    2.200    0.000    2.400    0.000    7.200 
#    0.000    4.000    0.000    0.000    0.000    0.000 
#    0.000    0.000    0.000    0.000    0.000    0.000 
#
# Total GULP energy -496205.768925 kJ/mol
# GULP energy per Si atom -12405.144223 kJ/mol
# Density = 1.868148 g / cm^3
# Si number density = 18.724095 Si / 1000 Ang^3
#
#
#
# Elastic Constant Matrix: (Units=GPa)
#
#
# Indices 1 2 3 4 5 6 
#
# 1 86.6962 40.1006 66.2067 0.0000 0.0000 0.0000
# 2 40.1006 65.0864 66.0933 0.0000 0.0000 0.0000
# 3 66.2067 66.0933 152.7904 0.0000 0.0000 0.0000
# 4 0.0000 0.0000 0.0000 115.7998 0.0000 0.0000
# 5 0.0000 0.0000 0.0000 0.0000 40.6276 0.0000
# 6 0.0000 0.0000 0.0000 0.0000 0.0000 30.1409
#
#
#
# Elastic Compliance Matrix: (Units=1/GPa)
#
#
# Indices 1 2 3 4 5 6 
#
# 1 0.018379 -0.005772 -0.005467 0.000000 0.000000 0.000000
# 2 -0.005772 0.029213 -0.010136 0.000000 0.000000 0.000000
# 3 -0.005467 -0.010136 0.013298 0.000000 0.000000 0.000000
# 4 0.000000 0.000000 0.000000 0.008636 0.000000 0.000000
# 5 0.000000 0.000000 0.000000 0.000000 0.024614 0.000000
# 6 0.000000 0.000000 0.000000 0.000000 0.000000 0.033177
#
#
# Mechanical properties :
#
#
# Convention : Reuss Voigt Hill
#
# Bulk Modulus (GPa) = 55.12414 72.15269 63.63841
# Shear Modulus (GPa) = 28.39064 46.12517 37.25790
#
# Velocity S-wave (km/s) = 3.89815 4.96866 4.46560
# Velocity P-wave (km/s) = 7.05442 8.45784 7.78781
#
# Compressibility (1/GPa) = 0.01814087
#
# Stress axis : x y z
#
# Youngs Moduli (GPa) = 54.40845 34.23157 75.19686
#
# Poissons Ratio (x) = 0.19758 0.41113
# Poissons Ratio (y) = 0.31404 0.76217
# Poissons Ratio (z) = 0.29747 0.34696
#
# Static dielectric constant tensor:
#      x y z
#    x 3.311220 0.000000 0.000000 
#    y 0.000000 3.375640 0.000000 
#    z 0.000000 0.000000 3.531080 
# 
# 
# High freq. dielectric constant tensor:
#      x y z
#    x 1.733700 0.000000 0.000000 
#    y 0.000000 1.720520 0.000000 
#    z 0.000000 0.000000 1.738840 
# 
# From -- ./inp_files/34298.got.cif
#   From: 2010.03.12/outbox.cif.g09.slc.cpg/sg51_18_cif.got.tgz:34298.got - 2010.04.16 13:43:02.
