data_PCOD8213989
_publ_section_title
;
Structure prediction by ZEFSAII (Michael W. Deem and Ramdas Pophale) SiO2 
 PCOD8213989
Probable space group: P M M A
;
_chemical_formula_sum "Si O2"
_cell_formula_units_Z 48
_cell_length_a 16.594702
_cell_length_b 8.992356
_cell_length_c 16.221019
_cell_angle_alpha 90.000000
_cell_angle_beta 90.000000
_cell_angle_gamma 90.000000
_cell_volume 2420.589153
_symmetry_space_group_name_H-M "P M M A"
_symmetry_group_IT_number 51
_symmetry_cell_setting 'orthorhombic'
loop_
_space_group_symop_operation_xyz
x,y,z
1/2-x,-y,z
1/2+x,-y,-z
-x,y,-z
-x,-y,-z
1/2+x,y,-z
1/2-x,y,z
x,-y,z
loop_
_atom_site_type_symbol
_atom_site_label
_atom_site_fract_x
_atom_site_fract_y
_atom_site_fract_z
Si Si1 0.250000 0.325119 0.708830
Si Si2 0.940248 0.168507 0.721725
Si Si3 0.750000 0.676958 0.475726
Si Si4 0.590776 0.332530 0.029002
Si Si5 0.842420 0.167676 0.877137
Si Si6 0.888860 0.832226 0.198139
Si Si7 0.420719 0.323585 0.449872
O O1 0.250000 0.500000 0.704021
O O2 0.250000 0.259281 0.616829
O O3 0.327624 0.274164 0.757078
O O4 0.889498 0.233405 0.798459
O O5 0.926495 0.272340 0.643870
O O6 0.032548 0.173430 0.746589
O O7 0.913008 0.000000 0.700886
O O8 0.750000 0.500000 0.478770
O O9 0.833986 0.736142 0.516248
O O10 0.619049 0.500000 0.050863
O O11 0.597179 0.225964 0.106666
O O12 0.500000 0.331610 0.000000
O O13 0.646468 0.270674 0.956369
O O14 0.750000 0.165968 0.852164
O O15 0.873847 0.000000 0.896355
O O16 0.855424 0.000000 0.191711
O O17 0.500000 0.263129 0.500000
O O18 0.421703 0.500000 0.453182
#
# Coordination Sequence:
#
# PCOD8213989 Si02
#       7
#     4   8   4   8   8   8   8
#     4  11  23  41  65  90 121 154 199 255 298 349
#     4  10  22  39  61  89 119 156 200 245 295 356
#     4   9  20  39  61  88 119 156 197 243 306 371
#     4  11  23  39  60  87 117 154 203 252 300 351
#     4  10  22  40  61  85 119 161 201 243 297 358
#     4  11  23  40  62  87 121 162 201 242 300 363
#     4  10  21  38  61  87 118 157 199 245 304 367
#
# _framework density 19.829882999999999
#
# number of rings (size 3 to 8) (size 9 to 14) (size 15 to 20)
#    0.000    1.667    1.667    2.250    2.333    4.667 
#    0.000    1.667    0.000    0.000    0.000    0.000 
#    0.000    0.000    0.000    0.000    0.000    0.000 
#
# Total GULP energy -595227.085997 kJ/mol
# GULP energy per Si atom -12400.564292 kJ/mol
# Density = 1.978475 g / cm^3
# Si number density = 19.829883 Si / 1000 Ang^3
#
#
#
# Elastic Constant Matrix: (Units=GPa)
#
#
# Indices 1 2 3 4 5 6 
#
# 1 104.6375 21.5772 33.7678 0.0000 0.0000 0.0000
# 2 21.5772 53.1743 28.1677 0.0000 0.0000 0.0000
# 3 33.7678 28.1677 114.5169 0.0000 0.0000 0.0000
# 4 0.0000 0.0000 0.0000 35.6118 0.0000 0.0000
# 5 0.0000 0.0000 0.0000 0.0000 57.5984 0.0000
# 6 0.0000 0.0000 0.0000 0.0000 0.0000 26.4696
#
#
#
# Elastic Compliance Matrix: (Units=1/GPa)
#
#
# Indices 1 2 3 4 5 6 
#
# 1 0.011005 -0.003158 -0.002468 0.000000 0.000000 0.000000
# 2 -0.003158 0.022530 -0.004610 0.000000 0.000000 0.000000
# 3 -0.002468 -0.004610 0.010594 0.000000 0.000000 0.000000
# 4 0.000000 0.000000 0.000000 0.028081 0.000000 0.000000
# 5 0.000000 0.000000 0.000000 0.000000 0.017362 0.000000
# 6 0.000000 0.000000 0.000000 0.000000 0.000000 0.037779
#
#
# Mechanical properties :
#
#
# Convention : Reuss Voigt Hill
#
# Bulk Modulus (GPa) = 42.27385 48.81712 45.54549
# Shear Modulus (GPa) = 32.11135 36.52369 34.31752
#
# Velocity S-wave (km/s) = 4.02847 4.29633 4.16456
# Velocity P-wave (km/s) = 6.55764 7.02017 6.79284
#
# Compressibility (1/GPa) = 0.02365529
#
# Stress axis : x y z
#
# Youngs Moduli (GPa) = 90.87180 44.38560 94.39171
#
# Poissons Ratio (x) = 0.14017 0.23297
# Poissons Ratio (y) = 0.28697 0.43519
# Poissons Ratio (z) = 0.22428 0.20464
#
# Static dielectric constant tensor:
#      x y z
#    x 3.825560 0.000000 0.000000 
#    y 0.000000 3.643360 0.000000 
#    z 0.000000 0.000000 3.323600 
# 
# 
# High freq. dielectric constant tensor:
#      x y z
#    x 1.786430 0.000000 0.000000 
#    y 0.000000 1.761720 0.000000 
#    z 0.000000 0.000000 1.782380 
# 
# From -- ./inp_files/24843.got.cif
#   From: 2010.03.12/outbox.cif.g09.slc.cpg/sg51_13_cif.got.tgz:24843.got - 2010.04.16 13:43:02.
