data_PCOD8213707
_publ_section_title
;
Structure prediction by ZEFSAII (Michael W. Deem and Ramdas Pophale) SiO2 
 PCOD8213707
Probable space group: P M M A
;
_chemical_formula_sum "Si O2"
_cell_formula_units_Z 40
_cell_length_a 25.058277
_cell_length_b 8.995983
_cell_length_c 9.149658
_cell_angle_alpha 90.000000
_cell_angle_beta 90.000000
_cell_angle_gamma 90.000000
_cell_volume 2062.550985
_symmetry_space_group_name_H-M "P M M A"
_symmetry_group_IT_number 51
_symmetry_cell_setting 'orthorhombic'
loop_
_space_group_symop_operation_xyz
x,y,z
1/2-x,-y,z
1/2+x,-y,-z
-x,y,-z
-x,-y,-z
1/2+x,y,-z
1/2-x,y,z
x,-y,z
loop_
_atom_site_type_symbol
_atom_site_label
_atom_site_fract_x
_atom_site_fract_y
_atom_site_fract_z
Si Si1 0.496829 0.826981 0.170575
Si Si2 0.810199 0.670747 0.137328
Si Si3 0.908502 0.327970 0.332307
Si Si4 0.599679 0.675004 0.667807
Si Si5 0.688149 0.827346 0.841479
O O1 0.551196 0.774759 0.244619
O O2 0.447449 0.736949 0.233605
O O3 0.488088 0.000000 0.202634
O O4 0.500000 0.792460 0.000000
O O5 0.750000 0.712708 0.186240
O O6 0.813522 0.500000 0.087088
O O7 0.848836 0.702212 0.273572
O O8 0.829030 0.769003 0.000680
O O9 0.924929 0.500000 0.311819
O O10 0.910802 0.280934 0.500642
O O11 0.602926 0.500000 0.688354
O O12 0.655747 0.744407 0.715680
O O13 0.750000 0.794197 0.811999
O O14 0.674290 0.000000 0.835655
#
# Coordination Sequence:
#
# PCOD8213707 Si02
#       5
#     8   8   8   8   8
#     4  11  24  40  59  83 111 145 186 230 277 332
#     4   9  18  35  59  84 111 146 186 227 273 325
#     4  10  22  38  57  84 115 146 184 230 278 329
#     4  11  23  38  58  84 114 147 185 230 278 330
#     4  10  21  37  57  83 115 149 187 230 274 325
#
# _framework density 19.393460000000001
#
# number of rings (size 3 to 8) (size 9 to 14) (size 15 to 20)
#    0.000    1.800    0.000    3.600    0.000   11.600 
#    0.000    2.000    0.000    2.400    0.000    0.000 
#    0.000    0.000    0.000    0.000    0.000    0.000 
#
# Total GULP energy -496222.372180 kJ/mol
# GULP energy per Si atom -12405.559305 kJ/mol
# Density = 1.934932 g / cm^3
# Si number density = 19.393460 Si / 1000 Ang^3
#
#
#
# Elastic Constant Matrix: (Units=GPa)
#
#
# Indices 1 2 3 4 5 6 
#
# 1 100.3273 50.5745 58.8758 0.0000 0.0000 0.0000
# 2 50.5745 92.2505 68.8557 0.0000 0.0000 0.0000
# 3 58.8758 68.8557 123.2584 0.0000 0.0000 0.0000
# 4 0.0000 0.0000 0.0000 16.9449 0.0000 0.0000
# 5 0.0000 0.0000 0.0000 0.0000 27.5052 0.0000
# 6 0.0000 0.0000 0.0000 0.0000 0.0000 35.3036
#
#
#
# Elastic Compliance Matrix: (Units=1/GPa)
#
#
# Indices 1 2 3 4 5 6 
#
# 1 0.015063 -0.004953 -0.004428 0.000000 0.000000 0.000000
# 2 -0.004953 0.020221 -0.008930 0.000000 0.000000 0.000000
# 3 -0.004428 -0.008930 0.015217 0.000000 0.000000 0.000000
# 4 0.000000 0.000000 0.000000 0.059015 0.000000 0.000000
# 5 0.000000 0.000000 0.000000 0.000000 0.036357 0.000000
# 6 0.000000 0.000000 0.000000 0.000000 0.000000 0.028326
#
#
# Mechanical properties :
#
#
# Convention : Reuss Voigt Hill
#
# Bulk Modulus (GPa) = 72.05520 74.71645 73.38583
# Shear Modulus (GPa) = 23.20774 25.11943 24.16359
#
# Velocity S-wave (km/s) = 3.46306 3.60287 3.53365
# Velocity P-wave (km/s) = 7.29557 7.47782 7.38726
#
# Compressibility (1/GPa) = 0.01387825
#
# Stress axis : x y z
#
# Youngs Moduli (GPa) = 66.38980 49.45422 65.71654
#
# Poissons Ratio (x) = 0.24493 0.29100
# Poissons Ratio (y) = 0.32880 0.58686
# Poissons Ratio (z) = 0.29398 0.44164
#
# Static dielectric constant tensor:
#      x y z
#    x 3.690840 0.000000 0.000000 
#    y 0.000000 3.616500 0.000000 
#    z 0.000000 0.000000 3.572290 
# 
# 
# High freq. dielectric constant tensor:
#      x y z
#    x 1.768610 0.000000 0.000000 
#    y 0.000000 1.760770 0.000000 
#    z 0.000000 0.000000 1.755990 
# 
# From -- ./inp_files/11415.got.cif
#   From: 2010.03.12/outbox.cif.g09.slc.cpg/sg51_6_cif.got.tgz:11415.got - 2010.04.16 13:43:02.
