data_PCOD8213513
_publ_section_title
;
Structure prediction by ZEFSAII (Michael W. Deem and Ramdas Pophale) SiO2 
 PCOD8213513
Probable space group: P M M A
;
_chemical_formula_sum "Si O2"
_cell_formula_units_Z 56
_cell_length_a 9.194222
_cell_length_b 13.380493
_cell_length_c 29.804126
_cell_angle_alpha 90.000000
_cell_angle_beta 90.000000
_cell_angle_gamma 90.000000
_cell_volume 3666.599643
_symmetry_space_group_name_H-M "P M M A"
_symmetry_group_IT_number 51
_symmetry_cell_setting 'orthorhombic'
loop_
_space_group_symop_operation_xyz
x,y,z
1/2-x,-y,z
1/2+x,-y,-z
-x,y,-z
-x,-y,-z
1/2+x,y,-z
1/2-x,y,z
x,-y,z
loop_
_atom_site_type_symbol
_atom_site_label
_atom_site_fract_x
_atom_site_fract_y
_atom_site_fract_z
Si Si1 0.415344 0.751064 0.116864
Si Si2 0.418058 0.882392 0.953879
Si Si3 0.912865 0.619275 0.629661
Si Si4 0.590215 0.383017 0.287016
Si Si5 0.414284 0.619093 0.543278
Si Si6 0.090935 0.391199 0.037425
Si Si7 0.077527 0.614771 0.814508
O O1 0.250000 0.787968 0.128589
O O2 0.504474 0.836502 0.090377
O O3 0.406895 0.656577 0.085266
O O4 0.497591 0.705406 0.159694
O O5 0.250000 0.846284 0.957096
O O6 0.426113 0.000000 0.946676
O O7 0.500000 0.852147 0.000000
O O8 0.750000 0.661775 0.625358
O O9 0.910268 0.500000 0.629784
O O10 0.980968 0.662146 0.675939
O O11 0.006833 0.659422 0.587902
O O12 0.750000 0.334072 0.293190
O O13 0.605082 0.500000 0.295601
O O14 0.532317 0.364013 0.236870
O O15 0.500000 0.660299 0.500000
O O16 0.250000 0.660576 0.542285
O O17 0.413556 0.500000 0.542911
O O18 0.250000 0.399847 0.016891
O O19 0.018357 0.500000 0.044127
O O20 0.000000 0.329468 0.000000
O O21 0.250000 0.625159 0.821571
O O22 0.030692 0.500000 0.827608
#
# Coordination Sequence:
#
# PCOD8213513 Si02
#       7
#     8   8   8   8   8   8   8
#     4  11  21  31  46  66  87 110 134 161 194 232
#     4  10  21  37  55  72  89 108 131 160 193 231
#     4   9  15  21  30  44  60  80 109 145 186 231
#     4   8  14  25  38  50  66  91 123 156 189 225
#     4   9  15  21  28  38  54  76 103 139 184 232
#     4   9  18  30  41  56  79 105 130 153 178 212
#     4   9  18  31  45  61  83 111 140 168 198 234
#
# _framework density 15.273006000000001
#
# number of rings (size 3 to 8) (size 9 to 14) (size 15 to 20)
#    0.000    2.714    0.000    3.429    0.000    8.000 
#    0.000    2.857    0.000    0.000    0.000    0.000 
#    0.000    0.000    0.000    0.000    0.000    0.000 
#
# Total GULP energy -693782.180332 kJ/mol
# GULP energy per Si atom -12388.967506 kJ/mol
# Density = 1.523824 g / cm^3
# Si number density = 15.273006 Si / 1000 Ang^3
#
#
#
# Elastic Constant Matrix: (Units=GPa)
#
#
# Indices 1 2 3 4 5 6 
#
# 1 117.2416 22.3134 61.9741 0.0000 0.0000 0.0000
# 2 22.3134 30.8048 18.9870 0.0000 0.0000 0.0000
# 3 61.9741 18.9870 109.8266 0.0000 0.0000 0.0000
# 4 0.0000 0.0000 0.0000 5.7204 0.0000 0.0000
# 5 0.0000 0.0000 0.0000 0.0000 29.2828 0.0000
# 6 0.0000 0.0000 0.0000 0.0000 0.0000 15.0457
#
#
#
# Elastic Compliance Matrix: (Units=1/GPa)
#
#
# Indices 1 2 3 4 5 6 
#
# 1 0.012923 -0.005446 -0.006351 0.000000 0.000000 0.000000
# 2 -0.005446 0.038630 -0.003605 0.000000 0.000000 0.000000
# 3 -0.006351 -0.003605 0.013312 0.000000 0.000000 0.000000
# 4 0.000000 0.000000 0.000000 0.174813 0.000000 0.000000
# 5 0.000000 0.000000 0.000000 0.000000 0.034150 0.000000
# 6 0.000000 0.000000 0.000000 0.000000 0.000000 0.066464
#
#
# Mechanical properties :
#
#
# Convention : Reuss Voigt Hill
#
# Bulk Modulus (GPa) = 29.35955 51.60246 40.48101
# Shear Modulus (GPa) = 13.07361 20.31633 16.69497
#
# Velocity S-wave (km/s) = 2.92891 3.65116 3.30980
# Velocity P-wave (km/s) = 5.54102 7.18573 6.41629
#
# Compressibility (1/GPa) = 0.03406047
#
# Stress axis : x y z
#
# Youngs Moduli (GPa) = 77.38173 25.88690 75.11929
#
# Poissons Ratio (x) = 0.14099 0.47706
# Poissons Ratio (y) = 0.42145 0.27081
# Poissons Ratio (z) = 0.49143 0.09332
#
# Static dielectric constant tensor:
#      x y z
#    x 3.271370 0.000000 0.000000 
#    y 0.000000 2.418190 0.000000 
#    z 0.000000 0.000000 3.015650 
# 
# 
# High freq. dielectric constant tensor:
#      x y z
#    x 1.601880 0.000000 0.000000 
#    y 0.000000 1.510940 0.000000 
#    z 0.000000 0.000000 1.585760 
# 
# From -- ./inp_files/37452.got.cif
#   From: 2010.03.12/outbox.cif.g09.slc.cpg/sg51_19_cif.got.tgz:37452.got - 2010.04.16 13:43:02.
