data_PCOD8213702
_publ_section_title
;
Structure prediction by ZEFSAII (Michael W. Deem and Ramdas Pophale) SiO2 
 PCOD8213702
Probable space group: P M M A
;
_chemical_formula_sum "Si O2"
_cell_formula_units_Z 52
_cell_length_a 9.892661
_cell_length_b 7.952691
_cell_length_c 34.884696
_cell_angle_alpha 90.000000
_cell_angle_beta 90.000000
_cell_angle_gamma 90.000000
_cell_volume 2744.493320
_symmetry_space_group_name_H-M "P M M A"
_symmetry_group_IT_number 51
_symmetry_cell_setting 'orthorhombic'
loop_
_space_group_symop_operation_xyz
x,y,z
1/2-x,-y,z
1/2+x,-y,-z
-x,y,-z
-x,-y,-z
1/2+x,y,-z
1/2-x,y,z
x,-y,z
loop_
_atom_site_type_symbol
_atom_site_label
_atom_site_fract_x
_atom_site_fract_y
_atom_site_fract_z
Si Si1 0.399377 0.700130 0.258379
Si Si2 0.904174 0.188570 0.409380
Si Si3 0.092186 0.500000 0.537030
Si Si4 0.098241 0.201269 0.967307
Si Si5 0.100686 0.693436 0.804109
Si Si6 0.593148 0.695616 0.655482
Si Si7 0.589435 0.814018 0.115700
O O1 0.250000 0.771974 0.249534
O O2 0.394857 0.500000 0.255461
O O3 0.502439 0.779276 0.227225
O O4 0.443383 0.752080 0.301249
O O5 0.750000 0.220652 0.396168
O O6 0.946188 0.330949 0.439833
O O7 0.999947 0.197174 0.372532
O O8 0.919409 0.000000 0.427135
O O9 0.250000 0.500000 0.525508
O O10 0.000000 0.500000 0.500000
O O11 0.250000 0.267692 0.975389
O O12 0.043830 0.264036 0.925418
O O13 0.097860 0.000000 0.967085
O O14 0.000000 0.274715 0.000000
O O15 0.250000 0.778308 0.801651
O O16 0.113694 0.500000 0.793622
O O17 0.040632 0.709057 0.847270
O O18 0.750000 0.733085 0.646674
O O19 0.561007 0.500000 0.649415
O O20 0.750000 0.820982 0.114041
O O21 0.528453 0.000000 0.120718
#
# Coordination Sequence:
#
# PCOD8213702 Si02
#       7
#     8   8   4   8   8   8   8
#     4   8  15  28  45  66  93 125 158 193 235 283
#     4  10  21  37  57  83 114 146 181 222 270 318
#     4  10  22  40  60  84 114 148 184 226 270 316
#     4   8  13  22  37  55  73  95 126 165 209 258
#     4   9  16  26  42  64  85 110 151 192 221 262
#     4   9  17  31  53  78 103 135 176 216 258 310
#     4   8  14  25  40  57  79 107 135 168 217 269
#
# _framework density 18.947030000000002
#
# number of rings (size 3 to 8) (size 9 to 14) (size 15 to 20)
#    0.000    3.231    0.769    1.846    0.000    1.846 
#    0.000    3.077    0.000    4.615    0.000    0.000 
#    0.000    0.000    0.000    0.000    0.000    0.000 
#
# Total GULP energy -644325.841770 kJ/mol
# GULP energy per Si atom -12390.881572 kJ/mol
# Density = 1.890391 g / cm^3
# Si number density = 18.947030 Si / 1000 Ang^3
#
#
#
# Elastic Constant Matrix: (Units=GPa)
#
#
# Indices 1 2 3 4 5 6 
#
# 1 84.1981 24.2401 83.6553 0.0000 0.0000 0.0000
# 2 24.2401 54.3752 37.1799 0.0000 0.0000 0.0000
# 3 83.6553 37.1799 163.9081 0.0000 0.0000 0.0000
# 4 0.0000 0.0000 0.0000 14.5641 0.0000 0.0000
# 5 0.0000 0.0000 0.0000 0.0000 39.2108 0.0000
# 6 0.0000 0.0000 0.0000 0.0000 0.0000 12.6697
#
#
#
# Elastic Compliance Matrix: (Units=1/GPa)
#
#
# Indices 1 2 3 4 5 6 
#
# 1 0.024451 -0.002802 -0.011844 0.000000 0.000000 0.000000
# 2 -0.002802 0.022088 -0.003580 0.000000 0.000000 0.000000
# 3 -0.011844 -0.003580 0.012958 0.000000 0.000000 0.000000
# 4 0.000000 0.000000 0.000000 0.068662 0.000000 0.000000
# 5 0.000000 0.000000 0.000000 0.000000 0.025503 0.000000
# 6 0.000000 0.000000 0.000000 0.000000 0.000000 0.078929
#
#
# Mechanical properties :
#
#
# Convention : Reuss Voigt Hill
#
# Bulk Modulus (GPa) = 43.39325 65.84799 54.62062
# Shear Modulus (GPa) = 18.06861 23.78265 20.92563
#
# Velocity S-wave (km/s) = 3.09145 3.54675 3.32690
# Velocity P-wave (km/s) = 5.97452 7.18344 6.60669
#
# Compressibility (1/GPa) = 0.02304506
#
# Stress axis : x y z
#
# Youngs Moduli (GPa) = 40.89889 45.27382 77.17345
#
# Poissons Ratio (x) = 0.12684 0.91401
# Poissons Ratio (y) = 0.11459 0.27631
# Poissons Ratio (z) = 0.48439 0.16210
#
# Static dielectric constant tensor:
#      x y z
#    x 3.549950 0.000000 0.000000 
#    y 0.000000 3.199590 0.000000 
#    z 0.000000 0.000000 3.655060 
# 
# 
# High freq. dielectric constant tensor:
#      x y z
#    x 1.713420 0.000000 0.000000 
#    y 0.000000 1.707170 0.000000 
#    z 0.000000 0.000000 1.738980 
# 
# From -- ./inp_files/37732.got.cif
#   From: 2010.03.12/outbox.cif.g09.slc.cpg/sg51_19_cif.got.tgz:37732.got - 2010.04.16 13:43:02.
