data_PCOD8213309
_publ_section_title
;
Structure prediction by ZEFSAII (Michael W. Deem and Ramdas Pophale) SiO2 
 PCOD8213309
Probable space group: P M M A
;
_chemical_formula_sum "Si O2"
_cell_formula_units_Z 48
_cell_length_a 9.594236
_cell_length_b 9.156508
_cell_length_c 30.582790
_cell_angle_alpha 90.000000
_cell_angle_beta 90.000000
_cell_angle_gamma 90.000000
_cell_volume 2686.688887
_symmetry_space_group_name_H-M "P M M A"
_symmetry_group_IT_number 51
_symmetry_cell_setting 'orthorhombic'
loop_
_space_group_symop_operation_xyz
x,y,z
1/2-x,-y,z
1/2+x,-y,-z
-x,y,-z
-x,-y,-z
1/2+x,y,-z
1/2-x,y,z
x,-y,z
loop_
_atom_site_type_symbol
_atom_site_label
_atom_site_fract_x
_atom_site_fract_y
_atom_site_fract_z
Si Si1 0.412388 0.329942 0.370948
Si Si2 0.911188 0.668692 0.209621
Si Si3 0.087799 0.170269 0.702409
Si Si4 0.588964 0.831798 0.541304
Si Si5 0.410263 0.170985 0.040647
Si Si6 0.089720 0.329542 0.127619
O O1 0.250000 0.301051 0.361804
O O2 0.449250 0.500000 0.370152
O O3 0.499743 0.248649 0.334474
O O4 0.456148 0.266183 0.417809
O O5 0.750000 0.691830 0.197949
O O6 0.944368 0.500000 0.220238
O O7 0.956463 0.763849 0.251064
O O8 0.000041 0.725639 0.168627
O O9 0.250000 0.199955 0.693117
O O10 0.052149 0.000000 0.702457
O O11 0.500000 0.778610 0.500000
O O12 0.750000 0.808850 0.529377
O O13 0.556582 0.000000 0.552893
O O14 0.250000 0.211191 0.031395
O O15 0.464659 0.248413 0.084438
O O16 0.432445 0.000000 0.047285
O O17 0.500000 0.229901 0.000000
O O18 0.250000 0.290282 0.137231
O O19 0.067539 0.500000 0.119724
#
# Coordination Sequence:
#
# PCOD8213309 Si02
#       6
#     8   8   8   8   8   8
#     4  10  21  36  54  77 105 137 173 212 254 301
#     4   9  18  33  51  71  98 130 162 199 245 295
#     4  10  21  36  54  77 104 134 170 211 254 302
#     4   9  18  33  52  74 102 135 170 209 252 298
#     4   9  18  32  48  67  93 124 157 194 237 284
#     4   9  18  32  49  70  96 125 158 197 240 287
#
# _framework density 17.865856999999998
#
# number of rings (size 3 to 8) (size 9 to 14) (size 15 to 20)
#    0.000    2.667    0.000    1.000    0.000    5.333 
#    0.000    3.333    0.000    0.000    0.000    0.000 
#    0.000    0.000    0.000    0.000    0.000    0.000 
#
# Total GULP energy -595361.238569 kJ/mol
# GULP energy per Si atom -12403.359137 kJ/mol
# Density = 1.782519 g / cm^3
# Si number density = 17.865857 Si / 1000 Ang^3
#
#
#
# Elastic Constant Matrix: (Units=GPa)
#
#
# Indices 1 2 3 4 5 6 
#
# 1 72.4937 50.5675 91.8073 0.0000 0.0000 0.0000
# 2 50.5675 88.4254 88.8298 0.0000 0.0000 0.0000
# 3 91.8073 88.8298 193.6641 0.0000 0.0000 0.0000
# 4 0.0000 0.0000 0.0000 39.4644 0.0000 0.0000
# 5 0.0000 0.0000 0.0000 0.0000 42.5883 0.0000
# 6 0.0000 0.0000 0.0000 0.0000 0.0000 24.0685
#
#
#
# Elastic Compliance Matrix: (Units=1/GPa)
#
#
# Indices 1 2 3 4 5 6 
#
# 1 0.036401 -0.006457 -0.014294 0.000000 0.000000 0.000000
# 2 -0.006457 0.022118 -0.007084 0.000000 0.000000 0.000000
# 3 -0.014294 -0.007084 0.015189 0.000000 0.000000 0.000000
# 4 0.000000 0.000000 0.000000 0.025339 0.000000 0.000000
# 5 0.000000 0.000000 0.000000 0.000000 0.023481 0.000000
# 6 0.000000 0.000000 0.000000 0.000000 0.000000 0.041548
#
#
# Mechanical properties :
#
#
# Convention : Reuss Voigt Hill
#
# Bulk Modulus (GPa) = 55.44022 90.77693 73.10857
# Shear Modulus (GPa) = 22.14751 29.44948 25.79850
#
# Velocity S-wave (km/s) = 3.52469 4.06441 3.80414
# Velocity P-wave (km/s) = 6.90387 8.54087 7.76563
#
# Compressibility (1/GPa) = 0.01803745
#
# Stress axis : x y z
#
# Youngs Moduli (GPa) = 27.47198 45.21218 65.83569
#
# Poissons Ratio (x) = 0.29192 0.94108
# Poissons Ratio (y) = 0.17737 0.46640
# Poissons Ratio (z) = 0.39270 0.32030
#
# Static dielectric constant tensor:
#      x y z
#    x 3.245040 0.000000 0.000000 
#    y 0.000000 3.317910 0.000000 
#    z 0.000000 0.000000 3.433300 
# 
# 
# High freq. dielectric constant tensor:
#      x y z
#    x 1.686930 0.000000 0.000000 
#    y 0.000000 1.691040 0.000000 
#    z 0.000000 0.000000 1.699330 
# 
# From -- ./inp_files/36912.got.cif
#   From: 2010.03.12/outbox.cif.g09.slc.cpg/sg51_19_cif.got.tgz:36912.got - 2010.04.16 13:43:02.
