data_PCOD8213265
_publ_section_title
;
Structure prediction by ZEFSAII (Michael W. Deem and Ramdas Pophale) SiO2 
 PCOD8213265
Probable space group: P M M A
;
_chemical_formula_sum "Si O2"
_cell_formula_units_Z 64
_cell_length_a 29.975735
_cell_length_b 9.091806
_cell_length_c 12.083717
_cell_angle_alpha 90.000000
_cell_angle_beta 90.000000
_cell_angle_gamma 90.000000
_cell_volume 3293.218501
_symmetry_space_group_name_H-M "P M M A"
_symmetry_group_IT_number 51
_symmetry_cell_setting 'orthorhombic'
loop_
_space_group_symop_operation_xyz
x,y,z
1/2-x,-y,z
1/2+x,-y,-z
-x,y,-z
-x,-y,-z
1/2+x,y,-z
1/2-x,y,z
x,-y,z
loop_
_atom_site_type_symbol
_atom_site_label
_atom_site_fract_x
_atom_site_fract_y
_atom_site_fract_z
Si Si1 0.461215 0.824985 0.584982
Si Si2 0.300105 0.828476 0.323626
Si Si3 0.700594 0.173470 0.307318
Si Si4 0.472755 0.330445 0.822595
Si Si5 0.650606 0.170332 0.900740
Si Si6 0.134771 0.174839 0.508399
Si Si7 0.565335 0.329545 0.943721
Si Si8 0.199459 0.668158 0.913358
O O1 0.500000 0.773569 0.500000
O O2 0.465529 0.761143 0.709496
O O3 0.415584 0.767428 0.526261
O O4 0.461323 0.000000 0.598702
O O5 0.250000 0.759816 0.339788
O O6 0.316787 0.800110 0.200832
O O7 0.338929 0.760021 0.401767
O O8 0.296306 0.000000 0.350974
O O9 0.750000 0.228211 0.343015
O O10 0.664117 0.234062 0.390736
O O11 0.686590 0.235397 0.190562
O O12 0.699666 0.000000 0.300604
O O13 0.465461 0.500000 0.791136
O O14 0.521532 0.303123 0.871412
O O15 0.440098 0.286324 0.925448
O O16 0.599934 0.221241 0.881745
O O17 0.652382 0.000000 0.935989
O O18 0.666553 0.280999 0.993245
O O19 0.133255 0.000000 0.501150
O O20 0.579809 0.500000 0.936106
O O21 0.250000 0.696681 0.951683
O O22 0.190740 0.500000 0.883512
#
# Coordination Sequence:
#
# PCOD8213265 Si02
#       8
#     8   8   8   8   8   8   8   8
#     4  10  22  36  55  83 119 152 181 230 286 335
#     4   9  18  33  54  80 111 147 187 231 277 328
#     4   9  17  31  54  81 107 137 181 235 277 321
#     4   9  20  40  62  81 109 148 190 233 277 335
#     4  11  22  33  55  86 114 143 184 234 282 336
#     4   9  18  33  53  79 110 145 183 224 278 333
#     4   9  20  39  60  83 111 146 185 230 283 338
#     4  10  21  36  53  75 110 152 185 221 275 332
#
# _framework density 19.433875
#
# number of rings (size 3 to 8) (size 9 to 14) (size 15 to 20)
#    0.000    2.500    0.000    2.250    3.500    4.000 
#    0.000    1.250    0.000    1.500    0.000    1.750 
#    0.000    0.000    0.000    0.000    0.000    0.000 
#
# Total GULP energy -793065.090727 kJ/mol
# GULP energy per Si atom -12391.642043 kJ/mol
# Density = 1.938964 g / cm^3
# Si number density = 19.433875 Si / 1000 Ang^3
#
#
#
# Elastic Constant Matrix: (Units=GPa)
#
#
# Indices 1 2 3 4 5 6 
#
# 1 104.6436 -2.7614 61.6610 0.0000 0.0000 0.0000
# 2 -2.7614 -64.9446 0.2630 0.0000 0.0000 0.0000
# 3 61.6610 0.2630 78.0918 0.0000 0.0000 0.0000
# 4 0.0000 0.0000 0.0000 2.2381 0.0000 0.0000
# 5 0.0000 0.0000 0.0000 0.0000 29.5478 0.0000
# 6 0.0000 0.0000 0.0000 0.0000 0.0000 24.6532
#
#
#
# Elastic Compliance Matrix: (Units=1/GPa)
#
#
# Indices 1 2 3 4 5 6 
#
# 1 0.017828 -0.000815 -0.014074 0.000000 0.000000 0.000000
# 2 -0.000815 -0.015360 0.000695 0.000000 0.000000 0.000000
# 3 -0.014074 0.000695 0.023916 0.000000 0.000000 0.000000
# 4 0.000000 0.000000 0.000000 0.446812 0.000000 0.000000
# 5 0.000000 0.000000 0.000000 0.000000 0.033844 0.000000
# 6 0.000000 0.000000 0.000000 0.000000 0.000000 0.040563
#
#
# Mechanical properties :
#
#
# Convention : Reuss Voigt Hill
#
# Bulk Modulus (GPa) = -498.96938 26.23513 -236.36713
# Shear Modulus (GPa) = 8.69079 15.19635 11.94357
#
# Velocity S-wave (km/s) = 2.11700 2.79937 2.48175
# Velocity P-wave (km/s) = 15.85352 4.89670 10.66200
#
# Compressibility (1/GPa) = -0.00200413
#
# Stress axis : x y z
#
# Youngs Moduli (GPa) = 56.09194 -65.10299 41.81310
#
# Poissons Ratio (x) = -0.05306 0.58848
# Poissons Ratio (y) = 0.04572 -0.02907
# Poissons Ratio (z) = 0.78944 0.04526
#
# Static dielectric constant tensor:
#      x y z
#    x 3.751730 0.000000 0.000000 
#    y 0.000000 3.222730 0.000000 
#    z 0.000000 0.000000 3.848070 
# 
# 
# High freq. dielectric constant tensor:
#      x y z
#    x 1.773050 0.000000 0.000000 
#    y 0.000000 1.720660 0.000000 
#    z 0.000000 0.000000 1.760470 
# 
# From -- ./inp_files/19482.got.cif
#   From: 2010.03.12/outbox.cif.g09.slc.cpg/sg51_10_cif.got.tgz:19482.got - 2010.04.16 13:43:02.
