data_PCOD8213331
_publ_section_title
;
Structure prediction by ZEFSAII (Michael W. Deem and Ramdas Pophale) SiO2 
 PCOD8213331
Probable space group: P M M A
;
_chemical_formula_sum "Si O2"
_cell_formula_units_Z 48
_cell_length_a 9.128572
_cell_length_b 9.192122
_cell_length_c 30.745453
_cell_angle_alpha 90.000000
_cell_angle_beta 90.000000
_cell_angle_gamma 90.000000
_cell_volume 2579.880093
_symmetry_space_group_name_H-M "P M M A"
_symmetry_group_IT_number 51
_symmetry_cell_setting 'orthorhombic'
loop_
_space_group_symop_operation_xyz
x,y,z
1/2-x,-y,z
1/2+x,-y,-z
-x,y,-z
-x,-y,-z
1/2+x,y,-z
1/2-x,y,z
x,-y,z
loop_
_atom_site_type_symbol
_atom_site_label
_atom_site_fract_x
_atom_site_fract_y
_atom_site_fract_z
Si Si1 0.923282 0.166394 0.128521
Si Si2 0.578827 0.331559 0.794270
Si Si3 0.419252 0.670780 0.456539
Si Si4 0.418344 0.170867 0.620595
Si Si5 0.078478 0.667102 0.956647
Si Si6 0.418847 0.832019 0.292411
O O1 0.750000 0.180023 0.132478
O O2 0.978568 0.237618 0.083640
O O3 0.992092 0.251450 0.168260
O O4 0.975885 0.000000 0.129537
O O5 0.750000 0.307197 0.802405
O O6 0.535520 0.500000 0.794341
O O7 0.531169 0.264353 0.748263
O O8 0.500000 0.724792 0.500000
O O9 0.250000 0.714805 0.460365
O O10 0.440286 0.500000 0.449904
O O11 0.489317 0.749246 0.415771
O O12 0.250000 0.220349 0.618040
O O13 0.481750 0.216754 0.667280
O O14 0.436083 0.000000 0.613221
O O15 0.250000 0.686621 0.963831
O O16 0.036311 0.500000 0.947183
O O17 0.000000 0.724653 0.000000
O O18 0.250000 0.803242 0.304789
O O19 0.445010 0.000000 0.280203
#
# Coordination Sequence:
#
# PCOD8213331 Si02
#       6
#     8   8   8   8   8   8
#     4  10  21  36  54  77 106 140 177 217 262 312
#     4  10  21  36  55  80 108 138 175 218 263 314
#     4  10  21  37  57  80 107 141 180 222 268 316
#     4  10  21  36  55  81 111 142 177 217 262 314
#     4   9  18  33  52  74 102 136 173 214 260 310
#     4   9  18  34  54  75 104 141 177 215 260 309
#
# _framework density 18.605516000000001
#
# number of rings (size 3 to 8) (size 9 to 14) (size 15 to 20)
#    0.000    2.333    0.000    2.000    0.000    6.667 
#    0.000    5.000    0.000    0.000    0.000    0.000 
#    0.000    0.000    0.000    0.000    0.000    0.000 
#
# Total GULP energy -595394.800885 kJ/mol
# GULP energy per Si atom -12404.058352 kJ/mol
# Density = 1.856317 g / cm^3
# Si number density = 18.605516 Si / 1000 Ang^3
#
#
#
# Elastic Constant Matrix: (Units=GPa)
#
#
# Indices 1 2 3 4 5 6 
#
# 1 80.0715 45.3622 72.2516 0.0000 0.0000 0.0000
# 2 45.3622 94.4465 83.4965 0.0000 0.0000 0.0000
# 3 72.2516 83.4965 168.4527 0.0000 0.0000 0.0000
# 4 0.0000 0.0000 0.0000 41.6837 0.0000 0.0000
# 5 0.0000 0.0000 0.0000 0.0000 42.0383 0.0000
# 6 0.0000 0.0000 0.0000 0.0000 0.0000 27.6722
#
#
#
# Elastic Compliance Matrix: (Units=1/GPa)
#
#
# Indices 1 2 3 4 5 6 
#
# 1 0.021113 -0.003800 -0.007172 0.000000 0.000000 0.000000
# 2 -0.003800 0.019530 -0.008051 0.000000 0.000000 0.000000
# 3 -0.007172 -0.008051 0.013003 0.000000 0.000000 0.000000
# 4 0.000000 0.000000 0.000000 0.023990 0.000000 0.000000
# 5 0.000000 0.000000 0.000000 0.000000 0.023788 0.000000
# 6 0.000000 0.000000 0.000000 0.000000 0.000000 0.036137
#
#
# Mechanical properties :
#
#
# Convention : Reuss Voigt Hill
#
# Bulk Modulus (GPa) = 64.09818 82.79901 73.44860
# Shear Modulus (GPa) = 27.65350 31.73620 29.69485
#
# Velocity S-wave (km/s) = 3.85945 4.13454 3.99936
# Velocity P-wave (km/s) = 7.37471 8.20924 7.80314
#
# Compressibility (1/GPa) = 0.01560107
#
# Stress axis : x y z
#
# Youngs Moduli (GPa) = 47.36321 51.20205 76.90402
#
# Poissons Ratio (x) = 0.19456 0.55158
# Poissons Ratio (y) = 0.17997 0.61914
# Poissons Ratio (z) = 0.33971 0.41222
#
# Static dielectric constant tensor:
#      x y z
#    x 3.304440 0.000000 0.000000 
#    y 0.000000 3.471810 0.000000 
#    z 0.000000 0.000000 3.534990 
# 
# 
# High freq. dielectric constant tensor:
#      x y z
#    x 1.721050 0.000000 0.000000 
#    y 0.000000 1.721200 0.000000 
#    z 0.000000 0.000000 1.735280 
# 
# From -- ./inp_files/36876.got.cif
#   From: 2010.03.12/outbox.cif.g09.slc.cpg/sg51_19_cif.got.tgz:36876.got - 2010.04.16 13:43:02.
