data_PCOD8213325
_publ_section_title
;
Structure prediction by ZEFSAII (Michael W. Deem and Ramdas Pophale) SiO2 
 PCOD8213325
Probable space group: P M M A
;
_chemical_formula_sum "Si O2"
_cell_formula_units_Z 48
_cell_length_a 9.053701
_cell_length_b 9.199582
_cell_length_c 30.837799
_cell_angle_alpha 90.000000
_cell_angle_beta 90.000000
_cell_angle_gamma 90.000000
_cell_volume 2568.488443
_symmetry_space_group_name_H-M "P M M A"
_symmetry_group_IT_number 51
_symmetry_cell_setting 'orthorhombic'
loop_
_space_group_symop_operation_xyz
x,y,z
1/2-x,-y,z
1/2+x,-y,-z
-x,y,-z
-x,-y,-z
1/2+x,y,-z
1/2-x,y,z
x,-y,z
loop_
_atom_site_type_symbol
_atom_site_label
_atom_site_fract_x
_atom_site_fract_y
_atom_site_fract_z
Si Si1 0.422419 0.167596 0.790370
Si Si2 0.080065 0.671014 0.285870
Si Si3 0.079706 0.829579 0.121437
Si Si4 0.083659 0.173190 0.541992
Si Si5 0.922106 0.166997 0.627570
Si Si6 0.579596 0.670840 0.043640
O O1 0.250000 0.193632 0.798456
O O2 0.476216 0.266067 0.751148
O O3 0.509196 0.217818 0.833077
O O4 0.456934 0.000000 0.779356
O O5 0.250000 0.712853 0.276033
O O6 0.057397 0.500000 0.288475
O O7 0.028523 0.739111 0.331267
O O8 0.250000 0.781903 0.121369
O O9 0.994551 0.748055 0.083903
O O10 0.060707 0.000000 0.113694
O O11 0.250000 0.231963 0.541005
O O12 0.000000 0.236814 0.500000
O O13 0.006856 0.229597 0.585814
O O14 0.078100 0.000000 0.540990
O O15 0.750000 0.183555 0.617663
O O16 0.964634 0.000000 0.636980
O O17 0.750000 0.716466 0.040719
O O18 0.559734 0.500000 0.049989
O O19 0.500000 0.724520 0.000000
#
# Coordination Sequence:
#
# PCOD8213325 Si02
#       6
#     8   8   8   8   8   8
#     4  10  21  37  57  80 106 137 174 217 264 313
#     4  10  21  36  54  77 105 138 175 214 258 310
#     4  10  21  37  58  83 109 139 176 218 265 315
#     4   9  16  26  43  69  99 128 161 204 252 301
#     4   9  17  30  49  72  99 132 168 207 253 303
#     4  10  21  37  57  81 110 145 183 221 262 309
#
# _framework density 18.688033999999998
#
# number of rings (size 3 to 8) (size 9 to 14) (size 15 to 20)
#    0.000    2.333    0.000    2.500    0.000    7.667 
#    0.000    1.667    0.000    0.500    0.000    0.000 
#    0.000    0.000    0.000    0.000    0.000    0.000 
#
# Total GULP energy -595372.932700 kJ/mol
# GULP energy per Si atom -12403.602765 kJ/mol
# Density = 1.864550 g / cm^3
# Si number density = 18.688034 Si / 1000 Ang^3
#
#
#
# Elastic Constant Matrix: (Units=GPa)
#
#
# Indices 1 2 3 4 5 6 
#
# 1 130.3806 42.1562 91.6354 0.0000 0.0000 0.0000
# 2 42.1562 48.7067 55.8064 0.0000 0.0000 0.0000
# 3 91.6354 55.8064 174.5861 0.0000 0.0000 0.0000
# 4 0.0000 0.0000 0.0000 -144.5013 0.0000 0.0000
# 5 0.0000 0.0000 0.0000 0.0000 43.2535 0.0000
# 6 0.0000 0.0000 0.0000 0.0000 0.0000 24.0697
#
#
#
# Elastic Compliance Matrix: (Units=1/GPa)
#
#
# Indices 1 2 3 4 5 6 
#
# 1 0.013000 -0.005418 -0.005092 0.000000 0.000000 0.000000
# 2 -0.005418 0.034654 -0.008233 0.000000 0.000000 0.000000
# 3 -0.005092 -0.008233 0.011032 0.000000 0.000000 0.000000
# 4 0.000000 0.000000 0.000000 -0.006920 0.000000 0.000000
# 5 0.000000 0.000000 0.000000 0.000000 0.023119 0.000000
# 6 0.000000 0.000000 0.000000 0.000000 0.000000 0.041546
#
#
# Mechanical properties :
#
#
# Convention : Reuss Voigt Hill
#
# Bulk Modulus (GPa) = 47.16930 81.42993 64.29962
# Shear Modulus (GPa) = 31.05899 -4.49726 13.28087
#
# Velocity S-wave (km/s) = 4.08115 -1.55297 2.66872
# Velocity P-wave (km/s) = 6.89224 6.36021 6.63156
#
# Compressibility (1/GPa) = 0.02120023
#
# Stress axis : x y z
#
# Youngs Moduli (GPa) = 76.92202 28.85675 90.64522
#
# Poissons Ratio (x) = 0.15635 0.46152
# Poissons Ratio (y) = 0.41677 0.74631
# Poissons Ratio (z) = 0.39165 0.23759
#
# Static dielectric constant tensor:
#      x y z
#    x 1.276660 0.000000 0.000000 
#    y 0.000000 3.172800 0.000000 
#    z 0.000000 0.000000 3.658220 
# 
# 
# High freq. dielectric constant tensor:
#      x y z
#    x 1.735270 0.000000 0.000000 
#    y 0.000000 1.697340 0.000000 
#    z 0.000000 0.000000 1.740920 
# 
# From -- ./inp_files/36917.got.cif
#   From: 2010.03.12/outbox.cif.g09.slc.cpg/sg51_19_cif.got.tgz:36917.got - 2010.04.16 13:43:02.
