data_PCOD8213205
_publ_section_title
;
Structure prediction by ZEFSAII (Michael W. Deem and Ramdas Pophale) SiO2 
 PCOD8213205
Probable space group: P M M A
;
_chemical_formula_sum "Si O2"
_cell_formula_units_Z 44
_cell_length_a 8.670115
_cell_length_b 19.085509
_cell_length_c 14.522464
_cell_angle_alpha 90.000000
_cell_angle_beta 90.000000
_cell_angle_gamma 90.000000
_cell_volume 2403.083787
_symmetry_space_group_name_H-M "P M M A"
_symmetry_group_IT_number 51
_symmetry_cell_setting 'orthorhombic'
loop_
_space_group_symop_operation_xyz
x,y,z
1/2-x,-y,z
1/2+x,-y,-z
-x,y,-z
-x,-y,-z
1/2+x,y,-z
1/2-x,y,z
x,-y,z
loop_
_atom_site_type_symbol
_atom_site_label
_atom_site_fract_x
_atom_site_fract_y
_atom_site_fract_z
Si Si1 0.569929 0.500000 0.901298
Si Si2 0.423421 0.851120 0.910493
Si Si3 0.569940 0.228019 0.759567
Si Si4 0.932885 0.146381 0.401682
Si Si5 0.582251 0.000000 0.145464
Si Si6 0.570400 0.000000 0.667805
Si Si7 0.067376 0.651975 0.102710
O O1 0.750000 0.500000 0.913138
O O2 0.520556 0.425481 0.856094
O O3 0.500000 0.500000 0.000000
O O4 0.250000 0.821520 0.896887
O O5 0.532579 0.838212 0.823355
O O6 0.425527 0.934304 0.922682
O O7 0.500000 0.815269 0.000000
O O8 0.750000 0.235348 0.738387
O O9 0.482774 0.211241 0.664547
O O10 0.505042 0.294472 0.818927
O O11 0.750000 0.142296 0.403844
O O12 0.000000 0.167378 0.500000
O O13 0.996536 0.070326 0.373585
O O14 0.450561 0.000000 0.222516
O O15 0.750000 0.000000 0.197050
O O16 0.750000 0.000000 0.642843
O O17 0.250000 0.660898 0.093431
O O18 0.000000 0.665382 0.000000
#
# Coordination Sequence:
#
# PCOD8213205 Si02
#       7
#     4   8   8   8   4   4   8
#     4   8  14  28  48  74 107 146 183 218 255 296
#     4  11  22  35  51  71 100 138 178 219 261 311
#     4  11  22  36  53  78 107 138 176 218 266 319
#     4  12  25  42  61  81 105 134 172 219 273 327
#     4  10  21  36  52  71  98 134 177 216 261 308
#     4  12  23  38  61  83 104 132 170 220 273 324
#     4   9  18  31  51  78 112 148 184 219 256 304
#
# _framework density 18.309808
#
# number of rings (size 3 to 8) (size 9 to 14) (size 15 to 20)
#    0.000    1.455    1.818    4.636    0.000    3.636 
#    0.000    0.000    0.000    0.000    0.000    0.636 
#    0.000    0.000    0.000    0.000    0.000    0.000 
#
# Total GULP energy -545094.739939 kJ/mol
# GULP energy per Si atom -12388.516817 kJ/mol
# Density = 1.826813 g / cm^3
# Si number density = 18.309808 Si / 1000 Ang^3
#
#
#
# Elastic Constant Matrix: (Units=GPa)
#
#
# Indices 1 2 3 4 5 6 
#
# 1 91.9847 37.8633 42.2010 0.0000 0.0000 0.0000
# 2 37.8633 118.7202 41.8670 0.0000 0.0000 0.0000
# 3 42.2010 41.8670 116.0307 0.0000 0.0000 0.0000
# 4 0.0000 0.0000 0.0000 17.1795 0.0000 0.0000
# 5 0.0000 0.0000 0.0000 0.0000 29.5507 0.0000
# 6 0.0000 0.0000 0.0000 0.0000 0.0000 17.7566
#
#
#
# Elastic Compliance Matrix: (Units=1/GPa)
#
#
# Indices 1 2 3 4 5 6 
#
# 1 0.013949 -0.003047 -0.003974 0.000000 0.000000 0.000000
# 2 -0.003047 0.010317 -0.002614 0.000000 0.000000 0.000000
# 3 -0.003974 -0.002614 0.011007 0.000000 0.000000 0.000000
# 4 0.000000 0.000000 0.000000 0.058209 0.000000 0.000000
# 5 0.000000 0.000000 0.000000 0.000000 0.033840 0.000000
# 6 0.000000 0.000000 0.000000 0.000000 0.000000 0.056317
#
#
# Mechanical properties :
#
#
# Convention : Reuss Voigt Hill
#
# Bulk Modulus (GPa) = 62.49188 63.39979 62.94584
# Shear Modulus (GPa) = 24.01034 26.55099 25.28066
#
# Velocity S-wave (km/s) = 3.62517 3.81214 3.71983
# Velocity P-wave (km/s) = 7.19214 7.35377 7.27340
#
# Compressibility (1/GPa) = 0.01600208
#
# Stress axis : x y z
#
# Youngs Moduli (GPa) = 71.69075 96.92741 90.85156
#
# Poissons Ratio (x) = 0.29537 0.36102
# Poissons Ratio (y) = 0.21847 0.23751
# Poissons Ratio (z) = 0.28488 0.25340
#
# Static dielectric constant tensor:
#      x y z
#    x 3.447010 0.000000 0.000000 
#    y 0.000000 2.647160 0.000000 
#    z 0.000000 0.000000 3.277190 
# 
# 
# High freq. dielectric constant tensor:
#      x y z
#    x 1.718810 0.000000 0.000000 
#    y 0.000000 1.704060 0.000000 
#    z 0.000000 0.000000 1.684100 
# 
# From -- ./inp_files/20998.got.cif
#   From: 2010.03.12/outbox.cif.g09.slc.cpg/sg51_11_cif.got.tgz:20998.got - 2010.04.16 13:43:02.
