data_PCOD8213669
_publ_section_title
;
Structure prediction by ZEFSAII (Michael W. Deem and Ramdas Pophale) SiO2 
 PCOD8213669
Probable space group: P M M A
;
_chemical_formula_sum "Si O2"
_cell_formula_units_Z 40
_cell_length_a 8.779067
_cell_length_b 9.258434
_cell_length_c 25.520680
_cell_angle_alpha 90.000000
_cell_angle_beta 90.000000
_cell_angle_gamma 90.000000
_cell_volume 2074.331395
_symmetry_space_group_name_H-M "P M M A"
_symmetry_group_IT_number 51
_symmetry_cell_setting 'orthorhombic'
loop_
_space_group_symop_operation_xyz
x,y,z
1/2-x,-y,z
1/2+x,-y,-z
-x,y,-z
-x,-y,-z
1/2+x,y,-z
1/2-x,y,z
x,-y,z
loop_
_atom_site_type_symbol
_atom_site_label
_atom_site_fract_x
_atom_site_fract_y
_atom_site_fract_z
Si Si1 0.426896 0.667877 0.148363
Si Si2 0.426594 0.831883 0.757560
Si Si3 0.070811 0.836045 0.946003
Si Si4 0.924034 0.670900 0.446160
Si Si5 0.073598 0.833652 0.351450
O O1 0.250000 0.695967 0.138232
O O2 0.466510 0.500000 0.151769
O O3 0.474031 0.740146 0.202597
O O4 0.520349 0.735055 0.100980
O O5 0.250000 0.793683 0.764917
O O6 0.477090 0.788742 0.699311
O O7 0.458298 0.000000 0.768393
O O8 0.250000 0.828369 0.951431
O O9 0.015771 0.000000 0.934943
O O10 0.000000 0.777579 0.000000
O O11 0.750000 0.725257 0.444512
O O12 0.933586 0.500000 0.440972
O O13 0.000000 0.724083 0.500000
O O14 0.019080 0.737457 0.399200
O O15 0.250000 0.803030 0.339770
O O16 0.044750 0.000000 0.365927
#
# Coordination Sequence:
#
# PCOD8213669 Si02
#       5
#     8   8   8   8   8
#     4  11  24  39  56  82 115 150 187 227 274 327
#     4  10  21  38  60  84 110 143 184 229 277 329
#     4  10  21  38  61  87 113 145 186 229 275 328
#     4  10  21  37  57  81 110 146 186 227 274 328
#     4  10  21  37  58  84 112 144 183 227 276 328
#
# _framework density 19.283322999999999
#
# number of rings (size 3 to 8) (size 9 to 14) (size 15 to 20)
#    0.000    1.800    0.000    3.600    0.000   10.400 
#    0.000    0.000    0.000    0.000    0.000    0.000 
#    0.000    0.000    0.000    0.000    0.000    0.000 
#
# Total GULP energy -496236.895513 kJ/mol
# GULP energy per Si atom -12405.922388 kJ/mol
# Density = 1.923943 g / cm^3
# Si number density = 19.283323 Si / 1000 Ang^3
#
#
#
# Elastic Constant Matrix: (Units=GPa)
#
#
# Indices 1 2 3 4 5 6 
#
# 1 62.5437 28.4183 21.7988 0.0000 0.0000 0.0000
# 2 28.4183 55.7811 44.3128 0.0000 0.0000 0.0000
# 3 21.7988 44.3128 112.6816 0.0000 0.0000 0.0000
# 4 0.0000 0.0000 0.0000 59.1272 0.0000 0.0000
# 5 0.0000 0.0000 0.0000 0.0000 43.1526 0.0000
# 6 0.0000 0.0000 0.0000 0.0000 0.0000 25.8070
#
#
#
# Elastic Compliance Matrix: (Units=1/GPa)
#
#
# Indices 1 2 3 4 5 6 
#
# 1 0.020808 -0.010767 0.000209 0.000000 0.000000 0.000000
# 2 -0.010767 0.031643 -0.010361 0.000000 0.000000 0.000000
# 3 0.000209 -0.010361 0.012909 0.000000 0.000000 0.000000
# 4 0.000000 0.000000 0.000000 0.016913 0.000000 0.000000
# 5 0.000000 0.000000 0.000000 0.000000 0.023174 0.000000
# 6 0.000000 0.000000 0.000000 0.000000 0.000000 0.038749
#
#
# Mechanical properties :
#
#
# Convention : Reuss Voigt Hill
#
# Bulk Modulus (GPa) = 42.51337 46.67401 44.59369
# Shear Modulus (GPa) = 25.78982 34.71579 30.25280
#
# Velocity S-wave (km/s) = 3.66104 4.24760 3.96518
# Velocity P-wave (km/s) = 6.32183 6.95076 6.64374
#
# Compressibility (1/GPa) = 0.02352201
#
# Stress axis : x y z
#
# Youngs Moduli (GPa) = 48.05790 31.60218 77.46662
#
# Poissons Ratio (x) = 0.34025 -0.01616
# Poissons Ratio (y) = 0.51743 0.80264
# Poissons Ratio (z) = -0.01003 0.32743
#
# Static dielectric constant tensor:
#      x y z
#    x 3.723480 0.000000 0.000000 
#    y 0.000000 3.491380 0.000000 
#    z 0.000000 0.000000 3.660020 
# 
# 
# High freq. dielectric constant tensor:
#      x y z
#    x 1.768450 0.000000 0.000000 
#    y 0.000000 1.742150 0.000000 
#    z 0.000000 0.000000 1.764210 
# 
# From -- ./inp_files/34289.got.cif
#   From: 2010.03.12/outbox.cif.g09.slc.cpg/sg51_18_cif.got.tgz:34289.got - 2010.04.16 13:43:02.
