data_PCOD8213268
_publ_section_title
;
Structure prediction by ZEFSAII (Michael W. Deem and Ramdas Pophale) SiO2 
 PCOD8213268
Probable space group: P M M A
;
_chemical_formula_sum "Si O2"
_cell_formula_units_Z 56
_cell_length_a 19.288940
_cell_length_b 8.734968
_cell_length_c 16.748829
_cell_angle_alpha 90.000000
_cell_angle_beta 90.000000
_cell_angle_gamma 90.000000
_cell_volume 2821.981284
_symmetry_space_group_name_H-M "P M M A"
_symmetry_group_IT_number 51
_symmetry_cell_setting 'orthorhombic'
loop_
_space_group_symop_operation_xyz
x,y,z
1/2-x,-y,z
1/2+x,-y,-z
-x,y,-z
-x,-y,-z
1/2+x,y,-z
1/2-x,y,z
x,-y,z
loop_
_atom_site_type_symbol
_atom_site_label
_atom_site_fract_x
_atom_site_fract_y
_atom_site_fract_z
Si Si1 0.172414 0.324984 0.459980
Si Si2 0.418750 0.321587 0.169110
Si Si3 0.831864 0.826816 0.699421
Si Si4 0.549595 0.677107 0.431974
Si Si5 0.420756 0.179843 0.005353
Si Si6 0.829208 0.681678 0.134170
Si Si7 0.442990 0.318464 0.745083
O O1 0.250000 0.276174 0.482852
O O2 0.168573 0.500000 0.430385
O O3 0.142420 0.221126 0.388626
O O4 0.128345 0.300711 0.539728
O O5 0.419296 0.500000 0.147385
O O6 0.363805 0.290330 0.238068
O O7 0.394244 0.224490 0.093048
O O8 0.494430 0.264721 0.198022
O O9 0.750000 0.808569 0.704282
O O10 0.855954 0.000000 0.716913
O O11 0.500000 0.753224 0.500000
O O12 0.527874 0.500000 0.424297
O O13 0.545824 0.753852 0.343705
O O14 0.417016 0.000000 0.991526
O O15 0.500000 0.240814 0.000000
O O16 0.369626 0.257782 0.942732
O O17 0.750000 0.744839 0.137328
O O18 0.828633 0.500000 0.128566
O O19 0.870831 0.735660 0.213892
O O20 0.442825 0.500000 0.736244
#
# Coordination Sequence:
#
# PCOD8213268 Si02
#       7
#     8   8   8   8   8   8   8
#     4   9  17  30  50  75 103 139 183 226 270 326
#     4  11  21  35  60  85 110 144 185 230 276 331
#     4  10  21  36  53  76 110 147 183 230 285 337
#     4   9  16  27  47  77 111 141 178 227 278 324
#     4  11  23  39  60  84 113 149 186 228 280 339
#     4  10  21  38  60  86 116 150 191 237 283 335
#     4   9  18  32  53  83 114 147 183 230 284 329
#
# _framework density 19.844214999999998
#
# number of rings (size 3 to 8) (size 9 to 14) (size 15 to 20)
#    0.000    2.143    1.429    2.143    0.000    5.143 
#    0.000    2.857    0.000    5.571    0.000    2.000 
#    0.000    0.000    0.000    0.000    0.000    0.000 
#
# Total GULP energy -694279.829449 kJ/mol
# GULP energy per Si atom -12397.854097 kJ/mol
# Density = 1.979905 g / cm^3
# Si number density = 19.844215 Si / 1000 Ang^3
#
#
#
# Elastic Constant Matrix: (Units=GPa)
#
#
# Indices 1 2 3 4 5 6 
#
# 1 86.0832 18.8294 65.2544 0.0000 0.0000 0.0000
# 2 18.8294 24.2905 10.9172 0.0000 0.0000 0.0000
# 3 65.2544 10.9172 144.2289 0.0000 0.0000 0.0000
# 4 0.0000 0.0000 0.0000 11.8361 0.0000 0.0000
# 5 0.0000 0.0000 0.0000 0.0000 31.5439 0.0000
# 6 0.0000 0.0000 0.0000 0.0000 0.0000 18.9058
#
#
#
# Elastic Compliance Matrix: (Units=1/GPa)
#
#
# Indices 1 2 3 4 5 6 
#
# 1 0.020688 -0.012247 -0.008433 0.000000 0.000000 0.000000
# 2 -0.012247 0.049868 0.001766 0.000000 0.000000 0.000000
# 3 -0.008433 0.001766 0.010615 0.000000 0.000000 0.000000
# 4 0.000000 0.000000 0.000000 0.084487 0.000000 0.000000
# 5 0.000000 0.000000 0.000000 0.000000 0.031702 0.000000
# 6 0.000000 0.000000 0.000000 0.000000 0.000000 0.052894
#
#
# Mechanical properties :
#
#
# Convention : Reuss Voigt Hill
#
# Bulk Modulus (GPa) = 23.07122 49.40050 36.23586
# Shear Modulus (GPa) = 16.52734 23.09727 19.81231
#
# Velocity S-wave (km/s) = 2.88905 3.41534 3.16316
# Velocity P-wave (km/s) = 4.77286 6.36404 5.62500
#
# Compressibility (1/GPa) = 0.04334405
#
# Stress axis : x y z
#
# Youngs Moduli (GPa) = 48.33727 20.05296 94.20510
#
# Poissons Ratio (x) = 0.24558 0.79443
# Poissons Ratio (y) = 0.59197 -0.16638
# Poissons Ratio (z) = 0.40763 -0.03542
#
# Static dielectric constant tensor:
#      x y z
#    x 3.759570 0.000000 0.000000 
#    y 0.000000 3.276610 0.000000 
#    z 0.000000 0.000000 3.748840 
# 
# 
# High freq. dielectric constant tensor:
#      x y z
#    x 1.777160 0.000000 0.000000 
#    y 0.000000 1.735770 0.000000 
#    z 0.000000 0.000000 1.782380 
# 
# From -- ./inp_files/25777.got.cif
#   From: 2010.03.12/outbox.cif.g09.slc.cpg/sg51_13_cif.got.tgz:25777.got - 2010.04.16 13:43:02.
