data_PCOD8213027
_publ_section_title
;
Structure prediction by ZEFSAII (Michael W. Deem and Ramdas Pophale) SiO2 
 PCOD8213027
Probable space group: P M M A
;
_chemical_formula_sum "Si O2"
_cell_formula_units_Z 64
_cell_length_a 9.101196
_cell_length_b 14.635656
_cell_length_c 24.231353
_cell_angle_alpha 90.000000
_cell_angle_beta 90.000000
_cell_angle_gamma 90.000000
_cell_volume 3227.664049
_symmetry_space_group_name_H-M "P M M A"
_symmetry_group_IT_number 51
_symmetry_cell_setting 'orthorhombic'
loop_
_space_group_symop_operation_xyz
x,y,z
1/2-x,-y,z
1/2+x,-y,-z
-x,y,-z
-x,-y,-z
1/2+x,y,-z
1/2-x,y,z
x,-y,z
loop_
_atom_site_type_symbol
_atom_site_label
_atom_site_fract_x
_atom_site_fract_y
_atom_site_fract_z
Si Si1 0.915618 0.891428 0.733857
Si Si2 0.076970 0.772486 0.943554
Si Si3 0.422045 0.396443 0.349065
Si Si4 0.575195 0.744430 0.556773
Si Si5 0.587399 0.608612 0.242671
Si Si6 0.079938 0.893604 0.841445
Si Si7 0.074882 0.600909 0.877893
Si Si8 0.078419 0.892768 0.624019
O O1 0.750000 0.853291 0.727976
O O2 0.988898 0.853294 0.789819
O O3 0.011037 0.858567 0.681920
O O4 0.915853 0.000000 0.736447
O O5 0.250000 0.775127 0.953080
O O6 0.027924 0.844249 0.897070
O O7 0.022845 0.671786 0.924559
O O8 0.000000 0.800482 0.000000
O O9 0.250000 0.395194 0.340856
O O10 0.478277 0.500000 0.360105
O O11 0.470234 0.334047 0.400072
O O12 0.488432 0.354163 0.292717
O O13 0.500000 0.714651 0.500000
O O14 0.750000 0.754060 0.549998
O O15 0.507155 0.841134 0.575344
O O16 0.750000 0.650302 0.250220
O O17 0.594048 0.500000 0.244720
O O18 0.520528 0.635576 0.182599
O O19 0.250000 0.873602 0.828985
O O20 0.049089 0.000000 0.850136
O O21 0.250000 0.596993 0.874701
O O22 0.011920 0.500000 0.892373
O O23 0.250000 0.868206 0.622843
O O24 0.051959 0.000000 0.614947
#
# Coordination Sequence:
#
# PCOD8213027 Si02
#       8
#     8   8   8   8   8   8   8   8
#     4   9  17  31  54  84 113 138 168 210 261 316
#     4  10  21  35  50  70  96 130 173 216 257 304
#     4   9  19  36  56  80 112 144 172 212 268 321
#     4  11  24  40  57  79 108 144 187 230 269 314
#     4   8  14  27  50  78 103 130 168 209 251 308
#     4   9  18  33  51  72 102 138 172 208 253 306
#     4   8  15  30  51  73  98 127 160 203 254 306
#     4  10  21  38  60  84 111 144 179 218 267 321
#
# _framework density 19.828581
#
# number of rings (size 3 to 8) (size 9 to 14) (size 15 to 20)
#    0.000    2.750    0.000    1.875    0.000    5.750 
#    0.000    1.875    0.000    0.750    0.000    0.000 
#    0.000    0.000    0.000    0.000    0.000    0.000 
#
# Total GULP energy -793519.244498 kJ/mol
# GULP energy per Si atom -12398.738195 kJ/mol
# Density = 1.978345 g / cm^3
# Si number density = 19.828581 Si / 1000 Ang^3
#
#
#
# Elastic Constant Matrix: (Units=GPa)
#
#
# Indices 1 2 3 4 5 6 
#
# 1 58.1406 14.0195 27.0808 0.0000 0.0000 0.0000
# 2 14.0195 36.1717 9.5849 0.0000 0.0000 0.0000
# 3 27.0808 9.5849 96.5715 0.0000 0.0000 0.0000
# 4 0.0000 0.0000 0.0000 33.6353 0.0000 0.0000
# 5 0.0000 0.0000 0.0000 0.0000 36.3824 0.0000
# 6 0.0000 0.0000 0.0000 0.0000 0.0000 17.7863
#
#
#
# Elastic Compliance Matrix: (Units=1/GPa)
#
#
# Indices 1 2 3 4 5 6 
#
# 1 0.021322 -0.006860 -0.005298 0.000000 0.000000 0.000000
# 2 -0.006860 0.030600 -0.001113 0.000000 0.000000 0.000000
# 3 -0.005298 -0.001113 0.011951 0.000000 0.000000 0.000000
# 4 0.000000 0.000000 0.000000 0.029731 0.000000 0.000000
# 5 0.000000 0.000000 0.000000 0.000000 0.027486 0.000000
# 6 0.000000 0.000000 0.000000 0.000000 0.000000 0.056223
#
#
# Mechanical properties :
#
#
# Convention : Reuss Voigt Hill
#
# Bulk Modulus (GPa) = 26.78843 32.47269 29.63056
# Shear Modulus (GPa) = 23.11621 26.90738 25.01179
#
# Velocity S-wave (km/s) = 3.41809 3.68774 3.55547
# Velocity P-wave (km/s) = 5.39603 5.87749 5.64190
#
# Compressibility (1/GPa) = 0.03732955
#
# Stress axis : x y z
#
# Youngs Moduli (GPa) = 46.90074 32.68004 83.67317
#
# Poissons Ratio (x) = 0.22418 0.44332
# Poissons Ratio (y) = 0.32174 0.09316
# Poissons Ratio (z) = 0.24849 0.03639
#
# Static dielectric constant tensor:
#      x y z
#    x 3.512700 0.000000 0.000000 
#    y 0.000000 3.671190 0.000000 
#    z 0.000000 0.000000 3.697140 
# 
# 
# High freq. dielectric constant tensor:
#      x y z
#    x 1.753960 0.000000 0.000000 
#    y 0.000000 1.769530 0.000000 
#    z 0.000000 0.000000 1.774570 
# 
# From -- ./inp_files/35015.got.cif
#   From: 2010.03.12/outbox.cif.g09.slc.cpg/sg51_18_cif.got.tgz:35015.got - 2010.04.16 13:43:02.
