data_PCOD8213905
_publ_section_title
;
Structure prediction by ZEFSAII (Michael W. Deem and Ramdas Pophale) SiO2 
 PCOD8213905
Probable space group: P M M A
;
_chemical_formula_sum "Si O2"
_cell_formula_units_Z 56
_cell_length_a 15.598234
_cell_length_b 9.088157
_cell_length_c 19.803099
_cell_angle_alpha 90.000000
_cell_angle_beta 90.000000
_cell_angle_gamma 90.000000
_cell_volume 2807.271462
_symmetry_space_group_name_H-M "P M M A"
_symmetry_group_IT_number 51
_symmetry_cell_setting 'orthorhombic'
loop_
_space_group_symop_operation_xyz
x,y,z
1/2-x,-y,z
1/2+x,-y,-z
-x,y,-z
-x,-y,-z
1/2+x,y,-z
1/2-x,y,z
x,-y,z
loop_
_atom_site_type_symbol
_atom_site_label
_atom_site_fract_x
_atom_site_fract_y
_atom_site_fract_z
Si Si1 0.885016 0.834408 0.276708
Si Si2 0.496139 0.674069 0.076070
Si Si3 0.750000 0.835606 0.493530
Si Si4 0.051025 0.672756 0.300254
Si Si5 0.750000 0.328106 0.361842
Si Si6 0.566793 0.168337 0.557997
Si Si7 0.843768 0.836099 0.127868
Si Si8 0.654682 0.673262 0.827925
O O1 0.835310 0.744983 0.333472
O O2 0.831676 0.836057 0.208241
O O3 0.973452 0.752240 0.262478
O O4 0.900787 0.000000 0.303592
O O5 0.489881 0.500000 0.076592
O O6 0.586399 0.717259 0.108130
O O7 0.415177 0.739768 0.118697
O O8 0.500000 0.736671 0.000000
O O9 0.750000 0.703392 0.440857
O O10 0.834757 0.815428 0.537524
O O11 0.750000 0.000000 0.460489
O O12 0.033482 0.500000 0.304935
O O13 0.059507 0.733915 0.375411
O O14 0.130948 0.707242 0.250423
O O15 0.750000 0.500000 0.346421
O O16 0.500000 0.223904 0.500000
O O17 0.543723 0.000000 0.575763
O O18 0.750000 0.794840 0.097386
O O19 0.871427 0.000000 0.103710
O O20 0.750000 0.739599 0.841841
O O21 0.656849 0.500000 0.839185
#
# Coordination Sequence:
#
# PCOD8213905 Si02
#       8
#     8   8   4   8   4   8   8   8
#     4  11  21  37  59  84 119 160 198 240 302 365
#     4  10  21  38  62  91 123 161 201 244 296 358
#     4  10  22  40  60  82 116 161 202 241 300 369
#     4  11  22  36  60  88 115 152 202 257 310 357
#     4  12  24  36  58  92 124 153 196 251 302 359
#     4  10  22  40  59  81 113 156 199 244 301 366
#     4  10  21  38  59  86 119 157 198 242 294 353
#     4   9  19  36  57  85 122 159 197 245 305 364
#
# _framework density 19.948194999999998
#
# number of rings (size 3 to 8) (size 9 to 14) (size 15 to 20)
#    0.000    1.714    2.143    2.357    1.000    3.714 
#    0.000    1.429    0.000    2.143    0.000    0.000 
#    0.000    0.000    0.000    0.000    0.000    0.000 
#
# Total GULP energy -694164.700935 kJ/mol
# GULP energy per Si atom -12395.798231 kJ/mol
# Density = 1.990279 g / cm^3
# Si number density = 19.948195 Si / 1000 Ang^3
#
#
#
# Elastic Constant Matrix: (Units=GPa)
#
#
# Indices 1 2 3 4 5 6 
#
# 1 148.6214 33.2316 50.8783 0.0000 0.0000 0.0000
# 2 33.2316 73.1089 38.7631 0.0000 0.0000 0.0000
# 3 50.8783 38.7631 111.5455 0.0000 0.0000 0.0000
# 4 0.0000 0.0000 0.0000 21.5860 0.0000 0.0000
# 5 0.0000 0.0000 0.0000 0.0000 20.7404 0.0000
# 6 0.0000 0.0000 0.0000 0.0000 0.0000 21.4738
#
#
#
# Elastic Compliance Matrix: (Units=1/GPa)
#
#
# Indices 1 2 3 4 5 6 
#
# 1 0.008240 -0.002149 -0.003012 0.000000 0.000000 0.000000
# 2 -0.002149 0.017328 -0.005042 0.000000 0.000000 0.000000
# 3 -0.003012 -0.005042 0.012091 0.000000 0.000000 0.000000
# 4 0.000000 0.000000 0.000000 0.046326 0.000000 0.000000
# 5 0.000000 0.000000 0.000000 0.000000 0.048215 0.000000
# 6 0.000000 0.000000 0.000000 0.000000 0.000000 0.046568
#
#
# Mechanical properties :
#
#
# Convention : Reuss Voigt Hill
#
# Bulk Modulus (GPa) = 57.95528 64.33574 61.14551
# Shear Modulus (GPa) = 24.39930 26.78690 25.59310
#
# Velocity S-wave (km/s) = 3.50113 3.66843 3.58575
# Velocity P-wave (km/s) = 6.74239 7.08975 6.91825
#
# Compressibility (1/GPa) = 0.01725468
#
# Stress axis : x y z
#
# Youngs Moduli (GPa) = 121.35982 57.71011 82.70827
#
# Poissons Ratio (x) = 0.12400 0.24910
# Poissons Ratio (y) = 0.26075 0.41698
# Poissons Ratio (z) = 0.36551 0.29095
#
# Static dielectric constant tensor:
#      x y z
#    x 4.190630 0.000000 0.000000 
#    y 0.000000 3.451470 0.000000 
#    z 0.000000 0.000000 3.628810 
# 
# 
# High freq. dielectric constant tensor:
#      x y z
#    x 1.792400 0.000000 0.000000 
#    y 0.000000 1.758010 0.000000 
#    z 0.000000 0.000000 1.774690 
# 
# From -- ./inp_files/33615.got.cif
#   From: 2010.03.12/outbox.cif.g09.slc.cpg/sg51_17_cif.got.tgz:33615.got - 2010.04.16 13:43:02.
