data_PCOD8213922
_publ_section_title
;
Structure prediction by ZEFSAII (Michael W. Deem and Ramdas Pophale) SiO2 
 PCOD8213922
Probable space group: P M M A
;
_chemical_formula_sum "Si O2"
_cell_formula_units_Z 48
_cell_length_a 15.875559
_cell_length_b 15.639560
_cell_length_c 8.928833
_cell_angle_alpha 90.000000
_cell_angle_beta 90.000000
_cell_angle_gamma 90.000000
_cell_volume 2216.910994
_symmetry_space_group_name_H-M "P M M A"
_symmetry_group_IT_number 51
_symmetry_cell_setting 'orthorhombic'
loop_
_space_group_symop_operation_xyz
x,y,z
1/2-x,-y,z
1/2+x,-y,-z
-x,y,-z
-x,-y,-z
1/2+x,y,-z
1/2-x,y,z
x,-y,z
loop_
_atom_site_type_symbol
_atom_site_label
_atom_site_fract_x
_atom_site_fract_y
_atom_site_fract_z
Si Si1 0.154494 0.746916 0.890166
Si Si2 0.845089 0.094751 0.621183
Si Si3 0.593601 0.407613 0.565665
Si Si4 0.347648 0.403743 0.109051
Si Si5 0.407603 0.241383 0.570840
Si Si6 0.407314 0.902662 0.061329
O O1 0.250000 0.731434 0.834952
O O2 0.091636 0.757041 0.750142
O O3 0.122774 0.665660 0.986856
O O4 0.153859 0.834374 0.984554
O O5 0.750000 0.101675 0.682067
O O6 0.857411 0.158711 0.483877
O O7 0.906785 0.114749 0.760167
O O8 0.863603 0.000000 0.557690
O O9 0.500000 0.410555 0.500000
O O10 0.637629 0.500000 0.532576
O O11 0.594708 0.391241 0.744084
O O12 0.639969 0.328020 0.485655
O O13 0.250000 0.388058 0.153054
O O14 0.359961 0.500000 0.044117
O O15 0.500000 0.237870 0.500000
O O16 0.376610 0.000000 0.028348
O O17 0.500000 0.887077 0.000000
#
# Coordination Sequence:
#
# PCOD8213922 Si02
#       6
#     8   8   8   8   8   8
#     4  11  23  37  58  88 119 154 197 245 295 349
#     4  10  21  38  60  84 112 150 194 239 290 349
#     4   9  19  37  59  84 114 149 191 235 284 343
#     4   9  19  37  61  88 118 154 194 237 289 346
#     4  11  23  38  57  83 118 156 195 242 294 348
#     4  10  21  38  60  85 114 150 192 238 291 352
#
# _framework density 21.651748999999999
#
# number of rings (size 3 to 8) (size 9 to 14) (size 15 to 20)
#    0.000    2.000    0.000    3.000    0.000    6.667 
#    0.000    0.000    0.000    9.500    0.000    0.000 
#    0.000    0.000    0.000    0.000    0.000    0.000 
#
# Total GULP energy -595026.860132 kJ/mol
# GULP energy per Si atom -12396.392919 kJ/mol
# Density = 2.160247 g / cm^3
# Si number density = 21.651749 Si / 1000 Ang^3
#
#
#
# Elastic Constant Matrix: (Units=GPa)
#
#
# Indices 1 2 3 4 5 6 
#
# 1 58.1574 22.7674 38.3507 0.0000 0.0000 0.0000
# 2 22.7674 186.6509 87.7306 0.0000 0.0000 0.0000
# 3 38.3507 87.7306 143.2444 0.0000 0.0000 0.0000
# 4 0.0000 0.0000 0.0000 33.6628 0.0000 0.0000
# 5 0.0000 0.0000 0.0000 0.0000 31.0477 0.0000
# 6 0.0000 0.0000 0.0000 0.0000 0.0000 19.8897
#
#
#
# Elastic Compliance Matrix: (Units=1/GPa)
#
#
# Indices 1 2 3 4 5 6 
#
# 1 0.020883 0.000113 -0.005660 0.000000 0.000000 0.000000
# 2 0.000113 0.007524 -0.004638 0.000000 0.000000 0.000000
# 3 -0.005660 -0.004638 0.011337 0.000000 0.000000 0.000000
# 4 0.000000 0.000000 0.000000 0.029706 0.000000 0.000000
# 5 0.000000 0.000000 0.000000 0.000000 0.032209 0.000000
# 6 0.000000 0.000000 0.000000 0.000000 0.000000 0.050277
#
#
# Mechanical properties :
#
#
# Convention : Reuss Voigt Hill
#
# Bulk Modulus (GPa) = 51.61755 76.19447 63.90601
# Shear Modulus (GPa) = 27.96966 32.86697 30.41831
#
# Velocity S-wave (km/s) = 3.59806 3.90036 3.75225
# Velocity P-wave (km/s) = 6.41506 7.45325 6.95356
#
# Compressibility (1/GPa) = 0.01937326
#
# Stress axis : x y z
#
# Youngs Moduli (GPa) = 47.88587 132.90908 88.20439
#
# Poissons Ratio (x) = -0.01505 0.49927
# Poissons Ratio (y) = -0.00542 0.40913
# Poissons Ratio (z) = 0.27105 0.61648
#
# Static dielectric constant tensor:
#      x y z
#    x 3.564880 0.000000 0.000000 
#    y 0.000000 4.732260 0.000000 
#    z 0.000000 0.000000 3.687550 
# 
# 
# High freq. dielectric constant tensor:
#      x y z
#    x 1.826490 0.000000 0.000000 
#    y 0.000000 1.879220 0.000000 
#    z 0.000000 0.000000 1.838280 
# 
# From -- ./inp_files/9645.got.cif
#   From: 2010.03.12/outbox.cif.g09.slc.cpg/sg51_5_cif.got.tgz:9645.got - 2010.04.16 13:43:02.
