data_PCOD8213160
_publ_section_title
;
Structure prediction by ZEFSAII (Michael W. Deem and Ramdas Pophale) SiO2 
 PCOD8213160
Probable space group: P M M A
;
_chemical_formula_sum "Si O2"
_cell_formula_units_Z 52
_cell_length_a 9.257343
_cell_length_b 14.668422
_cell_length_c 19.884575
_cell_angle_alpha 90.000000
_cell_angle_beta 90.000000
_cell_angle_gamma 90.000000
_cell_volume 2700.138643
_symmetry_space_group_name_H-M "P M M A"
_symmetry_group_IT_number 51
_symmetry_cell_setting 'orthorhombic'
loop_
_space_group_symop_operation_xyz
x,y,z
1/2-x,-y,z
1/2+x,-y,-z
-x,y,-z
-x,-y,-z
1/2+x,y,-z
1/2-x,y,z
x,-y,z
loop_
_atom_site_type_symbol
_atom_site_label
_atom_site_fract_x
_atom_site_fract_y
_atom_site_fract_z
Si Si1 0.417629 0.767729 0.709003
Si Si2 0.417353 0.697236 0.569218
Si Si3 0.583489 0.396080 0.194759
Si Si4 0.087327 0.391580 0.063598
Si Si5 0.413396 0.108597 0.935933
Si Si6 0.916728 0.107209 0.805124
Si Si7 0.585247 0.500000 0.433048
O O1 0.250000 0.794222 0.719021
O O2 0.458415 0.765216 0.629735
O O3 0.448917 0.669499 0.742553
O O4 0.518771 0.845358 0.739430
O O5 0.500000 0.719450 0.500000
O O6 0.250000 0.706095 0.550814
O O7 0.451524 0.596538 0.602152
O O8 0.750000 0.391648 0.172468
O O9 0.542458 0.500000 0.215541
O O10 0.489592 0.360307 0.132145
O O11 0.250000 0.352737 0.062497
O O12 0.088190 0.500000 0.059477
O O13 0.000000 0.351019 0.000000
O O14 0.250000 0.146780 0.936108
O O15 0.495086 0.143442 0.869566
O O16 0.412017 0.000000 0.938176
O O17 0.500000 0.147424 0.000000
O O18 0.750000 0.133668 0.814794
O O19 0.936265 0.000000 0.795579
O O20 0.750000 0.500000 0.453908
O O21 0.500000 0.500000 0.500000
#
# Coordination Sequence:
#
# PCOD8213160 Si02
#       7
#     8   8   8   8   8   8   4
#     4  10  21  35  54  80 107 138 176 216 261 315
#     4   9  18  32  52  78 108 141 176 213 256 309
#     4   9  18  32  50  73 103 137 171 208 253 305
#     4   9  16  27  45  67  93 129 174 219 260 301
#     4   9  16  28  50  79 109 140 174 215 265 321
#     4  10  21  37  56  78 106 141 180 223 272 322
#     4   8  14  26  46  72 104 138 171 204 243 298
#
# _framework density 19.258268999999999
#
# number of rings (size 3 to 8) (size 9 to 14) (size 15 to 20)
#    0.000    2.769    0.000    1.385    1.077    5.846 
#    0.000    0.769    0.000    4.154    0.000    0.000 
#    0.000    0.000    0.000    0.000    0.000    0.000 
#
# Total GULP energy -644502.781946 kJ/mol
# GULP energy per Si atom -12394.284268 kJ/mol
# Density = 1.921444 g / cm^3
# Si number density = 19.258269 Si / 1000 Ang^3
#
#
#
# Elastic Constant Matrix: (Units=GPa)
#
#
# Indices 1 2 3 4 5 6 
#
# 1 123.8225 36.5075 74.0756 0.0000 0.0000 0.0000
# 2 36.5075 35.9501 35.4018 0.0000 0.0000 0.0000
# 3 74.0756 35.4018 139.3886 0.0000 0.0000 0.0000
# 4 0.0000 0.0000 0.0000 18.7702 0.0000 0.0000
# 5 0.0000 0.0000 0.0000 0.0000 32.8405 0.0000
# 6 0.0000 0.0000 0.0000 0.0000 0.0000 21.2764
#
#
#
# Elastic Compliance Matrix: (Units=1/GPa)
#
#
# Indices 1 2 3 4 5 6 
#
# 1 0.013728 -0.009010 -0.005007 0.000000 0.000000 0.000000
# 2 -0.009010 0.043007 -0.006135 0.000000 0.000000 0.000000
# 3 -0.005007 -0.006135 0.011393 0.000000 0.000000 0.000000
# 4 0.000000 0.000000 0.000000 0.053276 0.000000 0.000000
# 5 0.000000 0.000000 0.000000 0.000000 0.030450 0.000000
# 6 0.000000 0.000000 0.000000 0.000000 0.000000 0.047000
#
#
# Mechanical properties :
#
#
# Convention : Reuss Voigt Hill
#
# Bulk Modulus (GPa) = 35.93934 65.68121 50.81028
# Shear Modulus (GPa) = 20.12607 24.78918 22.45762
#
# Velocity S-wave (km/s) = 3.23625 3.59164 3.41857
# Velocity P-wave (km/s) = 5.71548 7.16794 6.48252
#
# Compressibility (1/GPa) = 0.02782466
#
# Stress axis : x y z
#
# Youngs Moduli (GPa) = 72.84340 23.25186 87.77138
#
# Poissons Ratio (x) = 0.20950 0.43948
# Poissons Ratio (y) = 0.65633 0.53845
# Poissons Ratio (z) = 0.36474 0.14264
#
# Static dielectric constant tensor:
#      x y z
#    x 3.607310 0.000000 0.000000 
#    y 0.000000 3.185150 0.000000 
#    z 0.000000 0.000000 3.387900 
# 
# 
# High freq. dielectric constant tensor:
#      x y z
#    x 1.751470 0.000000 0.000000 
#    y 0.000000 1.726120 0.000000 
#    z 0.000000 0.000000 1.739070 
# 
# From -- ./inp_files/31777.got.cif
#   From: 2010.03.12/outbox.cif.g09.slc.cpg/sg51_16_cif.got.tgz:31777.got - 2010.04.16 13:43:02.
