data_PCOD8213812
_publ_section_title
;
Structure prediction by ZEFSAII (Michael W. Deem and Ramdas Pophale) SiO2 
 PCOD8213812
Probable space group: P M M A
;
_chemical_formula_sum "Si O2"
_cell_formula_units_Z 48
_cell_length_a 15.072128
_cell_length_b 18.053798
_cell_length_c 9.116209
_cell_angle_alpha 90.000000
_cell_angle_beta 90.000000
_cell_angle_gamma 90.000000
_cell_volume 2480.603922
_symmetry_space_group_name_H-M "P M M A"
_symmetry_group_IT_number 51
_symmetry_cell_setting 'orthorhombic'
loop_
_space_group_symop_operation_xyz
x,y,z
1/2-x,-y,z
1/2+x,-y,-z
-x,y,-z
-x,-y,-z
1/2+x,y,-z
1/2-x,y,z
x,-y,z
loop_
_atom_site_type_symbol
_atom_site_label
_atom_site_fract_x
_atom_site_fract_y
_atom_site_fract_z
Si Si1 0.750000 0.411745 0.087143
Si Si2 0.647738 0.824931 0.846387
Si Si3 0.849840 0.085144 0.132304
Si Si4 0.512571 0.084231 0.669747
Si Si5 0.419241 0.587870 0.402535
Si Si6 0.250000 0.411916 0.577261
Si Si7 0.590642 0.339676 0.910600
O O1 0.750000 0.500000 0.079193
O O2 0.750000 0.382561 0.255334
O O3 0.661956 0.382573 0.008751
O O4 0.750000 0.838115 0.805041
O O5 0.588535 0.859236 0.718114
O O6 0.629053 0.739083 0.866065
O O7 0.621543 0.865911 0.995292
O O8 0.750000 0.104317 0.185850
O O9 0.917649 0.104601 0.260902
O O10 0.856681 0.000000 0.083551
O O11 0.500000 0.095441 0.500000
O O12 0.540540 0.000000 0.709152
O O13 0.500000 0.617474 0.500000
O O14 0.417889 0.500000 0.394715
O O15 0.333186 0.618883 0.486196
O O16 0.427556 0.615942 0.237640
O O17 0.250000 0.500000 0.581948
O O18 0.500000 0.331976 0.000000
#
# Coordination Sequence:
#
# PCOD8213812 Si02
#       7
#     4   8   8   8   8   4   8
#     4  11  23  41  63  91 120 153 206 263 317 374
#     4  11  23  40  60  84 121 161 204 249 298 360
#     4   9  18  35  61  88 115 155 201 244 293 350
#     4  10  21  37  60  91 125 160 202 251 301 354
#     4  10  21  38  60  87 117 153 197 244 302 372
#     4   9  19  37  61  83 113 151 188 241 302 366
#     4  12  24  39  62  90 123 161 203 259 312 371
#
# _framework density 19.350127000000001
#
# number of rings (size 3 to 8) (size 9 to 14) (size 15 to 20)
#    0.000    1.667    0.833    4.000    0.000    7.000 
#    0.000    3.333    0.000    0.000    0.000    0.000 
#    0.000    0.000    0.000    0.000    0.000    0.000 
#
# Total GULP energy -595320.159540 kJ/mol
# GULP energy per Si atom -12402.503324 kJ/mol
# Density = 1.930608 g / cm^3
# Si number density = 19.350127 Si / 1000 Ang^3
#
#
#
# Elastic Constant Matrix: (Units=GPa)
#
#
# Indices 1 2 3 4 5 6 
#
# 1 116.6417 26.9744 51.3913 0.0000 0.0000 0.0000
# 2 26.9744 59.1686 18.5536 0.0000 0.0000 0.0000
# 3 51.3913 18.5536 107.2661 0.0000 0.0000 0.0000
# 4 0.0000 0.0000 0.0000 0.7259 0.0000 0.0000
# 5 0.0000 0.0000 0.0000 0.0000 12.4409 0.0000
# 6 0.0000 0.0000 0.0000 0.0000 0.0000 32.2375
#
#
#
# Elastic Compliance Matrix: (Units=1/GPa)
#
#
# Indices 1 2 3 4 5 6 
#
# 1 0.011604 -0.003750 -0.004911 0.000000 0.000000 0.000000
# 2 -0.003750 0.019082 -0.001504 0.000000 0.000000 0.000000
# 3 -0.004911 -0.001504 0.011936 0.000000 0.000000 0.000000
# 4 0.000000 0.000000 0.000000 1.377688 0.000000 0.000000
# 5 0.000000 0.000000 0.000000 0.000000 0.080380 0.000000
# 6 0.000000 0.000000 0.000000 0.000000 0.000000 0.031020
#
#
# Mechanical properties :
#
#
# Convention : Reuss Voigt Hill
#
# Bulk Modulus (GPa) = 44.85952 52.99056 48.92504
# Shear Modulus (GPa) = 3.20622 21.49132 12.34877
#
# Velocity S-wave (km/s) = 1.28862 3.33626 2.52895
# Velocity P-wave (km/s) = 5.04455 6.50273 5.81949
#
# Compressibility (1/GPa) = 0.02229181
#
# Stress axis : x y z
#
# Youngs Moduli (GPa) = 86.17506 52.40500 83.78327
#
# Poissons Ratio (x) = 0.19654 0.41145
# Poissons Ratio (y) = 0.32319 0.12599
# Poissons Ratio (z) = 0.42320 0.07881
#
# Static dielectric constant tensor:
#      x y z
#    x 3.830910 0.000000 0.000000 
#    y 0.000000 3.501020 0.000000 
#    z 0.000000 0.000000 3.572750 
# 
# 
# High freq. dielectric constant tensor:
#      x y z
#    x 1.772300 0.000000 0.000000 
#    y 0.000000 1.743990 0.000000 
#    z 0.000000 0.000000 1.758390 
# 
# From -- ./inp_files/8319.got.cif
#   From: 2010.03.12/outbox.cif.g09.slc.cpg/sg51_5_cif.got.tgz:8319.got - 2010.04.16 13:43:02.
