data_PCOD8213561
_publ_section_title
;
Structure prediction by ZEFSAII (Michael W. Deem and Ramdas Pophale) SiO2 
 PCOD8213561
Probable space group: P M M A
;
_chemical_formula_sum "Si O2"
_cell_formula_units_Z 56
_cell_length_a 14.221906
_cell_length_b 9.075634
_cell_length_c 21.676805
_cell_angle_alpha 90.000000
_cell_angle_beta 90.000000
_cell_angle_gamma 90.000000
_cell_volume 2797.886212
_symmetry_space_group_name_H-M "P M M A"
_symmetry_group_IT_number 51
_symmetry_cell_setting 'orthorhombic'
loop_
_space_group_symop_operation_xyz
x,y,z
1/2-x,-y,z
1/2+x,-y,-z
-x,y,-z
-x,-y,-z
1/2+x,y,-z
1/2-x,y,z
x,-y,z
loop_
_atom_site_type_symbol
_atom_site_label
_atom_site_fract_x
_atom_site_fract_y
_atom_site_fract_z
Si Si1 0.137786 0.833331 0.957392
Si Si2 0.860165 0.170747 0.800198
Si Si3 0.354128 0.825615 0.484596
Si Si4 0.007736 0.673451 0.724859
Si Si5 0.022668 0.174341 0.598759
Si Si6 0.138035 0.333871 0.076953
Si Si7 0.857539 0.328734 0.163736
O O1 0.250000 0.826223 0.958557
O O2 0.100027 0.757084 0.895123
O O3 0.101071 0.000000 0.959645
O O4 0.096698 0.748418 0.016971
O O5 0.750000 0.193516 0.790466
O O6 0.896686 0.248991 0.862323
O O7 0.910322 0.246607 0.742097
O O8 0.887179 0.000000 0.803973
O O9 0.250000 0.755828 0.476585
O O10 0.397718 0.776989 0.550000
O O11 0.421042 0.776364 0.428254
O O12 0.348447 0.000000 0.484148
O O13 0.990836 0.500000 0.720208
O O14 0.044309 0.735829 0.660308
O O15 0.085423 0.715249 0.775579
O O16 0.025442 0.000000 0.611901
O O17 0.250000 0.333952 0.074197
O O18 0.098540 0.500000 0.079334
O O19 0.750000 0.282602 0.176011
O O20 0.866070 0.500000 0.148158
#
# Coordination Sequence:
#
# PCOD8213561 Si02
#       7
#     8   8   8   8   8   8   8
#     4   9  16  27  47  75 103 132 172 224 277 324
#     4  10  21  37  56  77 103 138 181 227 272 320
#     4   8  15  31  56  83 109 138 174 216 259 303
#     4  11  23  37  54  78 111 147 180 219 266 317
#     4   9  18  33  54  80 108 139 177 217 256 305
#     4   9  16  28  49  75 103 136 173 217 273 332
#     4   9  19  36  54  72 100 141 184 222 267 324
#
# _framework density 20.015111000000001
#
# number of rings (size 3 to 8) (size 9 to 14) (size 15 to 20)
#    0.000    2.714    0.000    2.571    0.000    6.571 
#    0.000    3.571    0.000    5.143    0.000    0.000 
#    0.000    0.000    0.000    0.000    0.000    0.000 
#
# Total GULP energy -694468.842590 kJ/mol
# GULP energy per Si atom -12401.229332 kJ/mol
# Density = 1.996956 g / cm^3
# Si number density = 20.015111 Si / 1000 Ang^3
#
#
#
# Elastic Constant Matrix: (Units=GPa)
#
#
# Indices 1 2 3 4 5 6 
#
# 1 46.4860 5.7326 3.9449 0.0000 0.0000 0.0000
# 2 5.7326 86.7439 30.8301 0.0000 0.0000 0.0000
# 3 3.9449 30.8301 97.5216 0.0000 0.0000 0.0000
# 4 0.0000 0.0000 0.0000 31.9510 0.0000 0.0000
# 5 0.0000 0.0000 0.0000 0.0000 23.3198 0.0000
# 6 0.0000 0.0000 0.0000 0.0000 0.0000 16.5779
#
#
#
# Elastic Compliance Matrix: (Units=1/GPa)
#
#
# Indices 1 2 3 4 5 6 
#
# 1 0.021708 -0.001265 -0.000478 0.000000 0.000000 0.000000
# 2 -0.001265 0.013061 -0.004078 0.000000 0.000000 0.000000
# 3 -0.000478 -0.004078 0.011563 0.000000 0.000000 0.000000
# 4 0.000000 0.000000 0.000000 0.031298 0.000000 0.000000
# 5 0.000000 0.000000 0.000000 0.000000 0.042882 0.000000
# 6 0.000000 0.000000 0.000000 0.000000 0.000000 0.060321
#
#
# Mechanical properties :
#
#
# Convention : Reuss Voigt Hill
#
# Bulk Modulus (GPa) = 28.82643 34.64074 31.73358
# Shear Modulus (GPa) = 24.50515 27.05267 25.77891
#
# Velocity S-wave (km/s) = 3.50284 3.68042 3.59273
# Velocity P-wave (km/s) = 5.54919 5.95025 5.75321
#
# Compressibility (1/GPa) = 0.03469039
#
# Stress axis : x y z
#
# Youngs Moduli (GPa) = 46.06512 76.56313 86.48521
#
# Poissons Ratio (x) = 0.09682 0.04137
# Poissons Ratio (y) = 0.05825 0.35268
# Poissons Ratio (z) = 0.02204 0.31222
#
# Static dielectric constant tensor:
#      x y z
#    x 3.750620 0.000000 0.000000 
#    y 0.000000 3.501430 0.000000 
#    z 0.000000 0.000000 3.602220 
# 
# 
# High freq. dielectric constant tensor:
#      x y z
#    x 1.777350 0.000000 0.000000 
#    y 0.000000 1.767190 0.000000 
#    z 0.000000 0.000000 1.779680 
# 
# From -- ./inp_files/33296.got.cif
#   From: 2010.03.12/outbox.cif.g09.slc.cpg/sg51_17_cif.got.tgz:33296.got - 2010.04.16 13:43:02.
