data_PCOD8213491
_publ_section_title
;
Structure prediction by ZEFSAII (Michael W. Deem and Ramdas Pophale) SiO2 
 PCOD8213491
Probable space group: P M M A
;
_chemical_formula_sum "Si O2"
_cell_formula_units_Z 30
_cell_length_a 14.751501
_cell_length_b 7.688301
_cell_length_c 13.040298
_cell_angle_alpha 90.000000
_cell_angle_beta 90.000000
_cell_angle_gamma 90.000000
_cell_volume 1478.952095
_symmetry_space_group_name_H-M "P M M A"
_symmetry_group_IT_number 51
_symmetry_cell_setting 'orthorhombic'
loop_
_space_group_symop_operation_xyz
x,y,z
1/2-x,-y,z
1/2+x,-y,-z
-x,y,-z
-x,-y,-z
1/2+x,y,-z
1/2-x,y,z
x,-y,z
loop_
_atom_site_type_symbol
_atom_site_label
_atom_site_fract_x
_atom_site_fract_y
_atom_site_fract_z
Si Si1 0.250000 0.692429 0.377878
Si Si2 0.406530 0.500000 0.942298
Si Si3 0.434136 0.803292 0.284506
Si Si4 0.148886 0.193710 0.072504
Si Si5 0.933231 0.500000 0.297447
Si Si6 0.250000 0.500000 0.574661
O O1 0.250000 0.500000 0.325289
O O2 0.340156 0.794152 0.346029
O O3 0.250000 0.671200 0.501911
O O4 0.410183 0.500000 0.821474
O O5 0.500000 0.500000 0.000000
O O6 0.355442 0.674736 0.977646
O O7 0.418392 0.754254 0.164861
O O8 0.508419 0.670094 0.328732
O O9 0.471205 0.000000 0.294630
O O10 0.250000 0.197535 0.119243
O O11 0.125452 0.000000 0.031695
O O12 0.839516 0.500000 0.357004
#
# Coordination Sequence:
#
# PCOD8213491 Si02
#       6
#     4   4   8   8   4   2
#     4  10  21  41  71  94 119 158 198 260 333 384
#     4  12  23  34  60  89 122 174 213 245 293 373
#     4  11  21  38  70 102 125 153 204 270 325 372
#     4  10  21  36  58  94 129 156 199 260 315 362
#     4  12  25  45  59  88 132 177 215 254 305 368
#     4  10  28  46  64  80 132 182 206 260 310 370
#
# _framework density 20.284632999999999
#
# number of rings (size 3 to 8) (size 9 to 14) (size 15 to 20)
#    0.400    0.800    5.333    0.800    1.867    3.733 
#    0.000    4.667    0.000    0.000    0.000    0.000 
#    0.000    0.000    0.000    0.000    0.000    0.000 
#
# Total GULP energy -371962.249104 kJ/mol
# GULP energy per Si atom -12398.741637 kJ/mol
# Density = 2.023846 g / cm^3
# Si number density = 20.284633 Si / 1000 Ang^3
#
#
#
# Elastic Constant Matrix: (Units=GPa)
#
#
# Indices 1 2 3 4 5 6 
#
# 1 118.9939 51.9168 44.4454 0.0000 0.0000 0.0000
# 2 51.9168 140.6009 38.9772 0.0000 0.0000 0.0000
# 3 44.4454 38.9772 98.4796 0.0000 0.0000 0.0000
# 4 0.0000 0.0000 0.0000 7.4242 0.0000 0.0000
# 5 0.0000 0.0000 0.0000 0.0000 24.0561 0.0000
# 6 0.0000 0.0000 0.0000 0.0000 0.0000 -7.4276
#
#
#
# Elastic Compliance Matrix: (Units=1/GPa)
#
#
# Indices 1 2 3 4 5 6 
#
# 1 0.011170 -0.003063 -0.003829 0.000000 0.000000 0.000000
# 2 -0.003063 0.008829 -0.002112 0.000000 0.000000 0.000000
# 3 -0.003829 -0.002112 0.012718 0.000000 0.000000 0.000000
# 4 0.000000 0.000000 0.000000 0.134695 0.000000 0.000000
# 5 0.000000 0.000000 0.000000 0.000000 0.041569 0.000000
# 6 0.000000 0.000000 0.000000 0.000000 0.000000 -0.134634
#
#
# Mechanical properties :
#
#
# Convention : Reuss Voigt Hill
#
# Bulk Modulus (GPa) = 67.98363 69.86147 68.92255
# Shear Modulus (GPa) = 51.40876 19.65955 35.53415
#
# Velocity S-wave (km/s) = 5.03971 3.11655 4.18996
# Velocity P-wave (km/s) = 8.21295 6.88955 7.58019
#
# Compressibility (1/GPa) = 0.01470942
#
# Stress axis : x y z
#
# Youngs Moduli (GPa) = 89.52205 113.26471 78.62659
#
# Poissons Ratio (x) = 0.34695 0.30106
# Poissons Ratio (y) = 0.27422 0.16605
# Poissons Ratio (z) = 0.34278 0.23920
#
# Static dielectric constant tensor:
#      x y z
#    x 3.619710 0.000000 0.000000 
#    y 0.000000 3.050880 0.000000 
#    z 0.000000 0.000000 3.550430 
# 
# 
# High freq. dielectric constant tensor:
#      x y z
#    x 1.789310 0.000000 0.000000 
#    y 0.000000 1.801350 0.000000 
#    z 0.000000 0.000000 1.766380 
# 
# From -- ./inp_files/15863.got.cif
#   From: 2010.03.12/outbox.cif.g09.slc.cpg/sg51_8_cif.got.tgz:15863.got - 2010.04.16 13:43:02.
