data_PCOD8213277
_publ_section_title
;
Structure prediction by ZEFSAII (Michael W. Deem and Ramdas Pophale) SiO2 
 PCOD8213277
Probable space group: P M M A
;
_chemical_formula_sum "Si O2"
_cell_formula_units_Z 56
_cell_length_a 21.540729
_cell_length_b 15.503931
_cell_length_c 8.579796
_cell_angle_alpha 90.000000
_cell_angle_beta 90.000000
_cell_angle_gamma 90.000000
_cell_volume 2865.359946
_symmetry_space_group_name_H-M "P M M A"
_symmetry_group_IT_number 51
_symmetry_cell_setting 'orthorhombic'
loop_
_space_group_symop_operation_xyz
x,y,z
1/2-x,-y,z
1/2+x,-y,-z
-x,y,-z
-x,-y,-z
1/2+x,y,-z
1/2-x,y,z
x,-y,z
loop_
_atom_site_type_symbol
_atom_site_label
_atom_site_fract_x
_atom_site_fract_y
_atom_site_fract_z
Si Si1 0.818972 0.098083 0.499860
Si Si2 0.319880 0.740505 0.998290
Si Si3 0.610783 0.222467 0.298975
Si Si4 0.935132 0.661690 0.573590
Si Si5 0.678904 0.403701 0.747843
Si Si6 0.872057 0.900252 0.831907
Si Si7 0.514925 0.789658 0.831367
O O1 0.750000 0.127527 0.546310
O O2 0.840969 0.149965 0.349511
O O3 0.861275 0.115181 0.649132
O O4 0.820751 0.000000 0.446737
O O5 0.250000 0.730737 0.941680
O O6 0.362773 0.724939 0.848093
O O7 0.337052 0.666892 0.121878
O O8 0.328693 0.836598 0.068358
O O9 0.598275 0.284805 0.440850
O O10 0.547019 0.175869 0.250761
O O11 0.878495 0.597962 0.623082
O O12 0.951846 0.718697 0.724155
O O13 0.000000 0.620748 0.500000
O O14 0.750000 0.385949 0.680748
O O15 0.678376 0.500000 0.819834
O O16 0.943143 0.873951 0.860560
O O17 0.859544 0.000000 0.879119
O O18 0.500000 0.747043 0.000000
#
# Coordination Sequence:
#
# PCOD8213277 Si02
#       7
#     8   8   8   8   8   8   8
#     4  10  21  36  53  77 113 154 198 247 298 355
#     4  11  22  38  60  86 116 155 196 246 300 350
#     4  11  21  36  59  83 117 155 195 242 300 358
#     4  10  21  37  62  92 122 158 199 244 306 365
#     4  10  21  40  66  92 120 158 203 247 299 364
#     4  11  22  37  58  84 114 158 205 246 292 350
#     4  11  20  38  59  81 115 155 202 247 291 346
#
# _framework density 19.543790999999999
#
# number of rings (size 3 to 8) (size 9 to 14) (size 15 to 20)
#    0.000    1.429    4.286    0.857    0.000    4.857 
#    0.000    2.143    0.000    9.857    0.000    0.000 
#    0.000    0.000    0.000    0.000    0.000    0.000 
#
# Total GULP energy -693898.348311 kJ/mol
# GULP energy per Si atom -12391.041934 kJ/mol
# Density = 1.949931 g / cm^3
# Si number density = 19.543791 Si / 1000 Ang^3
#
#
#
# Elastic Constant Matrix: (Units=GPa)
#
#
# Indices 1 2 3 4 5 6 
#
# 1 131.4135 40.1658 44.0296 0.0000 0.0000 0.0000
# 2 40.1658 78.5477 45.8164 0.0000 0.0000 0.0000
# 3 44.0296 45.8164 91.9141 0.0000 0.0000 0.0000
# 4 0.0000 0.0000 0.0000 7.9460 0.0000 0.0000
# 5 0.0000 0.0000 0.0000 0.0000 35.8137 0.0000
# 6 0.0000 0.0000 0.0000 0.0000 0.0000 25.2280
#
#
#
# Elastic Compliance Matrix: (Units=1/GPa)
#
#
# Indices 1 2 3 4 5 6 
#
# 1 0.009582 -0.003133 -0.003028 0.000000 0.000000 0.000000
# 2 -0.003133 0.018975 -0.007957 0.000000 0.000000 0.000000
# 3 -0.003028 -0.007957 0.016297 0.000000 0.000000 0.000000
# 4 0.000000 0.000000 0.000000 0.125850 0.000000 0.000000
# 5 0.000000 0.000000 0.000000 0.000000 0.027922 0.000000
# 6 0.000000 0.000000 0.000000 0.000000 0.000000 0.039638
#
#
# Mechanical properties :
#
#
# Convention : Reuss Voigt Hill
#
# Bulk Modulus (GPa) = 60.18406 62.43321 61.30863
# Shear Modulus (GPa) = 18.37961 25.25510 21.81736
#
# Velocity S-wave (km/s) = 3.06997 3.59866 3.34478
# Velocity P-wave (km/s) = 6.58996 7.02010 6.80843
#
# Compressibility (1/GPa) = 0.01661570
#
# Stress axis : x y z
#
# Youngs Moduli (GPa) = 104.36414 52.70105 61.36189
#
# Poissons Ratio (x) = 0.16514 0.18581
# Poissons Ratio (y) = 0.32702 0.48828
# Poissons Ratio (z) = 0.31602 0.41936
#
# Static dielectric constant tensor:
#      x y z
#    x 4.008990 0.000000 0.000000 
#    y 0.000000 3.281730 0.000000 
#    z 0.000000 0.000000 3.604160 
# 
# 
# High freq. dielectric constant tensor:
#      x y z
#    x 1.788800 0.000000 0.000000 
#    y 0.000000 1.727460 0.000000 
#    z 0.000000 0.000000 1.759870 
# 
# From -- ./inp_files/11021.got.cif
#   From: 2010.03.12/outbox.cif.g09.slc.cpg/sg51_6_cif.got.tgz:11021.got - 2010.04.16 13:43:02.
