data_PCOD8213946
_publ_section_title
;
Structure prediction by ZEFSAII (Michael W. Deem and Ramdas Pophale) SiO2 
 PCOD8213946
Probable space group: P M M A
;
_chemical_formula_sum "Si O2"
_cell_formula_units_Z 48
_cell_length_a 8.689408
_cell_length_b 30.033010
_cell_length_c 9.166235
_cell_angle_alpha 90.000000
_cell_angle_beta 90.000000
_cell_angle_gamma 90.000000
_cell_volume 2392.103891
_symmetry_space_group_name_H-M "P M M A"
_symmetry_group_IT_number 51
_symmetry_cell_setting 'orthorhombic'
loop_
_space_group_symop_operation_xyz
x,y,z
1/2-x,-y,z
1/2+x,-y,-z
-x,y,-z
-x,-y,-z
1/2+x,y,-z
1/2-x,y,z
x,-y,z
loop_
_atom_site_type_symbol
_atom_site_label
_atom_site_fract_x
_atom_site_fract_y
_atom_site_fract_z
Si Si1 0.432188 0.374506 0.157318
Si Si2 0.930316 0.448575 0.347033
Si Si3 0.432337 0.125369 0.658436
Si Si4 0.567203 0.795012 0.840871
Si Si5 0.070549 0.948125 0.153923
Si Si6 0.931206 0.709488 0.658785
O O1 0.250000 0.376332 0.146982
O O2 0.494108 0.421383 0.216090
O O3 0.491020 0.334949 0.261660
O O4 0.500000 0.364857 0.000000
O O5 0.750000 0.439740 0.350890
O O6 0.970724 0.500000 0.319101
O O7 0.000000 0.432128 0.500000
O O8 0.500000 0.135359 0.500000
O O9 0.250000 0.127326 0.649670
O O10 0.494522 0.161297 0.771478
O O11 0.486566 0.077109 0.714279
O O12 0.750000 0.800158 0.847253
O O13 0.514002 0.752481 0.747933
O O14 0.500000 0.788131 0.000000
O O15 0.250000 0.936295 0.153485
O O16 0.040097 0.000000 0.180605
O O17 0.000000 0.932615 0.000000
O O18 0.750000 0.708448 0.645211
O O19 0.000000 0.712075 0.500000
#
# Coordination Sequence:
#
# PCOD8213946 Si02
#       6
#     8   8   8   8   8   8
#     4  11  23  39  59  86 118 154 196 241 292 347
#     4  10  21  38  60  86 116 152 194 240 291 347
#     4  12  25  41  61  87 120 157 198 244 294 348
#     4  11  23  41  63  89 120 155 196 240 290 345
#     4  10  21  39  63  90 120 156 198 243 293 349
#     4  10  23  40  61  88 118 153 193 239 290 346
#
# _framework density 20.066018
#
# number of rings (size 3 to 8) (size 9 to 14) (size 15 to 20)
#    0.000    1.333    0.000    5.500    0.000    8.000 
#    0.000    0.000    0.000    0.000    0.000    0.000 
#    0.000    0.000    0.000    0.000    0.000    0.000 
#
# Total GULP energy -595545.976548 kJ/mol
# GULP energy per Si atom -12407.207845 kJ/mol
# Density = 2.002035 g / cm^3
# Si number density = 20.066018 Si / 1000 Ang^3
#
#
#
# Elastic Constant Matrix: (Units=GPa)
#
#
# Indices 1 2 3 4 5 6 
#
# 1 110.2446 50.2616 57.7633 0.0000 0.0000 0.0000
# 2 50.2616 105.5016 66.8444 0.0000 0.0000 0.0000
# 3 57.7633 66.8444 164.6137 0.0000 0.0000 0.0000
# 4 0.0000 0.0000 0.0000 37.1675 0.0000 0.0000
# 5 0.0000 0.0000 0.0000 0.0000 43.5812 0.0000
# 6 0.0000 0.0000 0.0000 0.0000 0.0000 22.1983
#
#
#
# Elastic Compliance Matrix: (Units=1/GPa)
#
#
# Indices 1 2 3 4 5 6 
#
# 1 0.012375 -0.004234 -0.002623 0.000000 0.000000 0.000000
# 2 -0.004234 0.014210 -0.004285 0.000000 0.000000 0.000000
# 3 -0.002623 -0.004285 0.008735 0.000000 0.000000 0.000000
# 4 0.000000 0.000000 0.000000 0.026905 0.000000 0.000000
# 5 0.000000 0.000000 0.000000 0.000000 0.022946 0.000000
# 6 0.000000 0.000000 0.000000 0.000000 0.000000 0.045049
#
#
# Mechanical properties :
#
#
# Convention : Reuss Voigt Hill
#
# Bulk Modulus (GPa) = 76.70228 81.12205 78.91217
# Shear Modulus (GPa) = 31.87767 34.28877 33.08322
#
# Velocity S-wave (km/s) = 3.99010 4.13825 4.06485
# Velocity P-wave (km/s) = 7.71594 7.95919 7.83851
#
# Compressibility (1/GPa) = 0.01303742
#
# Stress axis : x y z
#
# Youngs Moduli (GPa) = 80.80524 70.37215 114.47799
#
# Poissons Ratio (x) = 0.29792 0.30033
# Poissons Ratio (y) = 0.34209 0.49051
# Poissons Ratio (z) = 0.21199 0.30153
#
# Static dielectric constant tensor:
#      x y z
#    x 3.727200 0.000000 0.000000 
#    y 0.000000 3.830260 0.000000 
#    z 0.000000 0.000000 3.657350 
# 
# 
# High freq. dielectric constant tensor:
#      x y z
#    x 1.794880 0.000000 0.000000 
#    y 0.000000 1.797630 0.000000 
#    z 0.000000 0.000000 1.792690 
# 
# From -- ./inp_files/5944.got.cif
#   From: 2010.03.12/outbox.cif.g09.slc.cpg/sg51_3_cif.got.tgz:5944.got - 2010.04.16 13:43:02.
