data_PCOD8213136
_publ_section_title
;
Structure prediction by ZEFSAII (Michael W. Deem and Ramdas Pophale) SiO2 
 PCOD8213136
Probable space group: P M M A
;
_chemical_formula_sum "Si O2"
_cell_formula_units_Z 64
_cell_length_a 15.301334
_cell_length_b 23.467505
_cell_length_c 9.371176
_cell_angle_alpha 90.000000
_cell_angle_beta 90.000000
_cell_angle_gamma 90.000000
_cell_volume 3365.040601
_symmetry_space_group_name_H-M "P M M A"
_symmetry_group_IT_number 51
_symmetry_cell_setting 'orthorhombic'
loop_
_space_group_symop_operation_xyz
x,y,z
1/2-x,-y,z
1/2+x,-y,-z
-x,y,-z
-x,-y,-z
1/2+x,y,-z
1/2-x,y,z
x,-y,z
loop_
_atom_site_type_symbol
_atom_site_label
_atom_site_fract_x
_atom_site_fract_y
_atom_site_fract_z
Si Si1 0.848582 0.566292 0.140468
Si Si2 0.851174 0.239759 0.852119
Si Si3 0.650880 0.060749 0.251272
Si Si4 0.648315 0.371074 0.849949
Si Si5 0.920021 0.155970 0.086755
Si Si6 0.491017 0.566560 0.335795
Si Si7 0.647195 0.933392 0.566527
Si Si8 0.536182 0.169327 0.653612
O O1 0.750000 0.582461 0.190864
O O2 0.854774 0.500000 0.103863
O O3 0.917197 0.583584 0.262344
O O4 0.875013 0.599138 0.998147
O O5 0.750000 0.230636 0.830460
O O6 0.876592 0.305311 0.869871
O O7 0.895145 0.216162 0.708737
O O8 0.878855 0.207631 0.998167
O O9 0.750000 0.049639 0.289986
O O10 0.646261 0.104732 0.120033
O O11 0.612272 0.080511 0.404981
O O12 0.608399 0.000000 0.205342
O O13 0.750000 0.379494 0.809038
O O14 0.589924 0.398242 0.726280
O O15 0.953667 0.174794 0.241524
O O16 0.000000 0.128877 0.000000
O O17 0.500000 0.583264 0.500000
O O18 0.470424 0.500000 0.315201
O O19 0.750000 0.918423 0.589572
O O20 0.585823 0.892275 0.662404
O O21 0.630554 0.000000 0.604038
O O22 0.500000 0.186886 0.500000
#
# Coordination Sequence:
#
# PCOD8213136 Si02
#       8
#     8   8   8   8   8   8   8   8
#     4   9  18  34  58  87 116 150 194 237 276 328
#     4  10  23  42  58  76 108 149 190 231 277 330
#     4   9  17  31  52  76 102 136 177 218 268 336
#     4  10  21  38  60  82 108 150 201 244 279 327
#     4  10  21  35  53  76 106 140 175 222 282 332
#     4  10  21  35  56  89 125 156 183 225 290 345
#     4   9  18  33  55  81 108 141 178 219 275 341
#     4  11  21  35  56  84 110 137 178 230 282 331
#
# _framework density 19.019088
#
# number of rings (size 3 to 8) (size 9 to 14) (size 15 to 20)
#    0.000    2.250    1.250    2.250    0.000    6.750 
#    0.000    3.125    0.000    9.750    0.000    0.000 
#    0.000    0.000    0.000    0.000    0.000    0.000 
#
# Total GULP energy -793214.886229 kJ/mol
# GULP energy per Si atom -12393.982597 kJ/mol
# Density = 1.897580 g / cm^3
# Si number density = 19.019088 Si / 1000 Ang^3
#
#
#
# Elastic Constant Matrix: (Units=GPa)
#
#
# Indices 1 2 3 4 5 6 
#
# 1 83.3381 53.0692 57.4336 0.0000 0.0000 0.0000
# 2 53.0692 96.2258 61.5395 0.0000 0.0000 0.0000
# 3 57.4336 61.5395 130.0997 0.0000 0.0000 0.0000
# 4 0.0000 0.0000 0.0000 -3.6449 0.0000 0.0000
# 5 0.0000 0.0000 0.0000 0.0000 29.7992 0.0000
# 6 0.0000 0.0000 0.0000 0.0000 0.0000 23.4359
#
#
#
# Elastic Compliance Matrix: (Units=1/GPa)
#
#
# Indices 1 2 3 4 5 6 
#
# 1 0.020839 -0.008042 -0.005395 0.000000 0.000000 0.000000
# 2 -0.008042 0.018003 -0.004965 0.000000 0.000000 0.000000
# 3 -0.005395 -0.004965 0.012417 0.000000 0.000000 0.000000
# 4 0.000000 0.000000 0.000000 -0.274357 0.000000 0.000000
# 5 0.000000 0.000000 0.000000 0.000000 0.033558 0.000000
# 6 0.000000 0.000000 0.000000 0.000000 0.000000 0.042670
#
#
# Mechanical properties :
#
#
# Convention : Reuss Voigt Hill
#
# Bulk Modulus (GPa) = 69.19070 72.63868 70.91469
# Shear Modulus (GPa) = -47.50738 19.09281 -14.20729
#
# Velocity S-wave (km/s) = -5.00330 3.17184 -2.73610
# Velocity P-wave (km/s) = 1.75534 7.18954 5.23310
#
# Compressibility (1/GPa) = 0.01445281
#
# Stress axis : x y z
#
# Youngs Moduli (GPa) = 47.98721 55.54571 80.53470
#
# Poissons Ratio (x) = 0.44671 0.43451
# Poissons Ratio (y) = 0.38593 0.39989
# Poissons Ratio (z) = 0.25891 0.27581
#
# Static dielectric constant tensor:
#      x y z
#    x 3.612120 0.000000 0.000000 
#    y 0.000000 3.494890 0.000000 
#    z 0.000000 0.000000 3.522930 
# 
# 
# High freq. dielectric constant tensor:
#      x y z
#    x 1.749620 0.000000 0.000000 
#    y 0.000000 1.731640 0.000000 
#    z 0.000000 0.000000 1.730880 
# 
# From -- ./inp_files/8711.got.cif
#   From: 2010.03.12/outbox.cif.g09.slc.cpg/sg51_5_cif.got.tgz:8711.got - 2010.04.16 13:43:02.
