data_PCOD8213307
_publ_section_title
;
Structure prediction by ZEFSAII (Michael W. Deem and Ramdas Pophale) SiO2 
 PCOD8213307
Probable space group: P M M A
;
_chemical_formula_sum "Si O2"
_cell_formula_units_Z 64
_cell_length_a 9.209179
_cell_length_b 9.599517
_cell_length_c 40.785783
_cell_angle_alpha 90.000000
_cell_angle_beta 90.000000
_cell_angle_gamma 90.000000
_cell_volume 3605.612916
_symmetry_space_group_name_H-M "P M M A"
_symmetry_group_IT_number 51
_symmetry_cell_setting 'orthorhombic'
loop_
_space_group_symop_operation_xyz
x,y,z
1/2-x,-y,z
1/2+x,-y,-z
-x,y,-z
-x,-y,-z
1/2+x,y,-z
1/2-x,y,z
x,-y,z
loop_
_atom_site_type_symbol
_atom_site_label
_atom_site_fract_x
_atom_site_fract_y
_atom_site_fract_z
Si Si1 0.919415 0.660145 0.032375
Si Si2 0.580876 0.162336 0.840376
Si Si3 0.917393 0.838911 0.093890
Si Si4 0.919593 0.660459 0.467497
Si Si5 0.080766 0.839741 0.341537
Si Si6 0.917355 0.338928 0.720032
Si Si7 0.919113 0.662347 0.214249
Si Si8 0.419753 0.160314 0.593599
O O1 0.750000 0.681892 0.026339
O O2 0.958837 0.500000 0.039590
O O3 0.973545 0.749854 0.063162
O O4 0.000000 0.714633 0.000000
O O5 0.750000 0.200406 0.840317
O O6 0.514802 0.204479 0.875341
O O7 0.500096 0.250015 0.813052
O O8 0.554376 0.000000 0.833100
O O9 0.750000 0.804593 0.102279
O O10 0.937891 0.000000 0.084845
O O11 0.750000 0.684614 0.473115
O O12 0.956772 0.500000 0.460239
O O13 0.977470 0.749972 0.436937
O O14 0.000000 0.713587 0.500000
O O15 0.250000 0.817081 0.347849
O O16 0.026850 0.750178 0.310712
O O17 0.998478 0.785849 0.373737
O O18 0.042673 0.000000 0.334174
O O19 0.750000 0.304719 0.728484
O O20 0.937900 0.500000 0.710970
O O21 0.014990 0.295538 0.750766
O O22 0.750000 0.700483 0.214142
O O23 0.945581 0.500000 0.206981
O O24 0.250000 0.183309 0.598979
O O25 0.458508 0.000000 0.586494
#
# Coordination Sequence:
#
# PCOD8213307 Si02
#       8
#     8   8   8   8   8   8   8   8
#     4   9  18  32  49  70  97 128 162 201 245 293
#     4  10  21  36  54  77 104 134 169 209 253 301
#     4   9  18  33  51  71  98 131 165 203 248 296
#     4   9  18  32  48  67  92 121 153 190 232 277
#     4   9  18  32  49  70  96 125 158 196 237 282
#     4   9  18  33  51  71  98 130 162 199 243 289
#     4  10  21  36  54  77 104 134 169 208 250 298
#     4   9  18  32  48  67  93 123 154 190 233 280
#
# _framework density 17.750104
#
# number of rings (size 3 to 8) (size 9 to 14) (size 15 to 20)
#    0.000    2.750    0.000    0.750    0.000    5.000 
#    0.000    2.500    0.000    0.000    0.000    0.000 
#    0.000    0.000    0.000    0.000    0.000    0.000 
#
# Total GULP energy -793796.060078 kJ/mol
# GULP energy per Si atom -12403.063439 kJ/mol
# Density = 1.770970 g / cm^3
# Si number density = 17.750104 Si / 1000 Ang^3
#
#
#
# Elastic Constant Matrix: (Units=GPa)
#
#
# Indices 1 2 3 4 5 6 
#
# 1 79.8522 47.3871 84.9570 0.0000 0.0000 0.0000
# 2 47.3871 72.2274 91.1807 0.0000 0.0000 0.0000
# 3 84.9570 91.1807 194.2593 0.0000 0.0000 0.0000
# 4 0.0000 0.0000 0.0000 42.2114 0.0000 0.0000
# 5 0.0000 0.0000 0.0000 0.0000 39.3887 0.0000
# 6 0.0000 0.0000 0.0000 0.0000 0.0000 23.6763
#
#
#
# Elastic Compliance Matrix: (Units=1/GPa)
#
#
# Indices 1 2 3 4 5 6 
#
# 1 0.024521 -0.006258 -0.007787 0.000000 0.000000 0.000000
# 2 -0.006258 0.035577 -0.013962 0.000000 0.000000 0.000000
# 3 -0.007787 -0.013962 0.015107 0.000000 0.000000 0.000000
# 4 0.000000 0.000000 0.000000 0.023690 0.000000 0.000000
# 5 0.000000 0.000000 0.000000 0.000000 0.025388 0.000000
# 6 0.000000 0.000000 0.000000 0.000000 0.000000 0.042236
#
#
# Mechanical properties :
#
#
# Convention : Reuss Voigt Hill
#
# Bulk Modulus (GPa) = 52.10698 88.15427 70.13063
# Shear Modulus (GPa) = 21.84074 29.24287 25.54181
#
# Velocity S-wave (km/s) = 3.51159 4.06331 3.79749
# Velocity P-wave (km/s) = 6.77210 8.47266 7.66966
#
# Compressibility (1/GPa) = 0.01919129
#
# Stress axis : x y z
#
# Youngs Moduli (GPa) = 40.78073 28.10836 66.19574
#
# Poissons Ratio (x) = 0.17590 0.51546
# Poissons Ratio (y) = 0.25520 0.92423
# Poissons Ratio (z) = 0.31755 0.39245
#
# Static dielectric constant tensor:
#      x y z
#    x 3.244400 0.000000 0.000000 
#    y 0.000000 3.292720 0.000000 
#    z 0.000000 0.000000 3.415540 
# 
# 
# High freq. dielectric constant tensor:
#      x y z
#    x 1.684390 0.000000 0.000000 
#    y 0.000000 1.682190 0.000000 
#    z 0.000000 0.000000 1.693890 
# 
# From -- ./inp_files/37433.got.cif
#   From: 2010.03.12/outbox.cif.g09.slc.cpg/sg51_19_cif.got.tgz:37433.got - 2010.04.16 13:43:02.
