data_PCOD8213761
_publ_section_title
;
Structure prediction by ZEFSAII (Michael W. Deem and Ramdas Pophale) SiO2 
 PCOD8213761
Probable space group: P M M A
;
_chemical_formula_sum "Si O2"
_cell_formula_units_Z 64
_cell_length_a 8.954388
_cell_length_b 19.860689
_cell_length_c 19.949374
_cell_angle_alpha 90.000000
_cell_angle_beta 90.000000
_cell_angle_gamma 90.000000
_cell_volume 3547.802961
_symmetry_space_group_name_H-M "P M M A"
_symmetry_group_IT_number 51
_symmetry_cell_setting 'orthorhombic'
loop_
_space_group_symop_operation_xyz
x,y,z
1/2-x,-y,z
1/2+x,-y,-z
-x,y,-z
-x,-y,-z
1/2+x,y,-z
1/2-x,y,z
x,-y,z
loop_
_atom_site_type_symbol
_atom_site_label
_atom_site_fract_x
_atom_site_fract_y
_atom_site_fract_z
Si Si1 0.925529 0.390436 0.566821
Si Si2 0.422858 0.573861 0.702049
Si Si3 0.920639 0.713111 0.244695
Si Si4 0.577126 0.890578 0.433789
Si Si5 0.926887 0.833125 0.817527
Si Si6 0.919670 0.259337 0.397785
Si Si7 0.425525 0.076478 0.928649
Si Si8 0.417584 0.074528 0.302775
O O1 0.750000 0.401482 0.563130
O O2 0.000000 0.422070 0.500000
O O3 0.987185 0.426909 0.632773
O O4 0.965005 0.311418 0.569948
O O5 0.250000 0.587626 0.683885
O O6 0.444487 0.500000 0.736125
O O7 0.474888 0.634305 0.751804
O O8 0.750000 0.717500 0.220143
O O9 0.940980 0.745025 0.318008
O O10 0.020236 0.755541 0.192059
O O11 0.500000 0.920428 0.500000
O O12 0.750000 0.905972 0.439354
O O13 0.539730 0.811922 0.428855
O O14 0.518257 0.927684 0.368391
O O15 0.750000 0.835583 0.827806
O O16 0.980676 0.874119 0.752186
O O17 0.005190 0.867605 0.880335
O O18 0.750000 0.281468 0.414834
O O19 0.250000 0.089214 0.934724
O O20 0.458261 0.000000 0.903332
O O21 0.500000 0.088069 0.000000
O O22 0.250000 0.095932 0.323312
O O23 0.419683 0.000000 0.270684
#
# Coordination Sequence:
#
# PCOD8213761 Si02
#       8
#     8   8   8   8   8   8   8   8
#     4  11  21  31  46  67  92 122 160 205 257 320
#     4   9  19  36  54  71  97 132 167 210 265 321
#     4   9  17  32  53  77 103 130 169 215 259 309
#     4  11  22  35  51  69  90 120 161 213 271 327
#     4  11  21  34  56  83 112 144 179 219 263 309
#     4   9  18  33  50  69  93 121 158 207 262 319
#     4  10  21  37  58  85 119 157 192 225 263 309
#     4  10  22  38  53  71  97 130 170 215 262 314
#
# _framework density 18.039332999999999
#
# number of rings (size 3 to 8) (size 9 to 14) (size 15 to 20)
#    0.000    2.000    1.250    3.750    0.000    6.750 
#    0.000    0.000    0.000    0.000    0.000    0.000 
#    0.000    0.500    0.000    1.375    0.000    2.000 
#
# Total GULP energy -793507.243246 kJ/mol
# GULP energy per Si atom -12398.550676 kJ/mol
# Density = 1.799827 g / cm^3
# Si number density = 18.039333 Si / 1000 Ang^3
#
#
#
# Elastic Constant Matrix: (Units=GPa)
#
#
# Indices 1 2 3 4 5 6 
#
# 1 90.2180 44.4313 39.4015 0.0000 0.0000 0.0000
# 2 44.4313 111.4879 48.1637 0.0000 0.0000 0.0000
# 3 39.4015 48.1637 74.5174 0.0000 0.0000 0.0000
# 4 0.0000 0.0000 0.0000 12.1591 0.0000 0.0000
# 5 0.0000 0.0000 0.0000 0.0000 27.4427 0.0000
# 6 0.0000 0.0000 0.0000 0.0000 0.0000 21.2596
#
#
#
# Elastic Compliance Matrix: (Units=1/GPa)
#
#
# Indices 1 2 3 4 5 6 
#
# 1 0.015406 -0.003636 -0.005796 0.000000 0.000000 0.000000
# 2 -0.003636 0.013302 -0.006675 0.000000 0.000000 0.000000
# 3 -0.005796 -0.006675 0.020799 0.000000 0.000000 0.000000
# 4 0.000000 0.000000 0.000000 0.082243 0.000000 0.000000
# 5 0.000000 0.000000 0.000000 0.000000 0.036440 0.000000
# 6 0.000000 0.000000 0.000000 0.000000 0.000000 0.047038
#
#
# Mechanical properties :
#
#
# Convention : Reuss Voigt Hill
#
# Bulk Modulus (GPa) = 57.82734 60.02403 58.92568
# Shear Modulus (GPa) = 19.74668 21.78739 20.76704
#
# Velocity S-wave (km/s) = 3.31213 3.47907 3.39663
# Velocity P-wave (km/s) = 6.83760 7.03454 6.93677
#
# Compressibility (1/GPa) = 0.01729286
#
# Stress axis : x y z
#
# Youngs Moduli (GPa) = 64.90866 75.17427 48.07916
#
# Poissons Ratio (x) = 0.27332 0.27867
# Poissons Ratio (y) = 0.23600 0.32095
# Poissons Ratio (z) = 0.37622 0.50182
#
# Static dielectric constant tensor:
#      x y z
#    x 3.300650 0.000000 0.000000 
#    y 0.000000 3.419540 0.000000 
#    z 0.000000 0.000000 3.022010 
# 
# 
# High freq. dielectric constant tensor:
#      x y z
#    x 1.702380 0.000000 0.000000 
#    y 0.000000 1.701540 0.000000 
#    z 0.000000 0.000000 1.655190 
# 
# From -- ./inp_files/28409.got.cif
#   From: 2010.03.12/outbox.cif.g09.slc.cpg/sg51_15_cif.got.tgz:28409.got - 2010.04.16 13:43:02.
