data_PCOD8213121
_publ_section_title
;
Structure prediction by ZEFSAII (Michael W. Deem and Ramdas Pophale) SiO2 
 PCOD8213121
Probable space group: P M M A
;
_chemical_formula_sum "Si O2"
_cell_formula_units_Z 48
_cell_length_a 9.965530
_cell_length_b 28.759843
_cell_length_c 9.010215
_cell_angle_alpha 90.000000
_cell_angle_beta 90.000000
_cell_angle_gamma 90.000000
_cell_volume 2582.391395
_symmetry_space_group_name_H-M "P M M A"
_symmetry_group_IT_number 51
_symmetry_cell_setting 'orthorhombic'
loop_
_space_group_symop_operation_xyz
x,y,z
1/2-x,-y,z
1/2+x,-y,-z
-x,y,-z
-x,-y,-z
1/2+x,y,-z
1/2-x,y,z
x,-y,z
loop_
_atom_site_type_symbol
_atom_site_label
_atom_site_fract_x
_atom_site_fract_y
_atom_site_fract_z
Si Si1 0.592773 0.817643 0.140226
Si Si2 0.402456 0.288844 0.867273
Si Si3 0.596923 0.553066 0.132321
Si Si4 0.750000 0.056066 0.828824
Si Si5 0.506685 0.900898 0.323752
Si Si6 0.903371 0.631962 0.362558
Si Si7 0.750000 0.946280 0.165451
O O1 0.750000 0.829275 0.108019
O O2 0.574197 0.763979 0.185166
O O3 0.537057 0.847722 0.277132
O O4 0.500000 0.830101 0.000000
O O5 0.250000 0.296212 0.923056
O O6 0.435435 0.322001 0.730708
O O7 0.500000 0.302807 0.000000
O O8 0.750000 0.559965 0.078083
O O9 0.569485 0.500000 0.180973
O O10 0.565066 0.585504 0.271043
O O11 0.500000 0.568341 0.000000
O O12 0.625932 0.078411 0.745691
O O13 0.750000 0.000000 0.815636
O O14 0.750000 0.074791 0.998771
O O15 0.500000 0.903475 0.500000
O O16 0.622388 0.932987 0.260265
O O17 0.750000 0.632152 0.417498
O O18 0.000000 0.632192 0.500000
O O19 0.750000 0.000000 0.138555
#
# Coordination Sequence:
#
# PCOD8213121 Si02
#       7
#     8   8   8   4   8   8   4
#     4  10  21  39  62  86 113 148 188 231 278 339
#     4   9  19  36  58  83 109 141 185 232 276 327
#     4   9  18  33  53  78 107 142 187 238 288 339
#     4  11  25  43  65  89 115 153 197 233 274 335
#     4  12  25  39  60  90 121 151 184 233 289 337
#     4  10  21  35  52  77 112 151 186 231 284 337
#     4  11  23  43  65  85 113 153 195 233 276 333
#
# _framework density 18.587423000000001
#
# number of rings (size 3 to 8) (size 9 to 14) (size 15 to 20)
#    0.000    1.833    0.833    3.000    1.167    5.667 
#    0.000    0.000    0.000    0.000    0.000    0.000 
#    0.000    0.000    0.000    0.000    0.000    0.000 
#
# Total GULP energy -595222.297738 kJ/mol
# GULP energy per Si atom -12400.464536 kJ/mol
# Density = 1.854512 g / cm^3
# Si number density = 18.587423 Si / 1000 Ang^3
#
#
#
# Elastic Constant Matrix: (Units=GPa)
#
#
# Indices 1 2 3 4 5 6 
#
# 1 150.3119 62.3737 98.9299 0.0000 0.0000 0.0000
# 2 62.3737 102.1082 68.9589 0.0000 0.0000 0.0000
# 3 98.9299 68.9589 168.3393 0.0000 0.0000 0.0000
# 4 0.0000 0.0000 0.0000 18.6278 0.0000 0.0000
# 5 0.0000 0.0000 0.0000 0.0000 32.8738 0.0000
# 6 0.0000 0.0000 0.0000 0.0000 0.0000 29.6506
#
#
#
# Elastic Compliance Matrix: (Units=1/GPa)
#
#
# Indices 1 2 3 4 5 6 
#
# 1 0.011667 -0.003451 -0.005443 0.000000 0.000000 0.000000
# 2 -0.003451 0.014560 -0.003936 0.000000 0.000000 0.000000
# 3 -0.005443 -0.003936 0.010751 0.000000 0.000000 0.000000
# 4 0.000000 0.000000 0.000000 0.053683 0.000000 0.000000
# 5 0.000000 0.000000 0.000000 0.000000 0.030419 0.000000
# 6 0.000000 0.000000 0.000000 0.000000 0.000000 0.033726
#
#
# Mechanical properties :
#
#
# Convention : Reuss Voigt Hill
#
# Bulk Modulus (GPa) = 88.35292 97.92049 93.13670
# Shear Modulus (GPa) = 27.13839 28.93023 28.03431
#
# Velocity S-wave (km/s) = 3.82519 3.94946 3.88782
# Velocity P-wave (km/s) = 8.19429 8.57864 8.38866
#
# Compressibility (1/GPa) = 0.01131825
#
# Stress axis : x y z
#
# Youngs Moduli (GPa) = 85.71004 68.68108 93.01035
#
# Poissons Ratio (x) = 0.23703 0.50624
# Poissons Ratio (y) = 0.29580 0.36611
# Poissons Ratio (z) = 0.46651 0.27034
#
# Static dielectric constant tensor:
#      x y z
#    x 3.545820 0.000000 0.000000 
#    y 0.000000 3.734660 0.000000 
#    z 0.000000 0.000000 3.242510 
# 
# 
# High freq. dielectric constant tensor:
#      x y z
#    x 1.736690 0.000000 0.000000 
#    y 0.000000 1.741250 0.000000 
#    z 0.000000 0.000000 1.706230 
# 
# From -- ./inp_files/6197.got.cif
#   From: 2010.03.12/outbox.cif.g09.slc.cpg/sg51_4_cif.got.tgz:6197.got - 2010.04.16 13:43:02.
