data_PCOD8213539
_publ_section_title
;
Structure prediction by ZEFSAII (Michael W. Deem and Ramdas Pophale) SiO2 
 PCOD8213539
Probable space group: P M M A
;
_chemical_formula_sum "Si O2"
_cell_formula_units_Z 52
_cell_length_a 9.460707
_cell_length_b 15.344961
_cell_length_c 19.340753
_cell_angle_alpha 90.000000
_cell_angle_beta 90.000000
_cell_angle_gamma 90.000000
_cell_volume 2807.777956
_symmetry_space_group_name_H-M "P M M A"
_symmetry_group_IT_number 51
_symmetry_cell_setting 'orthorhombic'
loop_
_space_group_symop_operation_xyz
x,y,z
1/2-x,-y,z
1/2+x,-y,-z
-x,y,-z
-x,-y,-z
1/2+x,y,-z
1/2-x,y,z
x,-y,z
loop_
_atom_site_type_symbol
_atom_site_label
_atom_site_fract_x
_atom_site_fract_y
_atom_site_fract_z
Si Si1 0.912212 0.688909 0.569135
Si Si2 0.411954 0.352102 0.936126
Si Si3 0.410196 0.500000 0.432914
Si Si4 0.086317 0.402065 0.784364
Si Si5 0.412429 0.151065 0.936049
Si Si6 0.917003 0.248025 0.714047
Si Si7 0.412240 0.901621 0.785424
O O1 0.750000 0.696524 0.546202
O O2 0.943652 0.592525 0.603857
O O3 0.947030 0.754798 0.631405
O O4 0.000000 0.709795 0.500000
O O5 0.250000 0.363218 0.956959
O O6 0.447658 0.403080 0.866037
O O7 0.452119 0.251561 0.923332
O O8 0.500000 0.391572 0.000000
O O9 0.250000 0.500000 0.457393
O O10 0.500000 0.500000 0.500000
O O11 0.250000 0.375140 0.772321
O O12 0.057367 0.500000 0.756081
O O13 0.986113 0.333704 0.746769
O O14 0.250000 0.138550 0.955486
O O15 0.451898 0.100091 0.866336
O O16 0.500000 0.111654 0.000000
O O17 0.750000 0.250522 0.729645
O O18 0.983834 0.160108 0.743161
O O19 0.250000 0.869969 0.775612
O O20 0.432091 0.000000 0.758129
#
# Coordination Sequence:
#
# PCOD8213539 Si02
#       7
#     8   8   4   8   8   8   8
#     4   9  19  34  54  80 110 146 181 219 265 316
#     4   9  17  31  50  72 102 139 182 231 277 321
#     4   8  14  28  48  72 106 140 173 208 247 300
#     4  10  21  37  55  77 108 149 194 232 270 324
#     4   9  17  31  51  76 106 138 176 223 275 329
#     4  11  23  37  57  84 116 146 178 226 280 327
#     4  10  21  39  61  82 108 145 186 226 274 334
#
# _framework density 18.519983
#
# number of rings (size 3 to 8) (size 9 to 14) (size 15 to 20)
#    0.000    2.462    1.538    0.462    1.077    3.692 
#    0.000    0.000    0.000    0.462    0.000    0.000 
#    0.000    0.000    0.000    0.000    0.000    0.000 
#
# Total GULP energy -644481.439637 kJ/mol
# GULP energy per Si atom -12393.873839 kJ/mol
# Density = 1.847783 g / cm^3
# Si number density = 18.519983 Si / 1000 Ang^3
#
#
#
# Elastic Constant Matrix: (Units=GPa)
#
#
# Indices 1 2 3 4 5 6 
#
# 1 93.3882 53.1131 65.2343 0.0000 0.0000 0.0000
# 2 53.1131 87.5204 48.6998 0.0000 0.0000 0.0000
# 3 65.2343 48.6998 99.8994 0.0000 0.0000 0.0000
# 4 0.0000 0.0000 0.0000 12.0453 0.0000 0.0000
# 5 0.0000 0.0000 0.0000 0.0000 32.4726 0.0000
# 6 0.0000 0.0000 0.0000 0.0000 0.0000 19.2729
#
#
#
# Elastic Compliance Matrix: (Units=1/GPa)
#
#
# Indices 1 2 3 4 5 6 
#
# 1 0.022900 -0.007652 -0.011223 0.000000 0.000000 0.000000
# 2 -0.007652 0.018236 -0.003893 0.000000 0.000000 0.000000
# 3 -0.011223 -0.003893 0.019237 0.000000 0.000000 0.000000
# 4 0.000000 0.000000 0.000000 0.083020 0.000000 0.000000
# 5 0.000000 0.000000 0.000000 0.000000 0.030795 0.000000
# 6 0.000000 0.000000 0.000000 0.000000 0.000000 0.051886
#
#
# Mechanical properties :
#
#
# Convention : Reuss Voigt Hill
#
# Bulk Modulus (GPa) = 67.40496 68.32249 67.86373
# Shear Modulus (GPa) = 18.07955 20.34221 19.21088
#
# Velocity S-wave (km/s) = 3.12784 3.31780 3.22422
# Velocity P-wave (km/s) = 7.03700 7.18668 7.11223
#
# Compressibility (1/GPa) = 0.01483570
#
# Stress axis : x y z
#
# Youngs Moduli (GPa) = 43.66867 54.83693 51.98404
#
# Poissons Ratio (x) = 0.41961 0.58343
# Poissons Ratio (y) = 0.33415 0.20238
# Poissons Ratio (z) = 0.49010 0.21348
#
# Static dielectric constant tensor:
#      x y z
#    x 3.405820 0.000000 0.000000 
#    y 0.000000 3.163000 0.000000 
#    z 0.000000 0.000000 3.270290 
# 
# 
# High freq. dielectric constant tensor:
#      x y z
#    x 1.716570 0.000000 0.000000 
#    y 0.000000 1.706520 0.000000 
#    z 0.000000 0.000000 1.706890 
# 
# From -- ./inp_files/31784.got.cif
#   From: 2010.03.12/outbox.cif.g09.slc.cpg/sg51_16_cif.got.tgz:31784.got - 2010.04.16 13:43:02.
