data_PCOD8213962
_publ_section_title
;
Structure prediction by ZEFSAII (Michael W. Deem and Ramdas Pophale) SiO2 
 PCOD8213962
Probable space group: P M M A
;
_chemical_formula_sum "Si O2"
_cell_formula_units_Z 44
_cell_length_a 10.136495
_cell_length_b 7.997046
_cell_length_c 27.968716
_cell_angle_alpha 90.000000
_cell_angle_beta 90.000000
_cell_angle_gamma 90.000000
_cell_volume 2267.200526
_symmetry_space_group_name_H-M "P M M A"
_symmetry_group_IT_number 51
_symmetry_cell_setting 'orthorhombic'
loop_
_space_group_symop_operation_xyz
x,y,z
1/2-x,-y,z
1/2+x,-y,-z
-x,y,-z
-x,-y,-z
1/2+x,y,-z
1/2-x,y,z
x,-y,z
loop_
_atom_site_type_symbol
_atom_site_label
_atom_site_fract_x
_atom_site_fract_y
_atom_site_fract_z
Si Si1 0.595903 0.304733 0.309888
Si Si2 0.750000 0.800446 0.047527
Si Si3 0.008498 0.191469 0.890736
Si Si4 0.750000 0.692343 0.940362
Si Si5 0.402561 0.500000 0.455760
Si Si6 0.099875 0.811518 0.388111
Si Si7 0.893813 0.694412 0.204473
O O1 0.750000 0.270741 0.321489
O O2 0.562892 0.500000 0.315864
O O3 0.502017 0.200878 0.344581
O O4 0.561661 0.236901 0.256302
O O5 0.623623 0.732272 0.076311
O O6 0.750000 0.000000 0.039569
O O7 0.750000 0.709908 0.996929
O O8 0.873814 0.215988 0.918033
O O9 0.002563 0.270939 0.837824
O O10 0.040163 0.000000 0.882871
O O11 0.750000 0.500000 0.925372
O O12 0.250000 0.500000 0.472653
O O13 0.500000 0.500000 0.500000
O O14 0.434686 0.330786 0.426672
O O15 0.250000 0.783267 0.369691
O O16 0.085907 0.000000 0.409901
O O17 0.750000 0.770603 0.190182
O O18 0.877100 0.500000 0.212285
#
# Coordination Sequence:
#
# PCOD8213962 Si02
#       7
#     8   4   8   4   4   8   8
#     4   9  18  34  58  87 118 154 196 243 295 351
#     4  10  22  40  62  84 106 142 182 224 286 351
#     4  11  22  39  60  82 112 146 181 229 286 348
#     4  12  26  40  56  82 110 140 186 236 284 339
#     4  10  22  40  62  88 124 166 206 254 305 352
#     4  10  21  38  60  88 123 163 207 251 299 360
#     4   9  18  34  57  85 116 149 187 234 286 343
#
# _framework density 19.407194
#
# number of rings (size 3 to 8) (size 9 to 14) (size 15 to 20)
#    0.000    2.000    1.818    3.000    0.000    5.818 
#    1.636    1.818    0.000    0.000    0.000    0.000 
#    0.000    0.000    0.000    0.000    0.000    0.000 
#
# Total GULP energy -545463.570507 kJ/mol
# GULP energy per Si atom -12396.899330 kJ/mol
# Density = 1.936302 g / cm^3
# Si number density = 19.407194 Si / 1000 Ang^3
#
#
#
# Elastic Constant Matrix: (Units=GPa)
#
#
# Indices 1 2 3 4 5 6 
#
# 1 113.9214 22.6206 72.5707 0.0000 0.0000 0.0000
# 2 22.6206 76.8310 41.5178 0.0000 0.0000 0.0000
# 3 72.5707 41.5178 140.1924 0.0000 0.0000 0.0000
# 4 0.0000 0.0000 0.0000 15.7526 0.0000 0.0000
# 5 0.0000 0.0000 0.0000 0.0000 -103.6766 0.0000
# 6 0.0000 0.0000 0.0000 0.0000 0.0000 25.0751
#
#
#
# Elastic Compliance Matrix: (Units=1/GPa)
#
#
# Indices 1 2 3 4 5 6 
#
# 1 0.013100 -0.000229 -0.006713 0.000000 0.000000 0.000000
# 2 -0.000229 0.015499 -0.004471 0.000000 0.000000 0.000000
# 3 -0.006713 -0.004471 0.011932 0.000000 0.000000 0.000000
# 4 0.000000 0.000000 0.000000 0.063482 0.000000 0.000000
# 5 0.000000 0.000000 0.000000 0.000000 -0.009645 0.000000
# 6 0.000000 0.000000 0.000000 0.000000 0.000000 0.039880
#
#
# Mechanical properties :
#
#
# Convention : Reuss Voigt Hill
#
# Bulk Modulus (GPa) = 56.48501 67.15145 61.81823
# Shear Modulus (GPa) = 30.67906 0.37926 15.52916
#
# Velocity S-wave (km/s) = 3.98025 0.44255 2.83181
# Velocity P-wave (km/s) = 7.09166 5.91080 6.52798
#
# Compressibility (1/GPa) = 0.01770381
#
# Stress axis : x y z
#
# Youngs Moduli (GPa) = 76.33534 64.51882 83.80481
#
# Poissons Ratio (x) = 0.01478 0.56262
# Poissons Ratio (y) = 0.01749 0.37473
# Poissons Ratio (z) = 0.51247 0.28850
#
# Static dielectric constant tensor:
#      x y z
#    x 3.478150 0.000000 0.000000 
#    y 0.000000 3.519130 0.000000 
#    z 0.000000 0.000000 3.482620 
# 
# 
# High freq. dielectric constant tensor:
#      x y z
#    x 1.749390 0.000000 0.000000 
#    y 0.000000 1.755980 0.000000 
#    z 0.000000 0.000000 1.750650 
# 
# From -- ./inp_files/36836.got.cif
#   From: 2010.03.12/outbox.cif.g09.slc.cpg/sg51_19_cif.got.tgz:36836.got - 2010.04.16 13:43:02.
