data_PCOD8213017
_publ_section_title
;
Structure prediction by ZEFSAII (Michael W. Deem and Ramdas Pophale) SiO2 
 PCOD8213017
Probable space group: P M M A
;
_chemical_formula_sum "Si O2"
_cell_formula_units_Z 52
_cell_length_a 9.229187
_cell_length_b 19.107729
_cell_length_c 15.587040
_cell_angle_alpha 90.000000
_cell_angle_beta 90.000000
_cell_angle_gamma 90.000000
_cell_volume 2748.755863
_symmetry_space_group_name_H-M "P M M A"
_symmetry_group_IT_number 51
_symmetry_cell_setting 'orthorhombic'
loop_
_space_group_symop_operation_xyz
x,y,z
1/2-x,-y,z
1/2+x,-y,-z
-x,y,-z
-x,-y,-z
1/2+x,y,-z
1/2-x,y,z
x,-y,z
loop_
_atom_site_type_symbol
_atom_site_label
_atom_site_fract_x
_atom_site_fract_y
_atom_site_fract_z
Si Si1 0.413463 0.924348 0.913962
Si Si2 0.916323 0.417072 0.085524
Si Si3 0.918899 0.335891 0.771719
Si Si4 0.404500 0.183415 0.178520
Si Si5 0.091966 0.865623 0.367853
Si Si6 0.078215 0.714038 0.416028
Si Si7 0.422917 0.000000 0.590100
O O1 0.250000 0.910085 0.938752
O O2 0.463838 0.860562 0.857166
O O3 0.432179 0.000000 0.866465
O O4 0.500000 0.926062 0.000000
O O5 0.750000 0.390778 0.080864
O O6 0.923564 0.500000 0.087672
O O7 0.988250 0.392224 0.175335
O O8 0.000000 0.389257 0.000000
O O9 0.750000 0.357407 0.773087
O O10 0.945744 0.264487 0.823980
O O11 0.970338 0.326207 0.671936
O O12 0.250000 0.171320 0.129371
O O13 0.377080 0.159434 0.273602
O O14 0.250000 0.889894 0.406248
O O15 0.032407 0.796404 0.415874
O O16 0.976280 0.928574 0.365215
O O17 0.250000 0.706976 0.426096
O O18 0.000000 0.680379 0.500000
O O19 0.500000 0.000000 0.500000
O O20 0.250000 0.000000 0.586568
#
# Coordination Sequence:
#
# PCOD8213017 Si02
#       7
#     8   8   8   8   8   8   4
#     4  10  21  35  50  69  94 126 170 219 266 321
#     4  10  21  37  59  88 119 151 184 217 260 316
#     4   9  19  36  56  82 113 144 182 224 267 321
#     4   9  19  35  54  74  99 132 169 212 264 318
#     4   9  19  35  51  70  96 129 168 212 266 324
#     4   9  18  33  54  78 106 140 181 226 273 325
#     4  12  24  34  46  66  93 124 163 210 260 314
#
# _framework density 18.917649000000001
#
# number of rings (size 3 to 8) (size 9 to 14) (size 15 to 20)
#    0.000    2.462    0.000    3.923    1.077    6.154 
#    0.000    3.077    0.000    0.462    0.000    0.000 
#    0.000    0.000    0.000    0.000    0.000    0.000 
#
# Total GULP energy -644206.310981 kJ/mol
# GULP energy per Si atom -12388.582903 kJ/mol
# Density = 1.887459 g / cm^3
# Si number density = 18.917649 Si / 1000 Ang^3
#
#
#
# Elastic Constant Matrix: (Units=GPa)
#
#
# Indices 1 2 3 4 5 6 
#
# 1 106.2650 29.7450 43.9446 0.0000 0.0000 0.0000
# 2 29.7450 37.4893 27.0349 0.0000 0.0000 0.0000
# 3 43.9446 27.0349 84.3213 0.0000 0.0000 0.0000
# 4 0.0000 0.0000 0.0000 28.8776 0.0000 0.0000
# 5 0.0000 0.0000 0.0000 0.0000 34.3972 0.0000
# 6 0.0000 0.0000 0.0000 0.0000 0.0000 28.2692
#
#
#
# Elastic Compliance Matrix: (Units=1/GPa)
#
#
# Indices 1 2 3 4 5 6 
#
# 1 0.013358 -0.007256 -0.004635 0.000000 0.000000 0.000000
# 2 -0.007256 0.038638 -0.008606 0.000000 0.000000 0.000000
# 3 -0.004635 -0.008606 0.017035 0.000000 0.000000 0.000000
# 4 0.000000 0.000000 0.000000 0.034629 0.000000 0.000000
# 5 0.000000 0.000000 0.000000 0.000000 0.029072 0.000000
# 6 0.000000 0.000000 0.000000 0.000000 0.000000 0.035374
#
#
# Mechanical properties :
#
#
# Convention : Reuss Voigt Hill
#
# Bulk Modulus (GPa) = 35.66977 47.72494 41.69736
# Shear Modulus (GPa) = 22.88885 26.79888 24.84386
#
# Velocity S-wave (km/s) = 3.48216 3.76787 3.62783
# Velocity P-wave (km/s) = 5.92145 6.64918 6.29584
#
# Compressibility (1/GPa) = 0.02803494
#
# Stress axis : x y z
#
# Youngs Moduli (GPa) = 74.85896 25.88134 58.70438
#
# Poissons Ratio (x) = 0.18780 0.27212
# Poissons Ratio (y) = 0.54319 0.50523
# Poissons Ratio (z) = 0.34700 0.22274
#
# Static dielectric constant tensor:
#      x y z
#    x 3.519470 0.000000 0.000000 
#    y 0.000000 3.488730 0.000000 
#    z 0.000000 0.000000 2.914260 
# 
# 
# High freq. dielectric constant tensor:
#      x y z
#    x 1.738830 0.000000 0.000000 
#    y 0.000000 1.713360 0.000000 
#    z 0.000000 0.000000 1.730510 
# 
# From -- ./inp_files/21646.got.cif
#   From: 2010.03.12/outbox.cif.g09.slc.cpg/sg51_11_cif.got.tgz:21646.got - 2010.04.16 13:43:02.
