data_PCOD8213825
_publ_section_title
;
Structure prediction by ZEFSAII (Michael W. Deem and Ramdas Pophale) SiO2 
 PCOD8213825
Probable space group: P M M A
;
_chemical_formula_sum "Si O2"
_cell_formula_units_Z 64
_cell_length_a 8.965609
_cell_length_b 28.544286
_cell_length_c 13.734236
_cell_angle_alpha 90.000000
_cell_angle_beta 90.000000
_cell_angle_gamma 90.000000
_cell_volume 3514.823203
_symmetry_space_group_name_H-M "P M M A"
_symmetry_group_IT_number 51
_symmetry_cell_setting 'orthorhombic'
loop_
_space_group_symop_operation_xyz
x,y,z
1/2-x,-y,z
1/2+x,-y,-z
-x,y,-z
-x,-y,-z
1/2+x,y,-z
1/2-x,y,z
x,-y,z
loop_
_atom_site_type_symbol
_atom_site_label
_atom_site_fract_x
_atom_site_fract_y
_atom_site_fract_z
Si Si1 0.924319 0.052585 0.099329
Si Si2 0.574434 0.276169 0.294761
Si Si3 0.415952 0.555750 0.906592
Si Si4 0.574270 0.861184 0.225413
Si Si5 0.077720 0.447703 0.286546
Si Si6 0.921281 0.774087 0.099896
Si Si7 0.571593 0.811151 0.603005
Si Si8 0.424446 0.642632 0.398520
O O1 0.750000 0.054758 0.079542
O O2 0.967586 0.087061 0.187561
O O3 0.976261 0.000000 0.127672
O O4 0.000000 0.069608 0.000000
O O5 0.750000 0.275195 0.319133
O O6 0.545321 0.265313 0.181255
O O7 0.492281 0.238700 0.363066
O O8 0.503319 0.326685 0.315343
O O9 0.250000 0.576311 0.906823
O O10 0.416013 0.500000 0.912497
O O11 0.493796 0.572044 0.807693
O O12 0.500000 0.577084 0.000000
O O13 0.750000 0.855371 0.249316
O O14 0.526304 0.824243 0.141994
O O15 0.479152 0.851748 0.322251
O O16 0.250000 0.449185 0.257880
O O17 0.022282 0.500000 0.316718
O O18 0.047615 0.412182 0.375037
O O19 0.750000 0.776399 0.073267
O O20 0.000000 0.760586 0.000000
O O21 0.500000 0.824365 0.500000
O O22 0.750000 0.809081 0.596098
O O23 0.500000 0.655098 0.500000
O O24 0.250000 0.654553 0.403327
#
# Coordination Sequence:
#
# PCOD8213825 Si02
#       8
#     8   8   8   8   8   8   8   8
#     4   9  17  29  47  72 104 142 181 222 266 311
#     4  10  21  38  56  77 106 137 169 206 249 298
#     4   9  16  27  47  74 101 129 161 198 240 284
#     4   9  18  32  48  72 106 140 176 217 262 309
#     4   9  19  36  55  76 104 135 168 207 249 295
#     4   9  18  31  50  75 104 137 168 204 248 297
#     4  11  21  34  54  78 102 130 167 213 263 312
#     4  11  23  38  57  79 102 132 168 207 252 301
#
# _framework density 18.208597000000001
#
# number of rings (size 3 to 8) (size 9 to 14) (size 15 to 20)
#    0.000    2.375    0.000    3.750    0.000    5.750 
#    0.000    0.625    0.000    1.875    0.000    0.000 
#    0.000    0.000    0.000    0.000    0.000    0.000 
#
# Total GULP energy -793584.110976 kJ/mol
# GULP energy per Si atom -12399.751734 kJ/mol
# Density = 1.816715 g / cm^3
# Si number density = 18.208597 Si / 1000 Ang^3
#
#
#
# Elastic Constant Matrix: (Units=GPa)
#
#
# Indices 1 2 3 4 5 6 
#
# 1 100.2554 42.4506 60.2317 0.0000 0.0000 0.0000
# 2 42.4506 90.3902 49.7864 0.0000 0.0000 0.0000
# 3 60.2317 49.7864 121.4858 0.0000 0.0000 0.0000
# 4 0.0000 0.0000 0.0000 22.4909 0.0000 0.0000
# 5 0.0000 0.0000 0.0000 0.0000 34.6204 0.0000
# 6 0.0000 0.0000 0.0000 0.0000 0.0000 22.8216
#
#
#
# Elastic Compliance Matrix: (Units=1/GPa)
#
#
# Indices 1 2 3 4 5 6 
#
# 1 0.015178 -0.003853 -0.005946 0.000000 0.000000 0.000000
# 2 -0.003853 0.015267 -0.004346 0.000000 0.000000 0.000000
# 3 -0.005946 -0.004346 0.012961 0.000000 0.000000 0.000000
# 4 0.000000 0.000000 0.000000 0.044462 0.000000 0.000000
# 5 0.000000 0.000000 0.000000 0.000000 0.028885 0.000000
# 6 0.000000 0.000000 0.000000 0.000000 0.000000 0.043818
#
#
# Mechanical properties :
#
#
# Convention : Reuss Voigt Hill
#
# Bulk Modulus (GPa) = 66.16132 68.56322 67.36227
# Shear Modulus (GPa) = 25.78650 26.63078 26.20864
#
# Velocity S-wave (km/s) = 3.76729 3.82846 3.79800
# Velocity P-wave (km/s) = 7.43891 7.56828 7.50387
#
# Compressibility (1/GPa) = 0.01511457
#
# Stress axis : x y z
#
# Youngs Moduli (GPa) = 65.88273 65.50278 77.15702
#
# Poissons Ratio (x) = 0.25240 0.45880
# Poissons Ratio (y) = 0.25386 0.33533
# Poissons Ratio (z) = 0.39176 0.28468
#
# Static dielectric constant tensor:
#      x y z
#    x 3.418900 0.000000 0.000000 
#    y 0.000000 3.327890 0.000000 
#    z 0.000000 0.000000 3.298270 
# 
# 
# High freq. dielectric constant tensor:
#      x y z
#    x 1.711110 0.000000 0.000000 
#    y 0.000000 1.687390 0.000000 
#    z 0.000000 0.000000 1.701410 
# 
# From -- ./inp_files/14868.got.cif
#   From: 2010.03.12/outbox.cif.g09.slc.cpg/sg51_8_cif.got.tgz:14868.got - 2010.04.16 13:43:02.
