data_PCOD8213070
_publ_section_title
;
Structure prediction by ZEFSAII (Michael W. Deem and Ramdas Pophale) SiO2 
 PCOD8213070
Probable space group: P M M A
;
_chemical_formula_sum "Si O2"
_cell_formula_units_Z 40
_cell_length_a 15.472823
_cell_length_b 16.257232
_cell_length_c 8.852627
_cell_angle_alpha 90.000000
_cell_angle_beta 90.000000
_cell_angle_gamma 90.000000
_cell_volume 2226.836477
_symmetry_space_group_name_H-M "P M M A"
_symmetry_group_IT_number 51
_symmetry_cell_setting 'orthorhombic'
loop_
_space_group_symop_operation_xyz
x,y,z
1/2-x,-y,z
1/2+x,-y,-z
-x,y,-z
-x,-y,-z
1/2+x,y,-z
1/2-x,y,z
x,-y,z
loop_
_atom_site_type_symbol
_atom_site_label
_atom_site_fract_x
_atom_site_fract_y
_atom_site_fract_z
Si Si1 0.651602 0.806188 0.668425
Si Si2 0.345758 0.500000 0.608411
Si Si3 0.496569 0.500000 0.182130
Si Si4 0.579832 0.632406 0.603875
Si Si5 0.010051 0.091640 0.176111
Si Si6 0.846880 0.905105 0.366941
O O1 0.750000 0.820738 0.722016
O O2 0.633626 0.709621 0.661453
O O3 0.586990 0.846480 0.787315
O O4 0.634218 0.847782 0.508387
O O5 0.250000 0.500000 0.674779
O O6 0.406235 0.500000 0.754961
O O7 0.359175 0.578927 0.503257
O O8 0.449362 0.581038 0.248011
O O9 0.500000 0.500000 0.000000
O O10 0.500000 0.661282 0.500000
O O11 0.917949 0.120175 0.243641
O O12 0.033484 0.000000 0.235011
O O13 0.000000 0.091795 0.000000
O O14 0.750000 0.889072 0.302473
O O15 0.856518 0.000000 0.416472
#
# Coordination Sequence:
#
# PCOD8213070 Si02
#       6
#     8   4   4   8   8   8
#     4  11  21  33  53  79 103 132 173 217 258 300
#     4   9  17  33  54  76 101 130 170 211 250 301
#     4   9  19  35  55  78 105 136 166 201 251 305
#     4   9  18  33  54  76 101 136 169 204 252 303
#     4  10  21  35  51  73 104 141 174 210 259 310
#     4   9  18  33  53  75  99 131 174 221 263 303
#
# _framework density 17.962702
#
# number of rings (size 3 to 8) (size 9 to 14) (size 15 to 20)
#    0.000    2.400    0.000    4.200    0.000    4.400 
#    0.000    5.000    0.000    0.000    0.000    0.000 
#    0.000    0.000    0.000    0.000    0.000    0.000 
#
# Total GULP energy -495927.565796 kJ/mol
# GULP energy per Si atom -12398.189145 kJ/mol
# Density = 1.792182 g / cm^3
# Si number density = 17.962702 Si / 1000 Ang^3
#
#
#
# Elastic Constant Matrix: (Units=GPa)
#
#
# Indices 1 2 3 4 5 6 
#
# 1 125.3648 49.0608 47.4662 0.0000 0.0000 0.0000
# 2 49.0608 93.3745 32.8930 0.0000 0.0000 0.0000
# 3 47.4662 32.8930 90.8472 0.0000 0.0000 0.0000
# 4 0.0000 0.0000 0.0000 -229.9513 0.0000 0.0000
# 5 0.0000 0.0000 0.0000 0.0000 15.5220 0.0000
# 6 0.0000 0.0000 0.0000 0.0000 0.0000 23.1895
#
#
#
# Elastic Compliance Matrix: (Units=1/GPa)
#
#
# Indices 1 2 3 4 5 6 
#
# 1 0.011352 -0.004442 -0.004323 0.000000 0.000000 0.000000
# 2 -0.004442 0.014013 -0.002753 0.000000 0.000000 0.000000
# 3 -0.004323 -0.002753 0.014263 0.000000 0.000000 0.000000
# 4 0.000000 0.000000 0.000000 -0.004349 0.000000 0.000000
# 5 0.000000 0.000000 0.000000 0.000000 0.064425 0.000000
# 6 0.000000 0.000000 0.000000 0.000000 0.000000 0.043123
#
#
# Mechanical properties :
#
#
# Convention : Reuss Voigt Hill
#
# Bulk Modulus (GPa) = 60.26776 63.15849 61.71313
# Shear Modulus (GPa) = 29.17278 -26.23687 1.46795
#
# Velocity S-wave (km/s) = 4.03435 -3.82597 0.90499
# Velocity P-wave (km/s) = 7.43813 3.96483 5.96010
#
# Compressibility (1/GPa) = 0.01659262
#
# Stress axis : x y z
#
# Youngs Moduli (GPa) = 88.09285 71.36198 70.11179
#
# Poissons Ratio (x) = 0.31696 0.30309
# Poissons Ratio (y) = 0.39127 0.19302
# Poissons Ratio (z) = 0.38082 0.19646
#
# Static dielectric constant tensor:
#      x y z
#    x 3.467170 0.000000 0.000000 
#    y 0.000000 3.380850 0.000000 
#    z 0.000000 0.000000 3.039030 
# 
# 
# High freq. dielectric constant tensor:
#      x y z
#    x 1.707350 0.000000 0.000000 
#    y 0.000000 1.697510 0.000000 
#    z 0.000000 0.000000 1.672590 
# 
# From -- ./inp_files/8000.got.cif
#   From: 2010.03.12/outbox.cif.g09.slc.cpg/sg51_4_cif.got.tgz:8000.got - 2010.04.16 13:43:02.
