data_PCOD8213108
_publ_section_title
;
Structure prediction by ZEFSAII (Michael W. Deem and Ramdas Pophale) SiO2 
 PCOD8213108
Probable space group: P M M A
;
_chemical_formula_sum "Si O2"
_cell_formula_units_Z 48
_cell_length_a 9.044737
_cell_length_b 30.215861
_cell_length_c 9.136498
_cell_angle_alpha 90.000000
_cell_angle_beta 90.000000
_cell_angle_gamma 90.000000
_cell_volume 2496.954799
_symmetry_space_group_name_H-M "P M M A"
_symmetry_group_IT_number 51
_symmetry_cell_setting 'orthorhombic'
loop_
_space_group_symop_operation_xyz
x,y,z
1/2-x,-y,z
1/2+x,-y,-z
-x,y,-z
-x,-y,-z
1/2+x,y,-z
1/2-x,y,z
x,-y,z
loop_
_atom_site_type_symbol
_atom_site_label
_atom_site_fract_x
_atom_site_fract_y
_atom_site_fract_z
Si Si1 0.076501 0.629592 0.653491
Si Si2 0.577835 0.795555 0.345412
Si Si3 0.420996 0.948067 0.350385
Si Si4 0.424314 0.713057 0.844281
Si Si5 0.576702 0.450096 0.149835
Si Si6 0.924090 0.880429 0.152414
O O1 0.250000 0.630616 0.626146
O O2 0.027261 0.668364 0.762618
O O3 0.024853 0.582760 0.721842
O O4 0.000000 0.637069 0.500000
O O5 0.500000 0.796253 0.500000
O O6 0.750000 0.789858 0.374680
O O7 0.518174 0.754554 0.250140
O O8 0.541060 0.840659 0.262122
O O9 0.500000 0.933415 0.500000
O O10 0.250000 0.933565 0.358977
O O11 0.502266 0.924771 0.215523
O O12 0.437212 0.000000 0.323417
O O13 0.250000 0.715470 0.868558
O O14 0.500000 0.714441 0.000000
O O15 0.750000 0.445812 0.122378
O O16 0.531305 0.500000 0.195225
O O17 0.500000 0.435647 0.000000
O O18 0.750000 0.887959 0.129713
O O19 0.000000 0.868443 0.000000
#
# Coordination Sequence:
#
# PCOD8213108 Si02
#       6
#     8   8   8   8   8   8
#     4  10  21  35  52  76 106 139 176 218 263 314
#     4  10  22  38  57  82 110 141 178 220 266 318
#     4  10  21  38  60  85 113 146 184 226 272 322
#     4  10  21  37  56  80 108 138 176 219 264 315
#     4   9  18  33  52  75 103 135 174 219 265 315
#     4  11  23  38  57  82 112 146 184 225 271 322
#
# _framework density 19.223416
#
# number of rings (size 3 to 8) (size 9 to 14) (size 15 to 20)
#    0.000    2.000    0.000    3.000    0.000    6.333 
#    0.000    0.000    0.000    0.000    0.000    0.000 
#    0.000    0.000    0.000    0.000    0.000    0.000 
#
# Total GULP energy -595421.914004 kJ/mol
# GULP energy per Si atom -12404.623208 kJ/mol
# Density = 1.917966 g / cm^3
# Si number density = 19.223416 Si / 1000 Ang^3
#
#
#
# Elastic Constant Matrix: (Units=GPa)
#
#
# Indices 1 2 3 4 5 6 
#
# 1 75.4679 51.3906 70.5778 0.0000 0.0000 0.0000
# 2 51.3906 102.7206 69.5950 0.0000 0.0000 0.0000
# 3 70.5778 69.5950 169.9343 0.0000 0.0000 0.0000
# 4 0.0000 0.0000 0.0000 31.1098 0.0000 0.0000
# 5 0.0000 0.0000 0.0000 0.0000 42.4725 0.0000
# 6 0.0000 0.0000 0.0000 0.0000 0.0000 12.3882
#
#
#
# Elastic Compliance Matrix: (Units=1/GPa)
#
#
# Indices 1 2 3 4 5 6 
#
# 1 0.025418 -0.007701 -0.007403 0.000000 0.000000 0.000000
# 2 -0.007701 0.015807 -0.003275 0.000000 0.000000 0.000000
# 3 -0.007403 -0.003275 0.010301 0.000000 0.000000 0.000000
# 4 0.000000 0.000000 0.000000 0.032144 0.000000 0.000000
# 5 0.000000 0.000000 0.000000 0.000000 0.023545 0.000000
# 6 0.000000 0.000000 0.000000 0.000000 0.000000 0.080722
#
#
# Mechanical properties :
#
#
# Convention : Reuss Voigt Hill
#
# Bulk Modulus (GPa) = 67.71662 81.24996 74.48329
# Shear Modulus (GPa) = 21.77545 27.63138 24.70342
#
# Velocity S-wave (km/s) = 3.36930 3.79539 3.58867
# Velocity P-wave (km/s) = 7.10203 7.84631 7.48343
#
# Compressibility (1/GPa) = 0.01476742
#
# Stress axis : x y z
#
# Youngs Moduli (GPa) = 39.34254 63.26369 97.08257
#
# Poissons Ratio (x) = 0.48719 0.71868
# Poissons Ratio (y) = 0.30297 0.31796
# Poissons Ratio (z) = 0.29124 0.20720
#
# Static dielectric constant tensor:
#      x y z
#    x 3.477740 0.000000 0.000000 
#    y 0.000000 3.760510 0.000000 
#    z 0.000000 0.000000 3.467000 
# 
# 
# High freq. dielectric constant tensor:
#      x y z
#    x 1.745390 0.000000 0.000000 
#    y 0.000000 1.763570 0.000000 
#    z 0.000000 0.000000 1.752820 
# 
# From -- ./inp_files/5984.got.cif
#   From: 2010.03.12/outbox.cif.g09.slc.cpg/sg51_3_cif.got.tgz:5984.got - 2010.04.16 13:43:02.
