data_PCOD8213139
_publ_section_title
;
Structure prediction by ZEFSAII (Michael W. Deem and Ramdas Pophale) SiO2 
 PCOD8213139
Probable space group: P M M A
;
_chemical_formula_sum "Si O2"
_cell_formula_units_Z 52
_cell_length_a 9.175312
_cell_length_b 15.551653
_cell_length_c 20.732270
_cell_angle_alpha 90.000000
_cell_angle_beta 90.000000
_cell_angle_gamma 90.000000
_cell_volume 2958.313903
_symmetry_space_group_name_H-M "P M M A"
_symmetry_group_IT_number 51
_symmetry_cell_setting 'orthorhombic'
loop_
_space_group_symop_operation_xyz
x,y,z
1/2-x,-y,z
1/2+x,-y,-z
-x,y,-z
-x,-y,-z
1/2+x,y,-z
1/2-x,y,z
x,-y,z
loop_
_atom_site_type_symbol
_atom_site_label
_atom_site_fract_x
_atom_site_fract_y
_atom_site_fract_z
Si Si1 0.421327 0.660305 0.699899
Si Si2 0.079111 0.500000 0.899103
Si Si3 0.419485 0.230791 0.205226
Si Si4 0.407433 0.655683 0.084994
Si Si5 0.585539 0.098077 0.122287
Si Si6 0.500000 0.801746 0.000000
Si Si7 0.575238 0.500000 0.763188
Si Si8 0.917715 0.597520 0.437866
O O1 0.250000 0.650939 0.717073
O O2 0.487771 0.747878 0.730238
O O3 0.512912 0.582377 0.727858
O O4 0.445868 0.659993 0.622902
O O5 0.250000 0.500000 0.885452
O O6 0.032468 0.412668 0.936948
O O7 0.980213 0.500000 0.836043
O O8 0.250000 0.217350 0.222201
O O9 0.443541 0.310910 0.156901
O O10 0.479508 0.144052 0.172906
O O11 0.250000 0.609427 0.084540
O O12 0.392983 0.738180 0.038651
O O13 0.750000 0.104754 0.148534
O O14 0.532967 0.000000 0.116700
O O15 0.584422 0.139147 0.050883
O O16 0.750000 0.500000 0.761119
O O17 0.750000 0.596080 0.456321
O O18 0.970862 0.500000 0.421838
O O19 0.000000 0.635465 0.500000
#
# Coordination Sequence:
#
# PCOD8213139 Si02
#       8
#     8   4   8   8   8   4   4   8
#     4  11  20  33  52  74 103 138 180 221 260 301
#     4  12  24  35  51  69  93 131 173 218 264 302
#     4  10  21  35  53  78 104 131 166 211 261 308
#     4  10  21  36  52  71  98 128 166 213 258 303
#     4  10  21  38  60  83 105 130 161 201 255 317
#     4  10  21  37  58  78 100 128 168 205 257 304
#     4  12  22  32  48  72 100 132 176 219 263 306
#     4   9  18  31  45  68 101 141 184 224 259 294
#
# _framework density 17.577579
#
# number of rings (size 3 to 8) (size 9 to 14) (size 15 to 20)
#    0.000    1.692    2.308    3.000    0.000    5.538 
#    0.000    0.000    0.000    0.000    0.000    0.000 
#    0.000    0.615    0.000    2.000    0.000    2.462 
#
# Total GULP energy -644615.291685 kJ/mol
# GULP energy per Si atom -12396.447917 kJ/mol
# Density = 1.753757 g / cm^3
# Si number density = 17.577579 Si / 1000 Ang^3
#
#
#
# Elastic Constant Matrix: (Units=GPa)
#
#
# Indices 1 2 3 4 5 6 
#
# 1 125.3761 53.5118 50.5770 0.0000 0.0000 0.0000
# 2 53.5118 98.0882 40.2305 0.0000 0.0000 0.0000
# 3 50.5770 40.2305 101.9914 0.0000 0.0000 0.0000
# 4 0.0000 0.0000 0.0000 14.9843 0.0000 0.0000
# 5 0.0000 0.0000 0.0000 0.0000 24.0038 0.0000
# 6 0.0000 0.0000 0.0000 0.0000 0.0000 24.7812
#
#
#
# Elastic Compliance Matrix: (Units=1/GPa)
#
#
# Indices 1 2 3 4 5 6 
#
# 1 0.011548 -0.004714 -0.003867 0.000000 0.000000 0.000000
# 2 -0.004714 0.014087 -0.003219 0.000000 0.000000 0.000000
# 3 -0.003867 -0.003219 0.012992 0.000000 0.000000 0.000000
# 4 0.000000 0.000000 0.000000 0.066736 0.000000 0.000000
# 5 0.000000 0.000000 0.000000 0.000000 0.041660 0.000000
# 6 0.000000 0.000000 0.000000 0.000000 0.000000 0.040353
#
#
# Mechanical properties :
#
#
# Convention : Reuss Voigt Hill
#
# Bulk Modulus (GPa) = 66.54722 68.23270 67.38996
# Shear Modulus (GPa) = 23.14969 24.82961 23.98965
#
# Velocity S-wave (km/s) = 3.63299 3.76250 3.69831
# Velocity P-wave (km/s) = 7.45248 7.60115 7.52718
#
# Compressibility (1/GPa) = 0.01502692
#
# Stress axis : x y z
#
# Youngs Moduli (GPa) = 86.59543 70.98856 76.96924
#
# Poissons Ratio (x) = 0.33463 0.29766
# Poissons Ratio (y) = 0.40820 0.24776
# Poissons Ratio (z) = 0.33488 0.22851
#
# Static dielectric constant tensor:
#      x y z
#    x 3.275590 0.000000 0.000000 
#    y 0.000000 3.140820 0.000000 
#    z 0.000000 0.000000 3.266400 
# 
# 
# High freq. dielectric constant tensor:
#      x y z
#    x 1.690150 0.000000 0.000000 
#    y 0.000000 1.651000 0.000000 
#    z 0.000000 0.000000 1.663620 
# 
# From -- ./inp_files/31828.got.cif
#   From: 2010.03.12/outbox.cif.g09.slc.cpg/sg51_16_cif.got.tgz:31828.got - 2010.04.16 13:43:02.
