data_PCOD8213489
_publ_section_title
;
Structure prediction by ZEFSAII (Michael W. Deem and Ramdas Pophale) SiO2 
 PCOD8213489
Probable space group: P M M A
;
_chemical_formula_sum "Si O2"
_cell_formula_units_Z 64
_cell_length_a 17.550214
_cell_length_b 14.855722
_cell_length_c 12.111909
_cell_angle_alpha 90.000000
_cell_angle_beta 90.000000
_cell_angle_gamma 90.000000
_cell_volume 3157.830240
_symmetry_space_group_name_H-M "P M M A"
_symmetry_group_IT_number 51
_symmetry_cell_setting 'orthorhombic'
loop_
_space_group_symop_operation_xyz
x,y,z
1/2-x,-y,z
1/2+x,-y,-z
-x,y,-z
-x,-y,-z
1/2+x,y,-z
1/2-x,y,z
x,-y,z
loop_
_atom_site_type_symbol
_atom_site_label
_atom_site_fract_x
_atom_site_fract_y
_atom_site_fract_z
Si Si1 0.416369 0.894961 0.149585
Si Si2 0.580312 0.178983 0.440030
Si Si3 0.160248 0.596727 0.881600
Si Si4 0.838948 0.786723 0.044330
Si Si5 0.162843 0.655407 0.642148
Si Si6 0.337598 0.596017 0.402131
Si Si7 0.660726 0.208252 0.652483
Si Si8 0.587079 0.900674 0.214844
O O1 0.386806 0.843371 0.042639
O O2 0.379897 0.849848 0.256089
O O3 0.506404 0.882559 0.156148
O O4 0.392995 0.000000 0.143907
O O5 0.500000 0.189972 0.500000
O O6 0.601191 0.265933 0.368405
O O7 0.644259 0.162272 0.533777
O O8 0.578821 0.100850 0.348196
O O9 0.250000 0.597383 0.895817
O O10 0.127616 0.500000 0.925617
O O11 0.140157 0.601593 0.751900
O O12 0.130071 0.683176 0.950600
O O13 0.750000 0.790420 0.013689
O O14 0.851999 0.829997 0.165666
O O15 0.250000 0.692567 0.650048
O O16 0.154666 0.593214 0.534546
O O17 0.250000 0.597155 0.367159
O O18 0.373786 0.500000 0.359273
O O19 0.372845 0.688226 0.350482
O O20 0.750000 0.207985 0.675062
O O21 0.615761 0.000000 0.183399
#
# Coordination Sequence:
#
# PCOD8213489 Si02
#       8
#     8   8   8   8   8   8   8   8
#     4  11  24  43  63  83 114 161 206 241 291 362
#     4  11  20  35  57  85 118 157 193 240 297 354
#     4   9  17  31  56  89 120 150 187 233 292 354
#     4  11  23  40  64  93 120 147 194 255 300 337
#     4   9  16  29  53  83 115 151 192 236 284 340
#     4   8  14  26  48  80 115 150 190 235 286 343
#     4  10  21  36  58  87 118 155 201 246 291 345
#     4  11  24  41  63  87 115 156 199 242 300 365
#
# _framework density 20.26708
#
# number of rings (size 3 to 8) (size 9 to 14) (size 15 to 20)
#    0.000    2.000    2.500    2.625    0.000    5.500 
#    0.000    0.625    0.000   17.625    0.000    0.000 
#    0.000    0.000    0.000    0.000    0.000    0.000 
#
# Total GULP energy -792977.543500 kJ/mol
# GULP energy per Si atom -12390.274117 kJ/mol
# Density = 2.022095 g / cm^3
# Si number density = 20.267080 Si / 1000 Ang^3
#
#
#
# Elastic Constant Matrix: (Units=GPa)
#
#
# Indices 1 2 3 4 5 6 
#
# 1 17.3884 27.5472 0.7374 0.0000 0.0000 0.0000
# 2 27.5472 151.3467 55.7003 0.0000 0.0000 0.0000
# 3 0.7374 55.7003 80.8900 0.0000 0.0000 0.0000
# 4 0.0000 0.0000 0.0000 22.6969 0.0000 0.0000
# 5 0.0000 0.0000 0.0000 0.0000 -16.2489 0.0000
# 6 0.0000 0.0000 0.0000 0.0000 0.0000 15.2300
#
#
#
# Elastic Compliance Matrix: (Units=1/GPa)
#
#
# Indices 1 2 3 4 5 6 
#
# 1 0.091650 -0.021932 0.014267 0.000000 0.000000 0.000000
# 2 -0.021932 0.014099 -0.009508 0.000000 0.000000 0.000000
# 3 0.014267 -0.009508 0.018780 0.000000 0.000000 0.000000
# 4 0.000000 0.000000 0.000000 0.044059 0.000000 0.000000
# 5 0.000000 0.000000 0.000000 0.000000 -0.061543 0.000000
# 6 0.000000 0.000000 0.000000 0.000000 0.000000 0.065660
#
#
# Mechanical properties :
#
#
# Convention : Reuss Voigt Hill
#
# Bulk Modulus (GPa) = 11.08875 46.39942 28.74409
# Shear Modulus (GPa) = 21.08701 15.37829 18.23265
#
# Velocity S-wave (km/s) = 3.22911 2.75759 3.00262
# Velocity P-wave (km/s) = 4.40296 5.75176 5.12195
#
# Compressibility (1/GPa) = 0.09018150
#
# Stress axis : x y z
#
# Youngs Moduli (GPa) = 10.91103 70.92849 53.24870
#
# Poissons Ratio (x) = 1.55563 -0.75970
# Poissons Ratio (y) = 0.23930 0.50631
# Poissons Ratio (z) = -0.15567 0.67441
#
# Static dielectric constant tensor:
#      x y z
#    x 3.449920 0.000000 0.000000 
#    y 0.000000 4.085270 0.000000 
#    z 0.000000 0.000000 3.678410 
# 
# 
# High freq. dielectric constant tensor:
#      x y z
#    x 1.760220 0.000000 0.000000 
#    y 0.000000 1.800150 0.000000 
#    z 0.000000 0.000000 1.784830 
# 
# From -- ./inp_files/17515.got.cif
#   From: 2010.03.12/outbox.cif.g09.slc.cpg/sg51_9_cif.got.tgz:17515.got - 2010.04.16 13:43:02.
