data_PCOD8213803
_publ_section_title
;
Structure prediction by ZEFSAII (Michael W. Deem and Ramdas Pophale) SiO2 
 PCOD8213803
Probable space group: P M M A
;
_chemical_formula_sum "Si O2"
_cell_formula_units_Z 48
_cell_length_a 16.775122
_cell_length_b 9.275315
_cell_length_c 16.148429
_cell_angle_alpha 90.000000
_cell_angle_beta 90.000000
_cell_angle_gamma 90.000000
_cell_volume 2512.607393
_symmetry_space_group_name_H-M "P M M A"
_symmetry_group_IT_number 51
_symmetry_cell_setting 'orthorhombic'
loop_
_space_group_symop_operation_xyz
x,y,z
1/2-x,-y,z
1/2+x,-y,-z
-x,y,-z
-x,-y,-z
1/2+x,y,-z
1/2-x,y,z
x,-y,z
loop_
_atom_site_type_symbol
_atom_site_label
_atom_site_fract_x
_atom_site_fract_y
_atom_site_fract_z
Si Si1 0.250000 0.670249 0.527117
Si Si2 0.560559 0.167216 0.721184
Si Si3 0.910145 0.331938 0.024005
Si Si4 0.841583 0.838892 0.876812
Si Si5 0.079875 0.670963 0.449164
Si Si6 0.897211 0.835940 0.191064
Si Si7 0.250000 0.835289 0.694829
O O1 0.250000 0.500000 0.529774
O O2 0.165914 0.722985 0.486008
O O3 0.250000 0.728614 0.618939
O O4 0.615776 0.224765 0.795746
O O5 0.576504 0.261532 0.641161
O O6 0.471586 0.194396 0.750749
O O7 0.577643 0.000000 0.700587
O O8 0.891507 0.500000 0.025908
O O9 0.892481 0.268854 0.113522
O O10 0.853427 0.260589 0.956254
O O11 0.000000 0.296287 0.000000
O O12 0.750000 0.844949 0.854331
O O13 0.875013 0.000000 0.895785
O O14 0.078348 0.500000 0.441150
O O15 0.000000 0.721964 0.500000
O O16 0.824466 0.799434 0.249049
O O17 0.896159 0.000000 0.157951
O O18 0.250000 0.000000 0.662964
#
# Coordination Sequence:
#
# PCOD8213803 Si02
#       7
#     4   8   8   8   8   8   4
#     4  10  22  40  60  85 116 153 188 227 290 351
#     4  10  21  37  60  86 112 148 192 236 286 340
#     4  11  23  38  57  84 115 152 197 239 286 341
#     4  10  22  39  59  83 115 154 194 237 287 340
#     4  10  22  39  59  84 116 152 189 231 285 349
#     4  10  21  38  59  84 116 152 191 237 288 341
#     4  10  22  38  60  89 114 143 190 239 284 337
#
# _framework density 19.103660999999999
#
# number of rings (size 3 to 8) (size 9 to 14) (size 15 to 20)
#    0.000    1.833    1.667    1.500    2.333    4.000 
#    0.000    0.000    0.000    0.000    0.000    0.000 
#    0.000    0.000    0.000    0.000    0.000    0.000 
#
# Total GULP energy -595177.342054 kJ/mol
# GULP energy per Si atom -12399.527959 kJ/mol
# Density = 1.906018 g / cm^3
# Si number density = 19.103661 Si / 1000 Ang^3
#
#
#
# Elastic Constant Matrix: (Units=GPa)
#
#
# Indices 1 2 3 4 5 6 
#
# 1 128.2248 35.0639 54.9400 0.0000 0.0000 0.0000
# 2 35.0639 34.4875 37.9670 0.0000 0.0000 0.0000
# 3 54.9400 37.9670 112.4771 0.0000 0.0000 0.0000
# 4 0.0000 0.0000 0.0000 49.9562 0.0000 0.0000
# 5 0.0000 0.0000 0.0000 0.0000 66.6043 0.0000
# 6 0.0000 0.0000 0.0000 0.0000 0.0000 18.9553
#
#
#
# Elastic Compliance Matrix: (Units=1/GPa)
#
#
# Indices 1 2 3 4 5 6 
#
# 1 0.011262 -0.008584 -0.002603 0.000000 0.000000 0.000000
# 2 -0.008584 0.052686 -0.013592 0.000000 0.000000 0.000000
# 3 -0.002603 -0.013592 0.014750 0.000000 0.000000 0.000000
# 4 0.000000 0.000000 0.000000 0.020018 0.000000 0.000000
# 5 0.000000 0.000000 0.000000 0.000000 0.015014 0.000000
# 6 0.000000 0.000000 0.000000 0.000000 0.000000 0.052756
#
#
# Mechanical properties :
#
#
# Convention : Reuss Voigt Hill
#
# Bulk Modulus (GPa) = 34.31649 59.01457 46.66553
# Shear Modulus (GPa) = 22.14784 36.91773 29.53279
#
# Velocity S-wave (km/s) = 3.40862 4.40078 3.93609
# Velocity P-wave (km/s) = 5.78739 7.53534 6.71845
#
# Compressibility (1/GPa) = 0.02914051
#
# Stress axis : x y z
#
# Youngs Moduli (GPa) = 88.79808 18.98036 67.79605
#
# Poissons Ratio (x) = 0.16292 0.17649
# Poissons Ratio (y) = 0.76223 0.92145
# Poissons Ratio (z) = 0.23116 0.25797
#
# Static dielectric constant tensor:
#      x y z
#    x 3.825720 0.000000 0.000000 
#    y 0.000000 3.427230 0.000000 
#    z 0.000000 0.000000 3.415860 
# 
# 
# High freq. dielectric constant tensor:
#      x y z
#    x 1.762210 0.000000 0.000000 
#    y 0.000000 1.733920 0.000000 
#    z 0.000000 0.000000 1.749460 
# 
# From -- ./inp_files/24872.got.cif
#   From: 2010.03.12/outbox.cif.g09.slc.cpg/sg51_13_cif.got.tgz:24872.got - 2010.04.16 13:43:02.
