data_PCOD8213796
_publ_section_title
;
Structure prediction by ZEFSAII (Michael W. Deem and Ramdas Pophale) SiO2 
 PCOD8213796
Probable space group: P M M A
;
_chemical_formula_sum "Si O2"
_cell_formula_units_Z 48
_cell_length_a 16.750280
_cell_length_b 8.683634
_cell_length_c 15.161047
_cell_angle_alpha 90.000000
_cell_angle_beta 90.000000
_cell_angle_gamma 90.000000
_cell_volume 2205.224332
_symmetry_space_group_name_H-M "P M M A"
_symmetry_group_IT_number 51
_symmetry_cell_setting 'orthorhombic'
loop_
_space_group_symop_operation_xyz
x,y,z
1/2-x,-y,z
1/2+x,-y,-z
-x,y,-z
-x,-y,-z
1/2+x,y,-z
1/2-x,y,z
x,-y,z
loop_
_atom_site_type_symbol
_atom_site_label
_atom_site_fract_x
_atom_site_fract_y
_atom_site_fract_z
Si Si1 0.341976 0.168887 0.899594
Si Si2 0.658720 0.668101 0.268109
Si Si3 0.842490 0.181045 0.779211
Si Si4 0.591656 0.180385 0.427344
Si Si5 0.580002 0.319801 0.948315
Si Si6 0.421888 0.317866 0.391140
O O1 0.250000 0.146069 0.877662
O O2 0.384490 0.251582 0.815814
O O3 0.381169 0.000000 0.914453
O O4 0.348871 0.274639 0.985902
O O5 0.750000 0.641880 0.243542
O O6 0.618349 0.500000 0.284744
O O7 0.655461 0.777744 0.352984
O O8 0.750000 0.222717 0.801478
O O9 0.903000 0.235463 0.855928
O O10 0.866138 0.264343 0.688636
O O11 0.852872 0.000000 0.766509
O O12 0.507231 0.234808 0.387886
O O13 0.617913 0.269158 0.515998
O O14 0.589895 0.000000 0.447204
O O15 0.577749 0.500000 0.929069
O O16 0.500000 0.263940 0.000000
O O17 0.433222 0.500000 0.387641
#
# Coordination Sequence:
#
# PCOD8213796 Si02
#       6
#     8   8   8   8   8   8
#     4  10  21  38  60  87 120 159 202 251 308 367
#     4  10  21  37  59  88 122 161 204 251 304 363
#     4  11  25  45  68  95 128 167 214 266 320 381
#     4  11  22  39  63  91 127 166 208 259 312 369
#     4  11  25  42  62  91 125 163 208 259 313 374
#     4  11  23  41  65  92 124 164 209 257 311 374
#
# _framework density 21.766493000000001
#
# number of rings (size 3 to 8) (size 9 to 14) (size 15 to 20)
#    0.000    1.333    0.000    6.500    2.333    7.333 
#    0.000    0.000    0.000    0.000    0.000    0.000 
#    0.000    0.000    0.000    0.000    0.000    0.000 
#
# Total GULP energy -595129.083845 kJ/mol
# GULP energy per Si atom -12398.522580 kJ/mol
# Density = 2.171695 g / cm^3
# Si number density = 21.766493 Si / 1000 Ang^3
#
#
#
# Elastic Constant Matrix: (Units=GPa)
#
#
# Indices 1 2 3 4 5 6 
#
# 1 45.7445 28.6935 27.1878 0.0000 0.0000 0.0000
# 2 28.6935 116.0514 35.3082 0.0000 0.0000 0.0000
# 3 27.1878 35.3082 142.8654 0.0000 0.0000 0.0000
# 4 0.0000 0.0000 0.0000 44.2217 0.0000 0.0000
# 5 0.0000 0.0000 0.0000 0.0000 33.8864 0.0000
# 6 0.0000 0.0000 0.0000 0.0000 0.0000 25.4099
#
#
#
# Elastic Compliance Matrix: (Units=1/GPa)
#
#
# Indices 1 2 3 4 5 6 
#
# 1 0.027723 -0.005676 -0.003873 0.000000 0.000000 0.000000
# 2 -0.005676 0.010480 -0.001510 0.000000 0.000000 0.000000
# 3 -0.003873 -0.001510 0.008110 0.000000 0.000000 0.000000
# 4 0.000000 0.000000 0.000000 0.022613 0.000000 0.000000
# 5 0.000000 0.000000 0.000000 0.000000 0.029510 0.000000
# 6 0.000000 0.000000 0.000000 0.000000 0.000000 0.039355
#
#
# Mechanical properties :
#
#
# Convention : Reuss Voigt Hill
#
# Bulk Modulus (GPa) = 41.33163 54.11558 47.72360
# Shear Modulus (GPa) = 29.76669 34.93506 32.35087
#
# Velocity S-wave (km/s) = 3.70205 4.01058 3.85940
# Velocity P-wave (km/s) = 6.10765 6.80898 6.46783
#
# Compressibility (1/GPa) = 0.02419454
#
# Stress axis : x y z
#
# Youngs Moduli (GPa) = 36.07143 95.42334 123.30816
#
# Poissons Ratio (x) = 0.54163 0.47757
# Poissons Ratio (y) = 0.20474 0.18617
# Poissons Ratio (z) = 0.13970 0.14407
#
# Static dielectric constant tensor:
#      x y z
#    x 3.701120 0.000000 0.000000 
#    y 0.000000 4.309110 0.000000 
#    z 0.000000 0.000000 4.037170 
# 
# 
# High freq. dielectric constant tensor:
#      x y z
#    x 1.831460 0.000000 0.000000 
#    y 0.000000 1.873650 0.000000 
#    z 0.000000 0.000000 1.869860 
# 
# From -- ./inp_files/24748.got.cif
#   From: 2010.03.12/outbox.cif.g09.slc.cpg/sg51_13_cif.got.tgz:24748.got - 2010.04.16 13:43:02.
