data_PCOD8213884
_publ_section_title
;
Structure prediction by ZEFSAII (Michael W. Deem and Ramdas Pophale) SiO2 
 PCOD8213884
Probable space group: P M M A
;
_chemical_formula_sum "Si O2"
_cell_formula_units_Z 48
_cell_length_a 8.716383
_cell_length_b 30.334341
_cell_length_c 9.419469
_cell_angle_alpha 90.000000
_cell_angle_beta 90.000000
_cell_angle_gamma 90.000000
_cell_volume 2490.561617
_symmetry_space_group_name_H-M "P M M A"
_symmetry_group_IT_number 51
_symmetry_cell_setting 'orthorhombic'
loop_
_space_group_symop_operation_xyz
x,y,z
1/2-x,-y,z
1/2+x,-y,-z
-x,y,-z
-x,-y,-z
1/2+x,y,-z
1/2-x,y,z
x,-y,z
loop_
_atom_site_type_symbol
_atom_site_label
_atom_site_fract_x
_atom_site_fract_y
_atom_site_fract_z
Si Si1 0.926150 0.450257 0.652868
Si Si2 0.929917 0.287016 0.848183
Si Si3 0.068755 0.872220 0.844504
Si Si4 0.069420 0.950518 0.647617
Si Si5 0.569235 0.378327 0.151954
Si Si6 0.069755 0.204406 0.344276
O O1 0.750000 0.434398 0.647073
O O2 0.936887 0.500000 0.713111
O O3 0.000000 0.447947 0.500000
O O4 0.025839 0.418587 0.749162
O O5 0.750000 0.293378 0.869737
O O6 0.969062 0.250145 0.732861
O O7 0.001588 0.332375 0.789351
O O8 0.000000 0.273411 0.000000
O O9 0.250000 0.867723 0.855587
O O10 0.018216 0.918911 0.776085
O O11 0.006260 0.834137 0.745017
O O12 0.000000 0.868281 0.000000
O O13 0.250000 0.949691 0.628722
O O14 0.000000 0.932969 0.500000
O O15 0.009891 0.000000 0.681555
O O16 0.750000 0.373837 0.140594
O O17 0.500000 0.389024 0.000000
O O18 0.250000 0.195773 0.354054
O O19 0.000000 0.205859 0.500000
#
# Coordination Sequence:
#
# PCOD8213884 Si02
#       6
#     8   8   8   8   8   8
#     4  10  21  38  59  83 113 149 189 233 281 334
#     4  10  21  38  59  83 112 146 185 229 279 334
#     4  11  23  38  58  83 114 150 189 234 282 335
#     4   9  19  36  57  82 112 147 187 231 280 333
#     4  11  22  37  59  85 115 150 188 232 280 332
#     4  11  24  40  60  85 114 148 187 232 280 333
#
# _framework density 19.272762
#
# number of rings (size 3 to 8) (size 9 to 14) (size 15 to 20)
#    0.000    1.667    0.000    5.500    0.000    9.000 
#    0.000    1.667    0.000    0.000    0.000    0.000 
#    0.000    0.000    0.000    0.000    0.000    0.000 
#
# Total GULP energy -595333.822803 kJ/mol
# GULP energy per Si atom -12402.787975 kJ/mol
# Density = 1.922890 g / cm^3
# Si number density = 19.272762 Si / 1000 Ang^3
#
#
#
# Elastic Constant Matrix: (Units=GPa)
#
#
# Indices 1 2 3 4 5 6 
#
# 1 105.6971 63.3592 58.0875 0.0000 0.0000 0.0000
# 2 63.3592 130.9568 88.5175 0.0000 0.0000 0.0000
# 3 58.0875 88.5175 137.4071 0.0000 0.0000 0.0000
# 4 0.0000 0.0000 0.0000 43.6834 0.0000 0.0000
# 5 0.0000 0.0000 0.0000 0.0000 37.5088 0.0000
# 6 0.0000 0.0000 0.0000 0.0000 0.0000 32.2767
#
#
#
# Elastic Compliance Matrix: (Units=1/GPa)
#
#
# Indices 1 2 3 4 5 6 
#
# 1 0.013881 -0.004870 -0.002731 0.000000 0.000000 0.000000
# 2 -0.004870 0.015234 -0.007755 0.000000 0.000000 0.000000
# 3 -0.002731 -0.007755 0.013428 0.000000 0.000000 0.000000
# 4 0.000000 0.000000 0.000000 0.022892 0.000000 0.000000
# 5 0.000000 0.000000 0.000000 0.000000 0.026660 0.000000
# 6 0.000000 0.000000 0.000000 0.000000 0.000000 0.030982
#
#
# Mechanical properties :
#
#
# Convention : Reuss Voigt Hill
#
# Bulk Modulus (GPa) = 84.52188 88.22104 86.37146
# Shear Modulus (GPa) = 31.69908 33.63358 32.66633
#
# Velocity S-wave (km/s) = 4.05996 4.18201 4.12144
# Velocity P-wave (km/s) = 8.11964 8.31825 8.21955
#
# Compressibility (1/GPa) = 0.01183126
#
# Stress axis : x y z
#
# Youngs Moduli (GPa) = 72.04053 65.64168 74.47198
#
# Poissons Ratio (x) = 0.31968 0.20337
# Poissons Ratio (y) = 0.35084 0.57754
# Poissons Ratio (z) = 0.19673 0.50906
#
# Static dielectric constant tensor:
#      x y z
#    x 3.674540 0.000000 0.000000 
#    y 0.000000 3.930930 0.000000 
#    z 0.000000 0.000000 3.530200 
# 
# 
# High freq. dielectric constant tensor:
#      x y z
#    x 1.765840 0.000000 0.000000 
#    y 0.000000 1.764450 0.000000 
#    z 0.000000 0.000000 1.749810 
# 
# From -- ./inp_files/6053.got.cif
#   From: 2010.03.12/outbox.cif.g09.slc.cpg/sg51_4_cif.got.tgz:6053.got - 2010.04.16 13:43:02.
