data_PCOD8213054
_publ_section_title
;
Structure prediction by ZEFSAII (Michael W. Deem and Ramdas Pophale) SiO2 
 PCOD8213054
Probable space group: P M M A
;
_chemical_formula_sum "Si O2"
_cell_formula_units_Z 64
_cell_length_a 23.628915
_cell_length_b 9.151853
_cell_length_c 16.354720
_cell_angle_alpha 90.000000
_cell_angle_beta 90.000000
_cell_angle_gamma 90.000000
_cell_volume 3536.681323
_symmetry_space_group_name_H-M "P M M A"
_symmetry_group_IT_number 51
_symmetry_cell_setting 'orthorhombic'
loop_
_space_group_symop_operation_xyz
x,y,z
1/2-x,-y,z
1/2+x,-y,-z
-x,y,-z
-x,-y,-z
1/2+x,y,-z
1/2-x,y,z
x,-y,z
loop_
_atom_site_type_symbol
_atom_site_label
_atom_site_fract_x
_atom_site_fract_y
_atom_site_fract_z
Si Si1 0.593169 0.669090 0.466569
Si Si2 0.521804 0.330258 0.304475
Si Si3 0.314180 0.168806 0.262045
Si Si4 0.685024 0.171696 0.057491
Si Si5 0.580369 0.829238 0.631569
Si Si6 0.817198 0.664068 0.897698
Si Si7 0.116482 0.168608 0.784053
Si Si8 0.185169 0.832650 0.622743
O O1 0.597889 0.500000 0.490038
O O2 0.550431 0.695967 0.392343
O O3 0.570123 0.755799 0.544182
O O4 0.654615 0.729363 0.442452
O O5 0.511286 0.500000 0.286773
O O6 0.462579 0.244156 0.303827
O O7 0.561143 0.265894 0.232655
O O8 0.250000 0.215809 0.286374
O O9 0.355354 0.199352 0.338525
O O10 0.338040 0.257854 0.184734
O O11 0.315570 0.000000 0.236558
O O12 0.750000 0.217116 0.075663
O O13 0.645938 0.221601 0.132708
O O14 0.680965 0.000000 0.042409
O O15 0.660351 0.251469 0.977461
O O16 0.566718 0.000000 0.625050
O O17 0.750000 0.666481 0.898866
O O18 0.841307 0.500000 0.898923
O O19 0.162386 0.193129 0.713490
O O20 0.097811 0.000000 0.788956
O O21 0.250000 0.786966 0.622581
O O22 0.176127 0.000000 0.595227
#
# Coordination Sequence:
#
# PCOD8213054 Si02
#       8
#     8   8   8   8   8   8   8   8
#     4  10  21  35  50  71  99 131 167 206 249 295
#     4  10  21  36  52  71  99 133 166 204 250 294
#     4   9  19  36  55  75 100 127 156 195 245 297
#     4   9  16  27  47  75 105 136 168 202 242 287
#     4  11  22  35  55  78  96 122 163 207 249 295
#     4   9  17  29  47  73 103 133 164 197 236 286
#     4   9  17  30  49  73 100 132 171 209 242 283
#     4   9  17  30  48  70  99 134 169 205 245 289
#
# _framework density 18.096062
#
# number of rings (size 3 to 8) (size 9 to 14) (size 15 to 20)
#    0.000    2.500    0.000    2.250    0.000    8.250 
#    0.000    1.250    0.000    3.000    0.000    5.250 
#    0.000    0.000    0.000    0.000    0.000    0.000 
#
# Total GULP energy -793697.831066 kJ/mol
# GULP energy per Si atom -12401.528610 kJ/mol
# Density = 1.805487 g / cm^3
# Si number density = 18.096062 Si / 1000 Ang^3
#
#
#
# Elastic Constant Matrix: (Units=GPa)
#
#
# Indices 1 2 3 4 5 6 
#
# 1 72.1911 33.3104 10.9136 0.0000 0.0000 0.0000
# 2 33.3104 86.6715 32.4315 0.0000 0.0000 0.0000
# 3 10.9136 32.4315 60.3978 0.0000 0.0000 0.0000
# 4 0.0000 0.0000 0.0000 25.2350 0.0000 0.0000
# 5 0.0000 0.0000 0.0000 0.0000 17.7050 0.0000
# 6 0.0000 0.0000 0.0000 0.0000 0.0000 21.4410
#
#
#
# Elastic Compliance Matrix: (Units=1/GPa)
#
#
# Indices 1 2 3 4 5 6 
#
# 1 0.016852 -0.006679 0.000542 0.000000 0.000000 0.000000
# 2 -0.006679 0.017086 -0.007968 0.000000 0.000000 0.000000
# 3 0.000542 -0.007968 0.020737 0.000000 0.000000 0.000000
# 4 0.000000 0.000000 0.000000 0.039628 0.000000 0.000000
# 5 0.000000 0.000000 0.000000 0.000000 0.056481 0.000000
# 6 0.000000 0.000000 0.000000 0.000000 0.000000 0.046640
#
#
# Mechanical properties :
#
#
# Convention : Reuss Voigt Hill
#
# Bulk Modulus (GPa) = 37.78635 41.39683 39.59159
# Shear Modulus (GPa) = 21.32581 22.38319 21.85450
#
# Velocity S-wave (km/s) = 3.43662 3.52079 3.47896
# Velocity P-wave (km/s) = 6.05586 6.28122 6.16957
#
# Compressibility (1/GPa) = 0.02646458
#
# Stress axis : x y z
#
# Youngs Moduli (GPa) = 59.33905 58.52601 48.22184
#
# Poissons Ratio (x) = 0.39092 -0.02611
# Poissons Ratio (y) = 0.39635 0.38422
# Poissons Ratio (z) = -0.03213 0.46633
#
# Static dielectric constant tensor:
#      x y z
#    x 3.251110 0.000000 0.000000 
#    y 0.000000 3.397520 0.000000 
#    z 0.000000 0.000000 3.263420 
# 
# 
# High freq. dielectric constant tensor:
#      x y z
#    x 1.684410 0.000000 0.000000 
#    y 0.000000 1.704330 0.000000 
#    z 0.000000 0.000000 1.690250 
# 
# From -- ./inp_files/26188.got.cif
#   From: 2010.03.12/outbox.cif.g09.slc.cpg/sg51_14_cif.got.tgz:26188.got - 2010.04.16 13:43:02.
