data_PCOD8213072
_publ_section_title
;
Structure prediction by ZEFSAII (Michael W. Deem and Ramdas Pophale) SiO2 
 PCOD8213072
Probable space group: P M M A
;
_chemical_formula_sum "Si O2"
_cell_formula_units_Z 44
_cell_length_a 9.501961
_cell_length_b 28.643007
_cell_length_c 9.296611
_cell_angle_alpha 90.000000
_cell_angle_beta 90.000000
_cell_angle_gamma 90.000000
_cell_volume 2530.209673
_symmetry_space_group_name_H-M "P M M A"
_symmetry_group_IT_number 51
_symmetry_cell_setting 'orthorhombic'
loop_
_space_group_symop_operation_xyz
x,y,z
1/2-x,-y,z
1/2+x,-y,-z
-x,y,-z
-x,-y,-z
1/2+x,y,-z
1/2-x,y,z
x,-y,z
loop_
_atom_site_type_symbol
_atom_site_label
_atom_site_fract_x
_atom_site_fract_y
_atom_site_fract_z
Si Si1 0.413802 0.850105 0.144793
Si Si2 0.588649 0.049358 0.856874
Si Si3 0.585626 0.414686 0.853359
Si Si4 0.913177 0.228124 0.639166
Si Si5 0.585499 0.500000 0.647981
Si Si6 0.587313 0.334178 0.641225
O O1 0.250000 0.843372 0.108995
O O2 0.441728 0.901019 0.223229
O O3 0.468123 0.807883 0.242169
O O4 0.500000 0.847138 0.000000
O O5 0.750000 0.049655 0.905274
O O6 0.557355 0.000000 0.770235
O O7 0.500000 0.048682 0.000000
O O8 0.750000 0.417007 0.892753
O O9 0.543936 0.455179 0.742191
O O10 0.544555 0.366064 0.776497
O O11 0.500000 0.420241 0.000000
O O12 0.750000 0.220468 0.604131
O O13 0.943513 0.281074 0.689475
O O14 0.000000 0.215489 0.500000
O O15 0.750000 0.500000 0.608576
O O16 0.500000 0.500000 0.500000
O O17 0.500000 0.348218 0.500000
O O18 0.750000 0.341894 0.600622
#
# Coordination Sequence:
#
# PCOD8213072 Si02
#       6
#     8   8   8   8   4   8
#     4   9  17  28  43  65  90 114 144 184 226 268
#     4   8  13  22  37  57  81 109 140 175 217 263
#     4  10  21  35  51  74 102 128 156 192 233 275
#     4   9  18  32  48  66  90 120 153 188 225 268
#     4  10  21  36  54  76 100 128 163 198 230 270
#     4   9  18  33  51  70  92 120 156 193 227 269
#
# _framework density 17.389862000000001
#
# number of rings (size 3 to 8) (size 9 to 14) (size 15 to 20)
#    0.000    2.909    0.000    0.818    0.000    2.909 
#    0.000    0.000    0.000    0.545    0.000    0.000 
#    0.000    0.000    0.000    0.000    0.000    0.000 
#
# Total GULP energy -545114.496869 kJ/mol
# GULP energy per Si atom -12388.965838 kJ/mol
# Density = 1.735028 g / cm^3
# Si number density = 17.389862 Si / 1000 Ang^3
#
#
#
# Elastic Constant Matrix: (Units=GPa)
#
#
# Indices 1 2 3 4 5 6 
#
# 1 46.7721 45.6606 49.2384 0.0000 0.0000 0.0000
# 2 45.6606 153.9708 85.0908 0.0000 0.0000 0.0000
# 3 49.2384 85.0908 110.6938 0.0000 0.0000 0.0000
# 4 0.0000 0.0000 0.0000 11.3319 0.0000 0.0000
# 5 0.0000 0.0000 0.0000 0.0000 30.8115 0.0000
# 6 0.0000 0.0000 0.0000 0.0000 0.0000 22.1769
#
#
#
# Elastic Compliance Matrix: (Units=1/GPa)
#
#
# Indices 1 2 3 4 5 6 
#
# 1 0.041354 -0.003647 -0.015591 0.000000 0.000000 0.000000
# 2 -0.003647 0.011613 -0.007305 0.000000 0.000000 0.000000
# 3 -0.015591 -0.007305 0.021584 0.000000 0.000000 0.000000
# 4 0.000000 0.000000 0.000000 0.088247 0.000000 0.000000
# 5 0.000000 0.000000 0.000000 0.000000 0.032455 0.000000
# 6 0.000000 0.000000 0.000000 0.000000 0.000000 0.045092
#
#
# Mechanical properties :
#
#
# Convention : Reuss Voigt Hill
#
# Bulk Modulus (GPa) = 46.58716 74.60180 60.59448
# Shear Modulus (GPa) = 16.63404 21.62718 19.13061
#
# Velocity S-wave (km/s) = 3.09615 3.53039 3.32038
# Velocity P-wave (km/s) = 6.29520 7.72081 7.04416
#
# Compressibility (1/GPa) = 0.02146514
#
# Stress axis : x y z
#
# Youngs Moduli (GPa) = 24.18121 86.10798 46.32961
#
# Poissons Ratio (x) = 0.31406 0.72234
# Poissons Ratio (y) = 0.08820 0.33843
# Poissons Ratio (z) = 0.37702 0.62900
#
# Static dielectric constant tensor:
#      x y z
#    x 3.215650 0.000000 0.000000 
#    y 0.000000 3.971870 0.000000 
#    z 0.000000 0.000000 2.967080 
# 
# 
# High freq. dielectric constant tensor:
#      x y z
#    x 1.671040 0.000000 0.000000 
#    y 0.000000 1.703760 0.000000 
#    z 0.000000 0.000000 1.630310 
# 
# From -- ./inp_files/5694.got.cif
#   From: 2010.03.12/outbox.cif.g09.slc.cpg/sg51_3_cif.got.tgz:5694.got - 2010.04.16 13:43:02.
