data_PCOD8213623
_publ_section_title
;
Structure prediction by ZEFSAII (Michael W. Deem and Ramdas Pophale) SiO2 
 PCOD8213623
Probable space group: P M M A
;
_chemical_formula_sum "Si O2"
_cell_formula_units_Z 48
_cell_length_a 9.336859
_cell_length_b 8.993755
_cell_length_c 30.818982
_cell_angle_alpha 90.000000
_cell_angle_beta 90.000000
_cell_angle_gamma 90.000000
_cell_volume 2587.975391
_symmetry_space_group_name_H-M "P M M A"
_symmetry_group_IT_number 51
_symmetry_cell_setting 'orthorhombic'
loop_
_space_group_symop_operation_xyz
x,y,z
1/2-x,-y,z
1/2+x,-y,-z
-x,y,-z
-x,-y,-z
1/2+x,y,-z
1/2-x,y,z
x,-y,z
loop_
_atom_site_type_symbol
_atom_site_label
_atom_site_fract_x
_atom_site_fract_y
_atom_site_fract_z
Si Si1 0.416614 0.326266 0.293523
Si Si2 0.091542 0.823658 0.879037
Si Si3 0.917828 0.171869 0.218411
Si Si4 0.914181 0.824666 0.370212
Si Si5 0.410950 0.177435 0.041049
Si Si6 0.916325 0.328450 0.458127
O O1 0.250000 0.285735 0.291395
O O2 0.442546 0.500000 0.300001
O O3 0.489685 0.275910 0.249089
O O4 0.485905 0.241342 0.333495
O O5 0.250000 0.758565 0.888445
O O6 0.041724 0.780064 0.830641
O O7 0.981954 0.759841 0.914738
O O8 0.099498 0.000000 0.882416
O O9 0.750000 0.197235 0.227261
O O10 0.957238 0.000000 0.226983
O O11 0.750000 0.775894 0.361527
O O12 0.967260 0.764121 0.416501
O O13 0.930167 0.000000 0.369938
O O14 0.250000 0.239843 0.038059
O O15 0.410368 0.000000 0.041253
O O16 0.500000 0.237521 0.000000
O O17 0.750000 0.304171 0.467483
O O18 0.953868 0.500000 0.449243
O O19 0.000000 0.267777 0.500000
#
# Coordination Sequence:
#
# PCOD8213623 Si02
#       6
#     8   8   8   8   8   8
#     4  11  24  38  52  74 103 133 167 208 253 301
#     4   8  14  25  40  59  85 116 151 193 240 290
#     4   9  18  33  53  75  98 127 164 205 251 304
#     4  10  21  37  57  80 105 135 173 213 253 301
#     4   9  15  21  31  50  79 117 158 196 236 284
#     4   9  18  33  53  77 106 140 175 210 249 294
#
# _framework density 18.547318000000001
#
# number of rings (size 3 to 8) (size 9 to 14) (size 15 to 20)
#    0.000    2.667    0.000    3.000    0.000    8.333 
#    0.000    3.333    0.000    0.000    0.000    0.000 
#    0.000    0.667    0.000    2.167    0.000    4.833 
#
# Total GULP energy -595193.648278 kJ/mol
# GULP energy per Si atom -12399.867672 kJ/mol
# Density = 1.850510 g / cm^3
# Si number density = 18.547318 Si / 1000 Ang^3
#
#
#
# Elastic Constant Matrix: (Units=GPa)
#
#
# Indices 1 2 3 4 5 6 
#
# 1 104.3163 30.1767 84.7464 0.0000 0.0000 0.0000
# 2 30.1767 39.2813 38.0778 0.0000 0.0000 0.0000
# 3 84.7464 38.0778 167.2649 0.0000 0.0000 0.0000
# 4 0.0000 0.0000 0.0000 -19.0414 0.0000 0.0000
# 5 0.0000 0.0000 0.0000 0.0000 39.4808 0.0000
# 6 0.0000 0.0000 0.0000 0.0000 0.0000 19.9936
#
#
#
# Elastic Compliance Matrix: (Units=1/GPa)
#
#
# Indices 1 2 3 4 5 6 
#
# 1 0.017389 -0.006182 -0.007403 0.000000 0.000000 0.000000
# 2 -0.006182 0.034864 -0.004804 0.000000 0.000000 0.000000
# 3 -0.007403 -0.004804 0.010823 0.000000 0.000000 0.000000
# 4 0.000000 0.000000 0.000000 -0.052517 0.000000 0.000000
# 5 0.000000 0.000000 0.000000 0.000000 0.025329 0.000000
# 6 0.000000 0.000000 0.000000 0.000000 0.000000 0.050016
#
#
# Mechanical properties :
#
#
# Convention : Reuss Voigt Hill
#
# Bulk Modulus (GPa) = 38.02775 68.54047 53.28411
# Shear Modulus (GPa) = 38.03789 18.61070 28.32430
#
# Velocity S-wave (km/s) = 4.53355 3.17111 3.91210
# Velocity P-wave (km/s) = 6.92472 7.10229 7.01407
#
# Compressibility (1/GPa) = 0.02629658
#
# Stress axis : x y z
#
# Youngs Moduli (GPa) = 57.50891 28.68279 92.39660
#
# Poissons Ratio (x) = 0.17733 0.68398
# Poissons Ratio (y) = 0.35554 0.44391
# Poissons Ratio (z) = 0.42572 0.13780
#
# Static dielectric constant tensor:
#      x y z
#    x 3.530080 0.000000 0.000000 
#    y 0.000000 3.029120 0.000000 
#    z 0.000000 0.000000 3.667910 
# 
# 
# High freq. dielectric constant tensor:
#      x y z
#    x 1.719130 0.000000 0.000000 
#    y 0.000000 1.678590 0.000000 
#    z 0.000000 0.000000 1.736880 
# 
# From -- ./inp_files/36880.got.cif
#   From: 2010.03.12/outbox.cif.g09.slc.cpg/sg51_19_cif.got.tgz:36880.got - 2010.04.16 13:43:02.
