data_PCOD8213921
_publ_section_title
;
Structure prediction by ZEFSAII (Michael W. Deem and Ramdas Pophale) SiO2 
 PCOD8213921
Probable space group: P M M A
;
_chemical_formula_sum "Si O2"
_cell_formula_units_Z 48
_cell_length_a 30.827377
_cell_length_b 8.764366
_cell_length_c 8.890915
_cell_angle_alpha 90.000000
_cell_angle_beta 90.000000
_cell_angle_gamma 90.000000
_cell_volume 2402.168885
_symmetry_space_group_name_H-M "P M M A"
_symmetry_group_IT_number 51
_symmetry_cell_setting 'orthorhombic'
loop_
_space_group_symop_operation_xyz
x,y,z
1/2-x,-y,z
1/2+x,-y,-z
-x,y,-z
-x,-y,-z
1/2+x,y,-z
1/2-x,y,z
x,-y,z
loop_
_atom_site_type_symbol
_atom_site_label
_atom_site_fract_x
_atom_site_fract_y
_atom_site_fract_z
Si Si1 0.495238 0.676118 0.324299
Si Si2 0.582275 0.823792 0.842710
Si Si3 0.670287 0.822210 0.667275
Si Si4 0.835344 0.180282 0.325092
Si Si5 0.416837 0.678171 0.837342
Si Si6 0.750000 0.678393 0.832720
Si Si7 0.250000 0.818718 0.840655
O O1 0.500000 0.703886 0.500000
O O2 0.484719 0.500000 0.287116
O O3 0.456726 0.782453 0.267683
O O4 0.539096 0.729746 0.243406
O O5 0.626702 0.789453 0.757548
O O6 0.578934 0.000000 0.890052
O O7 0.579821 0.719293 0.988612
O O8 0.663677 0.764490 0.497131
O O9 0.707850 0.722470 0.739072
O O10 0.683451 0.000000 0.672311
O O11 0.877216 0.237059 0.238839
O O12 0.792368 0.245950 0.244391
O O13 0.835434 0.000000 0.316743
O O14 0.409025 0.500000 0.818609
O O15 0.750000 0.500000 0.865407
O O16 0.750000 0.766174 0.988920
O O17 0.250000 0.000000 0.838164
#
# Coordination Sequence:
#
# PCOD8213921 Si02
#       7
#     8   8   8   8   8   4   4
#     4  10  22  40  60  83 115 154 192 235 292 349
#     4  11  23  38  60  88 116 151 195 240 285 340
#     4  10  22  41  62  85 116 152 190 236 290 341
#     4  10  21  39  63  87 112 148 193 238 285 339
#     4  11  23  38  58  85 118 154 190 234 289 345
#     4  12  25  38  58  88 118 152 193 234 278 336
#     4  10  21  38  60  84 112 148 187 230 284 338
#
# _framework density 19.981942
#
# number of rings (size 3 to 8) (size 9 to 14) (size 15 to 20)
#    0.000    1.500    0.000    4.750    0.000   11.667 
#    0.000    0.833    0.000    0.000    0.000    0.000 
#    0.000    0.000    0.000    0.000    0.000    0.000 
#
# Total GULP energy -595500.972233 kJ/mol
# GULP energy per Si atom -12406.270255 kJ/mol
# Density = 1.993646 g / cm^3
# Si number density = 19.981942 Si / 1000 Ang^3
#
#
#
# Elastic Constant Matrix: (Units=GPa)
#
#
# Indices 1 2 3 4 5 6 
#
# 1 137.5945 23.3606 43.9265 0.0000 0.0000 0.0000
# 2 23.3606 10.5369 9.1057 0.0000 0.0000 0.0000
# 3 43.9265 9.1057 114.2196 0.0000 0.0000 0.0000
# 4 0.0000 0.0000 0.0000 24.3753 0.0000 0.0000
# 5 0.0000 0.0000 0.0000 0.0000 37.9393 0.0000
# 6 0.0000 0.0000 0.0000 0.0000 0.0000 27.4848
#
#
#
# Elastic Compliance Matrix: (Units=1/GPa)
#
#
# Indices 1 2 3 4 5 6 
#
# 1 0.012422 -0.025143 -0.002773 0.000000 0.000000 0.000000
# 2 -0.025143 0.152819 -0.002513 0.000000 0.000000 0.000000
# 3 -0.002773 -0.002513 0.010022 0.000000 0.000000 0.000000
# 4 0.000000 0.000000 0.000000 0.041025 0.000000 0.000000
# 5 0.000000 0.000000 0.000000 0.000000 0.026358 0.000000
# 6 0.000000 0.000000 0.000000 0.000000 0.000000 0.036384
#
#
# Mechanical properties :
#
#
# Convention : Reuss Voigt Hill
#
# Bulk Modulus (GPa) = 8.74096 46.12630 27.43363
# Shear Modulus (GPa) = 13.22675 30.35707 21.79191
#
# Velocity S-wave (km/s) = 2.57560 3.90195 3.30598
# Velocity P-wave (km/s) = 3.63715 6.59048 5.32275
#
# Compressibility (1/GPa) = 0.11440393
#
# Stress axis : x y z
#
# Youngs Moduli (GPa) = 80.50462 6.54370 99.78294
#
# Poissons Ratio (x) = 0.16453 0.27667
# Poissons Ratio (y) = 2.02413 0.25080
# Poissons Ratio (z) = 0.22321 0.01645
#
# Static dielectric constant tensor:
#      x y z
#    x 3.833850 0.000000 0.000000 
#    y 0.000000 3.527640 0.000000 
#    z 0.000000 0.000000 3.833530 
# 
# 
# High freq. dielectric constant tensor:
#      x y z
#    x 1.798880 0.000000 0.000000 
#    y 0.000000 1.770740 0.000000 
#    z 0.000000 0.000000 1.799690 
# 
# From -- ./inp_files/12974.got.cif
#   From: 2010.03.12/outbox.cif.g09.slc.cpg/sg51_7_cif.got.tgz:12974.got - 2010.04.16 13:43:02.
