data_PCOD8213153
_publ_section_title
;
Structure prediction by ZEFSAII (Michael W. Deem and Ramdas Pophale) SiO2 
 PCOD8213153
Probable space group: P M M A
;
_chemical_formula_sum "Si O2"
_cell_formula_units_Z 40
_cell_length_a 26.401972
_cell_length_b 13.910938
_cell_length_c 4.971802
_cell_angle_alpha 90.000000
_cell_angle_beta 90.000000
_cell_angle_gamma 90.000000
_cell_volume 1826.024524
_symmetry_space_group_name_H-M "P M M A"
_symmetry_group_IT_number 51
_symmetry_cell_setting 'orthorhombic'
loop_
_space_group_symop_operation_xyz
x,y,z
1/2-x,-y,z
1/2+x,-y,-z
-x,y,-z
-x,-y,-z
1/2+x,y,-z
1/2-x,y,z
x,-y,z
loop_
_atom_site_type_symbol
_atom_site_label
_atom_site_fract_x
_atom_site_fract_y
_atom_site_fract_z
Si Si1 0.464919 0.608333 0.255758
Si Si2 0.595863 0.793149 0.854594
Si Si3 0.192674 0.277250 0.923447
Si Si4 0.307489 0.603808 0.437941
Si Si5 0.946929 0.887917 0.366026
O O1 0.500000 0.643853 0.500000
O O2 0.443547 0.500000 0.308044
O O3 0.418085 0.682071 0.218538
O O4 0.500000 0.608645 0.000000
O O5 0.594999 0.857213 0.585310
O O6 0.653226 0.802145 0.968037
O O7 0.557924 0.833066 0.082783
O O8 0.250000 0.234044 0.900914
O O9 0.169638 0.315811 0.639613
O O10 0.191264 0.365864 0.129136
O O11 0.250000 0.593572 0.539331
O O12 0.334797 0.500000 0.466612
O O13 0.000000 0.858995 0.500000
O O14 0.942558 0.000000 0.302380
#
# Coordination Sequence:
#
# PCOD8213153 Si02
#       5
#     8   8   8   8   8
#     4  10  21  36  54  81 118 156 193 231 276 342
#     4  12  22  38  63  88 119 158 195 236 295 354
#     4  10  21  35  53  81 116 156 199 242 288 339
#     4   9  17  31  50  73 108 154 202 249 287 319
#     4  11  24  42  66  93 116 141 185 248 309 360
#
# _framework density 21.905511000000001
#
# number of rings (size 3 to 8) (size 9 to 14) (size 15 to 20)
#    0.000    1.600    0.000    6.000    0.000    5.600 
#    0.000    2.000    0.000    3.600    0.000    0.000 
#    0.000    0.000    0.000    0.000    0.000    0.000 
#
# Total GULP energy -495915.713966 kJ/mol
# GULP energy per Si atom -12397.892849 kJ/mol
# Density = 2.185565 g / cm^3
# Si number density = 21.905511 Si / 1000 Ang^3
#
#
#
# Elastic Constant Matrix: (Units=GPa)
#
#
# Indices 1 2 3 4 5 6 
#
# 1 64.6267 20.5061 -9.3190 0.0000 0.0000 0.0000
# 2 20.5061 80.2632 14.3911 0.0000 0.0000 0.0000
# 3 -9.3190 14.3911 96.7280 0.0000 0.0000 0.0000
# 4 0.0000 0.0000 0.0000 27.0120 0.0000 0.0000
# 5 0.0000 0.0000 0.0000 0.0000 23.4752 0.0000
# 6 0.0000 0.0000 0.0000 0.0000 0.0000 14.8300
#
#
#
# Elastic Compliance Matrix: (Units=1/GPa)
#
#
# Indices 1 2 3 4 5 6 
#
# 1 0.017363 -0.004866 0.002397 0.000000 0.000000 0.000000
# 2 -0.004866 0.014164 -0.002576 0.000000 0.000000 0.000000
# 3 0.002397 -0.002576 0.010952 0.000000 0.000000 0.000000
# 4 0.000000 0.000000 0.000000 0.037021 0.000000 0.000000
# 5 0.000000 0.000000 0.000000 0.000000 0.042598 0.000000
# 6 0.000000 0.000000 0.000000 0.000000 0.000000 0.067431
#
#
# Mechanical properties :
#
#
# Convention : Reuss Voigt Hill
#
# Bulk Modulus (GPa) = 30.87443 32.53046 31.70244
# Shear Modulus (GPa) = 23.76249 27.46609 25.61429
#
# Velocity S-wave (km/s) = 3.29716 3.54481 3.42322
# Velocity P-wave (km/s) = 5.34977 5.62466 5.48893
#
# Compressibility (1/GPa) = 0.03238926
#
# Stress axis : x y z
#
# Youngs Moduli (GPa) = 57.59384 70.60147 91.30385
#
# Poissons Ratio (x) = 0.34353 -0.21883
# Poissons Ratio (y) = 0.28023 0.23521
# Poissons Ratio (z) = -0.13804 0.18188
#
# Static dielectric constant tensor:
#      x y z
#    x 3.873260 0.000000 0.000000 
#    y 0.000000 3.818670 0.000000 
#    z 0.000000 0.000000 4.082440 
# 
# 
# High freq. dielectric constant tensor:
#      x y z
#    x 1.845700 0.000000 0.000000 
#    y 0.000000 1.830410 0.000000 
#    z 0.000000 0.000000 1.886310 
# 
# From -- ./inp_files/3914.got.cif
#   From: 2010.03.12/outbox.cif.g09.slc.cpg/sg51_2_cif.got.tgz:3914.got - 2010.04.16 13:43:02.
