data_PCOD8213696
_publ_section_title
;
Structure prediction by ZEFSAII (Michael W. Deem and Ramdas Pophale) SiO2 
 PCOD8213696
Probable space group: P M M A
;
_chemical_formula_sum "Si O2"
_cell_formula_units_Z 40
_cell_length_a 17.625728
_cell_length_b 9.048948
_cell_length_c 12.651840
_cell_angle_alpha 90.000000
_cell_angle_beta 90.000000
_cell_angle_gamma 90.000000
_cell_volume 2017.896316
_symmetry_space_group_name_H-M "P M M A"
_symmetry_group_IT_number 51
_symmetry_cell_setting 'orthorhombic'
loop_
_space_group_symop_operation_xyz
x,y,z
1/2-x,-y,z
1/2+x,-y,-z
-x,y,-z
-x,-y,-z
1/2+x,y,-z
1/2-x,y,z
x,-y,z
loop_
_atom_site_type_symbol
_atom_site_label
_atom_site_fract_x
_atom_site_fract_y
_atom_site_fract_z
Si Si1 0.663625 0.670457 0.987567
Si Si2 0.337572 0.829505 0.620599
Si Si3 0.162063 0.672838 0.406770
Si Si4 0.576551 0.829734 0.170568
Si Si5 0.401071 0.828896 0.208106
O O1 0.750000 0.691695 0.025521
O O2 0.643873 0.500000 0.968260
O O3 0.608223 0.732661 0.076043
O O4 0.653415 0.754896 0.877525
O O5 0.250000 0.803130 0.649747
O O6 0.362715 0.731711 0.521289
O O7 0.387287 0.776063 0.719493
O O8 0.353618 0.000000 0.592902
O O9 0.250000 0.709938 0.385232
O O10 0.145803 0.500000 0.401725
O O11 0.110817 0.753799 0.320953
O O12 0.487175 0.805761 0.172812
O O13 0.598093 0.000000 0.149069
O O14 0.379782 0.000000 0.217639
#
# Coordination Sequence:
#
# PCOD8213696 Si02
#       5
#     8   8   8   8   8
#     4  11  24  40  59  84 113 146 186 231 279 333
#     4   9  18  35  59  83 109 145 187 229 274 326
#     4  10  21  37  57  82 113 148 188 233 278 328
#     4  10  22  39  59  85 115 147 186 231 278 331
#     4  11  23  38  58  84 114 148 187 231 279 332
#
# _framework density 19.822623
#
# number of rings (size 3 to 8) (size 9 to 14) (size 15 to 20)
#    0.000    1.800    0.000    3.600    0.000   11.600 
#    0.000    6.000    0.000    0.000    0.000    0.000 
#    0.000    0.000    0.000    0.000    0.000    0.000 
#
# Total GULP energy -496276.568398 kJ/mol
# GULP energy per Si atom -12406.914210 kJ/mol
# Density = 1.977751 g / cm^3
# Si number density = 19.822623 Si / 1000 Ang^3
#
#
#
# Elastic Constant Matrix: (Units=GPa)
#
#
# Indices 1 2 3 4 5 6 
#
# 1 45.9239 33.4167 24.1994 0.0000 0.0000 0.0000
# 2 33.4167 102.1443 53.0828 0.0000 0.0000 0.0000
# 3 24.1994 53.0828 105.5100 0.0000 0.0000 0.0000
# 4 0.0000 0.0000 0.0000 -217.1722 0.0000 0.0000
# 5 0.0000 0.0000 0.0000 0.0000 -9.1629 0.0000
# 6 0.0000 0.0000 0.0000 0.0000 0.0000 20.2966
#
#
#
# Elastic Compliance Matrix: (Units=1/GPa)
#
#
# Indices 1 2 3 4 5 6 
#
# 1 0.029076 -0.008187 -0.002550 0.000000 0.000000 0.000000
# 2 -0.008187 0.015561 -0.005951 0.000000 0.000000 0.000000
# 3 -0.002550 -0.005951 0.013057 0.000000 0.000000 0.000000
# 4 0.000000 0.000000 0.000000 -0.004605 0.000000 0.000000
# 5 0.000000 0.000000 0.000000 0.000000 -0.109135 0.000000
# 6 0.000000 0.000000 0.000000 0.000000 0.000000 0.049269
#
#
# Mechanical properties :
#
#
# Convention : Reuss Voigt Hill
#
# Bulk Modulus (GPa) = 41.12223 52.77512 46.94867
# Shear Modulus (GPa) = 144.06768 -31.68241 56.19264
#
# Velocity S-wave (km/s) = 8.53441 -4.00221 5.33003
# Velocity P-wave (km/s) = 10.85841 2.30751 7.84951
#
# Compressibility (1/GPa) = 0.02431775
#
# Stress axis : x y z
#
# Youngs Moduli (GPa) = 34.39239 64.26198 76.58928
#
# Poissons Ratio (x) = 0.52613 0.19528
# Poissons Ratio (y) = 0.28158 0.45580
# Poissons Ratio (z) = 0.08769 0.38244
#
# Static dielectric constant tensor:
#      x y z
#    x 3.563180 0.000000 0.000000 
#    y 0.000000 3.645710 0.000000 
#    z 0.000000 0.000000 3.650310 
# 
# 
# High freq. dielectric constant tensor:
#      x y z
#    x 1.772380 0.000000 0.000000 
#    y 0.000000 1.777380 0.000000 
#    z 0.000000 0.000000 1.784480 
# 
# From -- ./inp_files/17050.got.cif
#   From: 2010.03.12/outbox.cif.g09.slc.cpg/sg51_9_cif.got.tgz:17050.got - 2010.04.16 13:43:02.
