data_PCOD8213890
_publ_section_title
;
Structure prediction by ZEFSAII (Michael W. Deem and Ramdas Pophale) SiO2 
 PCOD8213890
Probable space group: P M M A
;
_chemical_formula_sum "Si O2"
_cell_formula_units_Z 56
_cell_length_a 8.736503
_cell_length_b 15.789439
_cell_length_c 19.511718
_cell_angle_alpha 90.000000
_cell_angle_beta 90.000000
_cell_angle_gamma 90.000000
_cell_volume 2691.533817
_symmetry_space_group_name_H-M "P M M A"
_symmetry_group_IT_number 51
_symmetry_cell_setting 'orthorhombic'
loop_
_space_group_symop_operation_xyz
x,y,z
1/2-x,-y,z
1/2+x,-y,-z
-x,y,-z
-x,-y,-z
1/2+x,y,-z
1/2-x,y,z
x,-y,z
loop_
_atom_site_type_symbol
_atom_site_label
_atom_site_fract_x
_atom_site_fract_y
_atom_site_fract_z
Si Si1 0.927022 0.906356 0.665665
Si Si2 0.069515 0.338216 0.212952
Si Si3 0.069206 0.250941 0.425341
Si Si4 0.430095 0.596252 0.068446
Si Si5 0.076922 0.899535 0.069766
Si Si6 0.929357 0.161744 0.207595
Si Si7 0.427574 0.404291 0.656720
O O1 0.750000 0.890509 0.684286
O O2 0.987816 0.833006 0.614929
O O3 0.024685 0.907718 0.736005
O O4 0.948796 0.000000 0.632147
O O5 0.250000 0.351986 0.219804
O O6 0.011003 0.355369 0.135748
O O7 0.023083 0.243604 0.232270
O O8 0.986969 0.401624 0.265183
O O9 0.250000 0.251601 0.431008
O O10 0.000000 0.246672 0.500000
O O11 0.018771 0.337609 0.389219
O O12 0.250000 0.601868 0.062833
O O13 0.487866 0.500000 0.074411
O O14 0.500000 0.638924 0.000000
O O15 0.250000 0.863611 0.075092
O O16 0.976645 0.866692 0.132226
O O17 0.078707 0.000000 0.070673
O O18 0.000000 0.865802 0.000000
O O19 0.750000 0.180074 0.208377
O O20 0.250000 0.379947 0.654468
O O21 0.454344 0.500000 0.629118
#
# Coordination Sequence:
#
# PCOD8213890 Si02
#       7
#     8   8   8   8   8   8   8
#     4  10  22  42  67  95 128 169 214 259 312 373
#     4  11  22  38  60  86 120 162 209 262 317 374
#     4  11  24  43  69  98 133 172 209 257 310 370
#     4   9  19  35  55  80 111 150 198 251 307 368
#     4  10  21  38  59  83 115 156 205 262 321 382
#     4  12  24  37  58  88 123 162 209 262 316 375
#     4  11  24  42  66  97 131 167 211 263 317 378
#
# _framework density 20.805982
#
# number of rings (size 3 to 8) (size 9 to 14) (size 15 to 20)
#    0.000    1.429    1.429    3.857    0.000    7.429 
#    0.000    2.857    0.000    0.000    0.000    0.000 
#    0.000    0.000    0.000    0.000    0.000    0.000 
#
# Total GULP energy -694536.978334 kJ/mol
# GULP energy per Si atom -12402.446042 kJ/mol
# Density = 2.075863 g / cm^3
# Si number density = 20.805982 Si / 1000 Ang^3
#
#
#
# Elastic Constant Matrix: (Units=GPa)
#
#
# Indices 1 2 3 4 5 6 
#
# 1 68.2326 28.6365 41.7286 0.0000 0.0000 0.0000
# 2 28.6365 101.7526 52.9287 0.0000 0.0000 0.0000
# 3 41.7286 52.9287 141.9701 0.0000 0.0000 0.0000
# 4 0.0000 0.0000 0.0000 31.9180 0.0000 0.0000
# 5 0.0000 0.0000 0.0000 0.0000 37.2319 0.0000
# 6 0.0000 0.0000 0.0000 0.0000 0.0000 25.9557
#
#
#
# Elastic Compliance Matrix: (Units=1/GPa)
#
#
# Indices 1 2 3 4 5 6 
#
# 1 0.018559 -0.002960 -0.004352 0.000000 0.000000 0.000000
# 2 -0.002960 0.012664 -0.003851 0.000000 0.000000 0.000000
# 3 -0.004352 -0.003851 0.009759 0.000000 0.000000 0.000000
# 4 0.000000 0.000000 0.000000 0.031330 0.000000 0.000000
# 5 0.000000 0.000000 0.000000 0.000000 0.026859 0.000000
# 6 0.000000 0.000000 0.000000 0.000000 0.000000 0.038527
#
#
# Mechanical properties :
#
#
# Convention : Reuss Voigt Hill
#
# Bulk Modulus (GPa) = 53.60041 62.06032 57.83036
# Shear Modulus (GPa) = 30.07659 31.59856 30.83757
#
# Velocity S-wave (km/s) = 3.80620 3.90131 3.85405
# Velocity P-wave (km/s) = 6.71819 7.08424 6.90364
#
# Compressibility (1/GPa) = 0.01865657
#
# Stress axis : x y z
#
# Youngs Moduli (GPa) = 53.88182 78.96332 102.47282
#
# Poissons Ratio (x) = 0.23370 0.44592
# Poissons Ratio (y) = 0.15947 0.39467
# Poissons Ratio (z) = 0.23447 0.30413
#
# Static dielectric constant tensor:
#      x y z
#    x 3.756360 0.000000 0.000000 
#    y 0.000000 3.842600 0.000000 
#    z 0.000000 0.000000 3.879410 
# 
# 
# High freq. dielectric constant tensor:
#      x y z
#    x 1.815360 0.000000 0.000000 
#    y 0.000000 1.817870 0.000000 
#    z 0.000000 0.000000 1.817400 
# 
# From -- ./inp_files/31927.got.cif
#   From: 2010.03.12/outbox.cif.g09.slc.cpg/sg51_16_cif.got.tgz:31927.got - 2010.04.16 13:43:02.
