data_PCOD8213666
_publ_section_title
;
Structure prediction by ZEFSAII (Michael W. Deem and Ramdas Pophale) SiO2 
 PCOD8213666
Probable space group: P M M A
;
_chemical_formula_sum "Si O2"
_cell_formula_units_Z 36
_cell_length_a 8.883639
_cell_length_b 22.363436
_cell_length_c 9.435327
_cell_angle_alpha 90.000000
_cell_angle_beta 90.000000
_cell_angle_gamma 90.000000
_cell_volume 1874.504076
_symmetry_space_group_name_H-M "P M M A"
_symmetry_group_IT_number 51
_symmetry_cell_setting 'orthorhombic'
loop_
_space_group_symop_operation_xyz
x,y,z
1/2-x,-y,z
1/2+x,-y,-z
-x,y,-z
-x,-y,-z
1/2+x,y,-z
1/2-x,y,z
x,-y,z
loop_
_atom_site_type_symbol
_atom_site_label
_atom_site_fract_x
_atom_site_fract_y
_atom_site_fract_z
Si Si1 0.071160 0.888675 0.653427
Si Si2 0.424327 0.656684 0.144511
Si Si3 0.926197 0.204567 0.851614
Si Si4 0.926415 0.000000 0.153843
Si Si5 0.076966 0.434037 0.649946
O O1 0.250000 0.883504 0.637425
O O2 0.022514 0.942403 0.756859
O O3 0.000000 0.899970 0.500000
O O4 0.004788 0.828419 0.720692
O O5 0.250000 0.642868 0.131587
O O6 0.456199 0.725886 0.177159
O O7 0.493634 0.617193 0.266146
O O8 0.500000 0.636332 0.000000
O O9 0.750000 0.189045 0.857833
O O10 0.000000 0.184102 0.000000
O O11 0.750000 0.000000 0.129157
O O12 0.000000 0.000000 0.000000
O O13 0.250000 0.415640 0.633055
O O14 0.062135 0.500000 0.721937
O O15 0.000000 0.436743 0.500000
#
# Coordination Sequence:
#
# PCOD8213666 Si02
#       5
#     8   8   8   4   8
#     4  11  23  39  59  85 116 150 188 232 280 329
#     4  10  21  37  58  83 112 146 185 230 278 329
#     4  10  21  38  59  84 113 147 187 230 277 331
#     4  10  23  40  60  86 114 148 189 230 277 332
#     4  10  21  37  57  81 110 145 185 229 278 333
#
# _framework density 19.205079999999999
#
# number of rings (size 3 to 8) (size 9 to 14) (size 15 to 20)
#    0.000    1.778    0.000    3.667    0.000    8.889 
#    0.000    0.000    0.000    0.000    0.000    0.000 
#    0.000    0.000    0.000    0.000    0.000    0.000 
#
# Total GULP energy -446507.288364 kJ/mol
# GULP energy per Si atom -12402.980232 kJ/mol
# Density = 1.916137 g / cm^3
# Si number density = 19.205080 Si / 1000 Ang^3
#
#
#
# Elastic Constant Matrix: (Units=GPa)
#
#
# Indices 1 2 3 4 5 6 
#
# 1 113.1622 59.0096 62.5056 0.0000 0.0000 0.0000
# 2 59.0096 87.4854 64.5251 0.0000 0.0000 0.0000
# 3 62.5056 64.5251 136.2257 0.0000 0.0000 0.0000
# 4 0.0000 0.0000 0.0000 39.3750 0.0000 0.0000
# 5 0.0000 0.0000 0.0000 0.0000 43.6866 0.0000
# 6 0.0000 0.0000 0.0000 0.0000 0.0000 35.6573
#
#
#
# Elastic Compliance Matrix: (Units=1/GPa)
#
#
# Indices 1 2 3 4 5 6 
#
# 1 0.014431 -0.007454 -0.003091 0.000000 0.000000 0.000000
# 2 -0.007454 0.021418 -0.006725 0.000000 0.000000 0.000000
# 3 -0.003091 -0.006725 0.011944 0.000000 0.000000 0.000000
# 4 0.000000 0.000000 0.000000 0.025397 0.000000 0.000000
# 5 0.000000 0.000000 0.000000 0.000000 0.022890 0.000000
# 6 0.000000 0.000000 0.000000 0.000000 0.000000 0.028045
#
#
# Mechanical properties :
#
#
# Convention : Reuss Voigt Hill
#
# Bulk Modulus (GPa) = 75.44869 78.77268 77.11068
# Shear Modulus (GPa) = 30.65915 33.79931 32.22923
#
# Velocity S-wave (km/s) = 3.99984 4.19969 4.10098
# Velocity P-wave (km/s) = 7.79120 8.03879 7.91596
#
# Compressibility (1/GPa) = 0.01325404
#
# Stress axis : x y z
#
# Youngs Moduli (GPa) = 69.29416 46.68883 83.72290
#
# Poissons Ratio (x) = 0.34804 0.25876
# Poissons Ratio (y) = 0.51655 0.56301
# Poissons Ratio (z) = 0.21417 0.31397
#
# Static dielectric constant tensor:
#      x y z
#    x 3.667610 0.000000 0.000000 
#    y 0.000000 3.670360 0.000000 
#    z 0.000000 0.000000 3.461840 
# 
# 
# High freq. dielectric constant tensor:
#      x y z
#    x 1.764450 0.000000 0.000000 
#    y 0.000000 1.757120 0.000000 
#    z 0.000000 0.000000 1.747970 
# 
# From -- ./inp_files/5034.got.cif
#   From: 2010.03.12/outbox.cif.g09.slc.cpg/sg51_3_cif.got.tgz:5034.got - 2010.04.16 13:43:02.
