data_PCOD8213029
_publ_section_title
;
Structure prediction by ZEFSAII (Michael W. Deem and Ramdas Pophale) SiO2 
 PCOD8213029
Probable space group: P M M A
;
_chemical_formula_sum "Si O2"
_cell_formula_units_Z 48
_cell_length_a 18.763084
_cell_length_b 9.499787
_cell_length_c 15.349951
_cell_angle_alpha 90.000000
_cell_angle_beta 90.000000
_cell_angle_gamma 90.000000
_cell_volume 2736.056643
_symmetry_space_group_name_H-M "P M M A"
_symmetry_group_IT_number 51
_symmetry_cell_setting 'orthorhombic'
loop_
_space_group_symop_operation_xyz
x,y,z
1/2-x,-y,z
1/2+x,-y,-z
-x,y,-z
-x,-y,-z
1/2+x,y,-z
1/2-x,y,z
x,-y,z
loop_
_atom_site_type_symbol
_atom_site_label
_atom_site_fract_x
_atom_site_fract_y
_atom_site_fract_z
Si Si1 0.832110 0.163265 0.832602
Si Si2 0.920027 0.332237 0.497918
Si Si3 0.417400 0.835233 0.997371
Si Si4 0.167068 0.336509 0.856284
Si Si5 0.328829 0.333045 0.660751
Si Si6 0.167464 0.336645 0.335569
O O1 0.750000 0.195426 0.856220
O O2 0.857056 0.251317 0.749131
O O3 0.843714 0.000000 0.810959
O O4 0.880512 0.212698 0.912950
O O5 0.919804 0.500000 0.495119
O O6 0.882638 0.270512 0.411109
O O7 0.877917 0.279817 0.583028
O O8 0.000000 0.272315 0.500000
O O9 0.381496 0.755207 0.918252
O O10 0.405991 0.000000 0.981604
O O11 0.500000 0.793993 0.000000
O O12 0.250000 0.304202 0.873595
O O13 0.150873 0.500000 0.872969
O O14 0.145982 0.292412 0.757823
O O15 0.250000 0.271245 0.642683
O O16 0.325147 0.500000 0.652968
O O17 0.250000 0.309877 0.357514
O O18 0.152251 0.500000 0.317106
#
# Coordination Sequence:
#
# PCOD8213029 Si02
#       6
#     8   8   8   8   8   8
#     4   9  18  33  51  68  89 122 159 192 233 284
#     4   9  16  25  40  65  95 124 152 183 223 273
#     4  10  21  35  50  70  97 129 162 195 237 291
#     4   9  18  32  51  74  96 122 160 202 242 284
#     4   8  14  26  43  62  87 119 152 187 229 276
#     4   9  17  29  47  71  94 117 151 194 232 266
#
# _framework density 17.543496999999999
#
# number of rings (size 3 to 8) (size 9 to 14) (size 15 to 20)
#    0.000    3.000    0.000    2.000    0.000    5.333 
#    0.000    3.333    0.000    1.500    0.000    2.333 
#    0.000    0.000    0.000    0.000    0.000    0.000 
#
# Total GULP energy -595153.975108 kJ/mol
# GULP energy per Si atom -12399.041148 kJ/mol
# Density = 1.750357 g / cm^3
# Si number density = 17.543497 Si / 1000 Ang^3
#
#
#
# Elastic Constant Matrix: (Units=GPa)
#
#
# Indices 1 2 3 4 5 6 
#
# 1 123.7956 37.8951 106.8225 0.0000 0.0000 0.0000
# 2 37.8951 32.0531 51.1771 0.0000 0.0000 0.0000
# 3 106.8225 51.1771 182.4875 0.0000 0.0000 0.0000
# 4 0.0000 0.0000 0.0000 7.4919 0.0000 0.0000
# 5 0.0000 0.0000 0.0000 0.0000 13.4996 0.0000
# 6 0.0000 0.0000 0.0000 0.0000 0.0000 16.7649
#
#
#
# Elastic Compliance Matrix: (Units=1/GPa)
#
#
# Indices 1 2 3 4 5 6 
#
# 1 0.017329 -0.007771 -0.007965 0.000000 0.000000 0.000000
# 2 -0.007771 0.059979 -0.012272 0.000000 0.000000 0.000000
# 3 -0.007965 -0.012272 0.013584 0.000000 0.000000 0.000000
# 4 0.000000 0.000000 0.000000 0.133478 0.000000 0.000000
# 5 0.000000 0.000000 0.000000 0.000000 0.074076 0.000000
# 6 0.000000 0.000000 0.000000 0.000000 0.000000 0.059649
#
#
# Mechanical properties :
#
#
# Convention : Reuss Voigt Hill
#
# Bulk Modulus (GPa) = 28.67213 81.12505 54.89859
# Shear Modulus (GPa) = 11.74439 17.04737 14.39588
#
# Velocity S-wave (km/s) = 2.59017 3.12062 2.86769
# Velocity P-wave (km/s) = 5.03232 7.70240 6.50581
#
# Compressibility (1/GPa) = 0.03487707
#
# Stress axis : x y z
#
# Youngs Moduli (GPa) = 57.70551 16.67250 73.61804
#
# Poissons Ratio (x) = 0.12956 0.58635
# Poissons Ratio (y) = 0.44843 0.90342
# Poissons Ratio (z) = 0.45961 0.20460
#
# Static dielectric constant tensor:
#      x y z
#    x 3.509000 0.000000 0.000000 
#    y 0.000000 2.863890 0.000000 
#    z 0.000000 0.000000 3.428360 
# 
# 
# High freq. dielectric constant tensor:
#      x y z
#    x 1.678930 0.000000 0.000000 
#    y 0.000000 1.634400 0.000000 
#    z 0.000000 0.000000 1.691140 
# 
# From -- ./inp_files/24804.got.cif
#   From: 2010.03.12/outbox.cif.g09.slc.cpg/sg51_13_cif.got.tgz:24804.got - 2010.04.16 13:43:02.
