data_PCOD8213467
_publ_section_title
;
Structure prediction by ZEFSAII (Michael W. Deem and Ramdas Pophale) SiO2 
 PCOD8213467
Probable space group: P M M A
;
_chemical_formula_sum "Si O2"
_cell_formula_units_Z 56
_cell_length_a 15.048507
_cell_length_b 8.872258
_cell_length_c 21.306758
_cell_angle_alpha 90.000000
_cell_angle_beta 90.000000
_cell_angle_gamma 90.000000
_cell_volume 2844.755529
_symmetry_space_group_name_H-M "P M M A"
_symmetry_group_IT_number 51
_symmetry_cell_setting 'orthorhombic'
loop_
_space_group_symop_operation_xyz
x,y,z
1/2-x,-y,z
1/2+x,-y,-z
-x,y,-z
-x,-y,-z
1/2+x,y,-z
1/2-x,y,z
x,-y,z
loop_
_atom_site_type_symbol
_atom_site_label
_atom_site_fract_x
_atom_site_fract_y
_atom_site_fract_z
Si Si1 0.999964 0.675639 0.150946
Si Si2 0.395273 0.326674 0.501571
Si Si3 0.001270 0.675857 0.295179
Si Si4 0.850298 0.827659 0.370306
Si Si5 0.851252 0.177157 0.074055
Si Si6 0.649760 0.827680 0.623937
Si Si7 0.149459 0.677332 0.055448
O O1 0.982253 0.500000 0.140374
O O2 0.019930 0.713599 0.222941
O O3 0.085588 0.730742 0.111632
O O4 0.911894 0.763076 0.130227
O O5 0.500000 0.305148 0.500000
O O6 0.367848 0.500000 0.491915
O O7 0.358563 0.271056 0.567550
O O8 0.351368 0.226990 0.447643
O O9 0.984517 0.500000 0.307037
O O10 0.087286 0.723856 0.334096
O O11 0.914259 0.765489 0.316385
O O12 0.750000 0.815718 0.344539
O O13 0.875863 0.000000 0.385734
O O14 0.750000 0.226589 0.088054
O O15 0.860597 0.000000 0.069250
O O16 0.884258 0.246354 0.008405
O O17 0.750000 0.813737 0.649681
O O18 0.616483 0.000000 0.626880
O O19 0.250000 0.728557 0.071930
O O20 0.144245 0.500000 0.045240
#
# Coordination Sequence:
#
# PCOD8213467 Si02
#       7
#     8   8   8   8   8   8   8
#     4  10  22  38  58  84 114 150 194 236 281 337
#     4  11  22  37  62  93 120 148 187 239 295 344
#     4  11  24  41  60  85 116 154 197 243 290 338
#     4  11  24  41  62  87 116 153 194 238 292 350
#     4  10  21  36  56  85 118 150 187 233 284 337
#     4  11  24  41  62  88 118 154 194 236 288 348
#     4   9  18  35  59  85 114 148 186 231 283 337
#
# _framework density 19.685348999999999
#
# number of rings (size 3 to 8) (size 9 to 14) (size 15 to 20)
#    0.000    1.571    1.429    3.000    0.000   10.000 
#    0.000    4.286    0.000    1.714    0.000    0.000 
#    0.000    0.000    0.000    0.000    0.000    0.000 
#
# Total GULP energy -694711.653498 kJ/mol
# GULP energy per Si atom -12405.565241 kJ/mol
# Density = 1.964054 g / cm^3
# Si number density = 19.685349 Si / 1000 Ang^3
#
#
#
# Elastic Constant Matrix: (Units=GPa)
#
#
# Indices 1 2 3 4 5 6 
#
# 1 96.0117 31.8084 30.6752 0.0000 0.0000 0.0000
# 2 31.8084 56.7642 19.4710 0.0000 0.0000 0.0000
# 3 30.6752 19.4710 80.7518 0.0000 0.0000 0.0000
# 4 0.0000 0.0000 0.0000 5.6206 0.0000 0.0000
# 5 0.0000 0.0000 0.0000 0.0000 11.2080 0.0000
# 6 0.0000 0.0000 0.0000 0.0000 0.0000 9.3518
#
#
#
# Elastic Compliance Matrix: (Units=1/GPa)
#
#
# Indices 1 2 3 4 5 6 
#
# 1 0.013715 -0.006430 -0.003659 0.000000 0.000000 0.000000
# 2 -0.006430 0.022220 -0.002915 0.000000 0.000000 0.000000
# 3 -0.003659 -0.002915 0.014477 0.000000 0.000000 0.000000
# 4 0.000000 0.000000 0.000000 0.177916 0.000000 0.000000
# 5 0.000000 0.000000 0.000000 0.000000 0.089222 0.000000
# 6 0.000000 0.000000 0.000000 0.000000 0.000000 0.106931
#
#
# Mechanical properties :
#
#
# Convention : Reuss Voigt Hill
#
# Bulk Modulus (GPa) = 40.97996 44.15963 42.56980
# Shear Modulus (GPa) = 10.90218 15.34095 13.12157
#
# Velocity S-wave (km/s) = 2.35590 2.79464 2.58459
# Velocity P-wave (km/s) = 5.31630 5.73540 5.52982
#
# Compressibility (1/GPa) = 0.02440217
#
# Stress axis : x y z
#
# Youngs Moduli (GPa) = 72.91394 45.00495 69.07683
#
# Poissons Ratio (x) = 0.28938 0.25278
# Poissons Ratio (y) = 0.46884 0.20137
# Poissons Ratio (z) = 0.26682 0.13119
#
# Static dielectric constant tensor:
#      x y z
#    x 3.399670 0.000000 0.000000 
#    y 0.000000 3.658320 0.000000 
#    z 0.000000 0.000000 3.524110 
# 
# 
# High freq. dielectric constant tensor:
#      x y z
#    x 1.780440 0.000000 0.000000 
#    y 0.000000 1.774100 0.000000 
#    z 0.000000 0.000000 1.759530 
# 
# From -- ./inp_files/33394.got.cif
#   From: 2010.03.12/outbox.cif.g09.slc.cpg/sg51_17_cif.got.tgz:33394.got - 2010.04.16 13:43:02.
