data_PCOD8213420
_publ_section_title
;
Structure prediction by ZEFSAII (Michael W. Deem and Ramdas Pophale) SiO2 
 PCOD8213420
Probable space group: P M M A
;
_chemical_formula_sum "Si O2"
_cell_formula_units_Z 56
_cell_length_a 9.051835
_cell_length_b 14.260892
_cell_length_c 20.951621
_cell_angle_alpha 90.000000
_cell_angle_beta 90.000000
_cell_angle_gamma 90.000000
_cell_volume 2704.586956
_symmetry_space_group_name_H-M "P M M A"
_symmetry_group_IT_number 51
_symmetry_cell_setting 'orthorhombic'
loop_
_space_group_symop_operation_xyz
x,y,z
1/2-x,-y,z
1/2+x,-y,-z
-x,y,-z
-x,-y,-z
1/2+x,y,-z
1/2-x,y,z
x,-y,z
loop_
_atom_site_type_symbol
_atom_site_label
_atom_site_fract_x
_atom_site_fract_y
_atom_site_fract_z
Si Si1 0.077318 0.891448 0.687417
Si Si2 0.424669 0.220102 0.562740
Si Si3 0.088333 0.389431 0.244430
Si Si4 0.424671 0.774915 0.063095
Si Si5 0.578477 0.391054 0.120887
Si Si6 0.923587 0.607415 0.613498
Si Si7 0.576181 0.893236 0.814626
O O1 0.250000 0.876377 0.697772
O O2 0.021697 0.837910 0.624407
O O3 0.996100 0.850590 0.750343
O O4 0.035855 0.000000 0.678080
O O5 0.500000 0.174702 0.500000
O O6 0.250000 0.217310 0.554639
O O7 0.480701 0.327373 0.567321
O O8 0.250000 0.345811 0.226632
O O9 0.106777 0.500000 0.246552
O O10 0.037367 0.358056 0.314642
O O11 0.968479 0.359047 0.192179
O O12 0.250000 0.774923 0.054340
O O13 0.483751 0.668597 0.070694
O O14 0.476867 0.835490 0.123770
O O15 0.500000 0.818761 0.000000
O O16 0.750000 0.368991 0.111887
O O17 0.542193 0.500000 0.109012
O O18 0.750000 0.620001 0.600075
O O19 0.971980 0.500000 0.601991
O O20 0.750000 0.886787 0.806259
O O21 0.523066 0.000000 0.824619
#
# Coordination Sequence:
#
# PCOD8213420 Si02
#       7
#     8   8   8   8   8   8   8
#     4   9  20  40  64  90 119 150 188 236 291 349
#     4  11  24  39  57  85 118 156 198 242 292 347
#     4   8  15  30  52  78 107 142 186 235 288 340
#     4  11  24  40  59  86 119 157 197 240 290 346
#     4  10  21  36  55  81 115 155 198 243 289 340
#     4   9  19  36  57  81 113 154 197 241 290 344
#     4   9  20  40  65  92 119 149 189 235 287 349
#
# _framework density 20.705563999999999
#
# number of rings (size 3 to 8) (size 9 to 14) (size 15 to 20)
#    0.000    2.429    0.000    2.143    2.000    5.143 
#    0.000    1.429    0.000    0.000    0.000    0.000 
#    0.000    0.000    0.000    0.000    0.000    0.000 
#
# Total GULP energy -694427.182276 kJ/mol
# GULP energy per Si atom -12400.485398 kJ/mol
# Density = 2.065844 g / cm^3
# Si number density = 20.705564 Si / 1000 Ang^3
#
#
#
# Elastic Constant Matrix: (Units=GPa)
#
#
# Indices 1 2 3 4 5 6 
#
# 1 71.5269 33.8532 61.1476 0.0000 0.0000 0.0000
# 2 33.8532 67.6510 59.7811 0.0000 0.0000 0.0000
# 3 61.1476 59.7811 166.3691 0.0000 0.0000 0.0000
# 4 0.0000 0.0000 0.0000 26.5097 0.0000 0.0000
# 5 0.0000 0.0000 0.0000 0.0000 38.8960 0.0000
# 6 0.0000 0.0000 0.0000 0.0000 0.0000 22.2206
#
#
#
# Elastic Compliance Matrix: (Units=1/GPa)
#
#
# Indices 1 2 3 4 5 6 
#
# 1 0.021741 -0.005595 -0.005980 0.000000 0.000000 0.000000
# 2 -0.005595 0.023099 -0.006244 0.000000 0.000000 0.000000
# 3 -0.005980 -0.006244 0.010452 0.000000 0.000000 0.000000
# 4 0.000000 0.000000 0.000000 0.037722 0.000000 0.000000
# 5 0.000000 0.000000 0.000000 0.000000 0.025710 0.000000
# 6 0.000000 0.000000 0.000000 0.000000 0.000000 0.045003
#
#
# Mechanical properties :
#
#
# Convention : Reuss Voigt Hill
#
# Bulk Modulus (GPa) = 50.87892 68.34564 59.61228
# Shear Modulus (GPa) = 24.28162 27.57628 25.92895
#
# Velocity S-wave (km/s) = 3.42820 3.65338 3.54258
# Velocity P-wave (km/s) = 6.34791 7.13276 6.75175
#
# Compressibility (1/GPa) = 0.01965450
#
# Stress axis : x y z
#
# Youngs Moduli (GPa) = 45.99521 43.29224 95.67213
#
# Poissons Ratio (x) = 0.24221 0.57217
# Poissons Ratio (y) = 0.25733 0.59735
# Poissons Ratio (z) = 0.27507 0.27031
#
# Static dielectric constant tensor:
#      x y z
#    x 3.580850 0.000000 0.000000 
#    y 0.000000 3.696500 0.000000 
#    z 0.000000 0.000000 3.952790 
# 
# 
# High freq. dielectric constant tensor:
#      x y z
#    x 1.800750 0.000000 0.000000 
#    y 0.000000 1.802600 0.000000 
#    z 0.000000 0.000000 1.816440 
# 
# From -- ./inp_files/32002.got.cif
#   From: 2010.03.12/outbox.cif.g09.slc.cpg/sg51_17_cif.got.tgz:32002.got - 2010.04.16 13:43:02.
