data_PCOD8213811
_publ_section_title
;
Structure prediction by ZEFSAII (Michael W. Deem and Ramdas Pophale) SiO2 
 PCOD8213811
Probable space group: P M M A
;
_chemical_formula_sum "Si O2"
_cell_formula_units_Z 32
_cell_length_a 10.029305
_cell_length_b 13.310946
_cell_length_c 12.044994
_cell_angle_alpha 90.000000
_cell_angle_beta 90.000000
_cell_angle_gamma 90.000000
_cell_volume 1608.001125
_symmetry_space_group_name_H-M "P M M A"
_symmetry_group_IT_number 51
_symmetry_cell_setting 'orthorhombic'
loop_
_space_group_symop_operation_xyz
x,y,z
1/2-x,-y,z
1/2+x,-y,-z
-x,y,-z
-x,-y,-z
1/2+x,y,-z
1/2-x,y,z
x,-y,z
loop_
_atom_site_type_symbol
_atom_site_label
_atom_site_fract_x
_atom_site_fract_y
_atom_site_fract_z
Si Si1 0.750000 0.113708 0.568459
Si Si2 0.250000 0.113876 0.924842
Si Si3 0.500000 0.761152 0.000000
Si Si4 0.023155 0.733193 0.377742
Si Si5 0.750000 0.174933 0.322081
Si Si6 0.901547 0.387746 0.821802
O O1 0.617558 0.168305 0.614185
O O2 0.750000 0.108392 0.434160
O O3 0.750000 0.000000 0.614236
O O4 0.250000 0.111013 0.790763
O O5 0.124027 0.167938 0.978071
O O6 0.250000 0.000000 0.967322
O O7 0.514934 0.690063 0.893840
O O8 0.093395 0.646891 0.306176
O O9 0.000000 0.688192 0.500000
O O10 0.882354 0.757623 0.320931
O O11 0.750000 0.387855 0.863566
O O12 0.961928 0.500000 0.832672
#
# Coordination Sequence:
#
# PCOD8213811 Si02
#       6
#     4   4   4   8   4   8
#     4  10  21  37  60  90 125 166 205 240 302 375
#     4  12  25  41  65  90 126 168 205 250 308 363
#     4  12  24  46  62  92 128 156 212 260 300 362
#     4  10  21  39  62  92 126 157 199 256 303 363
#     4  10  21  38  60  88 127 156 201 252 301 354
#     4  11  23  42  67  92 121 165 206 254 314 365
#
# _framework density 19.900483000000001
#
# number of rings (size 3 to 8) (size 9 to 14) (size 15 to 20)
#    0.000    1.250    5.000    1.125    0.000    6.000 
#    0.000    3.125    0.000    0.000    0.000    0.000 
#    0.000    0.000    0.000    0.000    0.000    0.000 
#
# Total GULP energy -396834.988055 kJ/mol
# GULP energy per Si atom -12401.093377 kJ/mol
# Density = 1.985519 g / cm^3
# Si number density = 19.900483 Si / 1000 Ang^3
#
#
#
# Elastic Constant Matrix: (Units=GPa)
#
#
# Indices 1 2 3 4 5 6 
#
# 1 126.9181 55.5513 33.2286 0.0000 0.0000 0.0000
# 2 55.5513 155.8073 61.2956 0.0000 0.0000 0.0000
# 3 33.2286 61.2956 98.6666 0.0000 0.0000 0.0000
# 4 0.0000 0.0000 0.0000 16.8393 0.0000 0.0000
# 5 0.0000 0.0000 0.0000 0.0000 7.6577 0.0000
# 6 0.0000 0.0000 0.0000 0.0000 0.0000 6.4100
#
#
#
# Elastic Compliance Matrix: (Units=1/GPa)
#
#
# Indices 1 2 3 4 5 6 
#
# 1 0.009490 -0.002814 -0.001448 0.000000 0.000000 0.000000
# 2 -0.002814 0.009329 -0.004848 0.000000 0.000000 0.000000
# 3 -0.001448 -0.004848 0.013634 0.000000 0.000000 0.000000
# 4 0.000000 0.000000 0.000000 0.059385 0.000000 0.000000
# 5 0.000000 0.000000 0.000000 0.000000 0.130587 0.000000
# 6 0.000000 0.000000 0.000000 0.000000 0.000000 0.156006
#
#
# Mechanical properties :
#
#
# Convention : Reuss Voigt Hill
#
# Bulk Modulus (GPa) = 70.25471 75.72699 72.99085
# Shear Modulus (GPa) = 12.45659 21.60250 17.02955
#
# Velocity S-wave (km/s) = 2.50460 3.29831 2.92847
# Velocity P-wave (km/s) = 6.61390 7.25538 6.94206
#
# Compressibility (1/GPa) = 0.01423392
#
# Stress axis : x y z
#
# Youngs Moduli (GPa) = 105.37652 107.19815 73.34460
#
# Poissons Ratio (x) = 0.30164 0.10619
# Poissons Ratio (y) = 0.29652 0.35555
# Poissons Ratio (z) = 0.15257 0.51965
#
# Static dielectric constant tensor:
#      x y z
#    x 3.623060 0.000000 0.000000 
#    y 0.000000 3.428560 0.000000 
#    z 0.000000 0.000000 3.677400 
# 
# 
# High freq. dielectric constant tensor:
#      x y z
#    x 1.788010 0.000000 0.000000 
#    y 0.000000 1.761760 0.000000 
#    z 0.000000 0.000000 1.781440 
# 
# From -- ./inp_files/13866.got.cif
#   From: 2010.03.12/outbox.cif.g09.slc.cpg/sg51_7_cif.got.tgz:13866.got - 2010.04.16 13:43:02.
