data_PCOD8213731
_publ_section_title
;
Structure prediction by ZEFSAII (Michael W. Deem and Ramdas Pophale) SiO2 
 PCOD8213731
Probable space group: P M M A
;
_chemical_formula_sum "Si O2"
_cell_formula_units_Z 56
_cell_length_a 8.848862
_cell_length_b 14.428714
_cell_length_c 23.102122
_cell_angle_alpha 90.000000
_cell_angle_beta 90.000000
_cell_angle_gamma 90.000000
_cell_volume 2949.625780
_symmetry_space_group_name_H-M "P M M A"
_symmetry_group_IT_number 51
_symmetry_cell_setting 'orthorhombic'
loop_
_space_group_symop_operation_xyz
x,y,z
1/2-x,-y,z
1/2+x,-y,-z
-x,y,-z
-x,-y,-z
1/2+x,y,-z
1/2-x,y,z
x,-y,z
loop_
_atom_site_type_symbol
_atom_site_label
_atom_site_fract_x
_atom_site_fract_y
_atom_site_fract_z
Si Si1 0.576907 0.893196 0.241862
Si Si2 0.576230 0.392867 0.832241
Si Si3 0.424836 0.894741 0.891717
Si Si4 0.072482 0.606114 0.712307
Si Si5 0.427903 0.893942 0.560640
Si Si6 0.072700 0.777188 0.337987
Si Si7 0.572886 0.276519 0.941268
O O1 0.750000 0.863898 0.254434
O O2 0.534995 0.877407 0.175221
O O3 0.464538 0.830760 0.278869
O O4 0.554107 0.000000 0.259275
O O5 0.750000 0.367568 0.818179
O O6 0.558470 0.500000 0.848026
O O7 0.475847 0.365681 0.777127
O O8 0.513468 0.336339 0.887084
O O9 0.250000 0.872288 0.903143
O O10 0.526704 0.830148 0.931925
O O11 0.462424 0.000000 0.908735
O O12 0.250000 0.621128 0.706132
O O13 0.025572 0.500000 0.699153
O O14 0.987024 0.671672 0.666556
O O15 0.500000 0.864331 0.500000
O O16 0.250000 0.880876 0.556348
O O17 0.491566 0.826781 0.609128
O O18 0.470835 0.000000 0.576074
O O19 0.250000 0.776743 0.348987
O O20 0.750000 0.285628 0.947787
O O21 0.500000 0.315606 0.000000
#
# Coordination Sequence:
#
# PCOD8213731 Si02
#       7
#     8   8   8   8   8   8   8
#     4   9  18  33  53  78 108 140 174 216 267 320
#     4   9  19  37  58  80 107 135 165 208 265 324
#     4   9  19  36  55  73  97 131 169 212 263 315
#     4  10  21  37  58  83 109 140 179 222 270 324
#     4  10  21  38  59  83 115 154 194 234 272 313
#     4  12  23  33  52  82 115 150 185 223 268 318
#     4  11  23  36  52  74  99 131 170 212 258 310
#
# _framework density 18.985458999999999
#
# number of rings (size 3 to 8) (size 9 to 14) (size 15 to 20)
#    0.000    2.000    0.000    4.714    0.000    8.571 
#    0.000    1.429    0.000    0.429    0.000    0.000 
#    0.000    0.000    0.000    0.000    0.000    0.000 
#
# Total GULP energy -694626.464293 kJ/mol
# GULP energy per Si atom -12404.044005 kJ/mol
# Density = 1.894225 g / cm^3
# Si number density = 18.985459 Si / 1000 Ang^3
#
#
#
# Elastic Constant Matrix: (Units=GPa)
#
#
# Indices 1 2 3 4 5 6 
#
# 1 69.9290 31.1696 33.1310 0.0000 0.0000 0.0000
# 2 31.1696 88.5391 49.0993 0.0000 0.0000 0.0000
# 3 33.1310 49.0993 81.2353 0.0000 0.0000 0.0000
# 4 0.0000 0.0000 0.0000 17.0073 0.0000 0.0000
# 5 0.0000 0.0000 0.0000 0.0000 35.1833 0.0000
# 6 0.0000 0.0000 0.0000 0.0000 0.0000 29.4624
#
#
#
# Elastic Compliance Matrix: (Units=1/GPa)
#
#
# Indices 1 2 3 4 5 6 
#
# 1 0.018414 -0.003486 -0.005403 0.000000 0.000000 0.000000
# 2 -0.003486 0.017649 -0.009245 0.000000 0.000000 0.000000
# 3 -0.005403 -0.009245 0.020101 0.000000 0.000000 0.000000
# 4 0.000000 0.000000 0.000000 0.058798 0.000000 0.000000
# 5 0.000000 0.000000 0.000000 0.000000 0.028423 0.000000
# 6 0.000000 0.000000 0.000000 0.000000 0.000000 0.033942
#
#
# Mechanical properties :
#
#
# Convention : Reuss Voigt Hill
#
# Bulk Modulus (GPa) = 50.26312 51.83370 51.04841
# Shear Modulus (GPa) = 22.70392 24.75084 23.72738
#
# Velocity S-wave (km/s) = 3.46187 3.61456 3.53904
# Velocity P-wave (km/s) = 6.52008 6.69187 6.60653
#
# Compressibility (1/GPa) = 0.01989530
#
# Stress axis : x y z
#
# Youngs Moduli (GPa) = 54.30667 56.66140 49.74838
#
# Poissons Ratio (x) = 0.19755 0.26877
# Poissons Ratio (y) = 0.18934 0.45993
# Poissons Ratio (z) = 0.29340 0.52384
#
# Static dielectric constant tensor:
#      x y z
#    x 3.448520 0.000000 0.000000 
#    y 0.000000 3.579690 0.000000 
#    z 0.000000 0.000000 3.623980 
# 
# 
# High freq. dielectric constant tensor:
#      x y z
#    x 1.739260 0.000000 0.000000 
#    y 0.000000 1.740970 0.000000 
#    z 0.000000 0.000000 1.726200 
# 
# From -- ./inp_files/32034.got.cif
#   From: 2010.03.12/outbox.cif.g09.slc.cpg/sg51_17_cif.got.tgz:32034.got - 2010.04.16 13:43:02.
