data_PCOD8213847
_publ_section_title
;
Structure prediction by ZEFSAII (Michael W. Deem and Ramdas Pophale) SiO2 
 PCOD8213847
Probable space group: P M M A
;
_chemical_formula_sum "Si O2"
_cell_formula_units_Z 48
_cell_length_a 8.763567
_cell_length_b 30.704882
_cell_length_c 9.395712
_cell_angle_alpha 90.000000
_cell_angle_beta 90.000000
_cell_angle_gamma 90.000000
_cell_volume 2528.238499
_symmetry_space_group_name_H-M "P M M A"
_symmetry_group_IT_number 51
_symmetry_cell_setting 'orthorhombic'
loop_
_space_group_symop_operation_xyz
x,y,z
1/2-x,-y,z
1/2+x,-y,-z
-x,y,-z
-x,-y,-z
1/2+x,y,-z
1/2-x,y,z
x,-y,z
loop_
_atom_site_type_symbol
_atom_site_label
_atom_site_fract_x
_atom_site_fract_y
_atom_site_fract_z
Si Si1 0.072679 0.751722 0.148060
Si Si2 0.430351 0.178561 0.655735
Si Si3 0.430185 0.906925 0.343390
Si Si4 0.930749 0.418865 0.345356
Si Si5 0.427432 0.650311 0.149511
Si Si6 0.929670 0.500000 0.155663
Si Si7 0.427345 0.000000 0.347180
O O1 0.250000 0.763509 0.146785
O O2 0.044083 0.701038 0.177772
O O3 0.987148 0.778069 0.269084
O O4 0.000000 0.766115 0.000000
O O5 0.500000 0.179278 0.500000
O O6 0.250000 0.178445 0.649766
O O7 0.490244 0.134293 0.735530
O O8 0.500000 0.909384 0.500000
O O9 0.250000 0.898296 0.350452
O O10 0.468412 0.954044 0.267051
O O11 0.750000 0.416578 0.359534
O O12 0.984881 0.457785 0.242510
O O13 0.000000 0.426850 0.500000
O O14 0.992583 0.374049 0.279912
O O15 0.250000 0.638439 0.144497
O O16 0.500000 0.635433 0.000000
O O17 0.750000 0.500000 0.137823
O O18 0.000000 0.500000 0.000000
O O19 0.500000 0.000000 0.500000
O O20 0.250000 0.000000 0.378167
#
# Coordination Sequence:
#
# PCOD8213847 Si02
#       7
#     8   8   8   8   8   4   4
#     4  10  21  38  58  80 106 138 176 219 265 317
#     4  11  21  33  50  74 104 138 175 217 265 316
#     4   9  15  25  40  62  93 128 166 209 258 311
#     4  11  23  39  59  85 117 150 186 227 274 321
#     4  10  21  38  60  84 110 141 179 221 267 319
#     4  10  23  40  60  86 114 150 191 230 271 320
#     4   8  14  22  36  58  87 124 163 204 253 308
#
# _framework density 18.985551999999998
#
# number of rings (size 3 to 8) (size 9 to 14) (size 15 to 20)
#    0.000    2.000    0.000    5.250    0.000    6.000 
#    0.000    0.000    0.000    0.000    0.000    0.583 
#    0.000    0.000    0.000    0.000    0.000    0.000 
#
# Total GULP energy -594946.964659 kJ/mol
# GULP energy per Si atom -12394.728430 kJ/mol
# Density = 1.894234 g / cm^3
# Si number density = 18.985552 Si / 1000 Ang^3
#
#
#
# Elastic Constant Matrix: (Units=GPa)
#
#
# Indices 1 2 3 4 5 6 
#
# 1 124.8324 62.7337 49.6142 0.0000 0.0000 0.0000
# 2 62.7337 115.0986 61.7879 0.0000 0.0000 0.0000
# 3 49.6142 61.7879 98.1005 0.0000 0.0000 0.0000
# 4 0.0000 0.0000 0.0000 9.7433 0.0000 0.0000
# 5 0.0000 0.0000 0.0000 0.0000 31.7217 0.0000
# 6 0.0000 0.0000 0.0000 0.0000 0.0000 31.8282
#
#
#
# Elastic Compliance Matrix: (Units=1/GPa)
#
#
# Indices 1 2 3 4 5 6 
#
# 1 0.011530 -0.004765 -0.002830 0.000000 0.000000 0.000000
# 2 -0.004765 0.015096 -0.007098 0.000000 0.000000 0.000000
# 3 -0.002830 -0.007098 0.016096 0.000000 0.000000 0.000000
# 4 0.000000 0.000000 0.000000 0.102635 0.000000 0.000000
# 5 0.000000 0.000000 0.000000 0.000000 0.031524 0.000000
# 6 0.000000 0.000000 0.000000 0.000000 0.000000 0.031419
#
#
# Mechanical properties :
#
#
# Convention : Reuss Voigt Hill
#
# Bulk Modulus (GPa) = 74.99026 76.25590 75.62308
# Shear Modulus (GPa) = 20.64999 25.58502 23.11751
#
# Velocity S-wave (km/s) = 3.30156 3.67496 3.49325
# Velocity P-wave (km/s) = 7.35650 7.63279 7.49592
#
# Compressibility (1/GPa) = 0.01333506
#
# Stress axis : x y z
#
# Youngs Moduli (GPa) = 86.72813 66.24339 62.12902
#
# Poissons Ratio (x) = 0.31567 0.17583
# Poissons Ratio (y) = 0.41328 0.44099
# Poissons Ratio (z) = 0.24545 0.47019
#
# Static dielectric constant tensor:
#      x y z
#    x 3.649980 0.000000 0.000000 
#    y 0.000000 4.238890 0.000000 
#    z 0.000000 0.000000 3.131950 
# 
# 
# High freq. dielectric constant tensor:
#      x y z
#    x 1.753740 0.000000 0.000000 
#    y 0.000000 1.764820 0.000000 
#    z 0.000000 0.000000 1.695980 
# 
# From -- ./inp_files/6275.got.cif
#   From: 2010.03.12/outbox.cif.g09.slc.cpg/sg51_4_cif.got.tgz:6275.got - 2010.04.16 13:43:02.
