data_PCOD8213230
_publ_section_title
;
Structure prediction by ZEFSAII (Michael W. Deem and Ramdas Pophale) SiO2 
 PCOD8213230
Probable space group: P M M A
;
_chemical_formula_sum "Si O2"
_cell_formula_units_Z 48
_cell_length_a 9.305761
_cell_length_b 9.450371
_cell_length_c 30.899183
_cell_angle_alpha 90.000000
_cell_angle_beta 90.000000
_cell_angle_gamma 90.000000
_cell_volume 2717.363572
_symmetry_space_group_name_H-M "P M M A"
_symmetry_group_IT_number 51
_symmetry_cell_setting 'orthorhombic'
loop_
_space_group_symop_operation_xyz
x,y,z
1/2-x,-y,z
1/2+x,-y,-z
-x,y,-z
-x,-y,-z
1/2+x,y,-z
1/2-x,y,z
x,-y,z
loop_
_atom_site_type_symbol
_atom_site_label
_atom_site_fract_x
_atom_site_fract_y
_atom_site_fract_z
Si Si1 0.417911 0.837146 0.792140
Si Si2 0.582926 0.834500 0.614375
Si Si3 0.087384 0.668451 0.041042
Si Si4 0.083273 0.335024 0.875044
Si Si5 0.916974 0.334771 0.457177
Si Si6 0.091253 0.831991 0.289070
O O1 0.250000 0.818280 0.785979
O O2 0.472931 0.748701 0.833174
O O3 0.487854 0.773623 0.748503
O O4 0.461490 0.000000 0.799639
O O5 0.750000 0.799591 0.605316
O O6 0.480139 0.748115 0.583238
O O7 0.540190 0.785920 0.663063
O O8 0.553713 0.000000 0.607484
O O9 0.250000 0.727543 0.040085
O O10 0.088125 0.500000 0.039286
O O11 0.008573 0.720644 0.084426
O O12 0.000000 0.729230 0.000000
O O13 0.250000 0.302918 0.884787
O O14 0.057577 0.500000 0.866457
O O15 0.750000 0.297259 0.462888
O O16 0.941381 0.500000 0.448787
O O17 0.000000 0.284480 0.500000
O O18 0.250000 0.771402 0.279981
O O19 0.094588 0.000000 0.288021
#
# Coordination Sequence:
#
# PCOD8213230 Si02
#       6
#     8   8   8   8   8   8
#     4   9  17  29  46  67  90 119 154 187 221 266
#     4   9  18  33  53  76 100 126 159 200 243 284
#     4   9  16  26  42  64  88 114 145 181 221 266
#     4   9  17  29  44  63  89 118 146 181 225 266
#     4  10  21  36  53  73  98 130 165 198 236 285
#     4   8  15  29  48  69  93 121 153 189 228 271
#
# _framework density 17.664182
#
# number of rings (size 3 to 8) (size 9 to 14) (size 15 to 20)
#    0.000    3.000    0.000    2.000    0.000    5.000 
#    0.000    2.500    0.000    3.500    0.000    0.000 
#    0.000    0.000    0.000    0.000    0.000    0.000 
#
# Total GULP energy -595103.222727 kJ/mol
# GULP energy per Si atom -12397.983807 kJ/mol
# Density = 1.762398 g / cm^3
# Si number density = 17.664182 Si / 1000 Ang^3
#
#
#
# Elastic Constant Matrix: (Units=GPa)
#
#
# Indices 1 2 3 4 5 6 
#
# 1 106.2076 35.2616 93.7043 0.0000 0.0000 0.0000
# 2 35.2616 32.7394 48.8109 0.0000 0.0000 0.0000
# 3 93.7043 48.8109 185.5260 0.0000 0.0000 0.0000
# 4 0.0000 0.0000 0.0000 29.3143 0.0000 0.0000
# 5 0.0000 0.0000 0.0000 0.0000 41.3153 0.0000
# 6 0.0000 0.0000 0.0000 0.0000 0.0000 19.3779
#
#
#
# Elastic Compliance Matrix: (Units=1/GPa)
#
#
# Indices 1 2 3 4 5 6 
#
# 1 0.018789 -0.010017 -0.006854 0.000000 0.000000 0.000000
# 2 -0.010017 0.055598 -0.009568 0.000000 0.000000 0.000000
# 3 -0.006854 -0.009568 0.011369 0.000000 0.000000 0.000000
# 4 0.000000 0.000000 0.000000 0.034113 0.000000 0.000000
# 5 0.000000 0.000000 0.000000 0.000000 0.024204 0.000000
# 6 0.000000 0.000000 0.000000 0.000000 0.000000 0.051605
#
#
# Mechanical properties :
#
#
# Convention : Reuss Voigt Hill
#
# Bulk Modulus (GPa) = 30.41635 75.55851 52.98743
# Shear Modulus (GPa) = 19.26661 27.78126 23.52394
#
# Velocity S-wave (km/s) = 3.30618 3.97009 3.65325
# Velocity P-wave (km/s) = 5.64190 7.99270 6.91789
#
# Compressibility (1/GPa) = 0.03287706
#
# Stress axis : x y z
#
# Youngs Moduli (GPa) = 53.22403 17.98614 87.95666
#
# Poissons Ratio (x) = 0.18017 0.60286
# Poissons Ratio (y) = 0.53316 0.84159
# Poissons Ratio (z) = 0.36480 0.17209
#
# Static dielectric constant tensor:
#      x y z
#    x 3.406470 0.000000 0.000000 
#    y 0.000000 2.902740 0.000000 
#    z 0.000000 0.000000 3.539540 
# 
# 
# High freq. dielectric constant tensor:
#      x y z
#    x 1.684860 0.000000 0.000000 
#    y 0.000000 1.639130 0.000000 
#    z 0.000000 0.000000 1.698060 
# 
# From -- ./inp_files/36143.got.cif
#   From: 2010.03.12/outbox.cif.g09.slc.cpg/sg51_19_cif.got.tgz:36143.got - 2010.04.16 13:43:02.
