data_PCOD8213267
_publ_section_title
;
Structure prediction by ZEFSAII (Michael W. Deem and Ramdas Pophale) SiO2 
 PCOD8213267
Probable space group: P M M A
;
_chemical_formula_sum "Si O2"
_cell_formula_units_Z 64
_cell_length_a 8.895484
_cell_length_b 23.542267
_cell_length_c 15.276672
_cell_angle_alpha 90.000000
_cell_angle_beta 90.000000
_cell_angle_gamma 90.000000
_cell_volume 3199.238503
_symmetry_space_group_name_H-M "P M M A"
_symmetry_group_IT_number 51
_symmetry_cell_setting 'orthorhombic'
loop_
_space_group_symop_operation_xyz
x,y,z
1/2-x,-y,z
1/2+x,-y,-z
-x,y,-z
-x,-y,-z
1/2+x,y,-z
1/2-x,y,z
x,-y,z
loop_
_atom_site_type_symbol
_atom_site_label
_atom_site_fract_x
_atom_site_fract_y
_atom_site_fract_z
Si Si1 0.925082 0.061756 0.407467
Si Si2 0.928534 0.343396 0.767626
Si Si3 0.923911 0.823345 0.839476
Si Si4 0.074738 0.698299 0.591286
Si Si5 0.924391 0.061322 0.910450
Si Si6 0.926213 0.435362 0.909374
Si Si7 0.424126 0.181463 0.666440
Si Si8 0.926208 0.272717 0.085552
O O1 0.750000 0.070143 0.422071
O O2 0.985808 0.119428 0.362782
O O3 0.000000 0.057860 0.500000
O O4 0.957204 0.000000 0.359092
O O5 0.750000 0.338262 0.757513
O O6 0.974826 0.400410 0.822140
O O7 0.001769 0.338132 0.671142
O O8 0.993844 0.293306 0.826446
O O9 0.750000 0.809847 0.859531
O O10 0.959640 0.890722 0.838949
O O11 0.970654 0.799777 0.745621
O O12 0.028050 0.793833 0.913760
O O13 0.250000 0.682661 0.589558
O O14 0.053074 0.766871 0.598173
O O15 0.000000 0.678703 0.500000
O O16 0.750000 0.057661 0.930487
O O17 0.984876 0.000000 0.876698
O O18 0.000000 0.079654 0.000000
O O19 0.750000 0.429813 0.924030
O O20 0.977260 0.500000 0.892054
O O21 0.000000 0.412526 0.000000
O O22 0.250000 0.177611 0.695642
O O23 0.750000 0.284093 0.086822
O O24 0.000000 0.302021 0.000000
#
# Coordination Sequence:
#
# PCOD8213267 Si02
#       8
#     8   8   8   8   8   8   8   8
#     4   9  18  33  52  74 100 131 172 222 282 351
#     4  11  22  38  61  90 123 159 202 247 292 345
#     4  11  22  35  53  76 104 139 180 229 283 344
#     4  11  23  39  60  85 116 156 201 253 305 359
#     4   9  19  35  52  71  95 127 172 224 277 337
#     4   9  19  36  60  93 132 171 207 244 288 340
#     4  10  21  36  53  76 107 142 181 233 292 352
#     4  12  24  38  56  81 116 154 192 237 289 345
#
# _framework density 20.004760000000001
#
# number of rings (size 3 to 8) (size 9 to 14) (size 15 to 20)
#    0.000    1.750    1.250    3.375    0.000    5.500 
#    0.000    0.000    0.000    0.375    0.000    0.000 
#    0.000    0.000    0.000    0.000    0.000    0.000 
#
# Total GULP energy -792944.232278 kJ/mol
# GULP energy per Si atom -12389.753629 kJ/mol
# Density = 1.995923 g / cm^3
# Si number density = 20.004760 Si / 1000 Ang^3
#
#
#
# Elastic Constant Matrix: (Units=GPa)
#
#
# Indices 1 2 3 4 5 6 
#
# 1 75.1364 37.5757 50.1600 0.0000 0.0000 0.0000
# 2 37.5757 99.9131 46.8073 0.0000 0.0000 0.0000
# 3 50.1600 46.8073 134.1244 0.0000 0.0000 0.0000
# 4 0.0000 0.0000 0.0000 28.4902 0.0000 0.0000
# 5 0.0000 0.0000 0.0000 0.0000 34.5265 0.0000
# 6 0.0000 0.0000 0.0000 0.0000 0.0000 15.8504
#
#
#
# Elastic Compliance Matrix: (Units=1/GPa)
#
#
# Indices 1 2 3 4 5 6 
#
# 1 0.019396 -0.004658 -0.005628 0.000000 0.000000 0.000000
# 2 -0.004658 0.013083 -0.002824 0.000000 0.000000 0.000000
# 3 -0.005628 -0.002824 0.010546 0.000000 0.000000 0.000000
# 4 0.000000 0.000000 0.000000 0.035100 0.000000 0.000000
# 5 0.000000 0.000000 0.000000 0.000000 0.028963 0.000000
# 6 0.000000 0.000000 0.000000 0.000000 0.000000 0.063090
#
#
# Mechanical properties :
#
#
# Convention : Reuss Voigt Hill
#
# Bulk Modulus (GPa) = 59.50449 64.25111 61.87780
# Shear Modulus (GPa) = 24.75251 27.41549 26.08400
#
# Velocity S-wave (km/s) = 3.52139 3.70597 3.61486
# Velocity P-wave (km/s) = 6.80759 7.10633 6.95856
#
# Compressibility (1/GPa) = 0.01680546
#
# Stress axis : x y z
#
# Youngs Moduli (GPa) = 51.55767 76.43279 94.82164
#
# Poissons Ratio (x) = 0.35601 0.53367
# Poissons Ratio (y) = 0.24014 0.26777
# Poissons Ratio (z) = 0.29017 0.21585
#
# Static dielectric constant tensor:
#      x y z
#    x 3.506510 0.000000 0.000000 
#    y 0.000000 4.018580 0.000000 
#    z 0.000000 0.000000 3.468700 
# 
# 
# High freq. dielectric constant tensor:
#      x y z
#    x 1.779220 0.000000 0.000000 
#    y 0.000000 1.781560 0.000000 
#    z 0.000000 0.000000 1.765280 
# 
# From -- ./inp_files/22228.got.cif
#   From: 2010.03.12/outbox.cif.g09.slc.cpg/sg51_12_cif.got.tgz:22228.got - 2010.04.16 13:43:02.
