data_PCOD8213971
_publ_section_title
;
Structure prediction by ZEFSAII (Michael W. Deem and Ramdas Pophale) SiO2 
 PCOD8213971
Probable space group: P M M A
;
_chemical_formula_sum "Si O2"
_cell_formula_units_Z 48
_cell_length_a 14.973546
_cell_length_b 15.524148
_cell_length_c 10.141508
_cell_angle_alpha 90.000000
_cell_angle_beta 90.000000
_cell_angle_gamma 90.000000
_cell_volume 2357.409195
_symmetry_space_group_name_H-M "P M M A"
_symmetry_group_IT_number 51
_symmetry_cell_setting 'orthorhombic'
loop_
_space_group_symop_operation_xyz
x,y,z
1/2-x,-y,z
1/2+x,-y,-z
-x,y,-z
-x,-y,-z
1/2+x,y,-z
1/2-x,y,z
x,-y,z
loop_
_atom_site_type_symbol
_atom_site_label
_atom_site_fract_x
_atom_site_fract_y
_atom_site_fract_z
Si Si1 0.580405 0.000000 0.898815
Si Si2 0.851413 0.821074 0.974002
Si Si3 0.488127 0.401259 0.846201
Si Si4 0.647411 0.184110 0.512815
Si Si5 0.142593 0.256383 0.760044
Si Si6 0.143403 0.697484 0.250394
Si Si7 0.418027 0.000000 0.404939
O O1 0.550158 0.000000 0.746645
O O2 0.500000 0.000000 0.000000
O O3 0.641011 0.918471 0.928124
O O4 0.750000 0.793337 0.976161
O O5 0.889454 0.806297 0.120689
O O6 0.894393 0.758063 0.866936
O O7 0.460340 0.500000 0.827759
O O8 0.407603 0.346973 0.780051
O O9 0.582624 0.387272 0.768258
O O10 0.500000 0.378516 0.000000
O O11 0.750000 0.200871 0.495084
O O12 0.605071 0.206950 0.370256
O O13 0.612449 0.253322 0.617932
O O14 0.636182 0.086282 0.561406
O O15 0.250000 0.271843 0.757232
O O16 0.250000 0.676833 0.246881
O O17 0.500000 0.000000 0.500000
#
# Coordination Sequence:
#
# PCOD8213971 Si02
#       7
#     4   8   8   8   8   8   4
#     4  12  27  37  56  90 126 165 210 262 304 355
#     4  10  21  38  61  85 117 162 205 253 302 352
#     4  11  24  40  66  96 124 160 203 259 319 377
#     4  10  23  42  65  88 123 171 208 253 309 367
#     4  10  23  42  65  93 126 164 206 255 314 374
#     4  10  21  40  65  93 122 162 208 253 308 366
#     4  12  27  39  56  90 126 165 213 257 301 360
#
# _framework density 20.361336000000001
#
# number of rings (size 3 to 8) (size 9 to 14) (size 15 to 20)
#    0.000    1.500    3.333    0.500    7.000    1.333 
#    0.000    5.833    0.000    3.000    0.000    0.000 
#    0.000    0.000    0.000    0.000    0.000    0.000 
#
# Total GULP energy -594851.170980 kJ/mol
# GULP energy per Si atom -12392.732729 kJ/mol
# Density = 2.031499 g / cm^3
# Si number density = 20.361336 Si / 1000 Ang^3
#
#
#
# Elastic Constant Matrix: (Units=GPa)
#
#
# Indices 1 2 3 4 5 6 
#
# 1 50.4736 21.0917 28.5244 0.0000 0.0000 0.0000
# 2 21.0917 101.0593 52.6408 0.0000 0.0000 0.0000
# 3 28.5244 52.6408 182.7188 0.0000 0.0000 0.0000
# 4 0.0000 0.0000 0.0000 27.8864 0.0000 0.0000
# 5 0.0000 0.0000 0.0000 0.0000 21.4739 0.0000
# 6 0.0000 0.0000 0.0000 0.0000 0.0000 33.0554
#
#
#
# Elastic Compliance Matrix: (Units=1/GPa)
#
#
# Indices 1 2 3 4 5 6 
#
# 1 0.022680 -0.003399 -0.002561 0.000000 0.000000 0.000000
# 2 -0.003399 0.012152 -0.002970 0.000000 0.000000 0.000000
# 3 -0.002561 -0.002970 0.006728 0.000000 0.000000 0.000000
# 4 0.000000 0.000000 0.000000 0.035860 0.000000 0.000000
# 5 0.000000 0.000000 0.000000 0.000000 0.046568 0.000000
# 6 0.000000 0.000000 0.000000 0.000000 0.000000 0.030252
#
#
# Mechanical properties :
#
#
# Convention : Reuss Voigt Hill
#
# Bulk Modulus (GPa) = 42.19619 59.86283 51.02951
# Shear Modulus (GPa) = 27.77742 31.94944 29.86343
#
# Velocity S-wave (km/s) = 3.69755 3.96551 3.83387
# Velocity P-wave (km/s) = 6.24482 7.10149 6.68689
#
# Compressibility (1/GPa) = 0.02369882
#
# Stress axis : x y z
#
# Youngs Moduli (GPa) = 44.09101 82.29224 148.62261
#
# Poissons Ratio (x) = 0.27974 0.38067
# Poissons Ratio (y) = 0.14988 0.44144
# Poissons Ratio (z) = 0.11293 0.24443
#
# Static dielectric constant tensor:
#      x y z
#    x 3.562630 0.000000 0.000000 
#    y 0.000000 -0.686490 0.000000 
#    z 0.000000 0.000000 4.557550 
# 
# 
# High freq. dielectric constant tensor:
#      x y z
#    x 1.793660 0.000000 0.000000 
#    y 0.000000 1.782080 0.000000 
#    z 0.000000 0.000000 1.812540 
# 
# From -- ./inp_files/8330.got.cif
#   From: 2010.03.12/outbox.cif.g09.slc.cpg/sg51_5_cif.got.tgz:8330.got - 2010.04.16 13:43:02.
