data_PCOD8213499
_publ_section_title
;
Structure prediction by ZEFSAII (Michael W. Deem and Ramdas Pophale) SiO2 
 PCOD8213499
Probable space group: P M M A
;
_chemical_formula_sum "Si O2"
_cell_formula_units_Z 48
_cell_length_a 14.087819
_cell_length_b 9.365519
_cell_length_c 16.782050
_cell_angle_alpha 90.000000
_cell_angle_beta 90.000000
_cell_angle_gamma 90.000000
_cell_volume 2214.219255
_symmetry_space_group_name_H-M "P M M A"
_symmetry_group_IT_number 51
_symmetry_cell_setting 'orthorhombic'
loop_
_space_group_symop_operation_xyz
x,y,z
1/2-x,-y,z
1/2+x,-y,-z
-x,y,-z
-x,-y,-z
1/2+x,y,-z
1/2-x,y,z
x,-y,z
loop_
_atom_site_type_symbol
_atom_site_label
_atom_site_fract_x
_atom_site_fract_y
_atom_site_fract_z
Si Si1 0.390937 0.653499 0.482694
Si Si2 0.987612 0.165715 0.906816
Si Si3 0.438065 0.157721 0.342812
Si Si4 0.148005 0.772851 0.646330
Si Si5 0.142516 0.659107 0.816940
Si Si6 0.860030 0.331932 0.800535
O O1 0.500000 0.636161 0.500000
O O2 0.352387 0.500000 0.450288
O O3 0.378389 0.776454 0.416368
O O4 0.337288 0.687800 0.564183
O O5 0.894758 0.256801 0.881886
O O6 0.079598 0.222409 0.860340
O O7 0.973800 0.000000 0.883886
O O8 0.000000 0.187060 0.000000
O O9 0.551038 0.135927 0.360455
O O10 0.423332 0.261759 0.268448
O O11 0.396537 0.000000 0.326157
O O12 0.250000 0.857623 0.657578
O O13 0.135298 0.668249 0.721315
O O14 0.250000 0.684825 0.845730
O O15 0.108233 0.500000 0.841101
O O16 0.750000 0.298952 0.786845
O O17 0.880710 0.500000 0.804000
#
# Coordination Sequence:
#
# PCOD8213499 Si02
#       6
#     8   8   8   8   8   8
#     4   9  19  35  56  84 121 166 215 263 309 363
#     4  11  25  44  67  97 132 168 204 251 316 385
#     4  11  23  40  63  92 129 172 215 264 323 380
#     4  10  21  36  60  95 131 168 214 263 314 373
#     4  10  21  38  64  97 131 168 211 259 311 370
#     4  11  25  45  70  96 123 164 218 270 319 374
#
# _framework density 21.678070000000002
#
# number of rings (size 3 to 8) (size 9 to 14) (size 15 to 20)
#    0.000    1.667    1.667    2.000    0.000   10.000 
#    0.000    5.000    0.000    0.000    0.000    0.000 
#    0.000    0.000    0.000    0.000    0.000    0.000 
#
# Total GULP energy -594780.452928 kJ/mol
# GULP energy per Si atom -12391.259436 kJ/mol
# Density = 2.162873 g / cm^3
# Si number density = 21.678070 Si / 1000 Ang^3
#
#
#
# Elastic Constant Matrix: (Units=GPa)
#
#
# Indices 1 2 3 4 5 6 
#
# 1 114.6490 41.2780 36.9939 0.0000 0.0000 0.0000
# 2 41.2780 163.3295 65.1932 0.0000 0.0000 0.0000
# 3 36.9939 65.1932 119.5255 0.0000 0.0000 0.0000
# 4 0.0000 0.0000 0.0000 56.2269 0.0000 0.0000
# 5 0.0000 0.0000 0.0000 0.0000 9.9310 0.0000
# 6 0.0000 0.0000 0.0000 0.0000 0.0000 23.1652
#
#
#
# Elastic Compliance Matrix: (Units=1/GPa)
#
#
# Indices 1 2 3 4 5 6 
#
# 1 0.010029 -0.001656 -0.002201 0.000000 0.000000 0.000000
# 2 -0.001656 0.008100 -0.003905 0.000000 0.000000 0.000000
# 3 -0.002201 -0.003905 0.011178 0.000000 0.000000 0.000000
# 4 0.000000 0.000000 0.000000 0.017785 0.000000 0.000000
# 5 0.000000 0.000000 0.000000 0.000000 0.100695 0.000000
# 6 0.000000 0.000000 0.000000 0.000000 0.000000 0.043168
#
#
# Mechanical properties :
#
#
# Convention : Reuss Voigt Hill
#
# Bulk Modulus (GPa) = 72.55870 76.04823 74.30347
# Shear Modulus (GPa) = 23.68855 34.80056 29.24455
#
# Velocity S-wave (km/s) = 3.30925 4.01101 3.67691
# Velocity P-wave (km/s) = 6.93867 7.52382 7.23716
#
# Compressibility (1/GPa) = 0.01378194
#
# Stress axis : x y z
#
# Youngs Moduli (GPa) = 99.71460 123.45678 89.46412
#
# Poissons Ratio (x) = 0.20446 0.19688
# Poissons Ratio (y) = 0.16514 0.34940
# Poissons Ratio (z) = 0.21943 0.48215
#
# Static dielectric constant tensor:
#      x y z
#    x 4.366730 0.000000 0.000000 
#    y 0.000000 3.928650 0.000000 
#    z 0.000000 0.000000 3.953210 
# 
# 
# High freq. dielectric constant tensor:
#      x y z
#    x 1.860370 0.000000 0.000000 
#    y 0.000000 1.846500 0.000000 
#    z 0.000000 0.000000 1.842510 
# 
# From -- ./inp_files/29457.got.cif
#   From: 2010.03.12/outbox.cif.g09.slc.cpg/sg51_15_cif.got.tgz:29457.got - 2010.04.16 13:43:02.
