data_PCOD8213441
_publ_section_title
;
Structure prediction by ZEFSAII (Michael W. Deem and Ramdas Pophale) SiO2 
 PCOD8213441
Probable space group: P M M A
;
_chemical_formula_sum "Si O2"
_cell_formula_units_Z 48
_cell_length_a 8.897611
_cell_length_b 31.149285
_cell_length_c 8.988641
_cell_angle_alpha 90.000000
_cell_angle_beta 90.000000
_cell_angle_gamma 90.000000
_cell_volume 2491.239793
_symmetry_space_group_name_H-M "P M M A"
_symmetry_group_IT_number 51
_symmetry_cell_setting 'orthorhombic'
loop_
_space_group_symop_operation_xyz
x,y,z
1/2-x,-y,z
1/2+x,-y,-z
-x,y,-z
-x,-y,-z
1/2+x,y,-z
1/2-x,y,z
x,-y,z
loop_
_atom_site_type_symbol
_atom_site_label
_atom_site_fract_x
_atom_site_fract_y
_atom_site_fract_z
Si Si1 0.572111 0.749391 0.341620
Si Si2 0.572232 0.416907 0.340059
Si Si3 0.925024 0.000000 0.657112
Si Si4 0.927213 0.500000 0.159775
Si Si5 0.571411 0.825175 0.839766
Si Si6 0.574232 0.334950 0.159075
Si Si7 0.426414 0.907351 0.339510
O O1 0.500000 0.739637 0.500000
O O2 0.750000 0.756670 0.356825
O O3 0.494637 0.791140 0.274535
O O4 0.532015 0.709401 0.237684
O O5 0.500000 0.419165 0.500000
O O6 0.750000 0.416157 0.359094
O O7 0.517535 0.458074 0.247653
O O8 0.512822 0.374321 0.257417
O O9 0.970569 0.045652 0.733039
O O10 0.000000 0.000000 0.500000
O O11 0.750000 0.000000 0.629313
O O12 0.750000 0.500000 0.139646
O O13 0.000000 0.500000 0.000000
O O14 0.750000 0.819933 0.851094
O O15 0.521595 0.871821 0.778802
O O16 0.500000 0.817774 0.000000
O O17 0.750000 0.339785 0.135481
O O18 0.500000 0.336149 0.000000
O O19 0.500000 0.899628 0.500000
O O20 0.250000 0.903672 0.367019
#
# Coordination Sequence:
#
# PCOD8213441 Si02
#       7
#     8   8   4   4   8   8   8
#     4  11  23  39  59  83 109 141 180 223 269 321
#     4  10  21  37  56  82 112 144 183 226 269 320
#     4   8  14  28  49  74 102 132 168 212 259 310
#     4  10  21  36  56  82 112 144 183 226 272 324
#     4  11  23  38  55  78 108 143 180 222 270 321
#     4  10  22  38  57  82 112 144 181 222 268 320
#     4   9  18  32  53  78 104 135 173 216 263 314
#
# _framework density 19.267515
#
# number of rings (size 3 to 8) (size 9 to 14) (size 15 to 20)
#    0.000    2.000    0.000    3.250    0.000    6.667 
#    0.000    0.417    0.000    0.000    0.000    0.000 
#    0.000    0.000    0.000    0.000    0.000    0.000 
#
# Total GULP energy -595107.087321 kJ/mol
# GULP energy per Si atom -12398.064319 kJ/mol
# Density = 1.922366 g / cm^3
# Si number density = 19.267515 Si / 1000 Ang^3
#
#
#
# Elastic Constant Matrix: (Units=GPa)
#
#
# Indices 1 2 3 4 5 6 
#
# 1 45.7803 43.8138 42.2799 0.0000 0.0000 0.0000
# 2 43.8138 155.5210 59.2000 0.0000 0.0000 0.0000
# 3 42.2799 59.2000 137.7689 0.0000 0.0000 0.0000
# 4 0.0000 0.0000 0.0000 30.1175 0.0000 0.0000
# 5 0.0000 0.0000 0.0000 0.0000 37.0188 0.0000
# 6 0.0000 0.0000 0.0000 0.0000 0.0000 18.0673
#
#
#
# Elastic Compliance Matrix: (Units=1/GPa)
#
#
# Indices 1 2 3 4 5 6 
#
# 1 0.036038 -0.007105 -0.008007 0.000000 0.000000 0.000000
# 2 -0.007105 0.009088 -0.001725 0.000000 0.000000 0.000000
# 3 -0.008007 -0.001725 0.010457 0.000000 0.000000 0.000000
# 4 0.000000 0.000000 0.000000 0.033203 0.000000 0.000000
# 5 0.000000 0.000000 0.000000 0.000000 0.027013 0.000000
# 6 0.000000 0.000000 0.000000 0.000000 0.000000 0.055349
#
#
# Mechanical properties :
#
#
# Convention : Reuss Voigt Hill
#
# Bulk Modulus (GPa) = 45.64116 69.96194 57.80155
# Shear Modulus (GPa) = 23.57117 29.95915 26.76516
#
# Velocity S-wave (km/s) = 3.50146 3.94751 3.73115
# Velocity P-wave (km/s) = 6.33139 7.56087 6.97328
#
# Compressibility (1/GPa) = 0.02191005
#
# Stress axis : x y z
#
# Youngs Moduli (GPa) = 27.74886 110.03320 95.63127
#
# Poissons Ratio (x) = 0.78177 0.76568
# Poissons Ratio (y) = 0.19715 0.16495
# Poissons Ratio (z) = 0.22217 0.18979
#
# Static dielectric constant tensor:
#      x y z
#    x 3.580640 0.000000 0.000000 
#    y 0.000000 4.319960 0.000000 
#    z 0.000000 0.000000 3.364880 
# 
# 
# High freq. dielectric constant tensor:
#      x y z
#    x 1.746680 0.000000 0.000000 
#    y 0.000000 1.777960 0.000000 
#    z 0.000000 0.000000 1.744500 
# 
# From -- ./inp_files/6172.got.cif
#   From: 2010.03.12/outbox.cif.g09.slc.cpg/sg51_4_cif.got.tgz:6172.got - 2010.04.16 13:43:02.
