data_PCOD8213987
_publ_section_title
;
Structure prediction by ZEFSAII (Michael W. Deem and Ramdas Pophale) SiO2 
 PCOD8213987
Probable space group: P M M A
;
_chemical_formula_sum "Si O2"
_cell_formula_units_Z 44
_cell_length_a 8.856130
_cell_length_b 7.933440
_cell_length_c 29.603787
_cell_angle_alpha 90.000000
_cell_angle_beta 90.000000
_cell_angle_gamma 90.000000
_cell_volume 2079.949522
_symmetry_space_group_name_H-M "P M M A"
_symmetry_group_IT_number 51
_symmetry_cell_setting 'orthorhombic'
loop_
_space_group_symop_operation_xyz
x,y,z
1/2-x,-y,z
1/2+x,-y,-z
-x,y,-z
-x,-y,-z
1/2+x,y,-z
1/2-x,y,z
x,-y,z
loop_
_atom_site_type_symbol
_atom_site_label
_atom_site_fract_x
_atom_site_fract_y
_atom_site_fract_z
Si Si1 0.085455 0.306268 0.542438
Si Si2 0.069698 0.500000 0.049187
Si Si3 0.421920 0.194552 0.198052
Si Si4 0.427884 0.194752 0.896249
Si Si5 0.419779 0.691345 0.714559
Si Si6 0.418734 0.808788 0.371708
O O1 0.250000 0.219441 0.548014
O O2 0.108887 0.500000 0.530366
O O3 0.000000 0.218809 0.500000
O O4 0.995523 0.297416 0.589050
O O5 0.250000 0.500000 0.047294
O O6 0.015336 0.672643 0.072650
O O7 0.000000 0.500000 0.000000
O O8 0.250000 0.249074 0.187430
O O9 0.524580 0.233623 0.154879
O O10 0.484306 0.299930 0.239765
O O11 0.430718 0.000000 0.211683
O O12 0.250000 0.224508 0.901420
O O13 0.470392 0.000000 0.909066
O O14 0.250000 0.756633 0.723886
O O15 0.418853 0.500000 0.697522
O O16 0.492227 0.801598 0.675226
O O17 0.250000 0.738730 0.363794
O O18 0.415649 0.000000 0.388339
#
# Coordination Sequence:
#
# PCOD8213987 Si02
#       6
#     8   4   8   8   8   8
#     4  10  21  38  61  87 113 144 184 230 283 344
#     4  12  26  44  68  98 134 176 222 276 329 388
#     4  10  21  38  61  90 123 160 204 252 305 367
#     4  10  22  42  68  97 132 174 219 271 329 389
#     4  11  24  39  57  84 117 155 198 245 297 357
#     4  11  24  40  58  82 113 149 190 238 291 349
#
# _framework density 21.154357999999998
#
# number of rings (size 3 to 8) (size 9 to 14) (size 15 to 20)
#    0.000    1.455    0.000    4.636    1.273   11.273 
#    0.000    0.000    0.000    0.000    0.000    0.000 
#    0.000    0.000    0.000    0.000    0.000    0.000 
#
# Total GULP energy -545688.295774 kJ/mol
# GULP energy per Si atom -12402.006722 kJ/mol
# Density = 2.110621 g / cm^3
# Si number density = 21.154358 Si / 1000 Ang^3
#
#
#
# Elastic Constant Matrix: (Units=GPa)
#
#
# Indices 1 2 3 4 5 6 
#
# 1 156.3519 44.7910 56.7495 0.0000 0.0000 0.0000
# 2 44.7910 68.6061 41.4566 0.0000 0.0000 0.0000
# 3 56.7495 41.4566 138.0650 0.0000 0.0000 0.0000
# 4 0.0000 0.0000 0.0000 -11.5965 0.0000 0.0000
# 5 0.0000 0.0000 0.0000 0.0000 44.5649 0.0000
# 6 0.0000 0.0000 0.0000 0.0000 0.0000 17.6232
#
#
#
# Elastic Compliance Matrix: (Units=1/GPa)
#
#
# Indices 1 2 3 4 5 6 
#
# 1 0.008381 -0.004142 -0.002201 0.000000 0.000000 0.000000
# 2 -0.004142 0.019854 -0.004259 0.000000 0.000000 0.000000
# 3 -0.002201 -0.004259 0.009427 0.000000 0.000000 0.000000
# 4 0.000000 0.000000 0.000000 -0.086233 0.000000 0.000000
# 5 0.000000 0.000000 0.000000 0.000000 0.022439 0.000000
# 6 0.000000 0.000000 0.000000 0.000000 0.000000 0.056743
#
#
# Mechanical properties :
#
#
# Convention : Reuss Voigt Hill
#
# Bulk Modulus (GPa) = 60.76321 72.11302 66.43811
# Shear Modulus (GPa) = 87.25783 24.78672 56.02227
#
# Velocity S-wave (km/s) = 6.42944 3.42673 5.15171
# Velocity P-wave (km/s) = 9.15986 7.05830 8.17688
#
# Compressibility (1/GPa) = 0.01645733
#
# Stress axis : x y z
#
# Youngs Moduli (GPa) = 119.31258 50.36878 106.08204
#
# Poissons Ratio (x) = 0.20861 0.23353
# Poissons Ratio (y) = 0.49416 0.45181
# Poissons Ratio (z) = 0.26265 0.21452
#
# Static dielectric constant tensor:
#      x y z
#    x -0.718940 0.000000 0.000000 
#    y 0.000000 3.774140 0.000000 
#    z 0.000000 0.000000 3.735420 
# 
# 
# High freq. dielectric constant tensor:
#      x y z
#    x 1.849190 0.000000 0.000000 
#    y 0.000000 1.823640 0.000000 
#    z 0.000000 0.000000 1.829350 
# 
# From -- ./inp_files/36777.got.cif
#   From: 2010.03.12/outbox.cif.g09.slc.cpg/sg51_19_cif.got.tgz:36777.got - 2010.04.16 13:43:02.
