data_PCOD8213003
_publ_section_title
;
Structure prediction by ZEFSAII (Michael W. Deem and Ramdas Pophale) SiO2 
 PCOD8213003
Probable space group: P M M A
;
_chemical_formula_sum "Si O2"
_cell_formula_units_Z 48
_cell_length_a 9.435119
_cell_length_b 9.362586
_cell_length_c 31.311757
_cell_angle_alpha 90.000000
_cell_angle_beta 90.000000
_cell_angle_gamma 90.000000
_cell_volume 2765.990218
_symmetry_space_group_name_H-M "P M M A"
_symmetry_group_IT_number 51
_symmetry_cell_setting 'orthorhombic'
loop_
_space_group_symop_operation_xyz
x,y,z
1/2-x,-y,z
1/2+x,-y,-z
-x,y,-z
-x,-y,-z
1/2+x,y,-z
1/2-x,y,z
x,-y,z
loop_
_atom_site_type_symbol
_atom_site_label
_atom_site_fract_x
_atom_site_fract_y
_atom_site_fract_z
Si Si1 0.412162 0.329379 0.722800
Si Si2 0.085886 0.665703 0.959208
Si Si3 0.084327 0.166182 0.206822
Si Si4 0.409111 0.328788 0.538926
Si Si5 0.417722 0.656074 0.630041
Si Si6 0.412871 0.833839 0.876180
O O1 0.250000 0.287031 0.734088
O O2 0.428732 0.500000 0.724242
O O3 0.520137 0.257416 0.755008
O O4 0.453625 0.267994 0.675293
O O5 0.250000 0.696130 0.968215
O O6 0.054798 0.500000 0.950996
O O7 0.032948 0.749642 0.917606
O O8 0.000000 0.722700 0.000000
O O9 0.250000 0.199425 0.202848
O O10 0.009132 0.215278 0.163254
O O11 0.054744 0.000000 0.215828
O O12 0.500000 0.265165 0.500000
O O13 0.250000 0.276355 0.530640
O O14 0.417255 0.500000 0.540316
O O15 0.465988 0.268537 0.585308
O O16 0.250000 0.637403 0.627003
O O17 0.489254 0.500000 0.631724
O O18 0.250000 0.795391 0.865449
O O19 0.431608 0.000000 0.885981
#
# Coordination Sequence:
#
# PCOD8213003 Si02
#       6
#     8   8   8   8   8   8
#     4   9  17  30  49  70  90 117 155 194 231 274
#     4   9  18  32  49  70  96 123 150 182 221 264
#     4  10  21  35  49  68  96 126 154 189 235 282
#     4   8  12  18  29  46  71 104 139 172 208 254
#     4   7  11  21  36  54  78 108 141 178 219 262
#     4   9  18  33  51  69  90 119 155 191 225 264
#
# _framework density 17.353639999999999
#
# number of rings (size 3 to 8) (size 9 to 14) (size 15 to 20)
#    0.000    3.333    0.000    2.500    0.000    3.000 
#    0.000    2.500    0.000    3.000    0.000    0.000 
#    0.000    0.667    0.000    1.500    0.000    4.333 
#
# Total GULP energy -594705.259590 kJ/mol
# GULP energy per Si atom -12389.692908 kJ/mol
# Density = 1.731414 g / cm^3
# Si number density = 17.353640 Si / 1000 Ang^3
#
#
#
# Elastic Constant Matrix: (Units=GPa)
#
#
# Indices 1 2 3 4 5 6 
#
# 1 77.1324 25.6838 80.1505 0.0000 0.0000 0.0000
# 2 25.6838 26.5829 46.4500 0.0000 0.0000 0.0000
# 3 80.1505 46.4500 198.2964 0.0000 0.0000 0.0000
# 4 0.0000 0.0000 0.0000 -4.1769 0.0000 0.0000
# 5 0.0000 0.0000 0.0000 0.0000 32.3313 0.0000
# 6 0.0000 0.0000 0.0000 0.0000 0.0000 17.8331
#
#
#
# Elastic Compliance Matrix: (Units=1/GPa)
#
#
# Indices 1 2 3 4 5 6 
#
# 1 0.023983 -0.010553 -0.007222 0.000000 0.000000 0.000000
# 2 -0.010553 0.068328 -0.011740 0.000000 0.000000 0.000000
# 3 -0.007222 -0.011740 0.010712 0.000000 0.000000 0.000000
# 4 0.000000 0.000000 0.000000 -0.239412 0.000000 0.000000
# 5 0.000000 0.000000 0.000000 0.000000 0.030930 0.000000
# 6 0.000000 0.000000 0.000000 0.000000 0.000000 0.056076
#
#
# Mechanical properties :
#
#
# Convention : Reuss Voigt Hill
#
# Bulk Modulus (GPa) = 22.73040 67.39782 45.06411
# Shear Modulus (GPa) = 205.66922 19.17932 112.42427
#
# Velocity S-wave (km/s) = 10.89834 3.32807 8.05760
# Velocity P-wave (km/s) = 13.09549 7.32736 10.61089
#
# Compressibility (1/GPa) = 0.04399395
#
# Stress axis : x y z
#
# Youngs Moduli (GPa) = 41.69596 14.63523 93.35176
#
# Poissons Ratio (x) = 0.15444 0.67419
# Poissons Ratio (y) = 0.44000 1.09598
# Poissons Ratio (z) = 0.30113 0.17182
#
# Static dielectric constant tensor:
#      x y z
#    x 3.093160 0.000000 0.000000 
#    y 0.000000 2.803140 0.000000 
#    z 0.000000 0.000000 3.683500 
# 
# 
# High freq. dielectric constant tensor:
#      x y z
#    x 1.648840 0.000000 0.000000 
#    y 0.000000 1.620960 0.000000 
#    z 0.000000 0.000000 1.694020 
# 
# From -- ./inp_files/36148.got.cif
#   From: 2010.03.12/outbox.cif.g09.slc.cpg/sg51_19_cif.got.tgz:36148.got - 2010.04.16 13:43:02.
