data_PCOD8213522
_publ_section_title
;
Structure prediction by ZEFSAII (Michael W. Deem and Ramdas Pophale) SiO2 
 PCOD8213522
Probable space group: P M M A
;
_chemical_formula_sum "Si O2"
_cell_formula_units_Z 56
_cell_length_a 14.392546
_cell_length_b 9.123406
_cell_length_c 21.877253
_cell_angle_alpha 90.000000
_cell_angle_beta 90.000000
_cell_angle_gamma 90.000000
_cell_volume 2872.681101
_symmetry_space_group_name_H-M "P M M A"
_symmetry_group_IT_number 51
_symmetry_cell_setting 'orthorhombic'
loop_
_space_group_symop_operation_xyz
x,y,z
1/2-x,-y,z
1/2+x,-y,-z
-x,y,-z
-x,-y,-z
1/2+x,y,-z
1/2-x,y,z
x,-y,z
loop_
_atom_site_type_symbol
_atom_site_label
_atom_site_fract_x
_atom_site_fract_y
_atom_site_fract_z
Si Si1 0.516076 0.325642 0.766974
Si Si2 0.356928 0.171615 0.700206
Si Si3 0.353463 0.674592 0.989073
Si Si4 0.984135 0.673828 0.904800
Si Si5 0.139215 0.664000 0.448814
Si Si6 0.139378 0.162195 0.563692
Si Si7 0.859961 0.167996 0.670657
O O1 0.521747 0.500000 0.761545
O O2 0.415296 0.270791 0.746077
O O3 0.529994 0.268674 0.836185
O O4 0.597370 0.254710 0.727234
O O5 0.250000 0.214188 0.709684
O O6 0.391429 0.210926 0.631557
O O7 0.372985 0.000000 0.713065
O O8 0.250000 0.741887 0.982578
O O9 0.348654 0.500000 0.988774
O O10 0.417881 0.730629 0.933060
O O11 0.398776 0.728717 0.053042
O O12 0.986772 0.500000 0.904933
O O13 0.250000 0.665424 0.450492
O O14 0.100935 0.500000 0.440289
O O15 0.099238 0.727375 0.512694
O O16 0.103434 0.763036 0.392809
O O17 0.250000 0.158980 0.561898
O O18 0.101494 0.000000 0.548797
O O19 0.750000 0.181976 0.676010
O O20 0.893164 0.000000 0.672371
#
# Coordination Sequence:
#
# PCOD8213522 Si02
#       7
#     8   8   8   8   8   8   8
#     4  11  22  34  51  78 112 142 170 215 269 314
#     4   9  19  36  55  74 101 141 185 222 258 311
#     4   8  13  25  46  69  98 136 171 202 241 297
#     4   8  16  28  42  69 105 136 167 203 250 305
#     4   9  16  27  47  75 103 129 162 213 275 326
#     4   8  14  27  48  71  95 128 171 216 262 313
#     4  10  21  37  55  73  98 138 184 222 259 313
#
# _framework density 19.493983
#
# number of rings (size 3 to 8) (size 9 to 14) (size 15 to 20)
#    0.000    3.000    0.000    3.000    0.000    4.571 
#    0.000    5.000    0.000    4.286    0.000    8.000 
#    0.000   13.714    0.000    0.000    0.000    0.000 
#
# Total GULP energy -694206.785197 kJ/mol
# GULP energy per Si atom -12396.549736 kJ/mol
# Density = 1.944961 g / cm^3
# Si number density = 19.493983 Si / 1000 Ang^3
#
#
#
# Elastic Constant Matrix: (Units=GPa)
#
#
# Indices 1 2 3 4 5 6 
#
# 1 32.1505 7.9321 -9.0899 0.0000 0.0000 0.0000
# 2 7.9321 77.3250 36.2057 0.0000 0.0000 0.0000
# 3 -9.0899 36.2057 104.8885 0.0000 0.0000 0.0000
# 4 0.0000 0.0000 0.0000 7.4337 0.0000 0.0000
# 5 0.0000 0.0000 0.0000 0.0000 30.3313 0.0000
# 6 0.0000 0.0000 0.0000 0.0000 0.0000 22.5973
#
#
#
# Elastic Compliance Matrix: (Units=1/GPa)
#
#
# Indices 1 2 3 4 5 6 
#
# 1 0.033930 -0.005794 0.004940 0.000000 0.000000 0.000000
# 2 -0.005794 0.016415 -0.006168 0.000000 0.000000 0.000000
# 3 0.004940 -0.006168 0.012091 0.000000 0.000000 0.000000
# 4 0.000000 0.000000 0.000000 0.134522 0.000000 0.000000
# 5 0.000000 0.000000 0.000000 0.000000 0.032969 0.000000
# 6 0.000000 0.000000 0.000000 0.000000 0.000000 0.044253
#
#
# Mechanical properties :
#
#
# Convention : Reuss Voigt Hill
#
# Bulk Modulus (GPa) = 20.66425 31.60664 26.13545
# Shear Modulus (GPa) = 16.42819 24.02686 20.22753
#
# Velocity S-wave (km/s) = 2.90613 3.51455 3.22472
# Velocity P-wave (km/s) = 4.67805 5.71997 5.22505
#
# Compressibility (1/GPa) = 0.04839274
#
# Stress axis : x y z
#
# Youngs Moduli (GPa) = 29.47252 60.92029 82.70441
#
# Poissons Ratio (x) = 0.35296 -0.40859
# Poissons Ratio (y) = 0.17076 0.51014
# Poissons Ratio (z) = -0.14560 0.37577
#
# Static dielectric constant tensor:
#      x y z
#    x 3.495540 0.000000 0.000000 
#    y 0.000000 3.317880 0.000000 
#    z 0.000000 0.000000 3.815630 
# 
# 
# High freq. dielectric constant tensor:
#      x y z
#    x 1.757200 0.000000 0.000000 
#    y 0.000000 1.726960 0.000000 
#    z 0.000000 0.000000 1.759800 
# 
# From -- ./inp_files/33427.got.cif
#   From: 2010.03.12/outbox.cif.g09.slc.cpg/sg51_17_cif.got.tgz:33427.got - 2010.04.16 13:43:02.
