data_PCOD8213495
_publ_section_title
;
Structure prediction by ZEFSAII (Michael W. Deem and Ramdas Pophale) SiO2 
 PCOD8213495
Probable space group: P M M A
;
_chemical_formula_sum "Si O2"
_cell_formula_units_Z 64
_cell_length_a 16.243468
_cell_length_b 9.104591
_cell_length_c 22.072524
_cell_angle_alpha 90.000000
_cell_angle_beta 90.000000
_cell_angle_gamma 90.000000
_cell_volume 3264.308500
_symmetry_space_group_name_H-M "P M M A"
_symmetry_group_IT_number 51
_symmetry_cell_setting 'orthorhombic'
loop_
_space_group_symop_operation_xyz
x,y,z
1/2-x,-y,z
1/2+x,-y,-z
-x,y,-z
-x,-y,-z
1/2+x,y,-z
1/2-x,y,z
x,-y,z
loop_
_atom_site_type_symbol
_atom_site_label
_atom_site_fract_x
_atom_site_fract_y
_atom_site_fract_z
Si Si1 0.653868 0.838179 0.753532
Si Si2 0.099044 0.173997 0.116487
Si Si3 0.994941 0.169681 0.571215
Si Si4 0.657530 0.174148 0.358768
Si Si5 0.657955 0.340023 0.993219
Si Si6 0.429311 0.326221 0.886886
Si Si7 0.654309 0.835133 0.221304
Si Si8 0.154476 0.326419 0.365599
O O1 0.750000 0.858839 0.753925
O O2 0.627846 0.770138 0.817717
O O3 0.627324 0.726397 0.701141
O O4 0.613264 0.000000 0.742708
O O5 0.158252 0.229717 0.063420
O O6 0.013837 0.246986 0.102332
O O7 0.095669 0.000000 0.114936
O O8 0.080831 0.232878 0.600280
O O9 0.000000 0.189547 0.500000
O O10 0.911814 0.255233 0.589445
O O11 0.983995 0.000000 0.590078
O O12 0.750000 0.233467 0.378344
O O13 0.638918 0.221891 0.289702
O O14 0.661497 0.000000 0.363376
O O15 0.750000 0.366541 0.013049
O O16 0.618065 0.500000 0.976448
O O17 0.618072 0.272484 0.053446
O O18 0.438118 0.500000 0.883374
O O19 0.389337 0.274328 0.824398
O O20 0.750000 0.836206 0.206358
O O21 0.618153 0.000000 0.213613
O O22 0.250000 0.279463 0.380576
O O23 0.146174 0.500000 0.369019
#
# Coordination Sequence:
#
# PCOD8213495 Si02
#       8
#     8   8   8   8   8   8   8   8
#     4   9  19  37  59  82 109 143 185 234 287 341
#     4  11  23  37  56  83 112 142 182 234 286 336
#     4  10  21  36  59  91 122 156 199 244 290 344
#     4   8  16  33  56  82 115 152 191 239 294 348
#     4  10  22  40  58  75 103 145 186 228 281 339
#     4  11  23  37  54  79 112 147 184 227 278 339
#     4   9  18  34  56  80 106 141 186 235 287 340
#     4  10  22  39  59  85 120 160 200 244 294 347
#
# _framework density 19.605991
#
# number of rings (size 3 to 8) (size 9 to 14) (size 15 to 20)
#    0.000    2.250    0.000    3.000    1.750    6.500 
#    0.000    2.500    0.000    1.125    0.000    0.000 
#    0.000    0.000    0.000    0.000    0.000    0.000 
#
# Total GULP energy -793164.726140 kJ/mol
# GULP energy per Si atom -12393.198846 kJ/mol
# Density = 1.956137 g / cm^3
# Si number density = 19.605991 Si / 1000 Ang^3
#
#
#
# Elastic Constant Matrix: (Units=GPa)
#
#
# Indices 1 2 3 4 5 6 
#
# 1 336.1790 140.7340 39.2639 0.0000 0.0000 0.0000
# 2 140.7340 100.7945 34.8251 0.0000 0.0000 0.0000
# 3 39.2639 34.8251 109.6994 0.0000 0.0000 0.0000
# 4 0.0000 0.0000 0.0000 18.6009 0.0000 0.0000
# 5 0.0000 0.0000 0.0000 0.0000 38.5702 0.0000
# 6 0.0000 0.0000 0.0000 0.0000 0.0000 27.0396
#
#
#
# Elastic Compliance Matrix: (Units=1/GPa)
#
#
# Indices 1 2 3 4 5 6 
#
# 1 0.007206 -0.010299 0.000691 0.000000 0.000000 0.000000
# 2 -0.010299 0.025865 -0.004525 0.000000 0.000000 0.000000
# 3 0.000691 -0.004525 0.010305 0.000000 0.000000 0.000000
# 4 0.000000 0.000000 0.000000 0.053761 0.000000 0.000000
# 5 0.000000 0.000000 0.000000 0.000000 0.025927 0.000000
# 6 0.000000 0.000000 0.000000 0.000000 0.000000 0.036983
#
#
# Mechanical properties :
#
#
# Convention : Reuss Voigt Hill
#
# Bulk Modulus (GPa) = 66.18731 108.47986 87.33359
# Shear Modulus (GPa) = 25.86002 38.96548 32.41275
#
# Velocity S-wave (km/s) = 3.63572 4.46289 4.07038
# Velocity P-wave (km/s) = 7.17333 9.05575 8.16894
#
# Compressibility (1/GPa) = 0.01510864
#
# Stress axis : x y z
#
# Youngs Moduli (GPa) = 138.78242 38.66252 97.03988
#
# Poissons Ratio (x) = 0.39820 -0.06701
# Poissons Ratio (y) = 1.42936 0.43907
# Poissons Ratio (z) = -0.09584 0.17494
#
# Static dielectric constant tensor:
#      x y z
#    x 3.728400 0.000000 0.000000 
#    y 0.000000 3.466210 0.000000 
#    z 0.000000 0.000000 4.136000 
# 
# 
# High freq. dielectric constant tensor:
#      x y z
#    x 1.773670 0.000000 0.000000 
#    y 0.000000 1.742570 0.000000 
#    z 0.000000 0.000000 1.767500 
# 
# From -- ./inp_files/35783.got.cif
#   From: 2010.03.12/outbox.cif.g09.slc.cpg/sg51_18_cif.got.tgz:35783.got - 2010.04.16 13:43:02.
