data_PCOD8213698
_publ_section_title
;
Structure prediction by ZEFSAII (Michael W. Deem and Ramdas Pophale) SiO2 
 PCOD8213698
Probable space group: P M M A
;
_chemical_formula_sum "Si O2"
_cell_formula_units_Z 40
_cell_length_a 9.879676
_cell_length_b 9.023687
_cell_length_c 23.724447
_cell_angle_alpha 90.000000
_cell_angle_beta 90.000000
_cell_angle_gamma 90.000000
_cell_volume 2115.060639
_symmetry_space_group_name_H-M "P M M A"
_symmetry_group_IT_number 51
_symmetry_cell_setting 'orthorhombic'
loop_
_space_group_symop_operation_xyz
x,y,z
1/2-x,-y,z
1/2+x,-y,-z
-x,y,-z
-x,-y,-z
1/2+x,y,-z
1/2-x,y,z
x,-y,z
loop_
_atom_site_type_symbol
_atom_site_label
_atom_site_fract_x
_atom_site_fract_y
_atom_site_fract_z
Si Si1 0.595220 0.673286 0.335620
Si Si2 0.986781 0.827222 0.875977
Si Si3 0.750000 0.830269 0.962271
Si Si4 0.596339 0.330313 0.764634
Si Si5 0.095645 0.174500 0.549766
Si Si6 0.250000 0.675253 0.919941
O O1 0.750000 0.715035 0.320999
O O2 0.577155 0.500000 0.345793
O O3 0.502135 0.728484 0.284381
O O4 0.546118 0.753944 0.392069
O O5 0.882946 0.795984 0.926350
O O6 0.920505 0.774145 0.818239
O O7 0.120876 0.735379 0.887168
O O8 0.021650 0.000000 0.871668
O O9 0.750000 0.000000 0.983419
O O10 0.750000 0.723839 0.015435
O O11 0.750000 0.318010 0.742762
O O12 0.560762 0.500000 0.780901
O O13 0.250000 0.220847 0.536100
O O14 0.000000 0.235055 0.500000
O O15 0.080792 0.000000 0.556374
O O16 0.250000 0.500000 0.916947
#
# Coordination Sequence:
#
# PCOD8213698 Si02
#       6
#     8   8   4   8   8   4
#     4   9  19  35  54  78 110 147 186 229 278 330
#     4  11  23  41  62  87 117 152 192 236 288 344
#     4  10  22  42  64  86 118 152 187 236 289 342
#     4  10  21  37  57  82 114 149 187 234 286 340
#     4   9  18  33  52  76 107 142 181 226 276 328
#     4  12  26  40  60  90 118 150 193 236 285 344
#
# _framework density 18.911988000000001
#
# number of rings (size 3 to 8) (size 9 to 14) (size 15 to 20)
#    0.000    2.000    1.000    2.100    1.400    6.000 
#    0.000    0.000    0.000    0.000    0.000    0.000 
#    0.000    0.000    0.000    0.000    0.000    0.000 
#
# Total GULP energy -496180.605023 kJ/mol
# GULP energy per Si atom -12404.515126 kJ/mol
# Density = 1.886894 g / cm^3
# Si number density = 18.911988 Si / 1000 Ang^3
#
#
#
# Elastic Constant Matrix: (Units=GPa)
#
#
# Indices 1 2 3 4 5 6 
#
# 1 103.7994 39.6424 47.5465 0.0000 0.0000 0.0000
# 2 39.6424 70.2361 39.6228 0.0000 0.0000 0.0000
# 3 47.5465 39.6228 111.5369 0.0000 0.0000 0.0000
# 4 0.0000 0.0000 0.0000 23.4245 0.0000 0.0000
# 5 0.0000 0.0000 0.0000 0.0000 36.9594 0.0000
# 6 0.0000 0.0000 0.0000 0.0000 0.0000 24.5664
#
#
#
# Elastic Compliance Matrix: (Units=1/GPa)
#
#
# Indices 1 2 3 4 5 6 
#
# 1 0.013456 -0.005451 -0.003800 0.000000 0.000000 0.000000
# 2 -0.005451 0.020015 -0.004786 0.000000 0.000000 0.000000
# 3 -0.003800 -0.004786 0.012286 0.000000 0.000000 0.000000
# 4 0.000000 0.000000 0.000000 0.042690 0.000000 0.000000
# 5 0.000000 0.000000 0.000000 0.000000 0.027057 0.000000
# 6 0.000000 0.000000 0.000000 0.000000 0.000000 0.040706
#
#
# Mechanical properties :
#
#
# Convention : Reuss Voigt Hill
#
# Bulk Modulus (GPa) = 56.55456 59.91065 58.23260
# Shear Modulus (GPa) = 26.29107 27.57410 26.93259
#
# Velocity S-wave (km/s) = 3.73256 3.82255 3.77782
# Velocity P-wave (km/s) = 6.96742 7.15751 7.06311
#
# Compressibility (1/GPa) = 0.01768204
#
# Stress axis : x y z
#
# Youngs Moduli (GPa) = 74.31383 49.96338 81.39571
#
# Poissons Ratio (x) = 0.27237 0.30928
# Poissons Ratio (y) = 0.40512 0.38958
# Poissons Ratio (z) = 0.28237 0.23913
#
# Static dielectric constant tensor:
#      x y z
#    x 3.632710 0.000000 0.000000 
#    y 0.000000 3.403240 0.000000 
#    z 0.000000 0.000000 3.480840 
# 
# 
# High freq. dielectric constant tensor:
#      x y z
#    x 1.746080 0.000000 0.000000 
#    y 0.000000 1.730740 0.000000 
#    z 0.000000 0.000000 1.737230 
# 
# From -- ./inp_files/36017.got.cif
#   From: 2010.03.12/outbox.cif.g09.slc.cpg/sg51_19_cif.got.tgz:36017.got - 2010.04.16 13:43:02.
