data_PCOD8213435
_publ_section_title
;
Structure prediction by ZEFSAII (Michael W. Deem and Ramdas Pophale) SiO2 
 PCOD8213435
Probable space group: P M M A
;
_chemical_formula_sum "Si O2"
_cell_formula_units_Z 56
_cell_length_a 13.807842
_cell_length_b 15.706839
_cell_length_c 11.685903
_cell_angle_alpha 90.000000
_cell_angle_beta 90.000000
_cell_angle_gamma 90.000000
_cell_volume 2534.410027
_symmetry_space_group_name_H-M "P M M A"
_symmetry_group_IT_number 51
_symmetry_cell_setting 'orthorhombic'
loop_
_space_group_symop_operation_xyz
x,y,z
1/2-x,-y,z
1/2+x,-y,-z
-x,y,-z
-x,-y,-z
1/2+x,y,-z
1/2-x,y,z
x,-y,z
loop_
_atom_site_type_symbol
_atom_site_label
_atom_site_fract_x
_atom_site_fract_y
_atom_site_fract_z
Si Si1 0.859799 0.092840 0.238591
Si Si2 0.858423 0.761771 0.075140
Si Si3 0.549177 0.593977 0.674601
Si Si4 0.560309 0.253649 0.828762
Si Si5 0.355158 0.632322 0.561323
Si Si6 0.102266 0.816371 0.537454
Si Si7 0.640275 0.097913 0.693550
O O1 0.750000 0.088592 0.282994
O O2 0.865043 0.140413 0.116699
O O3 0.917197 0.136317 0.342651
O O4 0.904023 0.000000 0.216833
O O5 0.750000 0.725138 0.106141
O O6 0.948847 0.719655 0.141866
O O7 0.873351 0.754512 0.940328
O O8 0.561482 0.500000 0.730509
O O9 0.597491 0.666909 0.753845
O O10 0.434359 0.611122 0.657886
O O11 0.607566 0.593974 0.557068
O O12 0.570411 0.163337 0.762418
O O13 0.250000 0.591514 0.591537
O O14 0.332725 0.733414 0.553970
O O15 0.141606 0.881135 0.441915
O O16 0.000000 0.776753 0.500000
O O17 0.750000 0.108440 0.739405
O O18 0.605129 0.000000 0.710744
#
# Coordination Sequence:
#
# PCOD8213435 Si02
#       7
#     8   8   8   8   8   8   8
#     4  10  21  36  55  84 122 167 219 269 316 371
#     4  10  23  42  65  89 118 164 222 275 326 385
#     4  11  24  42  64  97 132 165 215 266 321 392
#     4  11  23  43  67  91 125 170 214 270 334 385
#     4  11  21  38  63  93 136 177 210 252 310 382
#     4  12  21  34  56  90 132 175 215 261 317 380
#     4  11  23  38  60  93 132 174 218 266 322 389
#
# _framework density 22.095873000000001
#
# number of rings (size 3 to 8) (size 9 to 14) (size 15 to 20)
#    0.000    1.143    2.857    4.714    0.000    8.000 
#    0.000    4.286    0.000    0.857    0.000    0.000 
#    0.000    0.000    0.000    0.000    0.000    0.000 
#
# Total GULP energy -693964.479491 kJ/mol
# GULP energy per Si atom -12392.222848 kJ/mol
# Density = 2.204558 g / cm^3
# Si number density = 22.095873 Si / 1000 Ang^3
#
#
#
# Elastic Constant Matrix: (Units=GPa)
#
#
# Indices 1 2 3 4 5 6 
#
# 1 92.2446 0.8895 14.3261 0.0000 0.0000 0.0000
# 2 0.8895 141.8634 45.5620 0.0000 0.0000 0.0000
# 3 14.3261 45.5620 104.7717 0.0000 0.0000 0.0000
# 4 0.0000 0.0000 0.0000 8.9889 0.0000 0.0000
# 5 0.0000 0.0000 0.0000 0.0000 24.4683 0.0000
# 6 0.0000 0.0000 0.0000 0.0000 0.0000 -14.4144
#
#
#
# Elastic Compliance Matrix: (Units=1/GPa)
#
#
# Indices 1 2 3 4 5 6 
#
# 1 0.011105 0.000486 -0.001730 0.000000 0.000000 0.000000
# 2 0.000486 0.008215 -0.003639 0.000000 0.000000 0.000000
# 3 -0.001730 -0.003639 0.011363 0.000000 0.000000 0.000000
# 4 0.000000 0.000000 0.000000 0.111248 0.000000 0.000000
# 5 0.000000 0.000000 0.000000 0.000000 0.040869 0.000000
# 6 0.000000 0.000000 0.000000 0.000000 0.000000 -0.069375
#
#
# Mechanical properties :
#
#
# Convention : Reuss Voigt Hill
#
# Bulk Modulus (GPa) = 47.80644 51.15942 49.48293
# Shear Modulus (GPa) = 38.41353 22.34872 30.38112
#
# Velocity S-wave (km/s) = 4.17405 3.18377 3.71208
# Velocity P-wave (km/s) = 6.70172 6.05961 6.38874
#
# Compressibility (1/GPa) = 0.02091768
#
# Stress axis : x y z
#
# Youngs Moduli (GPa) = 90.05206 121.73396 88.00146
#
# Poissons Ratio (x) = -0.05915 0.15222
# Poissons Ratio (y) = -0.04376 0.32021
# Poissons Ratio (z) = 0.15576 0.44296
#
# Static dielectric constant tensor:
#      x y z
#    x 4.170870 0.000000 0.000000 
#    y 0.000000 3.875950 0.000000 
#    z 0.000000 0.000000 3.781570 
# 
# 
# High freq. dielectric constant tensor:
#      x y z
#    x 1.888560 0.000000 0.000000 
#    y 0.000000 1.851140 0.000000 
#    z 0.000000 0.000000 1.845730 
# 
# From -- ./inp_files/16654.got.cif
#   From: 2010.03.12/outbox.cif.g09.slc.cpg/sg51_9_cif.got.tgz:16654.got - 2010.04.16 13:43:02.
