data_PCOD8213322
_publ_section_title
;
Structure prediction by ZEFSAII (Michael W. Deem and Ramdas Pophale) SiO2 
 PCOD8213322
Probable space group: P M M A
;
_chemical_formula_sum "Si O2"
_cell_formula_units_Z 48
_cell_length_a 9.195872
_cell_length_b 8.960889
_cell_length_c 30.756569
_cell_angle_alpha 90.000000
_cell_angle_beta 90.000000
_cell_angle_gamma 90.000000
_cell_volume 2534.439345
_symmetry_space_group_name_H-M "P M M A"
_symmetry_group_IT_number 51
_symmetry_cell_setting 'orthorhombic'
loop_
_space_group_symop_operation_xyz
x,y,z
1/2-x,-y,z
1/2+x,-y,-z
-x,y,-z
-x,-y,-z
1/2+x,y,-z
1/2-x,y,z
x,-y,z
loop_
_atom_site_type_symbol
_atom_site_label
_atom_site_fract_x
_atom_site_fract_y
_atom_site_fract_z
Si Si1 0.910152 0.322823 0.539933
Si Si2 0.077007 0.331690 0.364375
Si Si3 0.416949 0.675848 0.799799
Si Si4 0.582523 0.175580 0.877644
Si Si5 0.419331 0.672887 0.955622
Si Si6 0.917008 0.172109 0.289024
O O1 0.750000 0.253103 0.536439
O O2 0.901793 0.500000 0.535458
O O3 0.977861 0.284102 0.587301
O O4 0.000000 0.252397 0.500000
O O5 0.250000 0.323698 0.363015
O O6 0.024692 0.500000 0.353510
O O7 0.012024 0.217133 0.330178
O O8 0.250000 0.722586 0.809580
O O9 0.436290 0.500000 0.801816
O O10 0.523267 0.748711 0.834393
O O11 0.465826 0.732190 0.752535
O O12 0.750000 0.222717 0.884611
O O13 0.487912 0.227591 0.918255
O O14 0.565843 0.000000 0.872476
O O15 0.250000 0.712195 0.960729
O O16 0.441688 0.500000 0.943407
O O17 0.500000 0.713960 0.000000
O O18 0.750000 0.204148 0.300536
O O19 0.944768 0.000000 0.277993
#
# Coordination Sequence:
#
# PCOD8213322 Si02
#       6
#     8   8   8   8   8   8
#     4   8  14  25  42  67  98 129 163 206 255 305
#     4   9  18  32  50  74 104 136 171 212 259 312
#     4  10  21  38  60  83 106 136 176 220 267 318
#     4  11  24  39  56  82 115 149 184 221 265 318
#     4  10  21  38  61  87 114 147 187 229 273 319
#     4  10  21  36  54  77 105 137 174 216 262 313
#
# _framework density 18.939101000000001
#
# number of rings (size 3 to 8) (size 9 to 14) (size 15 to 20)
#    0.000    2.333    0.000    3.500    0.000    8.333 
#    0.000    1.667    0.000    0.500    0.000    0.000 
#    0.000    0.000    0.000    0.000    0.000    0.000 
#
# Total GULP energy -595236.213800 kJ/mol
# GULP energy per Si atom -12400.754454 kJ/mol
# Density = 1.889599 g / cm^3
# Si number density = 18.939101 Si / 1000 Ang^3
#
#
#
# Elastic Constant Matrix: (Units=GPa)
#
#
# Indices 1 2 3 4 5 6 
#
# 1 87.4340 38.6107 65.4131 0.0000 0.0000 0.0000
# 2 38.6107 57.4913 44.3673 0.0000 0.0000 0.0000
# 3 65.4131 44.3673 139.5457 0.0000 0.0000 0.0000
# 4 0.0000 0.0000 0.0000 -43.9312 0.0000 0.0000
# 5 0.0000 0.0000 0.0000 0.0000 39.2526 0.0000
# 6 0.0000 0.0000 0.0000 0.0000 0.0000 27.0886
#
#
#
# Elastic Compliance Matrix: (Units=1/GPa)
#
#
# Indices 1 2 3 4 5 6 
#
# 1 0.020219 -0.008302 -0.006839 0.000000 0.000000 0.000000
# 2 -0.008302 0.026458 -0.004521 0.000000 0.000000 0.000000
# 3 -0.006839 -0.004521 0.011809 0.000000 0.000000 0.000000
# 4 0.000000 0.000000 0.000000 -0.022763 0.000000 0.000000
# 5 0.000000 0.000000 0.000000 0.000000 0.025476 0.000000
# 6 0.000000 0.000000 0.000000 0.000000 0.000000 0.036916
#
#
# Mechanical properties :
#
#
# Convention : Reuss Voigt Hill
#
# Bulk Modulus (GPa) = 52.17933 64.58370 58.38152
# Shear Modulus (GPa) = 34.76434 13.55399 24.15916
#
# Velocity S-wave (km/s) = 4.28902 2.67809 3.57546
# Velocity P-wave (km/s) = 7.22070 6.61344 6.92373
#
# Compressibility (1/GPa) = 0.01916468
#
# Stress axis : x y z
#
# Youngs Moduli (GPa) = 49.45727 37.79578 84.68107
#
# Poissons Ratio (x) = 0.31377 0.57910
# Poissons Ratio (y) = 0.41058 0.38281
# Poissons Ratio (z) = 0.33822 0.17086
#
# Static dielectric constant tensor:
#      x y z
#    x 3.500150 0.000000 0.000000 
#    y 0.000000 3.305800 0.000000 
#    z 0.000000 0.000000 3.714030 
# 
# 
# High freq. dielectric constant tensor:
#      x y z
#    x 1.733960 0.000000 0.000000 
#    y 0.000000 1.718920 0.000000 
#    z 0.000000 0.000000 1.751490 
# 
# From -- ./inp_files/37054.got.cif
#   From: 2010.03.12/outbox.cif.g09.slc.cpg/sg51_19_cif.got.tgz:37054.got - 2010.04.16 13:43:02.
