data_PCOD8213748
_publ_section_title
;
Structure prediction by ZEFSAII (Michael W. Deem and Ramdas Pophale) SiO2 
 PCOD8213748
Probable space group: P M M A
;
_chemical_formula_sum "Si O2"
_cell_formula_units_Z 56
_cell_length_a 16.748044
_cell_length_b 14.209877
_cell_length_c 11.929318
_cell_angle_alpha 90.000000
_cell_angle_beta 90.000000
_cell_angle_gamma 90.000000
_cell_volume 2839.030300
_symmetry_space_group_name_H-M "P M M A"
_symmetry_group_IT_number 51
_symmetry_cell_setting 'orthorhombic'
loop_
_space_group_symop_operation_xyz
x,y,z
1/2-x,-y,z
1/2+x,-y,-z
-x,y,-z
-x,-y,-z
1/2+x,y,-z
1/2-x,y,z
x,-y,z
loop_
_atom_site_type_symbol
_atom_site_label
_atom_site_fract_x
_atom_site_fract_y
_atom_site_fract_z
Si Si1 0.584137 0.229788 0.940135
Si Si2 0.162722 0.790908 0.471987
Si Si3 0.597268 0.105615 0.727075
Si Si4 0.341979 0.892861 0.874898
Si Si5 0.343332 0.392929 0.203937
Si Si6 0.075961 0.103040 0.654887
Si Si7 0.913523 0.395060 0.556369
O O1 0.572697 0.153450 0.842813
O O2 0.624940 0.325086 0.894598
O O3 0.500000 0.252747 0.000000
O O4 0.644415 0.179566 0.024890
O O5 0.250000 0.815540 0.517311
O O6 0.156841 0.826599 0.342633
O O7 0.096914 0.839775 0.545835
O O8 0.149682 0.679697 0.489124
O O9 0.518652 0.096849 0.653050
O O10 0.633323 0.000000 0.746355
O O11 0.250000 0.893072 0.842810
O O12 0.390719 0.851568 0.769211
O O13 0.370457 0.000000 0.905304
O O14 0.250000 0.368614 0.236351
O O15 0.346694 0.500000 0.158854
O O16 0.406011 0.383635 0.308236
O O17 0.115085 0.000000 0.644247
O O18 0.886515 0.500000 0.521613
O O19 0.000000 0.374088 0.500000
#
# Coordination Sequence:
#
# PCOD8213748 Si02
#       7
#     8   8   8   8   8   8   8
#     4  12  23  37  62  90 120 157 202 253 301 358
#     4  12  24  37  59  89 122 156 196 246 304 362
#     4  11  23  38  58  84 119 159 200 247 296 350
#     4  10  21  37  58  84 117 158 204 248 292 351
#     4  10  22  42  65  90 123 160 200 251 311 368
#     4  10  21  39  59  81 115 162 205 240 290 355
#     4  10  21  38  63  90 118 154 197 244 295 359
#
# _framework density 19.725045000000001
#
# number of rings (size 3 to 8) (size 9 to 14) (size 15 to 20)
#    0.000    1.286    2.857    3.429    0.000    5.143 
#    0.000    0.000    0.000    0.857    0.000    0.000 
#    0.000    0.000    0.000    0.000    0.000    0.000 
#
# Total GULP energy -694049.416893 kJ/mol
# GULP energy per Si atom -12393.739587 kJ/mol
# Density = 1.968015 g / cm^3
# Si number density = 19.725045 Si / 1000 Ang^3
#
#
#
# Elastic Constant Matrix: (Units=GPa)
#
#
# Indices 1 2 3 4 5 6 
#
# 1 78.5074 36.7545 24.1086 0.0000 0.0000 0.0000
# 2 36.7545 109.6134 41.8168 0.0000 0.0000 0.0000
# 3 24.1086 41.8168 84.2768 0.0000 0.0000 0.0000
# 4 0.0000 0.0000 0.0000 39.3244 0.0000 0.0000
# 5 0.0000 0.0000 0.0000 0.0000 26.4166 0.0000
# 6 0.0000 0.0000 0.0000 0.0000 0.0000 23.6656
#
#
#
# Elastic Compliance Matrix: (Units=1/GPa)
#
#
# Indices 1 2 3 4 5 6 
#
# 1 0.015457 -0.004312 -0.002282 0.000000 0.000000 0.000000
# 2 -0.004312 0.012456 -0.004947 0.000000 0.000000 0.000000
# 3 -0.002282 -0.004947 0.014973 0.000000 0.000000 0.000000
# 4 0.000000 0.000000 0.000000 0.025429 0.000000 0.000000
# 5 0.000000 0.000000 0.000000 0.000000 0.037855 0.000000
# 6 0.000000 0.000000 0.000000 0.000000 0.000000 0.042255
#
#
# Mechanical properties :
#
#
# Convention : Reuss Voigt Hill
#
# Bulk Modulus (GPa) = 50.49534 53.08416 51.78975
# Shear Modulus (GPa) = 28.07245 29.19584 28.63415
#
# Velocity S-wave (km/s) = 3.77661 3.85143 3.81420
# Velocity P-wave (km/s) = 6.68373 6.83729 6.76094
#
# Compressibility (1/GPa) = 0.01980381
#
# Stress axis : x y z
#
# Youngs Moduli (GPa) = 64.69407 80.28138 66.78664
#
# Poissons Ratio (x) = 0.34621 0.15241
# Poissons Ratio (y) = 0.27899 0.33039
# Poissons Ratio (z) = 0.14764 0.39715
#
# Static dielectric constant tensor:
#      x y z
#    x 3.492750 0.000000 0.000000 
#    y 0.000000 3.808230 0.000000 
#    z 0.000000 0.000000 3.521050 
# 
# 
# High freq. dielectric constant tensor:
#      x y z
#    x 1.766320 0.000000 0.000000 
#    y 0.000000 1.773650 0.000000 
#    z 0.000000 0.000000 1.760840 
# 
# From -- ./inp_files/16592.got.cif
#   From: 2010.03.12/outbox.cif.g09.slc.cpg/sg51_9_cif.got.tgz:16592.got - 2010.04.16 13:43:02.
