data_PCOD8213498
_publ_section_title
;
Structure prediction by ZEFSAII (Michael W. Deem and Ramdas Pophale) SiO2 
 PCOD8213498
Probable space group: P M M A
;
_chemical_formula_sum "Si O2"
_cell_formula_units_Z 40
_cell_length_a 15.348544
_cell_length_b 7.781037
_cell_length_c 16.404865
_cell_angle_alpha 90.000000
_cell_angle_beta 90.000000
_cell_angle_gamma 90.000000
_cell_volume 1959.193471
_symmetry_space_group_name_H-M "P M M A"
_symmetry_group_IT_number 51
_symmetry_cell_setting 'orthorhombic'
loop_
_space_group_symop_operation_xyz
x,y,z
1/2-x,-y,z
1/2+x,-y,-z
-x,y,-z
-x,-y,-z
1/2+x,y,-z
1/2-x,y,z
x,-y,z
loop_
_atom_site_type_symbol
_atom_site_label
_atom_site_fract_x
_atom_site_fract_y
_atom_site_fract_z
Si Si1 0.147995 0.811682 0.379851
Si Si2 0.504619 0.703571 0.092876
Si Si3 0.600727 0.500000 0.506647
Si Si4 0.148926 0.807242 0.787668
Si Si5 0.652005 0.296963 0.795474
Si Si6 0.650356 0.500000 0.321326
O O1 0.250000 0.818717 0.369505
O O2 0.127364 0.672286 0.447764
O O3 0.111219 0.762392 0.291039
O O4 0.111693 0.000000 0.406206
O O5 0.514227 0.500000 0.100133
O O6 0.590404 0.788524 0.131780
O O7 0.415529 0.768234 0.136150
O O8 0.500000 0.765486 0.000000
O O9 0.500000 0.500000 0.500000
O O10 0.641064 0.500000 0.417608
O O11 0.250000 0.771280 0.810880
O O12 0.111659 0.673510 0.719616
O O13 0.139211 0.000000 0.752070
O O14 0.750000 0.222528 0.811733
O O15 0.657570 0.500000 0.794652
O O16 0.750000 0.500000 0.298524
#
# Coordination Sequence:
#
# PCOD8213498 Si02
#       6
#     8   8   4   8   8   4
#     4  10  21  39  62  86 116 158 203 247 298 355
#     4  10  21  36  60  92 125 161 201 249 303 357
#     4  12  26  38  60  92 125 156 192 249 306 356
#     4  10  22  40  63  89 119 161 207 248 296 356
#     4   9  18  35  60  87 120 161 203 248 303 363
#     4  10  22  42  63  82 114 160 203 245 298 353
#
# _framework density 20.416564000000001
#
# number of rings (size 3 to 8) (size 9 to 14) (size 15 to 20)
#    0.000    2.000    2.000    0.900    2.800    3.200 
#    0.000    4.000    0.000    2.400    0.000    0.000 
#    0.000    0.000    0.000    0.000    0.000    0.000 
#
# Total GULP energy -495840.245123 kJ/mol
# GULP energy per Si atom -12396.006128 kJ/mol
# Density = 2.037009 g / cm^3
# Si number density = 20.416564 Si / 1000 Ang^3
#
#
#
# Elastic Constant Matrix: (Units=GPa)
#
#
# Indices 1 2 3 4 5 6 
#
# 1 82.0149 40.2858 54.3877 0.0000 0.0000 0.0000
# 2 40.2858 113.7549 75.0286 0.0000 0.0000 0.0000
# 3 54.3877 75.0286 173.4839 0.0000 0.0000 0.0000
# 4 0.0000 0.0000 0.0000 -5.9714 0.0000 0.0000
# 5 0.0000 0.0000 0.0000 0.0000 35.3232 0.0000
# 6 0.0000 0.0000 0.0000 0.0000 0.0000 15.7890
#
#
#
# Elastic Compliance Matrix: (Units=1/GPa)
#
#
# Indices 1 2 3 4 5 6 
#
# 1 0.016258 -0.003352 -0.003647 0.000000 0.000000 0.000000
# 2 -0.003352 0.012990 -0.004567 0.000000 0.000000 0.000000
# 3 -0.003647 -0.004567 0.008883 0.000000 0.000000 0.000000
# 4 0.000000 0.000000 0.000000 -0.167466 0.000000 0.000000
# 5 0.000000 0.000000 0.000000 0.000000 0.028310 0.000000
# 6 0.000000 0.000000 0.000000 0.000000 0.000000 0.063335
#
#
# Mechanical properties :
#
#
# Convention : Reuss Voigt Hill
#
# Bulk Modulus (GPa) = 66.67464 78.73976 72.70720
# Shear Modulus (GPa) = -523.17776 22.33162 -250.42307
#
# Velocity S-wave (km/s) = -16.02523 3.31085 -11.08707
# Velocity P-wave (km/s) = 17.59780 7.29835 11.32291
#
# Compressibility (1/GPa) = 0.01499821
#
# Stress axis : x y z
#
# Youngs Moduli (GPa) = 61.50768 76.98043 112.57645
#
# Poissons Ratio (x) = 0.25805 0.41059
# Poissons Ratio (y) = 0.20618 0.51415
# Poissons Ratio (z) = 0.22433 0.35158
#
# Static dielectric constant tensor:
#      x y z
#    x 3.851200 0.000000 0.000000 
#    y 0.000000 3.955080 0.000000 
#    z 0.000000 0.000000 3.582510 
# 
# 
# High freq. dielectric constant tensor:
#      x y z
#    x 1.797510 0.000000 0.000000 
#    y 0.000000 1.803890 0.000000 
#    z 0.000000 0.000000 1.786830 
# 
# From -- ./inp_files/23832.got.cif
#   From: 2010.03.12/outbox.cif.g09.slc.cpg/sg51_12_cif.got.tgz:23832.got - 2010.04.16 13:43:02.
