data_PCOD8213308
_publ_section_title
;
Structure prediction by ZEFSAII (Michael W. Deem and Ramdas Pophale) SiO2 
 PCOD8213308
Probable space group: P M M A
;
_chemical_formula_sum "Si O2"
_cell_formula_units_Z 48
_cell_length_a 9.238153
_cell_length_b 9.257750
_cell_length_c 30.813568
_cell_angle_alpha 90.000000
_cell_angle_beta 90.000000
_cell_angle_gamma 90.000000
_cell_volume 2635.315333
_symmetry_space_group_name_H-M "P M M A"
_symmetry_group_IT_number 51
_symmetry_cell_setting 'orthorhombic'
loop_
_space_group_symop_operation_xyz
x,y,z
1/2-x,-y,z
1/2+x,-y,-z
-x,y,-z
-x,-y,-z
1/2+x,y,-z
1/2-x,y,z
x,-y,z
loop_
_atom_site_type_symbol
_atom_site_label
_atom_site_fract_x
_atom_site_fract_y
_atom_site_fract_z
Si Si1 0.082820 0.832390 0.289904
Si Si2 0.080021 0.166588 0.796936
Si Si3 0.419030 0.832796 0.457122
Si Si4 0.582704 0.669780 0.871692
Si Si5 0.577782 0.336953 0.626329
Si Si6 0.418676 0.165713 0.042622
O O1 0.250000 0.795314 0.280202
O O2 0.021202 0.742977 0.330616
O O3 0.990129 0.785939 0.248419
O O4 0.063045 0.000000 0.301196
O O5 0.250000 0.193346 0.794023
O O6 0.014734 0.266191 0.833947
O O7 0.042844 0.000000 0.807262
O O8 0.500000 0.777516 0.500000
O O9 0.250000 0.804702 0.464068
O O10 0.481212 0.743667 0.416370
O O11 0.452418 0.000000 0.448022
O O12 0.750000 0.709042 0.862592
O O13 0.557658 0.500000 0.874268
O O14 0.530463 0.738598 0.916883
O O15 0.750000 0.331548 0.625998
O O16 0.518779 0.500000 0.626361
O O17 0.250000 0.184189 0.033645
O O18 0.460164 0.000000 0.052626
O O19 0.500000 0.222766 0.000000
#
# Coordination Sequence:
#
# PCOD8213308 Si02
#       6
#     8   8   8   8   8   8
#     4   9  17  31  52  74  95 124 163 204 245 291
#     4  10  21  36  54  77 104 134 169 210 256 304
#     4   9  17  30  48  69  93 122 157 196 237 282
#     4  10  21  36  54  77 105 138 175 212 251 299
#     4   9  17  29  47  71  96 123 158 199 240 285
#     4   9  18  33  53  76 102 133 170 211 252 295
#
# _framework density 18.214137999999998
#
# number of rings (size 3 to 8) (size 9 to 14) (size 15 to 20)
#    0.000    2.667    0.000    1.500    0.000    6.000 
#    0.000    4.167    0.000    5.000    0.000    0.000 
#    0.000    0.000    0.000    0.000    0.000    0.000 
#
# Total GULP energy -595321.957925 kJ/mol
# GULP energy per Si atom -12402.540790 kJ/mol
# Density = 1.817268 g / cm^3
# Si number density = 18.214138 Si / 1000 Ang^3
#
#
#
# Elastic Constant Matrix: (Units=GPa)
#
#
# Indices 1 2 3 4 5 6 
#
# 1 53.7512 40.6996 64.1083 0.0000 0.0000 0.0000
# 2 40.6996 96.0207 91.1494 0.0000 0.0000 0.0000
# 3 64.1083 91.1494 190.2841 0.0000 0.0000 0.0000
# 4 0.0000 0.0000 0.0000 8.7885 0.0000 0.0000
# 5 0.0000 0.0000 0.0000 0.0000 31.7599 0.0000
# 6 0.0000 0.0000 0.0000 0.0000 0.0000 18.7875
#
#
#
# Elastic Compliance Matrix: (Units=1/GPa)
#
#
# Indices 1 2 3 4 5 6 
#
# 1 0.033062 -0.006309 -0.008117 0.000000 0.000000 0.000000
# 2 -0.006309 0.020303 -0.007600 0.000000 0.000000 0.000000
# 3 -0.008117 -0.007600 0.011630 0.000000 0.000000 0.000000
# 4 0.000000 0.000000 0.000000 0.113785 0.000000 0.000000
# 5 0.000000 0.000000 0.000000 0.000000 0.031486 0.000000
# 6 0.000000 0.000000 0.000000 0.000000 0.000000 0.053227
#
#
# Mechanical properties :
#
#
# Convention : Reuss Voigt Hill
#
# Bulk Modulus (GPa) = 47.74579 81.33007 64.53793
# Shear Modulus (GPa) = 15.89694 21.47376 18.68535
#
# Velocity S-wave (km/s) = 2.95749 3.43733 3.20640
# Velocity P-wave (km/s) = 6.15896 7.77835 7.01554
#
# Compressibility (1/GPa) = 0.02094426
#
# Stress axis : x y z
#
# Youngs Moduli (GPa) = 30.24629 49.25420 85.98089
#
# Poissons Ratio (x) = 0.31072 0.69790
# Poissons Ratio (y) = 0.19081 0.65346
# Poissons Ratio (z) = 0.24551 0.37433
#
# Static dielectric constant tensor:
#      x y z
#    x 3.117740 0.000000 0.000000 
#    y 0.000000 3.369350 0.000000 
#    z 0.000000 0.000000 3.535950 
# 
# 
# High freq. dielectric constant tensor:
#      x y z
#    x 1.680620 0.000000 0.000000 
#    y 0.000000 1.702820 0.000000 
#    z 0.000000 0.000000 1.719200 
# 
# From -- ./inp_files/37019.got.cif
#   From: 2010.03.12/outbox.cif.g09.slc.cpg/sg51_19_cif.got.tgz:37019.got - 2010.04.16 13:43:02.
