data_PCOD8213024
_publ_section_title
;
Structure prediction by ZEFSAII (Michael W. Deem and Ramdas Pophale) SiO2 
 PCOD8213024
Probable space group: P M M A
;
_chemical_formula_sum "Si O2"
_cell_formula_units_Z 44
_cell_length_a 9.487932
_cell_length_b 28.878981
_cell_length_c 8.870922
_cell_angle_alpha 90.000000
_cell_angle_beta 90.000000
_cell_angle_gamma 90.000000
_cell_volume 2430.648666
_symmetry_space_group_name_H-M "P M M A"
_symmetry_group_IT_number 51
_symmetry_cell_setting 'orthorhombic'
loop_
_space_group_symop_operation_xyz
x,y,z
1/2-x,-y,z
1/2+x,-y,-z
-x,y,-z
-x,-y,-z
1/2+x,y,-z
1/2-x,y,z
x,-y,z
loop_
_atom_site_type_symbol
_atom_site_label
_atom_site_fract_x
_atom_site_fract_y
_atom_site_fract_z
Si Si1 0.914384 0.588588 0.347734
Si Si2 0.413974 0.500000 0.847922
Si Si3 0.586338 0.676470 0.151806
Si Si4 0.585645 0.235242 0.349355
Si Si5 0.585308 0.149285 0.154308
Si Si6 0.411560 0.951098 0.850330
O O1 0.750000 0.588381 0.388287
O O2 0.956423 0.545103 0.245953
O O3 0.958752 0.635101 0.261714
O O4 0.000000 0.585474 0.500000
O O5 0.250000 0.500000 0.889475
O O6 0.500000 0.500000 0.000000
O O7 0.750000 0.673089 0.109723
O O8 0.549304 0.724620 0.231568
O O9 0.500000 0.672344 0.000000
O O10 0.500000 0.244288 0.500000
O O11 0.750000 0.234852 0.390840
O O12 0.535782 0.186871 0.275939
O O13 0.750000 0.156351 0.116191
O O14 0.555270 0.098194 0.230416
O O15 0.500000 0.155758 0.000000
O O16 0.250000 0.950236 0.900531
O O17 0.441641 0.000000 0.758493
O O18 0.500000 0.952719 0.000000
#
# Coordination Sequence:
#
# PCOD8213024 Si02
#       6
#     8   4   8   8   8   8
#     4  10  21  36  54  78 106 135 169 206 245 292
#     4  10  21  36  54  78 106 136 173 212 248 290
#     4  10  21  36  54  77 102 128 162 202 243 290
#     4  10  21  35  50  70  96 126 161 198 237 285
#     4   9  17  29  46  69  94 120 154 194 235 282
#     4   8  13  22  38  61  88 116 146 184 230 276
#
# _framework density 18.102163000000001
#
# number of rings (size 3 to 8) (size 9 to 14) (size 15 to 20)
#    0.000    2.545    0.000    1.909    0.000    2.909 
#    0.000    0.000    0.000    0.545    0.000    0.000 
#    0.000    0.000    0.000    0.000    0.000    0.000 
#
# Total GULP energy -545278.658091 kJ/mol
# GULP energy per Si atom -12392.696775 kJ/mol
# Density = 1.806096 g / cm^3
# Si number density = 18.102163 Si / 1000 Ang^3
#
#
#
# Elastic Constant Matrix: (Units=GPa)
#
#
# Indices 1 2 3 4 5 6 
#
# 1 52.2141 41.1072 58.9986 0.0000 0.0000 0.0000
# 2 41.1072 165.0066 61.2403 0.0000 0.0000 0.0000
# 3 58.9986 61.2403 118.8370 0.0000 0.0000 0.0000
# 4 0.0000 0.0000 0.0000 -9.6710 0.0000 0.0000
# 5 0.0000 0.0000 0.0000 0.0000 35.6069 0.0000
# 6 0.0000 0.0000 0.0000 0.0000 0.0000 7.7616
#
#
#
# Elastic Compliance Matrix: (Units=1/GPa)
#
#
# Indices 1 2 3 4 5 6 
#
# 1 0.045321 -0.003635 -0.020627 0.000000 0.000000 0.000000
# 2 -0.003635 0.007785 -0.002207 0.000000 0.000000 0.000000
# 3 -0.020627 -0.002207 0.019793 0.000000 0.000000 0.000000
# 4 0.000000 0.000000 0.000000 -0.103401 0.000000 0.000000
# 5 0.000000 0.000000 0.000000 0.000000 0.028084 0.000000
# 6 0.000000 0.000000 0.000000 0.000000 0.000000 0.128839
#
#
# Mechanical properties :
#
#
# Convention : Reuss Voigt Hill
#
# Bulk Modulus (GPa) = 50.09923 73.19445 61.64684
# Shear Modulus (GPa) = 26.87978 18.38695 22.63337
#
# Velocity S-wave (km/s) = 3.85761 3.19051 3.53981
# Velocity P-wave (km/s) = 6.89764 7.35489 7.12993
#
# Compressibility (1/GPa) = 0.01996039
#
# Stress axis : x y z
#
# Youngs Moduli (GPa) = 22.06475 128.44995 50.52280
#
# Poissons Ratio (x) = 0.46692 1.04214
# Poissons Ratio (y) = 0.08021 0.11152
# Poissons Ratio (z) = 0.45513 0.28352
#
# Static dielectric constant tensor:
#      x y z
#    x 3.337400 0.000000 0.000000 
#    y 0.000000 4.187960 0.000000 
#    z 0.000000 0.000000 3.034850 
# 
# 
# High freq. dielectric constant tensor:
#      x y z
#    x 1.698740 0.000000 0.000000 
#    y 0.000000 1.737670 0.000000 
#    z 0.000000 0.000000 1.667520 
# 
# From -- ./inp_files/5809.got.cif
#   From: 2010.03.12/outbox.cif.g09.slc.cpg/sg51_3_cif.got.tgz:5809.got - 2010.04.16 13:43:02.
