data_PCOD8213603
_publ_section_title
;
Structure prediction by ZEFSAII (Michael W. Deem and Ramdas Pophale) SiO2 
 PCOD8213603
Probable space group: P M M A
;
_chemical_formula_sum "Si O2"
_cell_formula_units_Z 36
_cell_length_a 8.363097
_cell_length_b 15.999052
_cell_length_c 13.392139
_cell_angle_alpha 90.000000
_cell_angle_beta 90.000000
_cell_angle_gamma 90.000000
_cell_volume 1791.889944
_symmetry_space_group_name_H-M "P M M A"
_symmetry_group_IT_number 51
_symmetry_cell_setting 'orthorhombic'
loop_
_space_group_symop_operation_xyz
x,y,z
1/2-x,-y,z
1/2+x,-y,-z
-x,y,-z
-x,-y,-z
1/2+x,y,-z
1/2-x,y,z
x,-y,z
loop_
_atom_site_type_symbol
_atom_site_label
_atom_site_fract_x
_atom_site_fract_y
_atom_site_fract_z
Si Si1 0.435885 0.094414 0.195392
Si Si2 0.563557 0.670945 0.695497
Si Si3 0.560925 0.500000 0.387725
Si Si4 0.563383 0.833999 0.392686
Si Si5 0.564148 0.744420 0.107491
O O1 0.250000 0.111158 0.175243
O O2 0.471228 0.110525 0.311598
O O3 0.536980 0.156762 0.125851
O O4 0.484330 0.000000 0.167413
O O5 0.750000 0.679715 0.671972
O O6 0.503983 0.579127 0.671515
O O7 0.469400 0.735951 0.625413
O O8 0.531456 0.690273 0.811472
O O9 0.750000 0.500000 0.387410
O O10 0.500000 0.500000 0.500000
O O11 0.500000 0.861967 0.500000
O O12 0.750000 0.852189 0.383750
O O13 0.750000 0.723674 0.116639
O O14 0.500000 0.717501 0.000000
#
# Coordination Sequence:
#
# PCOD8213603 Si02
#       5
#     8   8   4   8   8
#     4  10  21  37  56  81 112 145 186 237 287 337
#     4  11  22  39  60  86 117 149 188 234 282 333
#     4  12  24  40  61  90 123 156 192 230 276 328
#     4  11  21  35  55  79 110 150 191 232 281 338
#     4  11  22  39  62  86 113 149 189 232 283 337
#
# _framework density 20.090520000000001
#
# number of rings (size 3 to 8) (size 9 to 14) (size 15 to 20)
#    0.000    1.111    0.000   11.000    0.000    2.667 
#    0.000    0.556    0.000    0.000    0.000    0.000 
#    0.000    0.000    0.000    0.000    0.000    0.000 
#
# Total GULP energy -446613.568582 kJ/mol
# GULP energy per Si atom -12405.932461 kJ/mol
# Density = 2.004479 g / cm^3
# Si number density = 20.090520 Si / 1000 Ang^3
#
#
#
# Elastic Constant Matrix: (Units=GPa)
#
#
# Indices 1 2 3 4 5 6 
#
# 1 80.4411 14.0289 2.7784 0.0000 0.0000 0.0000
# 2 14.0289 93.8259 13.1836 0.0000 0.0000 0.0000
# 3 2.7784 13.1836 94.3117 0.0000 0.0000 0.0000
# 4 0.0000 0.0000 0.0000 14.0692 0.0000 0.0000
# 5 0.0000 0.0000 0.0000 0.0000 36.8561 0.0000
# 6 0.0000 0.0000 0.0000 0.0000 0.0000 33.1735
#
#
#
# Elastic Compliance Matrix: (Units=1/GPa)
#
#
# Indices 1 2 3 4 5 6 
#
# 1 0.012765 -0.001893 -0.000111 0.000000 0.000000 0.000000
# 2 -0.001893 0.011152 -0.001503 0.000000 0.000000 0.000000
# 3 -0.000111 -0.001503 0.010817 0.000000 0.000000 0.000000
# 4 0.000000 0.000000 0.000000 0.071077 0.000000 0.000000
# 5 0.000000 0.000000 0.000000 0.000000 0.027133 0.000000
# 6 0.000000 0.000000 0.000000 0.000000 0.000000 0.030145
#
#
# Mechanical properties :
#
#
# Convention : Reuss Voigt Hill
#
# Bulk Modulus (GPa) = 36.07637 36.50671 36.29154
# Shear Modulus (GPa) = 27.87945 32.72562 30.30254
#
# Velocity S-wave (km/s) = 3.72922 4.04035 3.88790
# Velocity P-wave (km/s) = 6.04472 6.32270 6.18527
#
# Compressibility (1/GPa) = 0.02771897
#
# Stress axis : x y z
#
# Youngs Moduli (GPa) = 78.33649 89.66760 92.45099
#
# Poissons Ratio (x) = 0.16974 0.01030
# Poissons Ratio (y) = 0.14829 0.13897
# Poissons Ratio (z) = 0.00873 0.13479
#
# Static dielectric constant tensor:
#      x y z
#    x 3.822390 0.000000 0.000000 
#    y 0.000000 3.640720 0.000000 
#    z 0.000000 0.000000 3.688730 
# 
# 
# High freq. dielectric constant tensor:
#      x y z
#    x 1.804320 0.000000 0.000000 
#    y 0.000000 1.774650 0.000000 
#    z 0.000000 0.000000 1.787120 
# 
# From -- ./inp_files/20371.got.cif
#   From: 2010.03.12/outbox.cif.g09.slc.cpg/sg51_11_cif.got.tgz:20371.got - 2010.04.16 13:43:02.
