data_PCOD8213898
_publ_section_title
;
Structure prediction by ZEFSAII (Michael W. Deem and Ramdas Pophale) SiO2 
 PCOD8213898
Probable space group: P M M A
;
_chemical_formula_sum "Si O2"
_cell_formula_units_Z 48
_cell_length_a 18.849872
_cell_length_b 9.050086
_cell_length_c 13.663855
_cell_angle_alpha 90.000000
_cell_angle_beta 90.000000
_cell_angle_gamma 90.000000
_cell_volume 2330.957506
_symmetry_space_group_name_H-M "P M M A"
_symmetry_group_IT_number 51
_symmetry_cell_setting 'orthorhombic'
loop_
_space_group_symop_operation_xyz
x,y,z
1/2-x,-y,z
1/2+x,-y,-z
-x,y,-z
-x,-y,-z
1/2+x,y,-z
1/2-x,y,z
x,-y,z
loop_
_atom_site_type_symbol
_atom_site_label
_atom_site_fract_x
_atom_site_fract_y
_atom_site_fract_z
Si Si1 0.331809 0.332816 0.771355
Si Si2 0.168892 0.666180 0.995698
Si Si3 0.554968 0.172414 0.695618
Si Si4 0.167838 0.324872 0.427801
Si Si5 0.591793 0.171173 0.393379
Si Si6 0.548321 0.826509 0.913582
O O1 0.250000 0.325272 0.740383
O O2 0.359701 0.500000 0.752658
O O3 0.341765 0.286491 0.883506
O O4 0.374623 0.212534 0.710444
O O5 0.250000 0.676587 0.026662
O O6 0.140643 0.500000 0.011234
O O7 0.128516 0.777975 0.066288
O O8 0.625849 0.260048 0.665275
O O9 0.492751 0.201021 0.616039
O O10 0.528766 0.226388 0.803437
O O11 0.574580 0.000000 0.699057
O O12 0.250000 0.272011 0.426306
O O13 0.163715 0.500000 0.424827
O O14 0.128239 0.270125 0.524787
O O15 0.606297 0.000000 0.417111
O O16 0.541439 0.000000 0.920099
O O17 0.500000 0.753665 0.000000
#
# Coordination Sequence:
#
# PCOD8213898 Si02
#       6
#     8   8   8   8   8   8
#     4   9  18  33  53  80 116 155 193 236 287 340
#     4   9  19  35  54  79 113 151 192 239 287 337
#     4  10  23  41  60  85 117 151 189 234 282 335
#     4  11  25  43  62  86 116 150 189 233 282 338
#     4  11  22  37  60  88 116 148 188 235 286 340
#     4  10  21  38  59  84 116 152 190 235 285 336
#
# _framework density 20.592396000000001
#
# number of rings (size 3 to 8) (size 9 to 14) (size 15 to 20)
#    0.000    2.000    0.000    4.000    0.000   11.000 
#    0.000    5.000    0.000    0.000    0.000    0.000 
#    0.000    0.000    0.000    0.000    0.000    0.000 
#
# Total GULP energy -595163.483005 kJ/mol
# GULP energy per Si atom -12399.239229 kJ/mol
# Density = 2.054553 g / cm^3
# Si number density = 20.592396 Si / 1000 Ang^3
#
#
#
# Elastic Constant Matrix: (Units=GPa)
#
#
# Indices 1 2 3 4 5 6 
#
# 1 107.8091 40.3223 58.4878 0.0000 0.0000 0.0000
# 2 40.3223 35.5690 35.5432 0.0000 0.0000 0.0000
# 3 58.4878 35.5432 104.9906 0.0000 0.0000 0.0000
# 4 0.0000 0.0000 0.0000 34.7361 0.0000 0.0000
# 5 0.0000 0.0000 0.0000 0.0000 36.9255 0.0000
# 6 0.0000 0.0000 0.0000 0.0000 0.0000 35.6568
#
#
#
# Elastic Compliance Matrix: (Units=1/GPa)
#
#
# Indices 1 2 3 4 5 6 
#
# 1 0.017442 -0.015208 -0.004568 0.000000 0.000000 0.000000
# 2 -0.015208 0.055748 -0.010401 0.000000 0.000000 0.000000
# 3 -0.004568 -0.010401 0.015590 0.000000 0.000000 0.000000
# 4 0.000000 0.000000 0.000000 0.028788 0.000000 0.000000
# 5 0.000000 0.000000 0.000000 0.000000 0.027082 0.000000
# 6 0.000000 0.000000 0.000000 0.000000 0.000000 0.028045
#
#
# Mechanical properties :
#
#
# Convention : Reuss Voigt Hill
#
# Bulk Modulus (GPa) = 35.17811 57.45281 46.31546
# Shear Modulus (GPa) = 20.61645 29.06471 24.84058
#
# Velocity S-wave (km/s) = 3.16756 3.76097 3.47695
# Velocity P-wave (km/s) = 5.52250 6.84255 6.21766
#
# Compressibility (1/GPa) = 0.02842677
#
# Stress axis : x y z
#
# Youngs Moduli (GPa) = 57.33313 17.93783 64.14211
#
# Poissons Ratio (x) = 0.27280 0.29300
# Poissons Ratio (y) = 0.87193 0.66712
# Poissons Ratio (z) = 0.26189 0.18657
#
# Static dielectric constant tensor:
#      x y z
#    x 3.794080 0.000000 0.000000 
#    y 0.000000 3.552610 0.000000 
#    z 0.000000 0.000000 3.845920 
# 
# 
# High freq. dielectric constant tensor:
#      x y z
#    x 1.808080 0.000000 0.000000 
#    y 0.000000 1.794300 0.000000 
#    z 0.000000 0.000000 1.811290 
# 
# From -- ./inp_files/24802.got.cif
#   From: 2010.03.12/outbox.cif.g09.slc.cpg/sg51_13_cif.got.tgz:24802.got - 2010.04.16 13:43:02.
