data_PCOD8213279
_publ_section_title
;
Structure prediction by ZEFSAII (Michael W. Deem and Ramdas Pophale) SiO2 
 PCOD8213279
Probable space group: P M M A
;
_chemical_formula_sum "Si O2"
_cell_formula_units_Z 48
_cell_length_a 8.720708
_cell_length_b 30.343149
_cell_length_c 9.164614
_cell_angle_alpha 90.000000
_cell_angle_beta 90.000000
_cell_angle_gamma 90.000000
_cell_volume 2425.082807
_symmetry_space_group_name_H-M "P M M A"
_symmetry_group_IT_number 51
_symmetry_cell_setting 'orthorhombic'
loop_
_space_group_symop_operation_xyz
x,y,z
1/2-x,-y,z
1/2+x,-y,-z
-x,y,-z
-x,-y,-z
1/2+x,y,-z
1/2-x,y,z
x,-y,z
loop_
_atom_site_type_symbol
_atom_site_label
_atom_site_fract_x
_atom_site_fract_y
_atom_site_fract_z
Si Si1 0.568478 0.369997 0.157849
Si Si2 0.071332 0.051405 0.846367
Si Si3 0.931891 0.797824 0.158644
Si Si4 0.068101 0.876250 0.341775
Si Si5 0.430962 0.549304 0.653715
Si Si6 0.569643 0.287307 0.341514
O O1 0.750000 0.368354 0.145695
O O2 0.511353 0.416586 0.223930
O O3 0.506526 0.330557 0.259270
O O4 0.500000 0.363711 0.000000
O O5 0.250000 0.063491 0.847335
O O6 0.987142 0.076096 0.714172
O O7 0.042617 0.000000 0.819795
O O8 0.000000 0.066674 0.000000
O O9 0.750000 0.804064 0.150740
O O10 0.980781 0.755697 0.252926
O O11 0.007392 0.840645 0.228120
O O12 0.000000 0.790352 0.000000
O O13 0.250000 0.874733 0.351255
O O14 0.000000 0.866189 0.500000
O O15 0.500000 0.564002 0.500000
O O16 0.250000 0.551286 0.637407
O O17 0.486168 0.500000 0.697166
O O18 0.500000 0.284510 0.500000
O O19 0.750000 0.290071 0.357607
#
# Coordination Sequence:
#
# PCOD8213279 Si02
#       6
#     8   8   8   8   8   8
#     4  10  21  36  53  78 110 143 182 226 274 328
#     4  10  21  39  63  90 120 155 195 238 285 337
#     4  11  23  40  61  86 115 148 188 231 280 335
#     4  12  25  41  61  86 118 154 193 237 285 337
#     4   9  18  33  53  77 106 140 180 226 274 327
#     4  10  22  38  58  83 111 144 183 229 278 331
#
# _framework density 19.793139
#
# number of rings (size 3 to 8) (size 9 to 14) (size 15 to 20)
#    0.000    1.667    0.000    4.500    0.000    5.667 
#    0.000    0.000    0.000    0.000    0.000    0.000 
#    0.000    0.000    0.000    0.000    0.000    0.000 
#
# Total GULP energy -595423.123600 kJ/mol
# GULP energy per Si atom -12404.648408 kJ/mol
# Density = 1.974809 g / cm^3
# Si number density = 19.793139 Si / 1000 Ang^3
#
#
#
# Elastic Constant Matrix: (Units=GPa)
#
#
# Indices 1 2 3 4 5 6 
#
# 1 79.8544 45.9669 50.8655 0.0000 0.0000 0.0000
# 2 45.9669 118.6240 73.0239 0.0000 0.0000 0.0000
# 3 50.8655 73.0239 164.8198 0.0000 0.0000 0.0000
# 4 0.0000 0.0000 0.0000 41.5648 0.0000 0.0000
# 5 0.0000 0.0000 0.0000 0.0000 40.9909 0.0000
# 6 0.0000 0.0000 0.0000 0.0000 0.0000 14.0119
#
#
#
# Elastic Compliance Matrix: (Units=1/GPa)
#
#
# Indices 1 2 3 4 5 6 
#
# 1 0.017303 -0.004699 -0.003258 0.000000 0.000000 0.000000
# 2 -0.004699 0.012868 -0.004251 0.000000 0.000000 0.000000
# 3 -0.003258 -0.004251 0.008956 0.000000 0.000000 0.000000
# 4 0.000000 0.000000 0.000000 0.024059 0.000000 0.000000
# 5 0.000000 0.000000 0.000000 0.000000 0.024396 0.000000
# 6 0.000000 0.000000 0.000000 0.000000 0.000000 0.071368
#
#
# Mechanical properties :
#
#
# Convention : Reuss Voigt Hill
#
# Bulk Modulus (GPa) = 67.97789 78.11231 73.04510
# Shear Modulus (GPa) = 26.55770 32.20965 29.38368
#
# Velocity S-wave (km/s) = 3.66698 4.03837 3.85715
# Velocity P-wave (km/s) = 7.23517 7.82909 7.53798
#
# Compressibility (1/GPa) = 0.01471067
#
# Stress axis : x y z
#
# Youngs Moduli (GPa) = 57.79296 77.71344 111.65729
#
# Poissons Ratio (x) = 0.36521 0.36376
# Poissons Ratio (y) = 0.27160 0.47463
# Poissons Ratio (z) = 0.18828 0.33034
#
# Static dielectric constant tensor:
#      x y z
#    x 3.588790 0.000000 0.000000 
#    y 0.000000 3.937570 0.000000 
#    z 0.000000 0.000000 3.511460 
# 
# 
# High freq. dielectric constant tensor:
#      x y z
#    x 1.771620 0.000000 0.000000 
#    y 0.000000 1.789610 0.000000 
#    z 0.000000 0.000000 1.778750 
# 
# From -- ./inp_files/6092.got.cif
#   From: 2010.03.12/outbox.cif.g09.slc.cpg/sg51_4_cif.got.tgz:6092.got - 2010.04.16 13:43:02.
