data_PCOD8213668
_publ_section_title
;
Structure prediction by ZEFSAII (Michael W. Deem and Ramdas Pophale) SiO2 
 PCOD8213668
Probable space group: P M M A
;
_chemical_formula_sum "Si O2"
_cell_formula_units_Z 48
_cell_length_a 9.049147
_cell_length_b 9.150222
_cell_length_c 30.893824
_cell_angle_alpha 90.000000
_cell_angle_beta 90.000000
_cell_angle_gamma 90.000000
_cell_volume 2558.061269
_symmetry_space_group_name_H-M "P M M A"
_symmetry_group_IT_number 51
_symmetry_cell_setting 'orthorhombic'
loop_
_space_group_symop_operation_xyz
x,y,z
1/2-x,-y,z
1/2+x,-y,-z
-x,y,-z
-x,-y,-z
1/2+x,y,-z
1/2-x,y,z
x,-y,z
loop_
_atom_site_type_symbol
_atom_site_label
_atom_site_fract_x
_atom_site_fract_y
_atom_site_fract_z
Si Si1 0.920313 0.828469 0.121730
Si Si2 0.577848 0.169761 0.790345
Si Si3 0.580129 0.327429 0.287384
Si Si4 0.579799 0.672007 0.956490
Si Si5 0.923944 0.169218 0.636216
Si Si6 0.088062 0.827123 0.459839
O O1 0.750000 0.780348 0.121987
O O2 0.992362 0.779432 0.166810
O O3 0.004310 0.747899 0.083778
O O4 0.938910 0.000000 0.114460
O O5 0.750000 0.203037 0.796965
O O6 0.517745 0.261753 0.750650
O O7 0.549314 0.000000 0.780442
O O8 0.750000 0.279071 0.281581
O O9 0.563122 0.500000 0.286509
O O10 0.519819 0.269853 0.332799
O O11 0.750000 0.719493 0.959121
O O12 0.561674 0.500000 0.950583
O O13 0.500000 0.726317 0.000000
O O14 0.750000 0.202871 0.641340
O O15 0.979664 0.207073 0.587494
O O16 0.954003 0.000000 0.647305
O O17 0.250000 0.757396 0.462109
O O18 0.000000 0.756399 0.500000
O O19 0.098008 0.000000 0.465624
#
# Coordination Sequence:
#
# PCOD8213668 Si02
#       6
#     8   8   8   8   8   8
#     4  10  21  37  58  84 112 142 176 216 264 315
#     4  10  21  38  60  83 106 135 173 216 262 314
#     4  11  24  38  52  75 106 138 174 216 260 308
#     4  10  21  37  57  81 110 146 186 225 266 312
#     4   9  18  33  53  77 104 135 172 213 258 309
#     4   8  14  25  43  70 102 131 162 204 252 302
#
# _framework density 18.764211
#
# number of rings (size 3 to 8) (size 9 to 14) (size 15 to 20)
#    0.000    2.333    0.000    3.500    0.000    8.333 
#    0.000    1.667    0.000    0.500    0.000    0.000 
#    0.000    0.000    0.000    0.000    0.000    0.000 
#
# Total GULP energy -595209.905258 kJ/mol
# GULP energy per Si atom -12400.206360 kJ/mol
# Density = 1.872150 g / cm^3
# Si number density = 18.764211 Si / 1000 Ang^3
#
#
#
# Elastic Constant Matrix: (Units=GPa)
#
#
# Indices 1 2 3 4 5 6 
#
# 1 119.5855 40.3213 74.5898 0.0000 0.0000 0.0000
# 2 40.3213 40.6793 44.1083 0.0000 0.0000 0.0000
# 3 74.5898 44.1083 157.1509 0.0000 0.0000 0.0000
# 4 0.0000 0.0000 0.0000 244.1922 0.0000 0.0000
# 5 0.0000 0.0000 0.0000 0.0000 42.4113 0.0000
# 6 0.0000 0.0000 0.0000 0.0000 0.0000 27.9537
#
#
#
# Elastic Compliance Matrix: (Units=1/GPa)
#
#
# Indices 1 2 3 4 5 6 
#
# 1 0.014104 -0.009662 -0.003982 0.000000 0.000000 0.000000
# 2 -0.009662 0.041955 -0.007190 0.000000 0.000000 0.000000
# 3 -0.003982 -0.007190 0.010272 0.000000 0.000000 0.000000
# 4 0.000000 0.000000 0.000000 0.004095 0.000000 0.000000
# 5 0.000000 0.000000 0.000000 0.000000 0.023579 0.000000
# 6 0.000000 0.000000 0.000000 0.000000 0.000000 0.035773
#
#
# Mechanical properties :
#
#
# Convention : Reuss Voigt Hill
#
# Bulk Modulus (GPa) = 40.54733 70.60605 55.57669
# Shear Modulus (GPa) = 27.82927 73.47119 50.65023
#
# Velocity S-wave (km/s) = 3.85529 6.26418 5.20111
# Velocity P-wave (km/s) = 6.43999 9.48840 8.10873
#
# Compressibility (1/GPa) = 0.02466254
#
# Stress axis : x y z
#
# Youngs Moduli (GPa) = 70.90235 23.83492 97.35579
#
# Poissons Ratio (x) = 0.23028 0.38772
# Poissons Ratio (y) = 0.68503 0.69999
# Poissons Ratio (z) = 0.28237 0.17137
#
# Static dielectric constant tensor:
#      x y z
#    x 3.501870 0.000000 0.000000 
#    y 0.000000 3.171620 0.000000 
#    z 0.000000 0.000000 3.890280 
# 
# 
# High freq. dielectric constant tensor:
#      x y z
#    x 1.738240 0.000000 0.000000 
#    y 0.000000 1.700170 0.000000 
#    z 0.000000 0.000000 1.747700 
# 
# From -- ./inp_files/36940.got.cif
#   From: 2010.03.12/outbox.cif.g09.slc.cpg/sg51_19_cif.got.tgz:36940.got - 2010.04.16 13:43:02.
