data_PCOD8213478
_publ_section_title
;
Structure prediction by ZEFSAII (Michael W. Deem and Ramdas Pophale) SiO2 
 PCOD8213478
Probable space group: P M M A
;
_chemical_formula_sum "Si O2"
_cell_formula_units_Z 64
_cell_length_a 25.159561
_cell_length_b 9.108732
_cell_length_c 14.217539
_cell_angle_alpha 90.000000
_cell_angle_beta 90.000000
_cell_angle_gamma 90.000000
_cell_volume 3258.257560
_symmetry_space_group_name_H-M "P M M A"
_symmetry_group_IT_number 51
_symmetry_cell_setting 'orthorhombic'
loop_
_space_group_symop_operation_xyz
x,y,z
1/2-x,-y,z
1/2+x,-y,-z
-x,y,-z
-x,-y,-z
1/2+x,y,-z
1/2-x,y,z
x,-y,z
loop_
_atom_site_type_symbol
_atom_site_label
_atom_site_fract_x
_atom_site_fract_y
_atom_site_fract_z
Si Si1 0.189662 0.669305 0.222564
Si Si2 0.491671 0.166142 0.205710
Si Si3 0.188960 0.329514 0.777861
Si Si4 0.094806 0.328857 0.089925
Si Si5 0.688624 0.828528 0.589083
Si Si6 0.029956 0.167767 0.594165
Si Si7 0.363245 0.328591 0.584121
Si Si8 0.100963 0.170980 0.894519
O O1 0.250000 0.708958 0.193206
O O2 0.184638 0.500000 0.252409
O O3 0.152456 0.705642 0.134060
O O4 0.170451 0.765125 0.310741
O O5 0.450706 0.279969 0.161932
O O6 0.489530 0.183538 0.318479
O O7 0.551291 0.203328 0.172756
O O8 0.476471 0.000000 0.175518
O O9 0.250000 0.288837 0.796768
O O10 0.177477 0.500000 0.796934
O O11 0.175803 0.289696 0.670065
O O12 0.153897 0.238014 0.850142
O O13 0.087635 0.500000 0.068984
O O14 0.088267 0.241100 0.994488
O O15 0.750000 0.790756 0.570728
O O16 0.654295 0.756864 0.508002
O O17 0.677117 0.000000 0.589959
O O18 0.078282 0.277204 0.612280
O O19 0.000000 0.216151 0.500000
O O20 0.050814 0.000000 0.586675
O O21 0.363002 0.500000 0.561534
O O22 0.110890 0.000000 0.908866
#
# Coordination Sequence:
#
# PCOD8213478 Si02
#       8
#     8   8   8   8   8   8   8   8
#     4   9  20  40  61  84 118 156 193 240 297 353
#     4  10  22  41  62  87 122 160 198 247 301 356
#     4  10  22  40  62  89 122 161 202 246 302 362
#     4  11  24  39  62  92 119 154 202 249 302 366
#     4  10  21  36  57  85 116 153 196 240 286 344
#     4  10  22  40  61  88 122 162 200 241 299 357
#     4  11  22  37  60  88 122 159 198 245 297 358
#     4  11  23  41  63  88 119 155 200 250 304 357
#
# _framework density 19.642401
#
# number of rings (size 3 to 8) (size 9 to 14) (size 15 to 20)
#    0.000    1.750    1.250    2.250    1.750    6.750 
#    0.000    1.250    0.000    0.000    0.000    0.000 
#    0.000    0.000    0.000    0.000    0.000    0.000 
#
# Total GULP energy -793955.869051 kJ/mol
# GULP energy per Si atom -12405.560454 kJ/mol
# Density = 1.959769 g / cm^3
# Si number density = 19.642401 Si / 1000 Ang^3
#
#
#
# Elastic Constant Matrix: (Units=GPa)
#
#
# Indices 1 2 3 4 5 6 
#
# 1 87.2498 41.8576 39.9286 0.0000 0.0000 0.0000
# 2 41.8576 72.1423 45.0035 0.0000 0.0000 0.0000
# 3 39.9286 45.0035 112.4611 0.0000 0.0000 0.0000
# 4 0.0000 0.0000 0.0000 33.2622 0.0000 0.0000
# 5 0.0000 0.0000 0.0000 0.0000 29.3554 0.0000
# 6 0.0000 0.0000 0.0000 0.0000 0.0000 35.1639
#
#
#
# Elastic Compliance Matrix: (Units=1/GPa)
#
#
# Indices 1 2 3 4 5 6 
#
# 1 0.016474 -0.007876 -0.002697 0.000000 0.000000 0.000000
# 2 -0.007876 0.022238 -0.006103 0.000000 0.000000 0.000000
# 3 -0.002697 -0.006103 0.012292 0.000000 0.000000 0.000000
# 4 0.000000 0.000000 0.000000 0.030064 0.000000 0.000000
# 5 0.000000 0.000000 0.000000 0.000000 0.034065 0.000000
# 6 0.000000 0.000000 0.000000 0.000000 0.000000 0.028438
#
#
# Mechanical properties :
#
#
# Convention : Reuss Voigt Hill
#
# Bulk Modulus (GPa) = 56.65025 58.38140 57.51583
# Shear Modulus (GPa) = 27.35117 29.22721 28.28919
#
# Velocity S-wave (km/s) = 3.73561 3.86160 3.79913
# Velocity P-wave (km/s) = 6.89273 7.04764 6.97062
#
# Compressibility (1/GPa) = 0.01765217
#
# Stress axis : x y z
#
# Youngs Moduli (GPa) = 60.70133 44.96791 81.35502
#
# Poissons Ratio (x) = 0.35416 0.21945
# Poissons Ratio (y) = 0.47807 0.49649
# Poissons Ratio (z) = 0.16374 0.27443
#
# Static dielectric constant tensor:
#      x y z
#    x 3.577230 0.000000 0.000000 
#    y 0.000000 3.615310 0.000000 
#    z 0.000000 0.000000 3.604420 
# 
# 
# High freq. dielectric constant tensor:
#      x y z
#    x 1.766750 0.000000 0.000000 
#    y 0.000000 1.768740 0.000000 
#    z 0.000000 0.000000 1.773870 
# 
# From -- ./inp_files/26226.got.cif
#   From: 2010.03.12/outbox.cif.g09.slc.cpg/sg51_14_cif.got.tgz:26226.got - 2010.04.16 13:43:02.
