data_PCOD8213219
_publ_section_title
;
Structure prediction by ZEFSAII (Michael W. Deem and Ramdas Pophale) SiO2 
 PCOD8213219
Probable space group: P M M A
;
_chemical_formula_sum "Si O2"
_cell_formula_units_Z 48
_cell_length_a 9.479296
_cell_length_b 8.992420
_cell_length_c 31.113719
_cell_angle_alpha 90.000000
_cell_angle_beta 90.000000
_cell_angle_gamma 90.000000
_cell_volume 2652.189753
_symmetry_space_group_name_H-M "P M M A"
_symmetry_group_IT_number 51
_symmetry_cell_setting 'orthorhombic'
loop_
_space_group_symop_operation_xyz
x,y,z
1/2-x,-y,z
1/2+x,-y,-z
-x,y,-z
-x,-y,-z
1/2+x,y,-z
1/2-x,y,z
x,-y,z
loop_
_atom_site_type_symbol
_atom_site_label
_atom_site_fract_x
_atom_site_fract_y
_atom_site_fract_z
Si Si1 0.408891 0.823259 0.880917
Si Si2 0.086693 0.825928 0.386188
Si Si3 0.411170 0.676325 0.540615
Si Si4 0.905539 0.823522 0.709996
Si Si5 0.907374 0.823119 0.213961
Si Si6 0.590283 0.822618 0.959648
O O1 0.250000 0.763310 0.889458
O O2 0.462190 0.773869 0.833374
O O3 0.516389 0.759497 0.916454
O O4 0.405302 0.000000 0.883788
O O5 0.250000 0.781351 0.394251
O O6 0.040262 0.782458 0.337683
O O7 0.982812 0.736050 0.416515
O O8 0.066266 0.000000 0.394565
O O9 0.500000 0.736651 0.500000
O O10 0.250000 0.734208 0.537118
O O11 0.414761 0.500000 0.542178
O O12 0.750000 0.757292 0.716631
O O13 0.000941 0.752328 0.747579
O O14 0.900933 0.000000 0.714269
O O15 0.750000 0.762714 0.220389
O O16 0.909725 0.000000 0.217054
O O17 0.750000 0.760724 0.962358
O O18 0.592551 0.000000 0.959350
O O19 0.500000 0.763757 0.000000
#
# Coordination Sequence:
#
# PCOD8213219 Si02
#       6
#     8   8   8   8   8   8
#     4   8  13  20  27  35  49  69  95 129 169 215
#     4   9  18  32  49  70  95 121 149 181 218 260
#     4  10  21  36  53  72  93 119 151 184 219 260
#     4   8  14  24  37  54  77 102 126 155 192 234
#     4   8  13  20  30  44  62  85 112 142 179 225
#     4   9  15  20  25  32  42  59  86 123 169 219
#
# _framework density 18.098253
#
# number of rings (size 3 to 8) (size 9 to 14) (size 15 to 20)
#    0.000    3.333    0.000    3.000    0.000    5.000 
#    0.000    5.000    0.000    0.000    0.000    0.000 
#    0.000    0.000    0.000    0.000    0.000    0.000 
#
# Total GULP energy -594828.460673 kJ/mol
# GULP energy per Si atom -12392.259597 kJ/mol
# Density = 1.805706 g / cm^3
# Si number density = 18.098253 Si / 1000 Ang^3
#
#
#
# Elastic Constant Matrix: (Units=GPa)
#
#
# Indices 1 2 3 4 5 6 
#
# 1 133.9968 8.6956 101.4522 0.0000 0.0000 0.0000
# 2 8.6956 1.6373 8.7626 0.0000 0.0000 0.0000
# 3 101.4522 8.7626 178.4638 0.0000 0.0000 0.0000
# 4 0.0000 0.0000 0.0000 -2.0416 0.0000 0.0000
# 5 0.0000 0.0000 0.0000 0.0000 43.7309 0.0000
# 6 0.0000 0.0000 0.0000 0.0000 0.0000 11.8772
#
#
#
# Elastic Compliance Matrix: (Units=1/GPa)
#
#
# Indices 1 2 3 4 5 6 
#
# 1 0.015410 -0.047419 -0.006432 0.000000 0.000000 0.000000
# 2 -0.047419 0.974400 -0.020886 0.000000 0.000000 0.000000
# 3 -0.006432 -0.020886 0.010285 0.000000 0.000000 0.000000
# 4 0.000000 0.000000 0.000000 -0.489815 0.000000 0.000000
# 5 0.000000 0.000000 0.000000 0.000000 0.022867 0.000000
# 6 0.000000 0.000000 0.000000 0.000000 0.000000 0.084195
#
#
# Mechanical properties :
#
#
# Convention : Reuss Voigt Hill
#
# Bulk Modulus (GPa) = 1.17561 61.32428 31.24995
# Shear Modulus (GPa) = 4.76029 23.72580 14.24304
#
# Velocity S-wave (km/s) = 1.62356 3.62462 2.80837
# Velocity P-wave (km/s) = 2.04098 7.17460 5.27449
#
# Compressibility (1/GPa) = 0.85061992
#
# Stress axis : x y z
#
# Youngs Moduli (GPa) = 64.89402 1.02627 97.22723
#
# Poissons Ratio (x) = 0.04867 0.62534
# Poissons Ratio (y) = 3.07723 2.03072
# Poissons Ratio (z) = 0.41738 0.02144
#
# Static dielectric constant tensor:
#      x y z
#    x 3.638880 0.000000 0.000000 
#    y 0.000000 2.537730 0.000000 
#    z 0.000000 0.000000 3.715560 
# 
# 
# High freq. dielectric constant tensor:
#      x y z
#    x 1.704260 0.000000 0.000000 
#    y 0.000000 1.615170 0.000000 
#    z 0.000000 0.000000 1.720700 
# 
# From -- ./inp_files/37315.got.cif
#   From: 2010.03.12/outbox.cif.g09.slc.cpg/sg51_19_cif.got.tgz:37315.got - 2010.04.16 13:43:02.
