data_PCOD8213605
_publ_section_title
;
Structure prediction by ZEFSAII (Michael W. Deem and Ramdas Pophale) SiO2 
 PCOD8213605
Probable space group: P M M A
;
_chemical_formula_sum "Si O2"
_cell_formula_units_Z 64
_cell_length_a 9.234863
_cell_length_b 14.251407
_cell_length_c 24.907690
_cell_angle_alpha 90.000000
_cell_angle_beta 90.000000
_cell_angle_gamma 90.000000
_cell_volume 3278.095880
_symmetry_space_group_name_H-M "P M M A"
_symmetry_group_IT_number 51
_symmetry_cell_setting 'orthorhombic'
loop_
_space_group_symop_operation_xyz
x,y,z
1/2-x,-y,z
1/2+x,-y,-z
-x,y,-z
-x,-y,-z
1/2+x,y,-z
1/2-x,y,z
x,-y,z
loop_
_atom_site_type_symbol
_atom_site_label
_atom_site_fract_x
_atom_site_fract_y
_atom_site_fract_z
Si Si1 0.587676 0.889036 0.449615
Si Si2 0.920595 0.225099 0.631861
Si Si3 0.917786 0.889753 0.152556
Si Si4 0.082590 0.396819 0.089521
Si Si5 0.419860 0.198418 0.052091
Si Si6 0.414727 0.779771 0.740483
Si Si7 0.911918 0.603060 0.193378
Si Si8 0.080881 0.393152 0.445502
O O1 0.500000 0.847381 0.500000
O O2 0.750000 0.846854 0.450090
O O3 0.501679 0.859779 0.397009
O O4 0.594528 0.000000 0.451870
O O5 0.750000 0.208756 0.629672
O O6 0.963692 0.324155 0.603591
O O7 0.972288 0.213851 0.692616
O O8 0.750000 0.866110 0.140334
O O9 0.962212 0.846188 0.210046
O O10 0.015251 0.846222 0.105783
O O11 0.946340 0.000000 0.155413
O O12 0.250000 0.406850 0.101161
O O13 0.022561 0.500000 0.069703
O O14 0.052742 0.311255 0.049042
O O15 0.013356 0.365175 0.145260
O O16 0.250000 0.174087 0.049580
O O17 0.500000 0.155073 0.000000
O O18 0.250000 0.804472 0.722425
O O19 0.426979 0.671747 0.756991
O O20 0.750000 0.605422 0.169749
O O21 0.954196 0.500000 0.214672
O O22 0.250000 0.384651 0.457662
O O23 0.038918 0.500000 0.429096
O O24 0.000000 0.362825 0.500000
#
# Coordination Sequence:
#
# PCOD8213605 Si02
#       8
#     8   8   8   8   8   8   8   8
#     4  10  21  38  60  84 112 146 183 228 285 344
#     4  11  23  36  55  84 117 152 193 238 283 336
#     4  10  22  42  65  85 109 145 189 237 291 348
#     4   9  18  33  54  82 115 149 184 223 270 325
#     4  11  23  38  60  88 119 151 187 232 282 338
#     4  10  21  37  56  81 114 149 188 233 285 342
#     4   9  17  31  54  81 108 142 184 228 273 326
#     4   9  19  36  56  80 113 154 198 241 286 335
#
# _framework density 19.523529
#
# number of rings (size 3 to 8) (size 9 to 14) (size 15 to 20)
#    0.000    2.125    1.250    1.500    0.000    6.000 
#    0.000    1.250    0.000    0.000    0.000    0.000 
#    0.000    0.000    0.000    0.000    0.000    0.000 
#
# Total GULP energy -793361.013798 kJ/mol
# GULP energy per Si atom -12396.265841 kJ/mol
# Density = 1.947909 g / cm^3
# Si number density = 19.523529 Si / 1000 Ang^3
#
#
#
# Elastic Constant Matrix: (Units=GPa)
#
#
# Indices 1 2 3 4 5 6 
#
# 1 93.7979 50.8974 71.0002 0.0000 0.0000 0.0000
# 2 50.8974 61.6722 42.7063 0.0000 0.0000 0.0000
# 3 71.0002 42.7063 127.5956 0.0000 0.0000 0.0000
# 4 0.0000 0.0000 0.0000 14.9879 0.0000 0.0000
# 5 0.0000 0.0000 0.0000 0.0000 39.1347 0.0000
# 6 0.0000 0.0000 0.0000 0.0000 0.0000 24.4465
#
#
#
# Elastic Compliance Matrix: (Units=1/GPa)
#
#
# Indices 1 2 3 4 5 6 
#
# 1 0.025806 -0.014779 -0.009413 0.000000 0.000000 0.000000
# 2 -0.014779 0.029571 -0.001674 0.000000 0.000000 0.000000
# 3 -0.009413 -0.001674 0.013635 0.000000 0.000000 0.000000
# 4 0.000000 0.000000 0.000000 0.066720 0.000000 0.000000
# 5 0.000000 0.000000 0.000000 0.000000 0.025553 0.000000
# 6 0.000000 0.000000 0.000000 0.000000 0.000000 0.040906
#
#
# Mechanical properties :
#
#
# Convention : Reuss Voigt Hill
#
# Bulk Modulus (GPa) = 57.86872 68.03038 62.94955
# Shear Modulus (GPa) = 19.25428 23.61128 21.43278
#
# Velocity S-wave (km/s) = 3.14380 3.48138 3.31689
# Velocity P-wave (km/s) = 6.54850 7.14710 6.85434
#
# Compressibility (1/GPa) = 0.01728049
#
# Stress axis : x y z
#
# Youngs Moduli (GPa) = 38.75063 33.81730 73.33919
#
# Poissons Ratio (x) = 0.49979 0.69035
# Poissons Ratio (y) = 0.57270 0.12273
# Poissons Ratio (z) = 0.36476 0.05659
#
# Static dielectric constant tensor:
#      x y z
#    x 3.573680 0.000000 0.000000 
#    y 0.000000 3.856780 0.000000 
#    z 0.000000 0.000000 3.388330 
# 
# 
# High freq. dielectric constant tensor:
#      x y z
#    x 1.761930 0.000000 0.000000 
#    y 0.000000 1.769120 0.000000 
#    z 0.000000 0.000000 1.747050 
# 
# From -- ./inp_files/34849.got.cif
#   From: 2010.03.12/outbox.cif.g09.slc.cpg/sg51_18_cif.got.tgz:34849.got - 2010.04.16 13:43:02.
