data_PCOD8213500
_publ_section_title
;
Structure prediction by ZEFSAII (Michael W. Deem and Ramdas Pophale) SiO2 
 PCOD8213500
Probable space group: P M M A
;
_chemical_formula_sum "Si O2"
_cell_formula_units_Z 52
_cell_length_a 8.902978
_cell_length_b 15.304175
_cell_length_c 22.866898
_cell_angle_alpha 90.000000
_cell_angle_beta 90.000000
_cell_angle_gamma 90.000000
_cell_volume 3115.677355
_symmetry_space_group_name_H-M "P M M A"
_symmetry_group_IT_number 51
_symmetry_cell_setting 'orthorhombic'
loop_
_space_group_symop_operation_xyz
x,y,z
1/2-x,-y,z
1/2+x,-y,-z
-x,y,-z
-x,-y,-z
1/2+x,y,-z
1/2-x,y,z
x,-y,z
loop_
_atom_site_type_symbol
_atom_site_label
_atom_site_fract_x
_atom_site_fract_y
_atom_site_fract_z
Si Si1 0.585733 0.603069 0.055111
Si Si2 0.419453 0.330856 0.398510
Si Si3 0.924266 0.902423 0.674296
Si Si4 0.083466 0.268323 0.267326
Si Si5 0.927352 0.500000 0.437147
Si Si6 0.429214 0.160775 0.559113
Si Si7 0.428469 0.402156 0.816743
O O1 0.750000 0.646065 0.054452
O O2 0.598162 0.500000 0.046121
O O3 0.508411 0.621433 0.118308
O O4 0.500000 0.645803 0.000000
O O5 0.250000 0.343148 0.423457
O O6 0.412865 0.308418 0.331093
O O7 0.517056 0.417241 0.401513
O O8 0.504617 0.258005 0.435947
O O9 0.750000 0.882905 0.658076
O O10 0.975164 0.832170 0.724113
O O11 0.021218 0.895350 0.615273
O O12 0.945040 0.000000 0.699931
O O13 0.250000 0.269359 0.239404
O O14 0.976515 0.326258 0.227237
O O15 0.750000 0.500000 0.442117
O O16 0.000000 0.500000 0.500000
O O17 0.500000 0.118919 0.500000
O O18 0.250000 0.162056 0.555001
O O19 0.250000 0.404518 0.819520
O O20 0.485793 0.500000 0.798059
#
# Coordination Sequence:
#
# PCOD8213500 Si02
#       7
#     8   8   8   8   4   8   8
#     4   8  14  25  40  60  89 125 164 199 231 264
#     4  10  21  37  51  66  91 121 154 195 238 279
#     4   9  19  37  56  72  93 121 152 191 241 291
#     4   9  19  33  50  71  93 120 155 194 233 275
#     4  12  24  36  50  68  88 116 155 196 239 284
#     4  11  21  34  52  73  95 118 147 184 232 289
#     4   9  18  30  44  66  98 134 165 195 230 272
#
# _framework density 16.689791
#
# number of rings (size 3 to 8) (size 9 to 14) (size 15 to 20)
#    0.000    2.462    0.000    4.846    1.077    4.615 
#    0.000    1.538    0.000    0.000    0.000    0.000 
#    0.000    0.615    0.000    1.385    0.000    2.154 
#
# Total GULP energy -644444.727566 kJ/mol
# GULP energy per Si atom -12393.167838 kJ/mol
# Density = 1.665180 g / cm^3
# Si number density = 16.689791 Si / 1000 Ang^3
#
#
#
# Elastic Constant Matrix: (Units=GPa)
#
#
# Indices 1 2 3 4 5 6 
#
# 1 91.0258 31.4048 30.9611 0.0000 0.0000 0.0000
# 2 31.4048 105.4786 38.0026 0.0000 0.0000 0.0000
# 3 30.9611 38.0026 78.5018 0.0000 0.0000 0.0000
# 4 0.0000 0.0000 0.0000 10.2057 0.0000 0.0000
# 5 0.0000 0.0000 0.0000 0.0000 26.3450 0.0000
# 6 0.0000 0.0000 0.0000 0.0000 0.0000 19.2961
#
#
#
# Elastic Compliance Matrix: (Units=1/GPa)
#
#
# Indices 1 2 3 4 5 6 
#
# 1 0.013207 -0.002490 -0.004003 0.000000 0.000000 0.000000
# 2 -0.002490 0.011953 -0.004804 0.000000 0.000000 0.000000
# 3 -0.004003 -0.004804 0.016643 0.000000 0.000000 0.000000
# 4 0.000000 0.000000 0.000000 0.097985 0.000000 0.000000
# 5 0.000000 0.000000 0.000000 0.000000 0.037958 0.000000
# 6 0.000000 0.000000 0.000000 0.000000 0.000000 0.051824
#
#
# Mechanical properties :
#
#
# Convention : Reuss Voigt Hill
#
# Bulk Modulus (GPa) = 52.06254 52.86038 52.46146
# Shear Modulus (GPa) = 19.33738 22.81187 21.07463
#
# Velocity S-wave (km/s) = 3.40757 3.70106 3.55734
# Velocity P-wave (km/s) = 6.83696 7.07141 6.95517
#
# Compressibility (1/GPa) = 0.01920767
#
# Stress axis : x y z
#
# Youngs Moduli (GPa) = 75.71991 83.66209 60.08419
#
# Poissons Ratio (x) = 0.20829 0.24054
# Poissons Ratio (y) = 0.18852 0.28867
# Poissons Ratio (z) = 0.30314 0.40195
#
# Static dielectric constant tensor:
#      x y z
#    x 3.517620 0.000000 0.000000 
#    y 0.000000 3.089030 0.000000 
#    z 0.000000 0.000000 3.140320 
# 
# 
# High freq. dielectric constant tensor:
#      x y z
#    x 1.645270 0.000000 0.000000 
#    y 0.000000 1.621990 0.000000 
#    z 0.000000 0.000000 1.623730 
# 
# From -- ./inp_files/31785.got.cif
#   From: 2010.03.12/outbox.cif.g09.slc.cpg/sg51_16_cif.got.tgz:31785.got - 2010.04.16 13:43:02.
