data_PCOD8213448
_publ_section_title
;
Structure prediction by ZEFSAII (Michael W. Deem and Ramdas Pophale) SiO2 
 PCOD8213448
Probable space group: P M M A
;
_chemical_formula_sum "Si O2"
_cell_formula_units_Z 48
_cell_length_a 9.796714
_cell_length_b 9.105347
_cell_length_c 28.902783
_cell_angle_alpha 90.000000
_cell_angle_beta 90.000000
_cell_angle_gamma 90.000000
_cell_volume 2578.199935
_symmetry_space_group_name_H-M "P M M A"
_symmetry_group_IT_number 51
_symmetry_cell_setting 'orthorhombic'
loop_
_space_group_symop_operation_xyz
x,y,z
1/2-x,-y,z
1/2+x,-y,-z
-x,y,-z
-x,-y,-z
1/2+x,y,-z
1/2-x,y,z
x,-y,z
loop_
_atom_site_type_symbol
_atom_site_label
_atom_site_fract_x
_atom_site_fract_y
_atom_site_fract_z
Si Si1 0.407347 0.328259 0.042697
Si Si2 0.087918 0.165254 0.133901
Si Si3 0.250000 0.833941 0.441396
Si Si4 0.461411 0.831361 0.598236
Si Si5 0.908313 0.672207 0.774711
Si Si6 0.250000 0.326575 0.536352
Si Si7 0.905791 0.169406 0.297602
O O1 0.250000 0.287716 0.031995
O O2 0.423561 0.500000 0.052505
O O3 0.464666 0.244548 0.087620
O O4 0.500000 0.276741 0.000000
O O5 0.250000 0.167085 0.133741
O O6 0.034695 0.250900 0.178942
O O7 0.030033 0.000000 0.135210
O O8 0.378290 0.807037 0.408273
O O9 0.250000 0.720940 0.483252
O O10 0.250000 0.000000 0.461498
O O11 0.385115 0.733185 0.560768
O O12 0.419972 0.780453 0.649361
O O13 0.417969 0.000000 0.590351
O O14 0.750000 0.711567 0.766018
O O15 0.929711 0.500000 0.780679
O O16 0.995031 0.728869 0.731778
O O17 0.250000 0.500000 0.538910
O O18 0.750000 0.192588 0.281441
O O19 0.950517 0.000000 0.291799
#
# Coordination Sequence:
#
# PCOD8213448 Si02
#       7
#     8   8   4   8   8   4   8
#     4   9  17  30  49  73 103 139 177 218 267 324
#     4   9  17  31  52  77 104 138 181 227 271 315
#     4  10  22  38  62  88 110 142 186 230 269 316
#     4  10  21  40  62  84 110 144 185 226 269 322
#     4  10  21  36  56  83 112 143 180 223 273 329
#     4  12  24  38  58  84 116 152 182 218 271 326
#     4  10  21  38  60  83 109 141 180 225 272 323
#
# _framework density 18.617640000000002
#
# number of rings (size 3 to 8) (size 9 to 14) (size 15 to 20)
#    0.000    2.167    0.833    2.250    1.167    7.000 
#    0.000    0.833    0.000    3.000    0.000    0.000 
#    0.000    0.000    0.000    0.000    0.000    0.000 
#
# Total GULP energy -595362.506057 kJ/mol
# GULP energy per Si atom -12403.385543 kJ/mol
# Density = 1.857527 g / cm^3
# Si number density = 18.617640 Si / 1000 Ang^3
#
#
#
# Elastic Constant Matrix: (Units=GPa)
#
#
# Indices 1 2 3 4 5 6 
#
# 1 81.3825 36.2377 36.3717 0.0000 0.0000 0.0000
# 2 36.2377 94.6221 54.0207 0.0000 0.0000 0.0000
# 3 36.3717 54.0207 109.5221 0.0000 0.0000 0.0000
# 4 0.0000 0.0000 0.0000 29.3826 0.0000 0.0000
# 5 0.0000 0.0000 0.0000 0.0000 29.8205 0.0000
# 6 0.0000 0.0000 0.0000 0.0000 0.0000 23.0852
#
#
#
# Elastic Compliance Matrix: (Units=1/GPa)
#
#
# Indices 1 2 3 4 5 6 
#
# 1 0.015533 -0.004181 -0.003096 0.000000 0.000000 0.000000
# 2 -0.004181 0.015836 -0.006423 0.000000 0.000000 0.000000
# 3 -0.003096 -0.006423 0.013327 0.000000 0.000000 0.000000
# 4 0.000000 0.000000 0.000000 0.034034 0.000000 0.000000
# 5 0.000000 0.000000 0.000000 0.000000 0.033534 0.000000
# 6 0.000000 0.000000 0.000000 0.000000 0.000000 0.043318
#
#
# Mechanical properties :
#
#
# Convention : Reuss Voigt Hill
#
# Bulk Modulus (GPa) = 57.81557 59.86521 58.84039
# Shear Modulus (GPa) = 26.49052 27.05079 26.77065
#
# Velocity S-wave (km/s) = 3.77619 3.81591 3.79610
# Velocity P-wave (km/s) = 7.08057 7.18609 7.13352
#
# Compressibility (1/GPa) = 0.01729638
#
# Stress axis : x y z
#
# Youngs Moduli (GPa) = 64.37834 63.14600 75.03750
#
# Poissons Ratio (x) = 0.26402 0.23233
# Poissons Ratio (y) = 0.26917 0.48193
# Poissons Ratio (z) = 0.19933 0.40556
#
# Static dielectric constant tensor:
#      x y z
#    x 3.314400 0.000000 0.000000 
#    y 0.000000 3.412730 0.000000 
#    z 0.000000 0.000000 3.488790 
# 
# 
# High freq. dielectric constant tensor:
#      x y z
#    x 1.709100 0.000000 0.000000 
#    y 0.000000 1.719580 0.000000 
#    z 0.000000 0.000000 1.728960 
# 
# From -- ./inp_files/37155.got.cif
#   From: 2010.03.12/outbox.cif.g09.slc.cpg/sg51_19_cif.got.tgz:37155.got - 2010.04.16 13:43:02.
