data_PCOD8213444
_publ_section_title
;
Structure prediction by ZEFSAII (Michael W. Deem and Ramdas Pophale) SiO2 
 PCOD8213444
Probable space group: P M M A
;
_chemical_formula_sum "Si O2"
_cell_formula_units_Z 64
_cell_length_a 16.831878
_cell_length_b 9.205704
_cell_length_c 20.100631
_cell_angle_alpha 90.000000
_cell_angle_beta 90.000000
_cell_angle_gamma 90.000000
_cell_volume 3114.578434
_symmetry_space_group_name_H-M "P M M A"
_symmetry_group_IT_number 51
_symmetry_cell_setting 'orthorhombic'
loop_
_space_group_symop_operation_xyz
x,y,z
1/2-x,-y,z
1/2+x,-y,-z
-x,y,-z
-x,-y,-z
1/2+x,y,-z
1/2-x,y,z
x,-y,z
loop_
_atom_site_type_symbol
_atom_site_label
_atom_site_fract_x
_atom_site_fract_y
_atom_site_fract_z
Si Si1 0.842687 0.172157 0.158816
Si Si2 0.156304 0.160720 0.594003
Si Si3 0.582611 0.331051 0.035917
Si Si4 0.841202 0.830392 0.556484
Si Si5 0.841653 0.341363 0.904946
Si Si6 0.589094 0.331717 0.674587
Si Si7 0.841595 0.157810 0.787530
Si Si8 0.089447 0.331510 0.713283
O O1 0.750000 0.213339 0.147712
O O2 0.898178 0.236165 0.100568
O O3 0.872130 0.237315 0.228373
O O4 0.853976 0.000000 0.161150
O O5 0.250000 0.154367 0.599196
O O6 0.131813 0.202031 0.518894
O O7 0.124538 0.283404 0.642770
O O8 0.122271 0.000000 0.612158
O O9 0.585032 0.500000 0.057003
O O10 0.500000 0.289779 0.000000
O O11 0.648760 0.289898 0.980865
O O12 0.750000 0.780386 0.568397
O O13 0.902143 0.741284 0.602437
O O14 0.849140 0.000000 0.573132
O O15 0.750000 0.355309 0.887371
O O16 0.883228 0.500000 0.897143
O O17 0.882801 0.233653 0.851864
O O18 0.609103 0.500000 0.667268
O O19 0.652512 0.257246 0.722841
O O20 0.504296 0.304776 0.708582
O O21 0.750000 0.133970 0.803575
O O22 0.882270 0.000000 0.776475
O O23 0.109899 0.500000 0.725213
#
# Coordination Sequence:
#
# PCOD8213444 Si02
#       8
#     8   8   8   8   8   8   8   8
#     4  11  25  44  66  92 122 158 203 252 299 352
#     4   9  19  38  63  89 117 150 193 245 298 354
#     4  10  22  39  62  92 125 158 193 239 293 352
#     4   9  19  37  61  88 118 154 196 242 294 355
#     4   9  18  34  56  81 112 152 193 233 282 342
#     4  11  24  38  54  81 119 157 196 244 295 350
#     4  10  21  36  56  82 112 149 193 240 289 346
#     4  11  25  41  59  86 120 158 200 248 299 353
#
# _framework density 20.548528000000001
#
# number of rings (size 3 to 8) (size 9 to 14) (size 15 to 20)
#    0.000    2.000    0.000    3.375    1.750    9.500 
#    0.000    5.000    0.000    0.000    0.000    0.000 
#    0.000    0.000    0.000    0.000    0.000    0.000 
#
# Total GULP energy -793480.322438 kJ/mol
# GULP energy per Si atom -12398.130038 kJ/mol
# Density = 2.050176 g / cm^3
# Si number density = 20.548528 Si / 1000 Ang^3
#
#
#
# Elastic Constant Matrix: (Units=GPa)
#
#
# Indices 1 2 3 4 5 6 
#
# 1 53.2899 44.7932 36.6203 0.0000 0.0000 0.0000
# 2 44.7932 123.1438 80.0950 0.0000 0.0000 0.0000
# 3 36.6203 80.0950 129.3946 0.0000 0.0000 0.0000
# 4 0.0000 0.0000 0.0000 49.8275 0.0000 0.0000
# 5 0.0000 0.0000 0.0000 0.0000 31.8048 0.0000
# 6 0.0000 0.0000 0.0000 0.0000 0.0000 27.3103
#
#
#
# Elastic Compliance Matrix: (Units=1/GPa)
#
#
# Indices 1 2 3 4 5 6 
#
# 1 0.027570 -0.008292 -0.002670 0.000000 0.000000 0.000000
# 2 -0.008292 0.016087 -0.007611 0.000000 0.000000 0.000000
# 3 -0.002670 -0.007611 0.013195 0.000000 0.000000 0.000000
# 4 0.000000 0.000000 0.000000 0.020069 0.000000 0.000000
# 5 0.000000 0.000000 0.000000 0.000000 0.031442 0.000000
# 6 0.000000 0.000000 0.000000 0.000000 0.000000 0.036616
#
#
# Mechanical properties :
#
#
# Convention : Reuss Voigt Hill
#
# Bulk Modulus (GPa) = 50.74547 69.87170 60.30858
# Shear Modulus (GPa) = 26.49784 31.40984 28.95384
#
# Velocity S-wave (km/s) = 3.59489 3.91393 3.75780
# Velocity P-wave (km/s) = 6.47920 7.38256 6.94558
#
# Compressibility (1/GPa) = 0.01970619
#
# Stress axis : x y z
#
# Youngs Moduli (GPa) = 36.27148 62.16104 75.78463
#
# Poissons Ratio (x) = 0.51543 0.20234
# Poissons Ratio (y) = 0.30076 0.57682
# Poissons Ratio (z) = 0.09684 0.47312
#
# Static dielectric constant tensor:
#      x y z
#    x 3.586890 0.000000 0.000000 
#    y 0.000000 4.340740 0.000000 
#    z 0.000000 0.000000 3.901500 
# 
# 
# High freq. dielectric constant tensor:
#      x y z
#    x 1.789830 0.000000 0.000000 
#    y 0.000000 1.804550 0.000000 
#    z 0.000000 0.000000 1.815930 
# 
# From -- ./inp_files/33755.got.cif
#   From: 2010.03.12/outbox.cif.g09.slc.cpg/sg51_17_cif.got.tgz:33755.got - 2010.04.16 13:43:02.
