data_PCOD8213076
_publ_section_title
;
Structure prediction by ZEFSAII (Michael W. Deem and Ramdas Pophale) SiO2 
 PCOD8213076
Probable space group: P M M A
;
_chemical_formula_sum "Si O2"
_cell_formula_units_Z 48
_cell_length_a 9.635347
_cell_length_b 30.477467
_cell_length_c 8.951526
_cell_angle_alpha 90.000000
_cell_angle_beta 90.000000
_cell_angle_gamma 90.000000
_cell_volume 2628.713810
_symmetry_space_group_name_H-M "P M M A"
_symmetry_group_IT_number 51
_symmetry_cell_setting 'orthorhombic'
loop_
_space_group_symop_operation_xyz
x,y,z
1/2-x,-y,z
1/2+x,-y,-z
-x,y,-z
-x,-y,-z
1/2+x,y,-z
1/2-x,y,z
x,-y,z
loop_
_atom_site_type_symbol
_atom_site_label
_atom_site_fract_x
_atom_site_fract_y
_atom_site_fract_z
Si Si1 0.089440 0.336033 0.646406
Si Si2 0.409927 0.158742 0.858974
Si Si3 0.910637 0.000000 0.147294
Si Si4 0.589565 0.918655 0.354114
Si Si5 0.411404 0.500000 0.649016
Si Si6 0.910062 0.258667 0.141527
Si Si7 0.588951 0.582453 0.148450
O O1 0.250000 0.339142 0.599923
O O2 0.052631 0.288811 0.717134
O O3 0.051589 0.372627 0.767956
O O4 0.000000 0.343721 0.500000
O O5 0.250000 0.152868 0.905351
O O6 0.447522 0.128105 0.719457
O O7 0.443747 0.208683 0.812127
O O8 0.500000 0.143930 0.000000
O O9 0.949698 0.043019 0.240238
O O10 0.750000 0.000000 0.101529
O O11 0.000000 0.000000 0.000000
O O12 0.500000 0.925107 0.500000
O O13 0.750000 0.921226 0.400314
O O14 0.250000 0.500000 0.604568
O O15 0.500000 0.500000 0.500000
O O16 0.451298 0.542588 0.743945
O O17 0.750000 0.264747 0.095573
O O18 0.000000 0.273458 0.000000
O O19 0.750000 0.580589 0.103094
O O20 0.500000 0.578948 0.000000
#
# Coordination Sequence:
#
# PCOD8213076 Si02
#       7
#     8   8   4   8   4   8   8
#     4  10  21  35  51  74 103 133 167 207 250 297
#     4   9  18  33  52  74 100 130 166 206 246 292
#     4  10  21  36  54  76 100 128 165 206 246 292
#     4  10  21  35  51  74 103 132 164 203 246 293
#     4  10  21  36  54  78 106 134 167 206 248 296
#     4   9  18  33  52  74 100 130 166 207 248 293
#     4  10  21  36  54  77 103 132 169 209 248 295
#
# _framework density 18.259881
#
# number of rings (size 3 to 8) (size 9 to 14) (size 15 to 20)
#    0.000    2.333    0.000    2.000    0.000    4.000 
#    0.000    0.000    0.000    0.000    0.000    0.000 
#    0.000    0.000    0.000    0.000    0.000    0.000 
#
# Total GULP energy -595391.853451 kJ/mol
# GULP energy per Si atom -12403.996947 kJ/mol
# Density = 1.821832 g / cm^3
# Si number density = 18.259881 Si / 1000 Ang^3
#
#
#
# Elastic Constant Matrix: (Units=GPa)
#
#
# Indices 1 2 3 4 5 6 
#
# 1 80.5975 51.6997 89.3516 0.0000 0.0000 0.0000
# 2 51.6997 113.4642 70.6647 0.0000 0.0000 0.0000
# 3 89.3516 70.6647 155.7094 0.0000 0.0000 0.0000
# 4 0.0000 0.0000 0.0000 -5.8732 0.0000 0.0000
# 5 0.0000 0.0000 0.0000 0.0000 45.0961 0.0000
# 6 0.0000 0.0000 0.0000 0.0000 0.0000 14.0061
#
#
#
# Elastic Compliance Matrix: (Units=1/GPa)
#
#
# Indices 1 2 3 4 5 6 
#
# 1 0.035975 -0.004928 -0.018407 0.000000 0.000000 0.000000
# 2 -0.004928 0.012961 -0.003054 0.000000 0.000000 0.000000
# 3 -0.018407 -0.003054 0.018371 0.000000 0.000000 0.000000
# 4 0.000000 0.000000 0.000000 -0.170266 0.000000 0.000000
# 5 0.000000 0.000000 0.000000 0.000000 0.022175 0.000000
# 6 0.000000 0.000000 0.000000 0.000000 0.000000 0.071398
#
#
# Mechanical properties :
#
#
# Convention : Reuss Voigt Hill
#
# Bulk Modulus (GPa) = 68.83207 85.91144 77.37175
# Shear Modulus (GPa) = 103.65945 19.84948 61.75447
#
# Velocity S-wave (km/s) = 7.54269 3.30063 5.82178
# Velocity P-wave (km/s) = 10.65992 7.85347 9.36245
#
# Compressibility (1/GPa) = 0.01452811
#
# Stress axis : x y z
#
# Youngs Moduli (GPa) = 27.79702 77.15550 54.43353
#
# Poissons Ratio (x) = 0.38022 1.00198
# Poissons Ratio (y) = 0.13698 0.16624
# Poissons Ratio (z) = 0.51167 0.23564
#
# Static dielectric constant tensor:
#      x y z
#    x 3.342870 0.000000 0.000000 
#    y 0.000000 3.661980 0.000000 
#    z 0.000000 0.000000 3.141960 
# 
# 
# High freq. dielectric constant tensor:
#      x y z
#    x 1.705690 0.000000 0.000000 
#    y 0.000000 1.728940 0.000000 
#    z 0.000000 0.000000 1.700150 
# 
# From -- ./inp_files/6184.got.cif
#   From: 2010.03.12/outbox.cif.g09.slc.cpg/sg51_4_cif.got.tgz:6184.got - 2010.04.16 13:43:02.
