data_PCOD8213998
_publ_section_title
;
Structure prediction by ZEFSAII (Michael W. Deem and Ramdas Pophale) SiO2 
 PCOD8213998
Probable space group: P M M A
;
_chemical_formula_sum "Si O2"
_cell_formula_units_Z 48
_cell_length_a 8.854525
_cell_length_b 30.815941
_cell_length_c 9.149193
_cell_angle_alpha 90.000000
_cell_angle_beta 90.000000
_cell_angle_gamma 90.000000
_cell_volume 2496.453559
_symmetry_space_group_name_H-M "P M M A"
_symmetry_group_IT_number 51
_symmetry_cell_setting 'orthorhombic'
loop_
_space_group_symop_operation_xyz
x,y,z
1/2-x,-y,z
1/2+x,-y,-z
-x,y,-z
-x,-y,-z
1/2+x,y,-z
1/2-x,y,z
x,-y,z
loop_
_atom_site_type_symbol
_atom_site_label
_atom_site_fract_x
_atom_site_fract_y
_atom_site_fract_z
Si Si1 0.574386 0.550451 0.348730
Si Si2 0.927138 0.045775 0.343186
Si Si3 0.927993 0.860410 0.341768
Si Si4 0.570816 0.221136 0.158142
Si Si5 0.924336 0.381118 0.848332
Si Si6 0.425545 0.703256 0.343586
O O1 0.500000 0.565799 0.500000
O O2 0.750000 0.561364 0.358813
O O3 0.543245 0.500000 0.319896
O O4 0.501854 0.575845 0.214229
O O5 0.750000 0.046334 0.366215
O O6 0.974726 0.092124 0.271868
O O7 0.000000 0.044387 0.500000
O O8 0.972957 0.000000 0.259643
O O9 0.750000 0.856673 0.364221
O O10 0.984644 0.824152 0.228985
O O11 0.000000 0.852636 0.500000
O O12 0.750000 0.223841 0.144995
O O13 0.512649 0.259688 0.257814
O O14 0.500000 0.225576 0.000000
O O15 0.750000 0.391359 0.875719
O O16 0.948451 0.341949 0.737512
O O17 0.000000 0.367734 0.000000
O O18 0.500000 0.698073 0.500000
O O19 0.250000 0.715779 0.357881
#
# Coordination Sequence:
#
# PCOD8213998 Si02
#       6
#     8   8   8   8   8   8
#     4  10  21  38  61  88 118 153 193 236 280 327
#     4   8  13  23  41  66  96 128 163 207 258 309
#     4   9  18  31  49  75 103 133 172 216 263 317
#     4  11  23  38  56  78 107 142 180 223 272 325
#     4  11  24  40  60  86 117 152 188 229 276 327
#     4  11  24  41  62  87 113 143 181 224 271 324
#
# _framework density 19.227274000000001
#
# number of rings (size 3 to 8) (size 9 to 14) (size 15 to 20)
#    0.000    2.000    0.000    3.500    0.000    9.333 
#    0.000    0.000    0.000    0.500    0.000    0.000 
#    0.000    0.000    0.000    0.000    0.000    0.167 
#
# Total GULP energy -594941.864781 kJ/mol
# GULP energy per Si atom -12394.622183 kJ/mol
# Density = 1.918351 g / cm^3
# Si number density = 19.227274 Si / 1000 Ang^3
#
#
#
# Elastic Constant Matrix: (Units=GPa)
#
#
# Indices 1 2 3 4 5 6 
#
# 1 87.7577 56.4792 51.3102 0.0000 0.0000 0.0000
# 2 56.4792 113.6741 49.7832 0.0000 0.0000 0.0000
# 3 51.3102 49.7832 113.7141 0.0000 0.0000 0.0000
# 4 0.0000 0.0000 0.0000 -6.5566 0.0000 0.0000
# 5 0.0000 0.0000 0.0000 0.0000 31.0087 0.0000
# 6 0.0000 0.0000 0.0000 0.0000 0.0000 7.1675
#
#
#
# Elastic Compliance Matrix: (Units=1/GPa)
#
#
# Indices 1 2 3 4 5 6 
#
# 1 0.019226 -0.007118 -0.005559 0.000000 0.000000 0.000000
# 2 -0.007118 0.013519 -0.002707 0.000000 0.000000 0.000000
# 3 -0.005559 -0.002707 0.012487 0.000000 0.000000 0.000000
# 4 0.000000 0.000000 0.000000 -0.152517 0.000000 0.000000
# 5 0.000000 0.000000 0.000000 0.000000 0.032249 0.000000
# 6 0.000000 0.000000 0.000000 0.000000 0.000000 0.139519
#
#
# Mechanical properties :
#
#
# Convention : Reuss Voigt Hill
#
# Bulk Modulus (GPa) = 69.13234 70.03233 69.58234
# Shear Modulus (GPa) = 49.96348 16.82880 33.39614
#
# Velocity S-wave (km/s) = 5.10315 2.96168 4.17215
# Velocity P-wave (km/s) = 8.41167 6.94247 7.71214
#
# Compressibility (1/GPa) = 0.01446501
#
# Stress axis : x y z
#
# Youngs Moduli (GPa) = 52.01191 73.96934 80.08094
#
# Poissons Ratio (x) = 0.52652 0.44518
# Poissons Ratio (y) = 0.37022 0.21676
# Poissons Ratio (z) = 0.28914 0.20022
#
# Static dielectric constant tensor:
#      x y z
#    x 3.658400 0.000000 0.000000 
#    y 0.000000 4.166790 0.000000 
#    z 0.000000 0.000000 3.298220 
# 
# 
# High freq. dielectric constant tensor:
#      x y z
#    x 1.757250 0.000000 0.000000 
#    y 0.000000 1.775870 0.000000 
#    z 0.000000 0.000000 1.723700 
# 
# From -- ./inp_files/6020.got.cif
#   From: 2010.03.12/outbox.cif.g09.slc.cpg/sg51_4_cif.got.tgz:6020.got - 2010.04.16 13:43:02.
