data_PCOD8213353
_publ_section_title
;
Structure prediction by ZEFSAII (Michael W. Deem and Ramdas Pophale) SiO2 
 PCOD8213353
Probable space group: P M M A
;
_chemical_formula_sum "Si O2"
_cell_formula_units_Z 40
_cell_length_a 9.002583
_cell_length_b 9.244878
_cell_length_c 25.627393
_cell_angle_alpha 90.000000
_cell_angle_beta 90.000000
_cell_angle_gamma 90.000000
_cell_volume 2132.911066
_symmetry_space_group_name_H-M "P M M A"
_symmetry_group_IT_number 51
_symmetry_cell_setting 'orthorhombic'
loop_
_space_group_symop_operation_xyz
x,y,z
1/2-x,-y,z
1/2+x,-y,-z
-x,y,-z
-x,-y,-z
1/2+x,y,-z
1/2-x,y,z
x,-y,z
loop_
_atom_site_type_symbol
_atom_site_label
_atom_site_fract_x
_atom_site_fract_y
_atom_site_fract_z
Si Si1 0.421697 0.329923 0.845010
Si Si2 0.575969 0.834913 0.052345
Si Si3 0.076293 0.833539 0.247096
Si Si4 0.077891 0.669215 0.447187
Si Si5 0.921033 0.169615 0.353672
O O1 0.250000 0.289387 0.834477
O O2 0.446250 0.500000 0.847894
O O3 0.477275 0.261846 0.899293
O O4 0.522275 0.266137 0.799627
O O5 0.750000 0.821853 0.043886
O O6 0.526978 0.000000 0.063290
O O7 0.500000 0.774902 0.000000
O O8 0.250000 0.810016 0.256392
O O9 0.991250 0.782945 0.298859
O O10 0.039075 0.000000 0.233771
O O11 0.250000 0.709464 0.451065
O O12 0.051686 0.500000 0.438826
O O13 0.000000 0.723338 0.500000
O O14 0.006983 0.750207 0.398964
O O15 0.750000 0.217371 0.354004
O O16 0.940156 0.000000 0.362744
#
# Coordination Sequence:
#
# PCOD8213353 Si02
#       5
#     8   8   8   8   8
#     4  10  21  36  54  78 108 142 179 218 263 316
#     4   9  18  33  53  76 103 137 177 219 262 311
#     4  10  21  37  57  80 106 138 177 221 268 318
#     4  10  21  37  57  81 110 145 183 222 266 317
#     4  10  21  37  58  83 109 140 179 222 269 319
#
# _framework density 18.753713000000001
#
# number of rings (size 3 to 8) (size 9 to 14) (size 15 to 20)
#    0.000    2.200    0.000    2.400    0.000    7.200 
#    0.000    2.000    0.000    0.000    0.000    0.000 
#    0.000    0.000    0.000    0.000    0.000    0.000 
#
# Total GULP energy -496187.869624 kJ/mol
# GULP energy per Si atom -12404.696741 kJ/mol
# Density = 1.871103 g / cm^3
# Si number density = 18.753713 Si / 1000 Ang^3
#
#
#
# Elastic Constant Matrix: (Units=GPa)
#
#
# Indices 1 2 3 4 5 6 
#
# 1 85.2021 39.5223 64.1445 0.0000 0.0000 0.0000
# 2 39.5223 62.8675 62.6852 0.0000 0.0000 0.0000
# 3 64.1445 62.6852 161.0751 0.0000 0.0000 0.0000
# 4 0.0000 0.0000 0.0000 59.2100 0.0000 0.0000
# 5 0.0000 0.0000 0.0000 0.0000 43.0211 0.0000
# 6 0.0000 0.0000 0.0000 0.0000 0.0000 29.5293
#
#
#
# Elastic Compliance Matrix: (Units=1/GPa)
#
#
# Indices 1 2 3 4 5 6 
#
# 1 0.018468 -0.006989 -0.004635 0.000000 0.000000 0.000000
# 2 -0.006989 0.028637 -0.008362 0.000000 0.000000 0.000000
# 3 -0.004635 -0.008362 0.011308 0.000000 0.000000 0.000000
# 4 0.000000 0.000000 0.000000 0.016889 0.000000 0.000000
# 5 0.000000 0.000000 0.000000 0.000000 0.023244 0.000000
# 6 0.000000 0.000000 0.000000 0.000000 0.000000 0.033865
#
#
# Mechanical properties :
#
#
# Convention : Reuss Voigt Hill
#
# Bulk Modulus (GPa) = 54.22063 71.31651 62.76857
# Shear Modulus (GPa) = 28.00663 35.87160 31.93911
#
# Velocity S-wave (km/s) = 3.86863 4.37827 4.13132
# Velocity P-wave (km/s) = 6.99499 7.97932 7.50331
#
# Compressibility (1/GPa) = 0.01844316
#
# Stress axis : x y z
#
# Youngs Moduli (GPa) = 54.14819 34.91928 88.43340
#
# Poissons Ratio (x) = 0.24405 0.40985
# Poissons Ratio (y) = 0.37844 0.73944
# Poissons Ratio (z) = 0.25095 0.29198
#
# Static dielectric constant tensor:
#      x y z
#    x 3.373930 0.000000 0.000000 
#    y 0.000000 3.379850 0.000000 
#    z 0.000000 0.000000 4.568830 
# 
# 
# High freq. dielectric constant tensor:
#      x y z
#    x 1.735240 0.000000 0.000000 
#    y 0.000000 1.720660 0.000000 
#    z 0.000000 0.000000 1.741900 
# 
# From -- ./inp_files/34281.got.cif
#   From: 2010.03.12/outbox.cif.g09.slc.cpg/sg51_18_cif.got.tgz:34281.got - 2010.04.16 13:43:02.
