data_PCOD8213050
_publ_section_title
;
Structure prediction by ZEFSAII (Michael W. Deem and Ramdas Pophale) SiO2 
 PCOD8213050
Probable space group: P M M A
;
_chemical_formula_sum "Si O2"
_cell_formula_units_Z 48
_cell_length_a 9.716152
_cell_length_b 9.275647
_cell_length_c 30.508111
_cell_angle_alpha 90.000000
_cell_angle_beta 90.000000
_cell_angle_gamma 90.000000
_cell_volume 2749.500675
_symmetry_space_group_name_H-M "P M M A"
_symmetry_group_IT_number 51
_symmetry_cell_setting 'orthorhombic'
loop_
_space_group_symop_operation_xyz
x,y,z
1/2-x,-y,z
1/2+x,-y,-z
-x,y,-z
-x,-y,-z
1/2+x,y,-z
1/2-x,y,z
x,-y,z
loop_
_atom_site_type_symbol
_atom_site_label
_atom_site_fract_x
_atom_site_fract_y
_atom_site_fract_z
Si Si1 0.411839 0.334045 0.364453
Si Si2 0.908731 0.667029 0.207860
Si Si3 0.091215 0.168946 0.704780
Si Si4 0.598432 0.670766 0.537062
Si Si5 0.408266 0.168273 0.040256
Si Si6 0.091752 0.332080 0.126881
O O1 0.250000 0.308797 0.357061
O O2 0.449889 0.500000 0.354505
O O3 0.497806 0.229994 0.333693
O O4 0.454101 0.292318 0.414131
O O5 0.750000 0.694223 0.195793
O O6 0.937661 0.500000 0.218298
O O7 0.954322 0.757875 0.249915
O O8 0.999967 0.721710 0.167351
O O9 0.250000 0.204898 0.694264
O O10 0.065418 0.000000 0.709111
O O11 0.500000 0.739340 0.500000
O O12 0.750000 0.736815 0.529761
O O13 0.605937 0.500000 0.531771
O O14 0.250000 0.204710 0.029511
O O15 0.458291 0.249020 0.083774
O O16 0.431307 0.000000 0.048346
O O17 0.500000 0.224513 0.000000
O O18 0.250000 0.296180 0.137869
O O19 0.068979 0.500000 0.117986
#
# Coordination Sequence:
#
# PCOD8213050 Si02
#       6
#     8   8   8   8   8   8
#     4   9  18  32  50  73 100 129 162 200 242 289
#     4   9  18  33  51  70  94 124 157 194 238 287
#     4  10  21  35  50  71  99 129 163 203 244 288
#     4   8  14  25  42  67  97 124 153 193 238 283
#     4   9  18  32  48  67  93 124 156 189 226 270
#     4   9  18  32  49  70  95 121 151 190 234 278
#
# _framework density 17.457715
#
# number of rings (size 3 to 8) (size 9 to 14) (size 15 to 20)
#    0.000    3.000    0.000    1.500    0.000    4.333 
#    0.000    3.333    0.000    0.500    0.000    0.000 
#    0.000    0.000    0.000    0.000    0.000    0.000 
#
# Total GULP energy -595201.013280 kJ/mol
# GULP energy per Si atom -12400.021110 kJ/mol
# Density = 1.741798 g / cm^3
# Si number density = 17.457715 Si / 1000 Ang^3
#
#
#
# Elastic Constant Matrix: (Units=GPa)
#
#
# Indices 1 2 3 4 5 6 
#
# 1 76.2703 38.0024 85.5364 0.0000 0.0000 0.0000
# 2 38.0024 53.8725 61.1142 0.0000 0.0000 0.0000
# 3 85.5364 61.1142 170.2862 0.0000 0.0000 0.0000
# 4 0.0000 0.0000 0.0000 -0.4170 0.0000 0.0000
# 5 0.0000 0.0000 0.0000 0.0000 39.3399 0.0000
# 6 0.0000 0.0000 0.0000 0.0000 0.0000 21.0676
#
#
#
# Elastic Compliance Matrix: (Units=1/GPa)
#
#
# Indices 1 2 3 4 5 6 
#
# 1 0.031611 -0.007229 -0.013284 0.000000 0.000000 0.000000
# 2 -0.007229 0.032963 -0.008199 0.000000 0.000000 0.000000
# 3 -0.013284 -0.008199 0.015488 0.000000 0.000000 0.000000
# 4 0.000000 0.000000 0.000000 -2.398241 0.000000 0.000000
# 5 0.000000 0.000000 0.000000 0.000000 0.025420 0.000000
# 6 0.000000 0.000000 0.000000 0.000000 0.000000 0.047466
#
#
# Mechanical properties :
#
#
# Convention : Reuss Voigt Hill
#
# Bulk Modulus (GPa) = 44.17437 74.41502 59.29470
# Shear Modulus (GPa) = -2.29324 19.71649 8.71162
#
# Velocity S-wave (km/s) = -1.14737 3.36428 2.23628
# Velocity P-wave (km/s) = 4.85832 7.60326 6.38016
#
# Compressibility (1/GPa) = 0.02263756
#
# Stress axis : x y z
#
# Youngs Moduli (GPa) = 31.63416 30.33723 64.56725
#
# Poissons Ratio (x) = 0.21931 0.85773
# Poissons Ratio (y) = 0.22869 0.52937
# Poissons Ratio (z) = 0.42024 0.24873
#
# Static dielectric constant tensor:
#      x y z
#    x 3.390580 0.000000 0.000000 
#    y 0.000000 3.019230 0.000000 
#    z 0.000000 0.000000 3.363010 
# 
# 
# High freq. dielectric constant tensor:
#      x y z
#    x 1.673160 0.000000 0.000000 
#    y 0.000000 1.651750 0.000000 
#    z 0.000000 0.000000 1.682130 
# 
# From -- ./inp_files/37030.got.cif
#   From: 2010.03.12/outbox.cif.g09.slc.cpg/sg51_19_cif.got.tgz:37030.got - 2010.04.16 13:43:02.
