data_PCOD8213177
_publ_section_title
;
Structure prediction by ZEFSAII (Michael W. Deem and Ramdas Pophale) SiO2 
 PCOD8213177
Probable space group: P M M A
;
_chemical_formula_sum "Si O2"
_cell_formula_units_Z 56
_cell_length_a 9.262281
_cell_length_b 19.800491
_cell_length_c 15.404650
_cell_angle_alpha 90.000000
_cell_angle_beta 90.000000
_cell_angle_gamma 90.000000
_cell_volume 2825.177558
_symmetry_space_group_name_H-M "P M M A"
_symmetry_group_IT_number 51
_symmetry_cell_setting 'orthorhombic'
loop_
_space_group_symop_operation_xyz
x,y,z
1/2-x,-y,z
1/2+x,-y,-z
-x,y,-z
-x,-y,-z
1/2+x,y,-z
1/2-x,y,z
x,-y,z
loop_
_atom_site_type_symbol
_atom_site_label
_atom_site_fract_x
_atom_site_fract_y
_atom_site_fract_z
Si Si1 0.578517 0.332136 0.721114
Si Si2 0.408777 0.203507 0.691934
Si Si3 0.083122 0.420060 0.586491
Si Si4 0.510913 0.840005 0.132509
Si Si5 0.414967 0.698146 0.082684
Si Si6 0.250000 0.074504 0.953844
Si Si7 0.250000 0.074328 0.157692
Si Si8 0.918406 0.925535 0.411584
O O1 0.750000 0.337947 0.708104
O O2 0.523778 0.262978 0.675750
O O3 0.496647 0.392649 0.672589
O O4 0.537334 0.333191 0.823930
O O5 0.250000 0.223332 0.654628
O O6 0.386772 0.191546 0.794318
O O7 0.468983 0.134053 0.651693
O O8 0.250000 0.395688 0.583048
O O9 0.074556 0.500000 0.592840
O O10 0.000000 0.394362 0.500000
O O11 0.434570 0.779143 0.080799
O O12 0.604920 0.885971 0.069291
O O13 0.391849 0.884215 0.183863
O O14 0.250000 0.680367 0.065638
O O15 0.500000 0.666480 0.000000
O O16 0.250000 0.000000 0.909182
O O17 0.250000 0.065880 0.055114
O O18 0.250000 0.000000 0.201759
O O19 0.750000 0.920029 0.430843
O O20 0.000000 0.913964 0.500000
O O21 0.955106 0.000000 0.372091
#
# Coordination Sequence:
#
# PCOD8213177 Si02
#       8
#     8   8   8   8   8   4   4   8
#     4  10  22  38  58  88 125 156 195 247 292 345
#     4  10  21  37  55  76 105 142 182 232 287 341
#     4  10  21  39  66  99 133 168 201 231 274 336
#     4  11  21  35  50  71  98 133 178 230 288 350
#     4  10  21  35  56  80 108 149 196 245 298 350
#     4  11  22  34  48  66  91 129 176 223 283 353
#     4  11  22  34  46  66  97 129 168 227 289 351
#     4   9  19  36  55  74  96 127 173 226 282 346
#
# _framework density 19.821762
#
# number of rings (size 3 to 8) (size 9 to 14) (size 15 to 20)
#    0.000    1.857    1.429    2.571    2.000    5.429 
#    0.000    1.429    0.000    0.429    0.000    0.000 
#    0.000    0.000    0.000    0.000    0.000    0.000 
#
# Total GULP energy -694140.921073 kJ/mol
# GULP energy per Si atom -12395.373591 kJ/mol
# Density = 1.977665 g / cm^3
# Si number density = 19.821762 Si / 1000 Ang^3
#
#
#
# Elastic Constant Matrix: (Units=GPa)
#
#
# Indices 1 2 3 4 5 6 
#
# 1 111.1290 32.0602 45.7322 0.0000 0.0000 0.0000
# 2 32.0602 48.7436 36.0876 0.0000 0.0000 0.0000
# 3 45.7322 36.0876 88.6913 0.0000 0.0000 0.0000
# 4 0.0000 0.0000 0.0000 25.2017 0.0000 0.0000
# 5 0.0000 0.0000 0.0000 0.0000 32.2551 0.0000
# 6 0.0000 0.0000 0.0000 0.0000 0.0000 24.4496
#
#
#
# Elastic Compliance Matrix: (Units=1/GPa)
#
#
# Indices 1 2 3 4 5 6 
#
# 1 0.012160 -0.004803 -0.004316 0.000000 0.000000 0.000000
# 2 -0.004803 0.031257 -0.010242 0.000000 0.000000 0.000000
# 3 -0.004316 -0.010242 0.017668 0.000000 0.000000 0.000000
# 4 0.000000 0.000000 0.000000 0.039680 0.000000 0.000000
# 5 0.000000 0.000000 0.000000 0.000000 0.031003 0.000000
# 6 0.000000 0.000000 0.000000 0.000000 0.000000 0.040901
#
#
# Mechanical properties :
#
#
# Convention : Reuss Voigt Hill
#
# Bulk Modulus (GPa) = 44.71469 52.92489 48.81979
# Shear Modulus (GPa) = 22.84734 25.36020 24.10377
#
# Velocity S-wave (km/s) = 3.39874 3.58077 3.49094
# Velocity P-wave (km/s) = 6.16516 6.62225 6.39779
#
# Compressibility (1/GPa) = 0.02236401
#
# Stress axis : x y z
#
# Youngs Moduli (GPa) = 82.23494 31.99292 56.60018
#
# Poissons Ratio (x) = 0.15366 0.24429
# Poissons Ratio (y) = 0.39496 0.57968
# Poissons Ratio (z) = 0.35493 0.32766
#
# Static dielectric constant tensor:
#      x y z
#    x 3.677090 0.000000 0.000000 
#    y 0.000000 3.515920 0.000000 
#    z 0.000000 0.000000 3.378000 
# 
# 
# High freq. dielectric constant tensor:
#      x y z
#    x 1.784410 0.000000 0.000000 
#    y 0.000000 1.748690 0.000000 
#    z 0.000000 0.000000 1.762570 
# 
# From -- ./inp_files/21891.got.cif
#   From: 2010.03.12/outbox.cif.g09.slc.cpg/sg51_11_cif.got.tgz:21891.got - 2010.04.16 13:43:02.
