data_PCOD8213253
_publ_section_title
;
Structure prediction by ZEFSAII (Michael W. Deem and Ramdas Pophale) SiO2 
 PCOD8213253
Probable space group: P M M A
;
_chemical_formula_sum "Si O2"
_cell_formula_units_Z 64
_cell_length_a 8.828979
_cell_length_b 9.786715
_cell_length_c 40.801103
_cell_angle_alpha 90.000000
_cell_angle_beta 90.000000
_cell_angle_gamma 90.000000
_cell_volume 3525.488716
_symmetry_space_group_name_H-M "P M M A"
_symmetry_group_IT_number 51
_symmetry_cell_setting 'orthorhombic'
loop_
_space_group_symop_operation_xyz
x,y,z
1/2-x,-y,z
1/2+x,-y,-z
-x,y,-z
-x,-y,-z
1/2+x,y,-z
1/2-x,y,z
x,-y,z
loop_
_atom_site_type_symbol
_atom_site_label
_atom_site_fract_x
_atom_site_fract_y
_atom_site_fract_z
Si Si1 0.428064 0.344064 0.033891
Si Si2 0.069881 0.846588 0.409053
Si Si3 0.425905 0.843301 0.156589
Si Si4 0.929046 0.655884 0.533665
Si Si5 0.925484 0.657410 0.721189
Si Si6 0.426506 0.841988 0.911587
Si Si7 0.429936 0.153195 0.336527
Si Si8 0.574336 0.341188 0.210652
O O1 0.250000 0.330175 0.030566
O O2 0.477427 0.500000 0.041224
O O3 0.483866 0.249223 0.062920
O O4 0.500000 0.292379 0.000000
O O5 0.250000 0.840278 0.409403
O O6 0.003503 0.744121 0.436287
O O7 0.011179 0.803719 0.372763
O O8 0.014964 0.000000 0.417252
O O9 0.250000 0.819988 0.148945
O O10 0.520217 0.801144 0.124628
O O11 0.475693 0.747399 0.186040
O O12 0.458968 0.000000 0.166399
O O13 0.750000 0.670947 0.531104
O O14 0.978539 0.500000 0.539859
O O15 0.000000 0.711636 0.500000
O O16 0.750000 0.692036 0.728339
O O17 0.946177 0.500000 0.711687
O O18 0.993036 0.744063 0.690927
O O19 0.022589 0.696807 0.752855
O O20 0.250000 0.810478 0.914735
O O21 0.463933 0.000000 0.918781
O O22 0.250000 0.158991 0.336522
O O23 0.485470 0.000000 0.328216
O O24 0.750000 0.304511 0.206571
O O25 0.542602 0.500000 0.203315
#
# Coordination Sequence:
#
# PCOD8213253 Si02
#       8
#     8   8   8   8   8   8   8   8
#     4  10  21  37  57  81 109 142 180 221 264 309
#     4   8  14  25  41  62  87 113 143 182 226 270
#     4  10  21  37  57  80 105 134 170 213 258 302
#     4   9  17  28  42  61  85 112 143 180 221 266
#     4   9  17  29  46  69  95 121 152 193 237 280
#     4  10  21  37  57  81 109 141 176 214 258 309
#     4   8  14  25  42  65  91 116 145 185 231 276
#     4  10  21  36  53  74 102 136 171 206 246 294
#
# _framework density 18.153510000000001
#
# number of rings (size 3 to 8) (size 9 to 14) (size 15 to 20)
#    0.000    2.750    0.000    2.250    0.000    5.000 
#    0.000    3.750    0.000    0.750    0.000    5.250 
#    0.000    0.000    0.000    0.000    0.000    0.000 
#
# Total GULP energy -793584.930675 kJ/mol
# GULP energy per Si atom -12399.764542 kJ/mol
# Density = 1.811219 g / cm^3
# Si number density = 18.153510 Si / 1000 Ang^3
#
#
#
# Elastic Constant Matrix: (Units=GPa)
#
#
# Indices 1 2 3 4 5 6 
#
# 1 36.4948 21.8907 22.2409 0.0000 0.0000 0.0000
# 2 21.8907 80.6482 73.7341 0.0000 0.0000 0.0000
# 3 22.2409 73.7341 126.2572 0.0000 0.0000 0.0000
# 4 0.0000 0.0000 0.0000 45.6686 0.0000 0.0000
# 5 0.0000 0.0000 0.0000 0.0000 27.1537 0.0000
# 6 0.0000 0.0000 0.0000 0.0000 0.0000 22.0764
#
#
#
# Elastic Compliance Matrix: (Units=1/GPa)
#
#
# Indices 1 2 3 4 5 6 
#
# 1 0.032821 -0.007773 -0.001242 0.000000 0.000000 0.000000
# 2 -0.007773 0.028446 -0.015243 0.000000 0.000000 0.000000
# 3 -0.001242 -0.015243 0.017041 0.000000 0.000000 0.000000
# 4 0.000000 0.000000 0.000000 0.021897 0.000000 0.000000
# 5 0.000000 0.000000 0.000000 0.000000 0.036827 0.000000
# 6 0.000000 0.000000 0.000000 0.000000 0.000000 0.045297
#
#
# Mechanical properties :
#
#
# Convention : Reuss Voigt Hill
#
# Bulk Modulus (GPa) = 33.56712 53.23685 43.40199
# Shear Modulus (GPa) = 20.76627 27.34871 24.05749
#
# Velocity S-wave (km/s) = 3.38587 3.88561 3.64431
# Velocity P-wave (km/s) = 5.81518 7.03706 6.45509
#
# Compressibility (1/GPa) = 0.02979106
#
# Stress axis : x y z
#
# Youngs Moduli (GPa) = 30.46869 35.15492 58.68202
#
# Poissons Ratio (x) = 0.27326 0.07289
# Poissons Ratio (y) = 0.23683 0.89448
# Poissons Ratio (z) = 0.03785 0.53586
#
# Static dielectric constant tensor:
#      x y z
#    x 3.065070 0.000000 0.000000 
#    y 0.000000 3.445460 0.000000 
#    z 0.000000 0.000000 3.578610 
# 
# 
# High freq. dielectric constant tensor:
#      x y z
#    x 1.681600 0.000000 0.000000 
#    y 0.000000 1.701440 0.000000 
#    z 0.000000 0.000000 1.713000 
# 
# From -- ./inp_files/37424.got.cif
#   From: 2010.03.12/outbox.cif.g09.slc.cpg/sg51_19_cif.got.tgz:37424.got - 2010.04.16 13:43:02.
