data_PCOD8213049
_publ_section_title
;
Structure prediction by ZEFSAII (Michael W. Deem and Ramdas Pophale) SiO2 
 PCOD8213049
Probable space group: P M M A
;
_chemical_formula_sum "Si O2"
_cell_formula_units_Z 40
_cell_length_a 9.451065
_cell_length_b 9.492873
_cell_length_c 25.533584
_cell_angle_alpha 90.000000
_cell_angle_beta 90.000000
_cell_angle_gamma 90.000000
_cell_volume 2290.815955
_symmetry_space_group_name_H-M "P M M A"
_symmetry_group_IT_number 51
_symmetry_cell_setting 'orthorhombic'
loop_
_space_group_symop_operation_xyz
x,y,z
1/2-x,-y,z
1/2+x,-y,-z
-x,y,-z
-x,-y,-z
1/2+x,y,-z
1/2-x,y,z
x,-y,z
loop_
_atom_site_type_symbol
_atom_site_label
_atom_site_fract_x
_atom_site_fract_y
_atom_site_fract_z
Si Si1 0.594489 0.333232 0.546081
Si Si2 0.586034 0.662835 0.949812
Si Si3 0.585182 0.335902 0.663336
Si Si4 0.914308 0.834972 0.252220
Si Si5 0.587032 0.163639 0.849296
O O1 0.500000 0.265534 0.500000
O O2 0.750000 0.267767 0.539411
O O3 0.602428 0.500000 0.539484
O O4 0.537067 0.298031 0.604087
O O5 0.750000 0.689748 0.961615
O O6 0.553611 0.500000 0.938198
O O7 0.535082 0.750441 0.899697
O O8 0.500000 0.716979 0.000000
O O9 0.750000 0.297242 0.671873
O O10 0.560770 0.500000 0.675194
O O11 0.485437 0.245624 0.700127
O O12 0.750000 0.793979 0.248425
O O13 0.990623 0.787336 0.198906
O O14 0.935906 0.000000 0.261879
O O15 0.750000 0.198333 0.835519
O O16 0.565998 0.000000 0.861947
#
# Coordination Sequence:
#
# PCOD8213049 Si02
#       5
#     8   8   8   8   8
#     4   8  14  25  42  66  95 124 154 191 236 284
#     4   9  18  32  49  70  96 124 153 187 230 279
#     4   9  18  32  50  73  99 127 162 201 240 288
#     4  10  21  35  50  71  99 129 162 202 247 291
#     4   9  18  33  51  69  91 123 161 196 233 281
#
# _framework density 17.461026
#
# number of rings (size 3 to 8) (size 9 to 14) (size 15 to 20)
#    0.000    3.000    0.000    1.800    0.000    4.400 
#    0.000    4.000    0.000    0.600    0.000    0.000 
#    0.000    0.000    0.000    0.000    0.000    0.000 
#
# Total GULP energy -495944.881184 kJ/mol
# GULP energy per Si atom -12398.622030 kJ/mol
# Density = 1.742128 g / cm^3
# Si number density = 17.461026 Si / 1000 Ang^3
#
#
#
# Elastic Constant Matrix: (Units=GPa)
#
#
# Indices 1 2 3 4 5 6 
#
# 1 100.6453 40.9502 94.4399 0.0000 0.0000 0.0000
# 2 40.9502 40.5263 59.1458 0.0000 0.0000 0.0000
# 3 94.4399 59.1458 177.3844 0.0000 0.0000 0.0000
# 4 0.0000 0.0000 0.0000 -20.9550 0.0000 0.0000
# 5 0.0000 0.0000 0.0000 0.0000 39.3209 0.0000
# 6 0.0000 0.0000 0.0000 0.0000 0.0000 22.9229
#
#
#
# Elastic Compliance Matrix: (Units=1/GPa)
#
#
# Indices 1 2 3 4 5 6 
#
# 1 0.021709 -0.009872 -0.008266 0.000000 0.000000 0.000000
# 2 -0.009872 0.052554 -0.012267 0.000000 0.000000 0.000000
# 3 -0.008266 -0.012267 0.014129 0.000000 0.000000 0.000000
# 4 0.000000 0.000000 0.000000 -0.047721 0.000000 0.000000
# 5 0.000000 0.000000 0.000000 0.000000 0.025432 0.000000
# 6 0.000000 0.000000 0.000000 0.000000 0.000000 0.043624
#
#
# Mechanical properties :
#
#
# Convention : Reuss Voigt Hill
#
# Bulk Modulus (GPa) = 36.25725 78.62532 57.44128
# Shear Modulus (GPa) = 27.81909 16.52577 22.17243
#
# Velocity S-wave (km/s) = 3.99583 3.07976 3.56732
# Velocity P-wave (km/s) = 6.48835 7.60088 7.06654
#
# Compressibility (1/GPa) = 0.02758069
#
# Stress axis : x y z
#
# Youngs Moduli (GPa) = 46.06315 19.02799 70.77678
#
# Poissons Ratio (x) = 0.18784 0.58507
# Poissons Ratio (y) = 0.45473 0.86825
# Poissons Ratio (z) = 0.38078 0.23342
#
# Static dielectric constant tensor:
#      x y z
#    x 3.423590 0.000000 0.000000 
#    y 0.000000 2.983630 0.000000 
#    z 0.000000 0.000000 3.390450 
# 
# 
# High freq. dielectric constant tensor:
#      x y z
#    x 1.673270 0.000000 0.000000 
#    y 0.000000 1.646640 0.000000 
#    z 0.000000 0.000000 1.685460 
# 
# From -- ./inp_files/31349.got.cif
#   From: 2010.03.12/outbox.cif.g09.slc.cpg/sg51_16_cif.got.tgz:31349.got - 2010.04.16 13:43:02.
