data_PCOD8213465
_publ_section_title
;
Structure prediction by ZEFSAII (Michael W. Deem and Ramdas Pophale) SiO2 
 PCOD8213465
Probable space group: P M M A
;
_chemical_formula_sum "Si O2"
_cell_formula_units_Z 64
_cell_length_a 8.968342
_cell_length_b 18.661104
_cell_length_c 18.851393
_cell_angle_alpha 90.000000
_cell_angle_beta 90.000000
_cell_angle_gamma 90.000000
_cell_volume 3154.953350
_symmetry_space_group_name_H-M "P M M A"
_symmetry_group_IT_number 51
_symmetry_cell_setting 'orthorhombic'
loop_
_space_group_symop_operation_xyz
x,y,z
1/2-x,-y,z
1/2+x,-y,-z
-x,y,-z
-x,-y,-z
1/2+x,y,-z
1/2-x,y,z
x,-y,z
loop_
_atom_site_type_symbol
_atom_site_label
_atom_site_fract_x
_atom_site_fract_y
_atom_site_fract_z
Si Si1 0.427459 0.811336 0.824249
Si Si2 0.425704 0.918050 0.701133
Si Si3 0.574866 0.153553 0.573195
Si Si4 0.413544 0.076252 0.929943
Si Si5 0.426523 0.296890 0.075580
Si Si6 0.923662 0.417436 0.312173
Si Si7 0.079817 0.416495 0.850336
Si Si8 0.925051 0.317481 0.573819
O O1 0.250000 0.798630 0.824473
O O2 0.476498 0.852059 0.752509
O O3 0.491710 0.866078 0.882071
O O4 0.511251 0.740357 0.851268
O O5 0.250000 0.912304 0.688915
O O6 0.512356 0.902825 0.629255
O O7 0.464923 0.000000 0.726681
O O8 0.500000 0.131765 0.500000
O O9 0.750000 0.143747 0.566392
O O10 0.533009 0.235601 0.593035
O O11 0.250000 0.104241 0.949355
O O12 0.405521 0.000000 0.888813
O O13 0.500000 0.064378 0.000000
O O14 0.250000 0.286837 0.069150
O O15 0.471687 0.378629 0.092335
O O16 0.500000 0.271565 0.000000
O O17 0.750000 0.402026 0.325422
O O18 0.961313 0.500000 0.329329
O O19 0.965464 0.399254 0.230973
O O20 0.019447 0.366919 0.362492
O O21 0.250000 0.391545 0.863610
O O22 0.063111 0.500000 0.864828
O O23 0.750000 0.327854 0.564568
O O24 0.000000 0.341211 0.500000
#
# Coordination Sequence:
#
# PCOD8213465 Si02
#       8
#     8   8   8   8   8   8   8   8
#     4  10  21  38  59  84 117 154 191 237 290 346
#     4  10  22  40  63  91 121 157 199 242 296 360
#     4  10  22  40  61  87 119 156 202 251 303 357
#     4   9  17  30  50  75 104 141 184 228 275 330
#     4  12  26  42  62  89 122 158 201 247 296 354
#     4   9  19  36  59  87 120 159 201 245 297 358
#     4   9  20  41  66  91 120 156 199 246 299 358
#     4  10  21  36  56  84 119 160 206 253 300 354
#
# _framework density 20.285563
#
# number of rings (size 3 to 8) (size 9 to 14) (size 15 to 20)
#    0.000    2.125    0.000    3.375    1.750    7.000 
#    0.000    1.250    0.000    2.250    0.000    0.000 
#    0.000    0.000    0.000    0.000    0.000    0.000 
#
# Total GULP energy -792967.730981 kJ/mol
# GULP energy per Si atom -12390.120797 kJ/mol
# Density = 2.023939 g / cm^3
# Si number density = 20.285563 Si / 1000 Ang^3
#
#
#
# Elastic Constant Matrix: (Units=GPa)
#
#
# Indices 1 2 3 4 5 6 
#
# 1 82.2884 37.9473 47.0886 0.0000 0.0000 0.0000
# 2 37.9473 72.8956 48.1674 0.0000 0.0000 0.0000
# 3 47.0886 48.1674 98.6946 0.0000 0.0000 0.0000
# 4 0.0000 0.0000 0.0000 37.6553 0.0000 0.0000
# 5 0.0000 0.0000 0.0000 0.0000 34.1029 0.0000
# 6 0.0000 0.0000 0.0000 0.0000 0.0000 30.2907
#
#
#
# Elastic Compliance Matrix: (Units=1/GPa)
#
#
# Indices 1 2 3 4 5 6 
#
# 1 0.018088 -0.005481 -0.005955 0.000000 0.000000 0.000000
# 2 -0.005481 0.021909 -0.008077 0.000000 0.000000 0.000000
# 3 -0.005955 -0.008077 0.016916 0.000000 0.000000 0.000000
# 4 0.000000 0.000000 0.000000 0.026557 0.000000 0.000000
# 5 0.000000 0.000000 0.000000 0.000000 0.029323 0.000000
# 6 0.000000 0.000000 0.000000 0.000000 0.000000 0.033013
#
#
# Mechanical properties :
#
#
# Convention : Reuss Voigt Hill
#
# Bulk Modulus (GPa) = 55.91170 57.80949 56.86059
# Shear Modulus (GPa) = 26.20633 28.45479 27.33056
#
# Velocity S-wave (km/s) = 3.59816 3.74934 3.67453
# Velocity P-wave (km/s) = 6.69959 6.87773 6.78924
#
# Compressibility (1/GPa) = 0.01788534
#
# Stress axis : x y z
#
# Youngs Moduli (GPa) = 55.28660 45.64360 59.11724
#
# Poissons Ratio (x) = 0.25018 0.35203
# Poissons Ratio (y) = 0.30303 0.47751
# Poissons Ratio (z) = 0.32922 0.36868
#
# Static dielectric constant tensor:
#      x y z
#    x 3.491900 0.000000 0.000000 
#    y 0.000000 3.906130 0.000000 
#    z 0.000000 0.000000 3.527990 
# 
# 
# High freq. dielectric constant tensor:
#      x y z
#    x 1.779320 0.000000 0.000000 
#    y 0.000000 1.802990 0.000000 
#    z 0.000000 0.000000 1.791710 
# 
# From -- ./inp_files/32414.got.cif
#   From: 2010.03.12/outbox.cif.g09.slc.cpg/sg51_17_cif.got.tgz:32414.got - 2010.04.16 13:43:02.
