data_PCOD8213873
_publ_section_title
;
Structure prediction by ZEFSAII (Michael W. Deem and Ramdas Pophale) SiO2 
 PCOD8213873
Probable space group: P M M A
;
_chemical_formula_sum "Si O2"
_cell_formula_units_Z 48
_cell_length_a 9.730277
_cell_length_b 9.003165
_cell_length_c 28.787364
_cell_angle_alpha 90.000000
_cell_angle_beta 90.000000
_cell_angle_gamma 90.000000
_cell_volume 2521.867777
_symmetry_space_group_name_H-M "P M M A"
_symmetry_group_IT_number 51
_symmetry_cell_setting 'orthorhombic'
loop_
_space_group_symop_operation_xyz
x,y,z
1/2-x,-y,z
1/2+x,-y,-z
-x,y,-z
-x,-y,-z
1/2+x,y,-z
1/2-x,y,z
x,-y,z
loop_
_atom_site_type_symbol
_atom_site_label
_atom_site_fract_x
_atom_site_fract_y
_atom_site_fract_z
Si Si1 0.092179 0.175728 0.780174
Si Si2 0.460963 0.328708 0.399554
Si Si3 0.598479 0.676330 0.960815
Si Si4 0.092172 0.674544 0.143662
Si Si5 0.250000 0.824672 0.463930
Si Si6 0.250000 0.331906 0.559816
Si Si7 0.094775 0.170178 0.304421
O O1 0.250000 0.231790 0.777935
O O2 0.016071 0.242404 0.824345
O O3 0.012140 0.228871 0.734019
O O4 0.085417 0.000000 0.784483
O O5 0.417829 0.500000 0.403191
O O6 0.385383 0.239617 0.440031
O O7 0.621865 0.303969 0.406701
O O8 0.418753 0.270510 0.349506
O O9 0.750000 0.740788 0.970143
O O10 0.601454 0.500000 0.965172
O O11 0.551001 0.719347 0.908922
O O12 0.500000 0.746989 0.000000
O O13 0.250000 0.722695 0.154058
O O14 0.076614 0.500000 0.151728
O O15 0.250000 0.782862 0.517786
O O16 0.250000 0.000000 0.458524
O O17 0.250000 0.500000 0.539624
O O18 0.250000 0.185093 0.284752
O O19 0.062713 0.000000 0.317983
#
# Coordination Sequence:
#
# PCOD8213873 Si02
#       7
#     8   8   8   8   4   4   8
#     4  10  22  38  56  81 112 146 182 225 279 333
#     4  11  23  40  62  87 117 151 185 227 279 329
#     4   8  14  25  43  70 104 140 178 224 277 330
#     4   9  18  33  53  79 110 144 186 232 277 330
#     4  12  24  40  62  90 118 150 194 232 267 322
#     4  10  24  42  60  86 120 154 186 226 279 330
#     4  10  21  38  59  82 109 142 184 227 269 329
#
# _framework density 19.033512999999999
#
# number of rings (size 3 to 8) (size 9 to 14) (size 15 to 20)
#    0.000    2.167    0.833    3.250    1.167    6.000 
#    0.000    1.667    0.000    0.500    0.000    0.000 
#    0.000    0.000    0.000    0.000    0.000    0.000 
#
# Total GULP energy -595218.029951 kJ/mol
# GULP energy per Si atom -12400.375624 kJ/mol
# Density = 1.899019 g / cm^3
# Si number density = 19.033513 Si / 1000 Ang^3
#
#
#
# Elastic Constant Matrix: (Units=GPa)
#
#
# Indices 1 2 3 4 5 6 
#
# 1 130.5101 32.1422 57.3174 0.0000 0.0000 0.0000
# 2 32.1422 59.7335 29.2434 0.0000 0.0000 0.0000
# 3 57.3174 29.2434 110.7111 0.0000 0.0000 0.0000
# 4 0.0000 0.0000 0.0000 85.1045 0.0000 0.0000
# 5 0.0000 0.0000 0.0000 0.0000 37.3645 0.0000
# 6 0.0000 0.0000 0.0000 0.0000 0.0000 24.3653
#
#
#
# Elastic Compliance Matrix: (Units=1/GPa)
#
#
# Indices 1 2 3 4 5 6 
#
# 1 0.010496 -0.003431 -0.004528 0.000000 0.000000 0.000000
# 2 -0.003431 0.020349 -0.003599 0.000000 0.000000 0.000000
# 3 -0.004528 -0.003599 0.012327 0.000000 0.000000 0.000000
# 4 0.000000 0.000000 0.000000 0.011750 0.000000 0.000000
# 5 0.000000 0.000000 0.000000 0.000000 0.026763 0.000000
# 6 0.000000 0.000000 0.000000 0.000000 0.000000 0.041042
#
#
# Mechanical properties :
#
#
# Convention : Reuss Voigt Hill
#
# Bulk Modulus (GPa) = 49.85747 59.81786 54.83767
# Shear Modulus (GPa) = 32.78092 41.51697 37.14894
#
# Velocity S-wave (km/s) = 4.15453 4.67546 4.42267
# Velocity P-wave (km/s) = 7.01890 7.78733 7.41308
#
# Compressibility (1/GPa) = 0.02005717
#
# Stress axis : x y z
#
# Youngs Moduli (GPa) = 95.27748 49.14224 81.12229
#
# Poissons Ratio (x) = 0.16861 0.36728
# Poissons Ratio (y) = 0.32691 0.29193
# Poissons Ratio (z) = 0.43137 0.17685
#
# Static dielectric constant tensor:
#      x y z
#    x 3.996380 0.000000 0.000000 
#    y 0.000000 3.261080 0.000000 
#    z 0.000000 0.000000 3.516060 
# 
# 
# High freq. dielectric constant tensor:
#      x y z
#    x 1.752400 0.000000 0.000000 
#    y 0.000000 1.717040 0.000000 
#    z 0.000000 0.000000 1.744310 
# 
# From -- ./inp_files/37236.got.cif
#   From: 2010.03.12/outbox.cif.g09.slc.cpg/sg51_19_cif.got.tgz:37236.got - 2010.04.16 13:43:02.
