data_PCOD8213684
_publ_section_title
;
Structure prediction by ZEFSAII (Michael W. Deem and Ramdas Pophale) SiO2 
 PCOD8213684
Probable space group: P M M A
;
_chemical_formula_sum "Si O2"
_cell_formula_units_Z 28
_cell_length_a 9.862767
_cell_length_b 7.769905
_cell_length_c 19.262735
_cell_angle_alpha 90.000000
_cell_angle_beta 90.000000
_cell_angle_gamma 90.000000
_cell_volume 1476.156599
_symmetry_space_group_name_H-M "P M M A"
_symmetry_group_IT_number 51
_symmetry_cell_setting 'orthorhombic'
loop_
_space_group_symop_operation_xyz
x,y,z
1/2-x,-y,z
1/2+x,-y,-z
-x,y,-z
-x,-y,-z
1/2+x,y,-z
1/2-x,y,z
x,-y,z
loop_
_atom_site_type_symbol
_atom_site_label
_atom_site_fract_x
_atom_site_fract_y
_atom_site_fract_z
Si Si1 0.593111 0.799224 0.786945
Si Si2 0.400253 0.204919 0.057793
Si Si3 0.408841 0.000000 0.567533
Si Si4 0.096286 0.691803 0.667564
O O1 0.750000 0.758141 0.771151
O O2 0.555419 0.738059 0.864911
O O3 0.499270 0.695728 0.734492
O O4 0.563307 0.000000 0.777682
O O5 0.250000 0.275122 0.041675
O O6 0.399994 0.000000 0.054471
O O7 0.500000 0.284650 0.000000
O O8 0.500000 0.000000 0.500000
O O9 0.449667 0.830119 0.610517
O O10 0.250000 0.000000 0.547500
O O11 0.250000 0.732896 0.691338
O O12 0.086086 0.500000 0.635089
#
# Coordination Sequence:
#
# PCOD8213684 Si02
#       4
#     8   8   4   8
#     4   9  17  30  50  76 107 142 182 226 271 320
#     4   8  14  24  39  65 100 136 176 222 268 316
#     4  10  22  40  60  84 113 142 173 214 261 312
#     4  10  21  37  57  82 111 143 180 219 262 315
#
# _framework density 18.968178000000002
#
# number of rings (size 3 to 8) (size 9 to 14) (size 15 to 20)
#    0.000    2.857    1.429    1.714    0.000    3.429 
#    0.000    2.857    0.000    0.857    0.000    0.000 
#    0.000    0.000    0.000    0.000    0.000    0.000 
#
# Total GULP energy -347119.230799 kJ/mol
# GULP energy per Si atom -12397.115386 kJ/mol
# Density = 1.892501 g / cm^3
# Si number density = 18.968178 Si / 1000 Ang^3
#
#
#
# Elastic Constant Matrix: (Units=GPa)
#
#
# Indices 1 2 3 4 5 6 
#
# 1 90.2069 36.0507 84.5396 0.0000 0.0000 0.0000
# 2 36.0507 85.6776 51.0100 0.0000 0.0000 0.0000
# 3 84.5396 51.0100 145.9533 0.0000 0.0000 0.0000
# 4 0.0000 0.0000 0.0000 4.0197 0.0000 0.0000
# 5 0.0000 0.0000 0.0000 0.0000 44.0107 0.0000
# 6 0.0000 0.0000 0.0000 0.0000 0.0000 15.2238
#
#
#
# Elastic Compliance Matrix: (Units=1/GPa)
#
#
# Indices 1 2 3 4 5 6 
#
# 1 0.024621 -0.002360 -0.013436 0.000000 0.000000 0.000000
# 2 -0.002360 0.014965 -0.003863 0.000000 0.000000 0.000000
# 3 -0.013436 -0.003863 0.015984 0.000000 0.000000 0.000000
# 4 0.000000 0.000000 0.000000 0.248775 0.000000 0.000000
# 5 0.000000 0.000000 0.000000 0.000000 0.022722 0.000000
# 6 0.000000 0.000000 0.000000 0.000000 0.000000 0.065687
#
#
# Mechanical properties :
#
#
# Convention : Reuss Voigt Hill
#
# Bulk Modulus (GPa) = 61.53476 73.89317 67.71396
# Shear Modulus (GPa) = 11.42888 22.66668 17.04778
#
# Velocity S-wave (km/s) = 2.45731 3.46061 3.00118
# Velocity P-wave (km/s) = 6.36888 7.41678 6.91272
#
# Compressibility (1/GPa) = 0.01625098
#
# Stress axis : x y z
#
# Youngs Moduli (GPa) = 40.61603 66.82395 62.56238
#
# Poissons Ratio (x) = 0.15773 0.84059
# Poissons Ratio (y) = 0.09587 0.24167
# Poissons Ratio (z) = 0.54572 0.25814
#
# Static dielectric constant tensor:
#      x y z
#    x 3.597150 0.000000 0.000000 
#    y 0.000000 3.338670 0.000000 
#    z 0.000000 0.000000 3.405100 
# 
# 
# High freq. dielectric constant tensor:
#      x y z
#    x 1.735070 0.000000 0.000000 
#    y 0.000000 1.725680 0.000000 
#    z 0.000000 0.000000 1.725380 
# 
# From -- ./inp_files/31056.got.cif
#   From: 2010.03.12/outbox.cif.g09.slc.cpg/sg51_16_cif.got.tgz:31056.got - 2010.04.16 13:43:02.
