data_PCOD8213337
_publ_section_title
;
Structure prediction by ZEFSAII (Michael W. Deem and Ramdas Pophale) SiO2 
 PCOD8213337
Probable space group: P M M A
;
_chemical_formula_sum "Si O2"
_cell_formula_units_Z 48
_cell_length_a 8.992404
_cell_length_b 9.156296
_cell_length_c 30.399756
_cell_angle_alpha 90.000000
_cell_angle_beta 90.000000
_cell_angle_gamma 90.000000
_cell_volume 2503.028138
_symmetry_space_group_name_H-M "P M M A"
_symmetry_group_IT_number 51
_symmetry_cell_setting 'orthorhombic'
loop_
_space_group_symop_operation_xyz
x,y,z
1/2-x,-y,z
1/2+x,-y,-z
-x,y,-z
-x,-y,-z
1/2+x,y,-z
1/2-x,y,z
x,-y,z
loop_
_atom_site_type_symbol
_atom_site_label
_atom_site_fract_x
_atom_site_fract_y
_atom_site_fract_z
Si Si1 0.583077 0.670714 0.381208
Si Si2 0.577714 0.331126 0.280582
Si Si3 0.075761 0.832155 0.045565
Si Si4 0.077341 0.828639 0.204370
Si Si5 0.577280 0.671164 0.124520
Si Si6 0.423339 0.833108 0.456616
O O1 0.750000 0.726156 0.391097
O O2 0.572324 0.500000 0.389933
O O3 0.540534 0.706248 0.331018
O O4 0.468189 0.749691 0.412734
O O5 0.750000 0.297972 0.270131
O O6 0.542828 0.500000 0.270248
O O7 0.471883 0.228804 0.251917
O O8 0.250000 0.805327 0.040871
O O9 0.012799 0.728420 0.082930
O O10 0.040160 0.000000 0.057794
O O11 0.000000 0.787449 0.000000
O O12 0.250000 0.792638 0.196463
O O13 0.979120 0.749099 0.168131
O O14 0.046916 0.000000 0.201553
O O15 0.750000 0.707511 0.117802
O O16 0.548770 0.500000 0.129672
O O17 0.500000 0.764855 0.500000
O O18 0.250000 0.816290 0.463581
O O19 0.473774 0.000000 0.450882
#
# Coordination Sequence:
#
# PCOD8213337 Si02
#       6
#     8   8   8   8   8   8
#     4   9  19  36  57  81 109 141 178 221 269 322
#     4   9  19  37  59  82 109 142 181 223 268 322
#     4  10  21  38  61  88 117 150 188 229 275 327
#     4  11  24  39  56  82 114 146 183 227 274 326
#     4  11  24  40  59  84 113 147 188 232 278 328
#     4  10  21  36  54  77 106 141 181 224 270 321
#
# _framework density 19.176772
#
# number of rings (size 3 to 8) (size 9 to 14) (size 15 to 20)
#    0.000    2.000    0.000    4.000    0.000   11.333 
#    0.000    5.000    0.000    0.000    0.000    0.000 
#    0.000    0.000    0.000    0.000    0.000    0.000 
#
# Total GULP energy -595406.957250 kJ/mol
# GULP energy per Si atom -12404.311609 kJ/mol
# Density = 1.913313 g / cm^3
# Si number density = 19.176772 Si / 1000 Ang^3
#
#
#
# Elastic Constant Matrix: (Units=GPa)
#
#
# Indices 1 2 3 4 5 6 
#
# 1 78.8701 44.2848 50.8495 0.0000 0.0000 0.0000
# 2 44.2848 71.9757 54.2687 0.0000 0.0000 0.0000
# 3 50.8495 54.2687 121.2094 0.0000 0.0000 0.0000
# 4 0.0000 0.0000 0.0000 38.6183 0.0000 0.0000
# 5 0.0000 0.0000 0.0000 0.0000 41.7571 0.0000
# 6 0.0000 0.0000 0.0000 0.0000 0.0000 34.0533
#
#
#
# Elastic Compliance Matrix: (Units=1/GPa)
#
#
# Indices 1 2 3 4 5 6 
#
# 1 0.020909 -0.009437 -0.004547 0.000000 0.000000 0.000000
# 2 -0.009437 0.025233 -0.007339 0.000000 0.000000 0.000000
# 3 -0.004547 -0.007339 0.013443 0.000000 0.000000 0.000000
# 4 0.000000 0.000000 0.000000 0.025894 0.000000 0.000000
# 5 0.000000 0.000000 0.000000 0.000000 0.023948 0.000000
# 6 0.000000 0.000000 0.000000 0.000000 0.000000 0.029366
#
#
# Mechanical properties :
#
#
# Convention : Reuss Voigt Hill
#
# Bulk Modulus (GPa) = 59.02716 63.42904 61.22810
# Shear Modulus (GPa) = 26.72592 31.06257 28.89424
#
# Velocity S-wave (km/s) = 3.73723 4.02904 3.88587
# Velocity P-wave (km/s) = 7.03348 7.40216 7.22018
#
# Compressibility (1/GPa) = 0.01694136
#
# Stress axis : x y z
#
# Youngs Moduli (GPa) = 47.82633 39.63077 74.38659
#
# Poissons Ratio (x) = 0.37398 0.33821
# Poissons Ratio (y) = 0.45132 0.54590
# Poissons Ratio (z) = 0.21745 0.29084
#
# Static dielectric constant tensor:
#      x y z
#    x 3.547300 0.000000 0.000000 
#    y 0.000000 3.465070 0.000000 
#    z 0.000000 0.000000 3.660850 
# 
# 
# High freq. dielectric constant tensor:
#      x y z
#    x 1.753440 0.000000 0.000000 
#    y 0.000000 1.742110 0.000000 
#    z 0.000000 0.000000 1.759780 
# 
# From -- ./inp_files/36910.got.cif
#   From: 2010.03.12/outbox.cif.g09.slc.cpg/sg51_19_cif.got.tgz:36910.got - 2010.04.16 13:43:02.
