data_PCOD8213234
_publ_section_title
;
Structure prediction by ZEFSAII (Michael W. Deem and Ramdas Pophale) SiO2 
 PCOD8213234
Probable space group: P M M A
;
_chemical_formula_sum "Si O2"
_cell_formula_units_Z 48
_cell_length_a 9.284612
_cell_length_b 9.182802
_cell_length_c 30.802020
_cell_angle_alpha 90.000000
_cell_angle_beta 90.000000
_cell_angle_gamma 90.000000
_cell_volume 2626.141835
_symmetry_space_group_name_H-M "P M M A"
_symmetry_group_IT_number 51
_symmetry_cell_setting 'orthorhombic'
loop_
_space_group_symop_operation_xyz
x,y,z
1/2-x,-y,z
1/2+x,-y,-z
-x,y,-z
-x,-y,-z
1/2+x,y,-z
1/2-x,y,z
x,-y,z
loop_
_atom_site_type_symbol
_atom_site_label
_atom_site_fract_x
_atom_site_fract_y
_atom_site_fract_z
Si Si1 0.418208 0.831578 0.543847
Si Si2 0.917350 0.829834 0.116776
Si Si3 0.090625 0.173024 0.786617
Si Si4 0.915430 0.328258 0.957821
Si Si5 0.418215 0.833251 0.295022
Si Si6 0.084169 0.328308 0.381359
O O1 0.500000 0.788755 0.500000
O O2 0.250000 0.797120 0.537813
O O3 0.481931 0.732892 0.581557
O O4 0.444673 0.000000 0.555660
O O5 0.750000 0.793661 0.108072
O O6 0.961509 0.778875 0.165468
O O7 0.018085 0.741782 0.084769
O O8 0.946547 0.000000 0.110190
O O9 0.250000 0.234779 0.777817
O O10 0.988726 0.233266 0.748530
O O11 0.093032 0.000000 0.785720
O O12 0.750000 0.280345 0.962438
O O13 0.931878 0.500000 0.953322
O O14 0.000000 0.270315 0.000000
O O15 0.250000 0.820415 0.287750
O O16 0.469013 0.739260 0.336023
O O17 0.465928 0.000000 0.303151
O O18 0.250000 0.284088 0.390823
O O19 0.065476 0.500000 0.378828
#
# Coordination Sequence:
#
# PCOD8213234 Si02
#       6
#     8   8   8   8   8   8
#     4  10  21  37  58  82 105 132 169 212 256 303
#     4   9  18  33  53  77 104 133 166 206 253 303
#     4   8  15  29  49  73 100 129 163 205 251 298
#     4  10  21  36  53  73  98 131 170 209 251 301
#     4   9  17  30  50  74  99 131 171 211 250 294
#     4  10  21  36  53  75 106 142 175 209 253 302
#
# _framework density 18.277764000000001
#
# number of rings (size 3 to 8) (size 9 to 14) (size 15 to 20)
#    0.000    2.667    0.000    2.500    0.000    5.333 
#    0.000    4.167    0.000    3.000    0.000    0.000 
#    0.000    0.000    0.000    0.000    0.000    0.000 
#
# Total GULP energy -595183.478146 kJ/mol
# GULP energy per Si atom -12399.655795 kJ/mol
# Density = 1.823616 g / cm^3
# Si number density = 18.277764 Si / 1000 Ang^3
#
#
#
# Elastic Constant Matrix: (Units=GPa)
#
#
# Indices 1 2 3 4 5 6 
#
# 1 104.2354 41.6407 89.4939 0.0000 0.0000 0.0000
# 2 41.6407 43.6650 54.0068 0.0000 0.0000 0.0000
# 3 89.4939 54.0068 173.7124 0.0000 0.0000 0.0000
# 4 0.0000 0.0000 0.0000 -17.9253 0.0000 0.0000
# 5 0.0000 0.0000 0.0000 0.0000 41.5208 0.0000
# 6 0.0000 0.0000 0.0000 0.0000 0.0000 25.3231
#
#
#
# Elastic Compliance Matrix: (Units=1/GPa)
#
#
# Indices 1 2 3 4 5 6 
#
# 1 0.019598 -0.010076 -0.006964 0.000000 0.000000 0.000000
# 2 -0.010076 0.042391 -0.007988 0.000000 0.000000 0.000000
# 3 -0.006964 -0.007988 0.011828 0.000000 0.000000 0.000000
# 4 0.000000 0.000000 0.000000 -0.055787 0.000000 0.000000
# 5 0.000000 0.000000 0.000000 0.000000 0.024084 0.000000
# 6 0.000000 0.000000 0.000000 0.000000 0.000000 0.039490
#
#
# Mechanical properties :
#
#
# Convention : Reuss Voigt Hill
#
# Bulk Modulus (GPa) = 42.08727 76.87729 59.48228
# Shear Modulus (GPa) = 35.82178 18.88181 27.35180
#
# Velocity S-wave (km/s) = 4.43183 3.21759 3.87260
# Velocity P-wave (km/s) = 7.01888 7.48036 7.25329
#
# Compressibility (1/GPa) = 0.02376015
#
# Stress axis : x y z
#
# Youngs Moduli (GPa) = 51.02554 23.59011 84.54636
#
# Poissons Ratio (x) = 0.23770 0.58878
# Poissons Ratio (y) = 0.51414 0.67536
# Poissons Ratio (z) = 0.35534 0.18844
#
# Static dielectric constant tensor:
#      x y z
#    x 3.681380 0.000000 0.000000 
#    y 0.000000 3.123390 0.000000 
#    z 0.000000 0.000000 3.612860 
# 
# 
# High freq. dielectric constant tensor:
#      x y z
#    x 1.708790 0.000000 0.000000 
#    y 0.000000 1.682840 0.000000 
#    z 0.000000 0.000000 1.723260 
# 
# From -- ./inp_files/36971.got.cif
#   From: 2010.03.12/outbox.cif.g09.slc.cpg/sg51_19_cif.got.tgz:36971.got - 2010.04.16 13:43:02.
