data_PCOD8213524
_publ_section_title
;
Structure prediction by ZEFSAII (Michael W. Deem and Ramdas Pophale) SiO2 
 PCOD8213524
Probable space group: P M M A
;
_chemical_formula_sum "Si O2"
_cell_formula_units_Z 36
_cell_length_a 8.894071
_cell_length_b 12.459291
_cell_length_c 19.691985
_cell_angle_alpha 90.000000
_cell_angle_beta 90.000000
_cell_angle_gamma 90.000000
_cell_volume 2182.144057
_symmetry_space_group_name_H-M "P M M A"
_symmetry_group_IT_number 51
_symmetry_cell_setting 'orthorhombic'
loop_
_space_group_symop_operation_xyz
x,y,z
1/2-x,-y,z
1/2+x,-y,-z
-x,y,-z
-x,-y,-z
1/2+x,y,-z
1/2-x,y,z
x,-y,z
loop_
_atom_site_type_symbol
_atom_site_label
_atom_site_fract_x
_atom_site_fract_y
_atom_site_fract_z
Si Si1 0.075877 0.378194 0.200538
Si Si2 0.072996 0.303548 0.347507
Si Si3 0.570702 0.500000 0.425995
Si Si4 0.919810 0.372274 0.066724
Si Si5 0.424922 0.124864 0.570915
O O1 0.250000 0.376159 0.182257
O O2 0.022060 0.500000 0.214380
O O3 0.039121 0.309960 0.267413
O O4 0.991371 0.326426 0.136063
O O5 0.250000 0.316271 0.362416
O O6 0.983626 0.394973 0.386927
O O7 0.011402 0.188295 0.370267
O O8 0.750000 0.500000 0.431147
O O9 0.500000 0.500000 0.500000
O O10 0.750000 0.333159 0.063861
O O11 0.936215 0.500000 0.067208
O O12 0.000000 0.324411 0.000000
O O13 0.500000 0.157672 0.500000
O O14 0.250000 0.156571 0.568444
O O15 0.447747 0.000000 0.586587
#
# Coordination Sequence:
#
# PCOD8213524 Si02
#       5
#     8   8   4   8   8
#     4   9  17  30  45  63  92 126 157 192 234 280
#     4  11  21  35  52  72  98 127 161 199 244 291
#     4  12  24  36  50  68  95 128 163 198 238 288
#     4   9  16  25  39  60  86 120 160 196 229 270
#     4  10  21  37  55  74  95 122 159 203 249 294
#
# _framework density 16.497537000000001
#
# number of rings (size 3 to 8) (size 9 to 14) (size 15 to 20)
#    0.000    2.000    1.111    3.667    0.000    5.778 
#    0.000    0.000    0.000    0.000    0.000    0.000 
#    0.000    0.889    0.000    2.889    0.000    4.222 
#
# Total GULP energy -446448.373326 kJ/mol
# GULP energy per Si atom -12401.343703 kJ/mol
# Density = 1.645999 g / cm^3
# Si number density = 16.497537 Si / 1000 Ang^3
#
#
#
# Elastic Constant Matrix: (Units=GPa)
#
#
# Indices 1 2 3 4 5 6 
#
# 1 125.0943 34.6398 83.7214 0.0000 0.0000 0.0000
# 2 34.6398 48.7213 44.3468 0.0000 0.0000 0.0000
# 3 83.7214 44.3468 153.1787 0.0000 0.0000 0.0000
# 4 0.0000 0.0000 0.0000 11.4396 0.0000 0.0000
# 5 0.0000 0.0000 0.0000 0.0000 34.6962 0.0000
# 6 0.0000 0.0000 0.0000 0.0000 0.0000 22.6761
#
#
#
# Elastic Compliance Matrix: (Units=1/GPa)
#
#
# Indices 1 2 3 4 5 6 
#
# 1 0.013103 -0.003798 -0.006062 0.000000 0.000000 0.000000
# 2 -0.003798 0.028970 -0.006311 0.000000 0.000000 0.000000
# 3 -0.006062 -0.006311 0.011669 0.000000 0.000000 0.000000
# 4 0.000000 0.000000 0.000000 0.087415 0.000000 0.000000
# 5 0.000000 0.000000 0.000000 0.000000 0.028822 0.000000
# 6 0.000000 0.000000 0.000000 0.000000 0.000000 0.044099
#
#
# Mechanical properties :
#
#
# Convention : Reuss Voigt Hill
#
# Bulk Modulus (GPa) = 46.73146 72.49005 59.61076
# Shear Modulus (GPa) = 19.71979 24.71480 22.21729
#
# Velocity S-wave (km/s) = 3.46109 3.87472 3.67373
# Velocity P-wave (km/s) = 6.66033 8.00333 7.36251
#
# Compressibility (1/GPa) = 0.02139886
#
# Stress axis : x y z
#
# Youngs Moduli (GPa) = 76.32020 34.51872 85.70017
#
# Poissons Ratio (x) = 0.13111 0.51950
# Poissons Ratio (y) = 0.28988 0.54086
# Poissons Ratio (z) = 0.46264 0.21785
#
# Static dielectric constant tensor:
#      x y z
#    x 3.259710 0.000000 0.000000 
#    y 0.000000 2.742870 0.000000 
#    z 0.000000 0.000000 3.271770 
# 
# 
# High freq. dielectric constant tensor:
#      x y z
#    x 1.652430 0.000000 0.000000 
#    y 0.000000 1.582860 0.000000 
#    z 0.000000 0.000000 1.644860 
# 
# From -- ./inp_files/27008.got.cif
#   From: 2010.03.12/outbox.cif.g09.slc.cpg/sg51_14_cif.got.tgz:27008.got - 2010.04.16 13:43:02.
