data_PCOD8213106
_publ_section_title
;
Structure prediction by ZEFSAII (Michael W. Deem and Ramdas Pophale) SiO2 
 PCOD8213106
Probable space group: P M M A
;
_chemical_formula_sum "Si O2"
_cell_formula_units_Z 64
_cell_length_a 14.716567
_cell_length_b 9.542004
_cell_length_c 24.094348
_cell_angle_alpha 90.000000
_cell_angle_beta 90.000000
_cell_angle_gamma 90.000000
_cell_volume 3383.461857
_symmetry_space_group_name_H-M "P M M A"
_symmetry_group_IT_number 51
_symmetry_cell_setting 'orthorhombic'
loop_
_space_group_symop_operation_xyz
x,y,z
1/2-x,-y,z
1/2+x,-y,-z
-x,y,-z
-x,-y,-z
1/2+x,y,-z
1/2-x,y,z
x,-y,z
loop_
_atom_site_type_symbol
_atom_site_label
_atom_site_fract_x
_atom_site_fract_y
_atom_site_fract_z
Si Si1 0.358040 0.844847 0.938788
Si Si2 0.995871 0.660854 0.370189
Si Si3 0.358302 0.344664 0.036376
Si Si4 0.649210 0.667024 0.841905
Si Si5 0.146109 0.660594 0.459130
Si Si6 0.500193 0.662557 0.243234
Si Si7 0.355041 0.163358 0.815235
Si Si8 0.855853 0.836477 0.433408
O O1 0.250000 0.849994 0.943697
O O2 0.383683 0.788632 0.877458
O O3 0.397982 0.000000 0.947364
O O4 0.400800 0.747538 0.986696
O O5 0.964802 0.500000 0.379257
O O6 0.912641 0.763382 0.384597
O O7 0.083700 0.697632 0.406881
O O8 0.025662 0.687190 0.307064
O O9 0.250000 0.348848 0.032256
O O10 0.398458 0.500000 0.028898
O O11 0.384791 0.282217 0.097025
O O12 0.750000 0.726938 0.829173
O O13 0.653555 0.500000 0.842536
O O14 0.581759 0.722566 0.794442
O O15 0.250000 0.687476 0.441158
O O16 0.131953 0.500000 0.478637
O O17 0.117155 0.761773 0.509111
O O18 0.517976 0.500000 0.230323
O O19 0.591020 0.746980 0.229671
O O20 0.250000 0.194529 0.804364
O O21 0.376427 0.000000 0.807087
O O22 0.750000 0.814558 0.419866
O O23 0.880838 0.000000 0.437602
#
# Coordination Sequence:
#
# PCOD8213106 Si02
#       8
#     8   8   8   8   8   8   8   8
#     4   8  14  26  45  68  92 120 157 201 250 303
#     4  10  21  35  52  77 107 137 170 209 251 293
#     4   8  13  23  43  70  95 121 156 197 244 299
#     4   8  15  30  51  73 100 133 165 202 251 302
#     4   9  18  34  56  81 109 138 166 201 248 298
#     4  10  21  35  52  76 102 131 173 216 247 286
#     4   9  19  36  54  70  95 133 170 207 257 310
#     4  10  21  36  55  80 107 136 171 207 246 296
#
# _framework density 18.915537
#
# number of rings (size 3 to 8) (size 9 to 14) (size 15 to 20)
#    0.000    3.000    0.000    2.250    0.000    5.000 
#    0.000    7.500    0.000    4.875    0.000    1.750 
#    0.000    0.000    0.000    0.000    0.000    0.000 
#
# Total GULP energy -793477.784654 kJ/mol
# GULP energy per Si atom -12398.090385 kJ/mol
# Density = 1.887248 g / cm^3
# Si number density = 18.915537 Si / 1000 Ang^3
#
#
#
# Elastic Constant Matrix: (Units=GPa)
#
#
# Indices 1 2 3 4 5 6 
#
# 1 54.5680 29.6020 33.1381 0.0000 0.0000 0.0000
# 2 29.6020 65.5859 38.9937 0.0000 0.0000 0.0000
# 3 33.1381 38.9937 96.8120 0.0000 0.0000 0.0000
# 4 0.0000 0.0000 0.0000 7.6206 0.0000 0.0000
# 5 0.0000 0.0000 0.0000 0.0000 27.0740 0.0000
# 6 0.0000 0.0000 0.0000 0.0000 0.0000 19.8026
#
#
#
# Elastic Compliance Matrix: (Units=1/GPa)
#
#
# Indices 1 2 3 4 5 6 
#
# 1 0.026366 -0.008592 -0.005564 0.000000 0.000000 0.000000
# 2 -0.008592 0.022848 -0.006262 0.000000 0.000000 0.000000
# 3 -0.005564 -0.006262 0.014756 0.000000 0.000000 0.000000
# 4 0.000000 0.000000 0.000000 0.131223 0.000000 0.000000
# 5 0.000000 0.000000 0.000000 0.000000 0.036936 0.000000
# 6 0.000000 0.000000 0.000000 0.000000 0.000000 0.050498
#
#
# Mechanical properties :
#
#
# Convention : Reuss Voigt Hill
#
# Bulk Modulus (GPa) = 43.22635 46.71483 44.97059
# Shear Modulus (GPa) = 15.09779 18.58158 16.83969
#
# Velocity S-wave (km/s) = 2.82825 3.13764 2.98695
# Velocity P-wave (km/s) = 5.79373 6.15439 5.97678
#
# Compressibility (1/GPa) = 0.02313404
#
# Stress axis : x y z
#
# Youngs Moduli (GPa) = 37.92809 43.76751 67.76929
#
# Poissons Ratio (x) = 0.37605 0.37708
# Poissons Ratio (y) = 0.32588 0.42435
# Poissons Ratio (z) = 0.21104 0.27406
#
# Static dielectric constant tensor:
#      x y z
#    x 3.350100 0.000000 0.000000 
#    y 0.000000 3.421900 0.000000 
#    z 0.000000 0.000000 3.527470 
# 
# 
# High freq. dielectric constant tensor:
#      x y z
#    x 1.724940 0.000000 0.000000 
#    y 0.000000 1.715370 0.000000 
#    z 0.000000 0.000000 1.735100 
# 
# From -- ./inp_files/35868.got.cif
#   From: 2010.03.12/outbox.cif.g09.slc.cpg/sg51_18_cif.got.tgz:35868.got - 2010.04.16 13:43:02.
