data_PCOD8213450
_publ_section_title
;
Structure prediction by ZEFSAII (Michael W. Deem and Ramdas Pophale) SiO2 
 PCOD8213450
Probable space group: P M M A
;
_chemical_formula_sum "Si O2"
_cell_formula_units_Z 64
_cell_length_a 14.742726
_cell_length_b 9.299808
_cell_length_c 23.923646
_cell_angle_alpha 90.000000
_cell_angle_beta 90.000000
_cell_angle_gamma 90.000000
_cell_volume 3280.040030
_symmetry_space_group_name_H-M "P M M A"
_symmetry_group_IT_number 51
_symmetry_cell_setting 'orthorhombic'
loop_
_space_group_symop_operation_xyz
x,y,z
1/2-x,-y,z
1/2+x,-y,-z
-x,y,-z
-x,-y,-z
1/2+x,y,-z
1/2-x,y,z
x,-y,z
loop_
_atom_site_type_symbol
_atom_site_label
_atom_site_fract_x
_atom_site_fract_y
_atom_site_fract_z
Si Si1 0.542580 0.832183 0.252786
Si Si2 0.006593 0.330792 0.937758
Si Si3 0.854330 0.335825 0.459869
Si Si4 0.647020 0.333377 0.589572
Si Si5 0.355041 0.669484 0.844236
Si Si6 0.021569 0.165996 0.623566
Si Si7 0.151110 0.843358 0.106127
Si Si8 0.845890 0.839895 0.762736
O O1 0.608651 0.747685 0.211302
O O2 0.573875 0.814867 0.317090
O O3 0.440724 0.762282 0.251880
O O4 0.541249 0.000000 0.234288
O O5 0.011823 0.500000 0.942248
O O6 0.091611 0.276595 0.900006
O O7 0.914489 0.286470 0.908150
O O8 0.000000 0.262732 0.000000
O O9 0.750000 0.302427 0.446111
O O10 0.877953 0.500000 0.444484
O O11 0.874776 0.307082 0.524572
O O12 0.916675 0.232400 0.424135
O O13 0.750000 0.285263 0.603140
O O14 0.633743 0.500000 0.604541
O O15 0.577602 0.239860 0.626151
O O16 0.250000 0.709682 0.852666
O O17 0.368836 0.500000 0.835289
O O18 0.006138 0.000000 0.609669
O O19 0.250000 0.811501 0.079407
O O20 0.160544 0.850357 0.171561
O O21 0.115478 0.000000 0.084630
O O22 0.750000 0.765729 0.741585
O O23 0.850018 0.000000 0.736563
#
# Coordination Sequence:
#
# PCOD8213450 Si02
#       8
#     8   8   8   8   8   8   8   8
#     4  10  21  37  56  79 109 146 185 224 269 325
#     4  10  21  36  56  83 113 144 177 219 273 329
#     4   9  19  37  59  79 103 144 194 235 276 330
#     4   9  19  37  59  81 108 146 190 232 274 328
#     4  10  22  40  59  79 107 145 188 230 271 318
#     4  11  23  34  51  84 118 145 179 229 286 338
#     4   9  17  31  54  81 106 135 173 215 259 311
#     4   8  14  28  52  76  98 130 169 209 257 311
#
# _framework density 19.511956000000001
#
# number of rings (size 3 to 8) (size 9 to 14) (size 15 to 20)
#    0.000    2.500    1.250    2.250    0.000    5.750 
#    0.000    6.250    0.000    0.375    0.000    0.000 
#    0.000    0.000    0.000    0.000    0.000    0.000 
#
# Total GULP energy -793020.077851 kJ/mol
# GULP energy per Si atom -12390.938716 kJ/mol
# Density = 1.946755 g / cm^3
# Si number density = 19.511956 Si / 1000 Ang^3
#
#
#
# Elastic Constant Matrix: (Units=GPa)
#
#
# Indices 1 2 3 4 5 6 
#
# 1 112.6705 37.2325 45.3445 0.0000 0.0000 0.0000
# 2 37.2325 51.6855 40.4801 0.0000 0.0000 0.0000
# 3 45.3445 40.4801 81.0682 0.0000 0.0000 0.0000
# 4 0.0000 0.0000 0.0000 23.9281 0.0000 0.0000
# 5 0.0000 0.0000 0.0000 0.0000 3.9333 0.0000
# 6 0.0000 0.0000 0.0000 0.0000 0.0000 104.9448
#
#
#
# Elastic Compliance Matrix: (Units=1/GPa)
#
#
# Indices 1 2 3 4 5 6 
#
# 1 0.012416 -0.005756 -0.004070 0.000000 0.000000 0.000000
# 2 -0.005756 0.034442 -0.013979 0.000000 0.000000 0.000000
# 3 -0.004070 -0.013979 0.021592 0.000000 0.000000 0.000000
# 4 0.000000 0.000000 0.000000 0.041792 0.000000 0.000000
# 5 0.000000 0.000000 0.000000 0.000000 0.254241 0.000000
# 6 0.000000 0.000000 0.000000 0.000000 0.000000 0.009529
#
#
# Mechanical properties :
#
#
# Convention : Reuss Voigt Hill
#
# Bulk Modulus (GPa) = 47.98474 54.61538 51.30006
# Shear Modulus (GPa) = 11.66676 34.71904 23.19290
#
# Velocity S-wave (km/s) = 2.44791 4.22284 3.45142
# Velocity P-wave (km/s) = 5.71275 7.19916 6.49860
#
# Compressibility (1/GPa) = 0.02083996
#
# Stress axis : x y z
#
# Youngs Moduli (GPa) = 80.54347 29.03414 46.31329
#
# Poissons Ratio (x) = 0.16712 0.18852
# Poissons Ratio (y) = 0.46360 0.64740
# Poissons Ratio (z) = 0.32785 0.40586
#
# Static dielectric constant tensor:
#      x y z
#    x 3.544470 0.000000 0.000000 
#    y 0.000000 3.342340 0.000000 
#    z 0.000000 0.000000 3.556360 
# 
# 
# High freq. dielectric constant tensor:
#      x y z
#    x 1.769490 0.000000 0.000000 
#    y 0.000000 1.734870 0.000000 
#    z 0.000000 0.000000 1.754880 
# 
# From -- ./inp_files/35654.got.cif
#   From: 2010.03.12/outbox.cif.g09.slc.cpg/sg51_18_cif.got.tgz:35654.got - 2010.04.16 13:43:02.
