data_PCOD8213294
_publ_section_title
;
Structure prediction by ZEFSAII (Michael W. Deem and Ramdas Pophale) SiO2 
 PCOD8213294
Probable space group: P M M A
;
_chemical_formula_sum "Si O2"
_cell_formula_units_Z 64
_cell_length_a 9.569804
_cell_length_b 27.605211
_cell_length_c 12.835426
_cell_angle_alpha 90.000000
_cell_angle_beta 90.000000
_cell_angle_gamma 90.000000
_cell_volume 3390.817386
_symmetry_space_group_name_H-M "P M M A"
_symmetry_group_IT_number 51
_symmetry_cell_setting 'orthorhombic'
loop_
_space_group_symop_operation_xyz
x,y,z
1/2-x,-y,z
1/2+x,-y,-z
-x,y,-z
-x,-y,-z
1/2+x,y,-z
1/2-x,y,z
x,-y,z
loop_
_atom_site_type_symbol
_atom_site_label
_atom_site_fract_x
_atom_site_fract_y
_atom_site_fract_z
Si Si1 0.591516 0.774702 0.094271
Si Si2 0.911945 0.149378 0.790690
Si Si3 0.594599 0.210870 0.600444
Si Si4 0.904629 0.620919 0.400448
Si Si5 0.000509 0.704350 0.738724
Si Si6 0.087331 0.443632 0.788143
Si Si7 0.590541 0.368096 0.904371
Si Si8 0.910440 0.054027 0.900109
O O1 0.750000 0.786601 0.058806
O O2 0.512650 0.823498 0.128697
O O3 0.600871 0.736066 0.187742
O O4 0.500000 0.752463 0.000000
O O5 0.750000 0.163571 0.813268
O O6 0.950524 0.165195 0.672718
O O7 0.937347 0.091908 0.806014
O O8 0.500000 0.214355 0.500000
O O9 0.750000 0.203425 0.558061
O O10 0.592146 0.259972 0.668347
O O11 0.750000 0.613100 0.443783
O O12 0.948779 0.576143 0.327072
O O13 0.000000 0.623682 0.500000
O O14 0.906715 0.670806 0.335663
O O15 0.902784 0.670576 0.810511
O O16 0.250000 0.432740 0.814569
O O17 0.052864 0.500000 0.791323
O O18 0.987372 0.417577 0.871086
O O19 0.750000 0.379351 0.938353
O O20 0.500000 0.346489 0.000000
O O21 0.750000 0.055931 0.935745
O O22 0.950906 0.000000 0.860618
O O23 0.000000 0.069126 0.000000
#
# Coordination Sequence:
#
# PCOD8213294 Si02
#       8
#     8   8   8   8   8   8   8   8
#     4  11  22  34  51  75 104 140 178 215 257 307
#     4   9  19  35  52  73 104 139 176 219 264 313
#     4  10  21  36  54  76 102 134 174 219 264 310
#     4  10  21  36  55  79 105 133 167 209 258 308
#     4  10  22  37  55  75 103 138 177 214 252 303
#     4   9  20  40  61  80 106 139 174 212 253 301
#     4  11  23  38  58  83 110 140 173 211 255 305
#     4   9  17  30  50  76 105 138 175 215 262 315
#
# _framework density 18.874504999999999
#
# number of rings (size 3 to 8) (size 9 to 14) (size 15 to 20)
#    0.000    2.125    0.000    2.625    0.000   12.250 
#    0.000    0.000    0.000    0.375    0.000    0.000 
#    0.000    0.000    0.000    0.000    0.000    0.000 
#
# Total GULP energy -793458.603206 kJ/mol
# GULP energy per Si atom -12397.790675 kJ/mol
# Density = 1.883155 g / cm^3
# Si number density = 18.874505 Si / 1000 Ang^3
#
#
#
# Elastic Constant Matrix: (Units=GPa)
#
#
# Indices 1 2 3 4 5 6 
#
# 1 107.6933 34.1607 55.4798 0.0000 0.0000 0.0000
# 2 34.1607 118.8773 48.9530 0.0000 0.0000 0.0000
# 3 55.4798 48.9530 110.4959 0.0000 0.0000 0.0000
# 4 0.0000 0.0000 0.0000 16.7917 0.0000 0.0000
# 5 0.0000 0.0000 0.0000 0.0000 22.6107 0.0000
# 6 0.0000 0.0000 0.0000 0.0000 0.0000 18.0853
#
#
#
# Elastic Compliance Matrix: (Units=1/GPa)
#
#
# Indices 1 2 3 4 5 6 
#
# 1 0.012676 -0.001250 -0.005811 0.000000 0.000000 0.000000
# 2 -0.001250 0.010412 -0.003986 0.000000 0.000000 0.000000
# 3 -0.005811 -0.003986 0.013733 0.000000 0.000000 0.000000
# 4 0.000000 0.000000 0.000000 0.059553 0.000000 0.000000
# 5 0.000000 0.000000 0.000000 0.000000 0.044227 0.000000
# 6 0.000000 0.000000 0.000000 0.000000 0.000000 0.055294
#
#
# Mechanical properties :
#
#
# Convention : Reuss Voigt Hill
#
# Bulk Modulus (GPa) = 67.89127 68.25040 68.07084
# Shear Modulus (GPa) = 22.43193 24.72905 23.58049
#
# Velocity S-wave (km/s) = 3.45117 3.62357 3.53842
# Velocity P-wave (km/s) = 7.20616 7.33114 7.26892
#
# Compressibility (1/GPa) = 0.01472943
#
# Stress axis : x y z
#
# Youngs Moduli (GPa) = 78.89232 96.03976 72.81520
#
# Poissons Ratio (x) = 0.12001 0.42311
# Poissons Ratio (y) = 0.09859 0.29021
# Poissons Ratio (z) = 0.45842 0.38277
#
# Static dielectric constant tensor:
#      x y z
#    x 3.367000 0.000000 0.000000 
#    y 0.000000 3.527360 0.000000 
#    z 0.000000 0.000000 3.407260 
# 
# 
# High freq. dielectric constant tensor:
#      x y z
#    x 1.732670 0.000000 0.000000 
#    y 0.000000 1.728280 0.000000 
#    z 0.000000 0.000000 1.723570 
# 
# From -- ./inp_files/14855.got.cif
#   From: 2010.03.12/outbox.cif.g09.slc.cpg/sg51_8_cif.got.tgz:14855.got - 2010.04.16 13:43:02.
