data_PCOD8213408
_publ_section_title
;
Structure prediction by ZEFSAII (Michael W. Deem and Ramdas Pophale) SiO2 
 PCOD8213408
Probable space group: P M M A
;
_chemical_formula_sum "Si O2"
_cell_formula_units_Z 48
_cell_length_a 8.991875
_cell_length_b 9.111666
_cell_length_c 30.665654
_cell_angle_alpha 90.000000
_cell_angle_beta 90.000000
_cell_angle_gamma 90.000000
_cell_volume 2512.466524
_symmetry_space_group_name_H-M "P M M A"
_symmetry_group_IT_number 51
_symmetry_cell_setting 'orthorhombic'
loop_
_space_group_symop_operation_xyz
x,y,z
1/2-x,-y,z
1/2+x,-y,-z
-x,y,-z
-x,-y,-z
1/2+x,y,-z
1/2-x,y,z
x,-y,z
loop_
_atom_site_type_symbol
_atom_site_label
_atom_site_fract_x
_atom_site_fract_y
_atom_site_fract_z
Si Si1 0.078404 0.672374 0.702023
Si Si2 0.423586 0.669817 0.956077
Si Si3 0.577339 0.171109 0.623487
Si Si4 0.580851 0.173325 0.877497
Si Si5 0.575675 0.331395 0.454969
Si Si6 0.078137 0.169056 0.790164
O O1 0.250000 0.710981 0.691668
O O2 0.050685 0.500000 0.701372
O O3 0.031531 0.733475 0.749036
O O4 0.973882 0.746340 0.666648
O O5 0.250000 0.698376 0.960736
O O6 0.462492 0.500000 0.948990
O O7 0.483143 0.757307 0.915102
O O8 0.500000 0.729595 0.000000
O O9 0.750000 0.203901 0.615362
O O10 0.485344 0.227835 0.582520
O O11 0.545163 0.000000 0.629634
O O12 0.750000 0.227512 0.881776
O O13 0.518415 0.224926 0.830852
O O14 0.567266 0.000000 0.881801
O O15 0.500000 0.284346 0.500000
O O16 0.750000 0.306252 0.459802
O O17 0.538187 0.500000 0.443257
O O18 0.250000 0.191819 0.802376
O O19 0.044018 0.000000 0.778815
#
# Coordination Sequence:
#
# PCOD8213408 Si02
#       6
#     8   8   8   8   8   8
#     4  10  21  37  58  84 112 143 182 227 275 328
#     4  10  21  37  57  80 107 141 181 225 273 324
#     4  11  24  39  56  81 113 149 188 229 274 324
#     4  10  21  36  55  81 112 145 181 222 269 322
#     4  10  21  38  61  87 114 146 184 226 274 327
#     4   9  18  34  55  78 108 146 184 223 269 321
#
# _framework density 19.104731000000001
#
# number of rings (size 3 to 8) (size 9 to 14) (size 15 to 20)
#    0.000    2.000    0.000    3.000    0.000    9.333 
#    0.000    3.333    0.000    0.000    0.000    0.000 
#    0.000    0.000    0.000    0.000    0.000    0.000 
#
# Total GULP energy -595457.768107 kJ/mol
# GULP energy per Si atom -12405.370169 kJ/mol
# Density = 1.906125 g / cm^3
# Si number density = 19.104731 Si / 1000 Ang^3
#
#
#
# Elastic Constant Matrix: (Units=GPa)
#
#
# Indices 1 2 3 4 5 6 
#
# 1 77.4240 35.0819 54.7847 0.0000 0.0000 0.0000
# 2 35.0819 63.9147 55.1359 0.0000 0.0000 0.0000
# 3 54.7847 55.1359 137.3110 0.0000 0.0000 0.0000
# 4 0.0000 0.0000 0.0000 39.2158 0.0000 0.0000
# 5 0.0000 0.0000 0.0000 0.0000 43.1875 0.0000
# 6 0.0000 0.0000 0.0000 0.0000 0.0000 29.7137
#
#
#
# Elastic Compliance Matrix: (Units=1/GPa)
#
#
# Indices 1 2 3 4 5 6 
#
# 1 0.019429 -0.006085 -0.005309 0.000000 0.000000 0.000000
# 2 -0.006085 0.025843 -0.007949 0.000000 0.000000 0.000000
# 3 -0.005309 -0.007949 0.012593 0.000000 0.000000 0.000000
# 4 0.000000 0.000000 0.000000 0.025500 0.000000 0.000000
# 5 0.000000 0.000000 0.000000 0.000000 0.023155 0.000000
# 6 0.000000 0.000000 0.000000 0.000000 0.000000 0.033655
#
#
# Mechanical properties :
#
#
# Convention : Reuss Voigt Hill
#
# Bulk Modulus (GPa) = 52.13890 63.18385 57.66138
# Shear Modulus (GPa) = 26.98997 31.33320 29.16159
#
# Velocity S-wave (km/s) = 3.76272 4.05418 3.91116
# Velocity P-wave (km/s) = 6.79910 7.42020 7.11643
#
# Compressibility (1/GPa) = 0.01917954
#
# Stress axis : x y z
#
# Youngs Moduli (GPa) = 51.46824 38.69470 79.41089
#
# Poissons Ratio (x) = 0.23546 0.42156
# Poissons Ratio (y) = 0.31319 0.63126
# Poissons Ratio (z) = 0.27322 0.30760
#
# Static dielectric constant tensor:
#      x y z
#    x 3.598740 0.000000 0.000000 
#    y 0.000000 3.473160 0.000000 
#    z 0.000000 0.000000 3.677370 
# 
# 
# High freq. dielectric constant tensor:
#      x y z
#    x 1.751280 0.000000 0.000000 
#    y 0.000000 1.739270 0.000000 
#    z 0.000000 0.000000 1.756740 
# 
# From -- ./inp_files/36954.got.cif
#   From: 2010.03.12/outbox.cif.g09.slc.cpg/sg51_19_cif.got.tgz:36954.got - 2010.04.16 13:43:02.
