data_PCOD8213079
_publ_section_title
;
Structure prediction by ZEFSAII (Michael W. Deem and Ramdas Pophale) SiO2 
 PCOD8213079
Probable space group: P M M A
;
_chemical_formula_sum "Si O2"
_cell_formula_units_Z 48
_cell_length_a 9.323374
_cell_length_b 9.202254
_cell_length_c 30.709725
_cell_angle_alpha 90.000000
_cell_angle_beta 90.000000
_cell_angle_gamma 90.000000
_cell_volume 2634.773276
_symmetry_space_group_name_H-M "P M M A"
_symmetry_group_IT_number 51
_symmetry_cell_setting 'orthorhombic'
loop_
_space_group_symop_operation_xyz
x,y,z
1/2-x,-y,z
1/2+x,-y,-z
-x,y,-z
-x,-y,-z
1/2+x,y,-z
1/2-x,y,z
x,-y,z
loop_
_atom_site_type_symbol
_atom_site_label
_atom_site_fract_x
_atom_site_fract_y
_atom_site_fract_z
Si Si1 0.914570 0.828758 0.382070
Si Si2 0.417296 0.168764 0.863973
Si Si3 0.586133 0.328472 0.789770
Si Si4 0.417439 0.331693 0.456284
Si Si5 0.092017 0.827679 0.960801
Si Si6 0.415662 0.667760 0.705568
O O1 0.750000 0.786817 0.393216
O O2 0.960188 0.762024 0.335964
O O3 0.020178 0.765297 0.417936
O O4 0.935533 0.000000 0.379737
O O5 0.250000 0.206776 0.858200
O O6 0.511651 0.261532 0.831568
O O7 0.469322 0.210016 0.912899
O O8 0.444094 0.000000 0.854437
O O9 0.750000 0.276537 0.787792
O O10 0.572465 0.500000 0.793842
O O11 0.508330 0.274278 0.745975
O O12 0.500000 0.287748 0.500000
O O13 0.250000 0.297046 0.462561
O O14 0.443423 0.500000 0.444802
O O15 0.250000 0.760723 0.965414
O O16 0.099560 0.000000 0.965697
O O17 0.000000 0.758343 0.000000
O O18 0.250000 0.690578 0.717829
O O19 0.449257 0.500000 0.694907
#
# Coordination Sequence:
#
# PCOD8213079 Si02
#       6
#     8   8   8   8   8   8
#     4  10  21  36  55  81 111 140 170 208 256 306
#     4   9  18  32  50  73 100 130 166 207 250 299
#     4  10  21  35  51  74 103 133 167 209 255 302
#     4  10  21  37  58  82 107 139 179 219 257 299
#     4   8  14  25  42  66  95 125 158 198 244 294
#     4   9  18  34  55  75  98 134 176 212 248 297
#
# _framework density 18.217887000000001
#
# number of rings (size 3 to 8) (size 9 to 14) (size 15 to 20)
#    0.000    2.667    0.000    2.500    0.000    5.667 
#    0.000    5.000    0.000    0.500    0.000    0.000 
#    0.000    0.000    0.000    0.000    0.000    0.000 
#
# Total GULP energy -595196.339273 kJ/mol
# GULP energy per Si atom -12399.923735 kJ/mol
# Density = 1.817642 g / cm^3
# Si number density = 18.217887 Si / 1000 Ang^3
#
#
#
# Elastic Constant Matrix: (Units=GPa)
#
#
# Indices 1 2 3 4 5 6 
#
# 1 100.4412 35.6295 85.8141 0.0000 0.0000 0.0000
# 2 35.6295 41.6926 50.4372 0.0000 0.0000 0.0000
# 3 85.8141 50.4372 163.5774 0.0000 0.0000 0.0000
# 4 0.0000 0.0000 0.0000 30.5701 0.0000 0.0000
# 5 0.0000 0.0000 0.0000 0.0000 38.8669 0.0000
# 6 0.0000 0.0000 0.0000 0.0000 0.0000 25.3982
#
#
#
# Elastic Compliance Matrix: (Units=1/GPa)
#
#
# Indices 1 2 3 4 5 6 
#
# 1 0.019155 -0.006719 -0.007977 0.000000 0.000000 0.000000
# 2 -0.006719 0.040611 -0.008997 0.000000 0.000000 0.000000
# 3 -0.007977 -0.008997 0.013072 0.000000 0.000000 0.000000
# 4 0.000000 0.000000 0.000000 0.032712 0.000000 0.000000
# 5 0.000000 0.000000 0.000000 0.000000 0.025729 0.000000
# 6 0.000000 0.000000 0.000000 0.000000 0.000000 0.039373
#
#
# Mechanical properties :
#
#
# Convention : Reuss Voigt Hill
#
# Bulk Modulus (GPa) = 39.28986 72.16364 55.72675
# Shear Modulus (GPa) = 22.07288 27.88909 24.98098
#
# Velocity S-wave (km/s) = 3.48459 3.91687 3.70703
# Velocity P-wave (km/s) = 6.14844 7.75585 6.99845
#
# Compressibility (1/GPa) = 0.02545186
#
# Stress axis : x y z
#
# Youngs Moduli (GPa) = 52.20585 24.62373 76.49771
#
# Poissons Ratio (x) = 0.16545 0.61023
# Poissons Ratio (y) = 0.35078 0.68825
# Poissons Ratio (z) = 0.41645 0.22154
#
# Static dielectric constant tensor:
#      x y z
#    x 3.651040 0.000000 0.000000 
#    y 0.000000 3.103890 0.000000 
#    z 0.000000 0.000000 3.504130 
# 
# 
# High freq. dielectric constant tensor:
#      x y z
#    x 1.706030 0.000000 0.000000 
#    y 0.000000 1.680730 0.000000 
#    z 0.000000 0.000000 1.719470 
# 
# From -- ./inp_files/36906.got.cif
#   From: 2010.03.12/outbox.cif.g09.slc.cpg/sg51_19_cif.got.tgz:36906.got - 2010.04.16 13:43:02.
