data_PCOD8213528
_publ_section_title
;
Structure prediction by ZEFSAII (Michael W. Deem and Ramdas Pophale) SiO2 
 PCOD8213528
Probable space group: P M M A
;
_chemical_formula_sum "Si O2"
_cell_formula_units_Z 56
_cell_length_a 8.882832
_cell_length_b 14.692642
_cell_length_c 23.243384
_cell_angle_alpha 90.000000
_cell_angle_beta 90.000000
_cell_angle_gamma 90.000000
_cell_volume 3033.546820
_symmetry_space_group_name_H-M "P M M A"
_symmetry_group_IT_number 51
_symmetry_cell_setting 'orthorhombic'
loop_
_space_group_symop_operation_xyz
x,y,z
1/2-x,-y,z
1/2+x,-y,-z
-x,y,-z
-x,-y,-z
1/2+x,y,-z
1/2-x,y,z
x,-y,z
loop_
_atom_site_type_symbol
_atom_site_label
_atom_site_fract_x
_atom_site_fract_y
_atom_site_fract_z
Si Si1 0.578459 0.894502 0.243356
Si Si2 0.571978 0.398026 0.841351
Si Si3 0.423967 0.896186 0.889167
Si Si4 0.928711 0.600577 0.713360
Si Si5 0.427098 0.896447 0.560001
Si Si6 0.073685 0.784749 0.339622
Si Si7 0.572477 0.269364 0.941034
O O1 0.750000 0.864875 0.257026
O O2 0.538076 0.876314 0.177257
O O3 0.461755 0.837757 0.281032
O O4 0.558672 0.000000 0.258827
O O5 0.750000 0.387088 0.840442
O O6 0.525654 0.500000 0.859320
O O7 0.507643 0.376721 0.777368
O O8 0.504442 0.329400 0.888661
O O9 0.250000 0.874698 0.901714
O O10 0.527667 0.835015 0.929768
O O11 0.461924 0.000000 0.904283
O O12 0.750000 0.598768 0.717599
O O13 0.986370 0.500000 0.693246
O O14 0.978346 0.679269 0.668711
O O15 0.500000 0.867125 0.500000
O O16 0.250000 0.887756 0.553761
O O17 0.482205 0.826960 0.608051
O O18 0.473927 0.000000 0.576324
O O19 0.250000 0.792398 0.352798
O O20 0.750000 0.278686 0.946309
O O21 0.500000 0.304880 0.000000
#
# Coordination Sequence:
#
# PCOD8213528 Si02
#       7
#     8   8   8   8   8   8   8
#     4   9  18  32  49  71 101 134 163 196 247 305
#     4   8  15  30  51  73  98 128 161 199 246 298
#     4   9  19  36  54  70  93 127 164 203 249 298
#     4   8  15  29  49  74 103 132 163 202 248 296
#     4  10  21  37  55  75 104 142 179 214 253 295
#     4  11  20  29  49  80 108 136 172 210 246 290
#     4  11  22  34  50  72  96 124 161 204 249 299
#
# _framework density 18.460239000000001
#
# number of rings (size 3 to 8) (size 9 to 14) (size 15 to 20)
#    0.000    2.571    0.000    4.286    0.000    5.429 
#    0.000    1.429    0.000    3.429    0.000   10.000 
#    0.000    0.000    0.000    0.000    0.000    0.000 
#
# Total GULP energy -694279.516382 kJ/mol
# GULP energy per Si atom -12397.848507 kJ/mol
# Density = 1.841822 g / cm^3
# Si number density = 18.460239 Si / 1000 Ang^3
#
#
#
# Elastic Constant Matrix: (Units=GPa)
#
#
# Indices 1 2 3 4 5 6 
#
# 1 44.4020 26.4507 26.1890 0.0000 0.0000 0.0000
# 2 26.4507 109.1856 62.3468 0.0000 0.0000 0.0000
# 3 26.1890 62.3468 88.0345 0.0000 0.0000 0.0000
# 4 0.0000 0.0000 0.0000 25.7083 0.0000 0.0000
# 5 0.0000 0.0000 0.0000 0.0000 31.0137 0.0000
# 6 0.0000 0.0000 0.0000 0.0000 0.0000 15.2862
#
#
#
# Elastic Compliance Matrix: (Units=1/GPa)
#
#
# Indices 1 2 3 4 5 6 
#
# 1 0.028050 -0.003409 -0.005930 0.000000 0.000000 0.000000
# 2 -0.003409 0.015792 -0.010170 0.000000 0.000000 0.000000
# 3 -0.005930 -0.010170 0.020326 0.000000 0.000000 0.000000
# 4 0.000000 0.000000 0.000000 0.038898 0.000000 0.000000
# 5 0.000000 0.000000 0.000000 0.000000 0.032244 0.000000
# 6 0.000000 0.000000 0.000000 0.000000 0.000000 0.065419
#
#
# Mechanical properties :
#
#
# Convention : Reuss Voigt Hill
#
# Bulk Modulus (GPa) = 39.76218 52.39943 46.08081
# Shear Modulus (GPa) = 20.15087 22.84401 21.49744
#
# Velocity S-wave (km/s) = 3.30749 3.52159 3.41622
# Velocity P-wave (km/s) = 6.01433 6.70687 6.37002
#
# Compressibility (1/GPa) = 0.02514953
#
# Stress axis : x y z
#
# Youngs Moduli (GPa) = 35.65068 63.32492 49.19919
#
# Poissons Ratio (x) = 0.21587 0.29176
# Poissons Ratio (y) = 0.12153 0.50034
# Poissons Ratio (z) = 0.21141 0.64399
#
# Static dielectric constant tensor:
#      x y z
#    x 3.100460 0.000000 0.000000 
#    y 0.000000 3.625720 0.000000 
#    z 0.000000 0.000000 3.427850 
# 
# 
# High freq. dielectric constant tensor:
#      x y z
#    x 1.691520 0.000000 0.000000 
#    y 0.000000 1.718230 0.000000 
#    z 0.000000 0.000000 1.706640 
# 
# From -- ./inp_files/32032.got.cif
#   From: 2010.03.12/outbox.cif.g09.slc.cpg/sg51_17_cif.got.tgz:32032.got - 2010.04.16 13:43:02.
