data_PCOD8213270
_publ_section_title
;
Structure prediction by ZEFSAII (Michael W. Deem and Ramdas Pophale) SiO2 
 PCOD8213270
Probable space group: P M M A
;
_chemical_formula_sum "Si O2"
_cell_formula_units_Z 64
_cell_length_a 8.873447
_cell_length_b 14.313712
_cell_length_c 25.800340
_cell_angle_alpha 90.000000
_cell_angle_beta 90.000000
_cell_angle_gamma 90.000000
_cell_volume 3276.951876
_symmetry_space_group_name_H-M "P M M A"
_symmetry_group_IT_number 51
_symmetry_cell_setting 'orthorhombic'
loop_
_space_group_symop_operation_xyz
x,y,z
1/2-x,-y,z
1/2+x,-y,-z
-x,y,-z
-x,-y,-z
1/2+x,y,-z
1/2-x,y,z
x,-y,z
loop_
_atom_site_type_symbol
_atom_site_label
_atom_site_fract_x
_atom_site_fract_y
_atom_site_fract_z
Si Si1 0.424454 0.891238 0.258995
Si Si2 0.072073 0.393709 0.308413
Si Si3 0.072277 0.392735 0.098289
Si Si4 0.922452 0.890458 0.858998
Si Si5 0.427411 0.223168 0.948303
Si Si6 0.581082 0.610633 0.203083
Si Si7 0.427704 0.777466 0.650989
Si Si8 0.072225 0.106253 0.552562
O O1 0.250000 0.868732 0.270253
O O2 0.465858 0.863454 0.199950
O O3 0.528071 0.832530 0.297277
O O4 0.457874 0.000000 0.268127
O O5 0.250000 0.385895 0.304956
O O6 0.022118 0.500000 0.320906
O O7 0.003586 0.355911 0.254551
O O8 0.006335 0.324492 0.351933
O O9 0.250000 0.379372 0.095695
O O10 0.025295 0.500000 0.088276
O O11 0.991726 0.328675 0.055745
O O12 0.015150 0.355734 0.154001
O O13 0.750000 0.861760 0.870365
O O14 0.030907 0.837037 0.898165
O O15 0.944820 0.000000 0.867489
O O16 0.250000 0.226490 0.954635
O O17 0.500000 0.177746 0.000000
O O18 0.750000 0.653026 0.200924
O O19 0.588913 0.500000 0.203148
O O20 0.250000 0.763610 0.650032
O O21 0.486057 0.833433 0.600903
O O22 0.250000 0.112194 0.547166
O O23 0.000000 0.146765 0.500000
O O24 0.018217 0.000000 0.561788
#
# Coordination Sequence:
#
# PCOD8213270 Si02
#       8
#     8   8   8   8   8   8   8   8
#     4   9  19  36  58  85 117 152 187 224 274 339
#     4  10  21  36  53  76 110 153 198 241 284 333
#     4  10  21  38  60  84 112 147 184 226 279 338
#     4   9  20  41  65  86 112 146 184 230 282 337
#     4  12  26  42  61  84 111 144 186 235 285 340
#     4   9  17  31  52  78 107 140 181 227 275 329
#     4  11  22  34  54  85 120 155 192 238 290 341
#     4   9  19  36  57  83 116 154 194 238 287 339
#
# _framework density 19.530345000000001
#
# number of rings (size 3 to 8) (size 9 to 14) (size 15 to 20)
#    0.000    2.125    0.000    3.750    1.750    6.000 
#    0.000    2.500    0.000    0.375    0.000    0.000 
#    0.000    0.000    0.000    0.000    0.000    0.000 
#
# Total GULP energy -793722.630189 kJ/mol
# GULP energy per Si atom -12401.916097 kJ/mol
# Density = 1.948589 g / cm^3
# Si number density = 19.530345 Si / 1000 Ang^3
#
#
#
# Elastic Constant Matrix: (Units=GPa)
#
#
# Indices 1 2 3 4 5 6 
#
# 1 99.1782 33.8983 47.5713 0.0000 0.0000 0.0000
# 2 33.8983 73.1352 56.5677 0.0000 0.0000 0.0000
# 3 47.5713 56.5677 117.9137 0.0000 0.0000 0.0000
# 4 0.0000 0.0000 0.0000 29.5744 0.0000 0.0000
# 5 0.0000 0.0000 0.0000 0.0000 34.5414 0.0000
# 6 0.0000 0.0000 0.0000 0.0000 0.0000 31.1596
#
#
#
# Elastic Compliance Matrix: (Units=1/GPa)
#
#
# Indices 1 2 3 4 5 6 
#
# 1 0.012933 -0.003114 -0.003724 0.000000 0.000000 0.000000
# 2 -0.003114 0.022490 -0.009533 0.000000 0.000000 0.000000
# 3 -0.003724 -0.009533 0.014556 0.000000 0.000000 0.000000
# 4 0.000000 0.000000 0.000000 0.033813 0.000000 0.000000
# 5 0.000000 0.000000 0.000000 0.000000 0.028951 0.000000
# 6 0.000000 0.000000 0.000000 0.000000 0.000000 0.032093
#
#
# Mechanical properties :
#
#
# Convention : Reuss Voigt Hill
#
# Bulk Modulus (GPa) = 58.01196 62.92240 60.46718
# Shear Modulus (GPa) = 27.27394 29.20107 28.23750
#
# Velocity S-wave (km/s) = 3.74102 3.87093 3.80653
# Velocity P-wave (km/s) = 6.95904 7.22956 7.09559
#
# Compressibility (1/GPa) = 0.01723782
#
# Stress axis : x y z
#
# Youngs Moduli (GPa) = 77.31865 44.46356 68.69820
#
# Poissons Ratio (x) = 0.13848 0.25582
# Poissons Ratio (y) = 0.24081 0.65490
# Poissons Ratio (z) = 0.28792 0.42387
#
# Static dielectric constant tensor:
#      x y z
#    x 3.503050 0.000000 0.000000 
#    y 0.000000 3.623410 0.000000 
#    z 0.000000 0.000000 3.560520 
# 
# 
# High freq. dielectric constant tensor:
#      x y z
#    x 1.763150 0.000000 0.000000 
#    y 0.000000 1.760890 0.000000 
#    z 0.000000 0.000000 1.747330 
# 
# From -- ./inp_files/34910.got.cif
#   From: 2010.03.12/outbox.cif.g09.slc.cpg/sg51_18_cif.got.tgz:34910.got - 2010.04.16 13:43:02.
