data_PCOD8213089
_publ_section_title
;
Structure prediction by ZEFSAII (Michael W. Deem and Ramdas Pophale) SiO2 
 PCOD8213089
Probable space group: P M M A
;
_chemical_formula_sum "Si O2"
_cell_formula_units_Z 48
_cell_length_a 9.263805
_cell_length_b 9.620841
_cell_length_c 30.087420
_cell_angle_alpha 90.000000
_cell_angle_beta 90.000000
_cell_angle_gamma 90.000000
_cell_volume 2681.559208
_symmetry_space_group_name_H-M "P M M A"
_symmetry_group_IT_number 51
_symmetry_cell_setting 'orthorhombic'
loop_
_space_group_symop_operation_xyz
x,y,z
1/2-x,-y,z
1/2+x,-y,-z
-x,y,-z
-x,-y,-z
1/2+x,y,-z
1/2-x,y,z
x,-y,z
loop_
_atom_site_type_symbol
_atom_site_label
_atom_site_fract_x
_atom_site_fract_y
_atom_site_fract_z
Si Si1 0.581873 0.338816 0.285263
Si Si2 0.414638 0.840065 0.216236
Si Si3 0.582121 0.661557 0.044051
Si Si4 0.914687 0.839939 0.886930
Si Si5 0.418282 0.839974 0.456181
Si Si6 0.082158 0.339351 0.373075
O O1 0.750000 0.308938 0.290652
O O2 0.548653 0.500000 0.276542
O O3 0.523131 0.254654 0.243554
O O4 0.504184 0.287691 0.330050
O O5 0.250000 0.798598 0.227307
O O6 0.447356 0.814700 0.164656
O O7 0.441769 0.000000 0.228816
O O8 0.750000 0.693535 0.037489
O O9 0.552415 0.500000 0.053135
O O10 0.524246 0.745340 0.086007
O O11 0.500000 0.712348 0.000000
O O12 0.750000 0.798038 0.898014
O O13 0.941308 0.000000 0.899529
O O14 0.500000 0.787777 0.500000
O O15 0.250000 0.816322 0.464601
O O16 0.473502 0.749381 0.414816
O O17 0.454744 0.000000 0.445823
O O18 0.250000 0.311783 0.363747
O O19 0.050489 0.500000 0.383557
#
# Coordination Sequence:
#
# PCOD8213089 Si02
#       6
#     8   8   8   8   8   8
#     4  10  21  35  51  75 106 136 168 209 255 302
#     4   9  19  36  56  77 102 134 172 211 251 300
#     4  10  21  36  54  77 105 137 173 212 254 301
#     4   9  19  36  56  78 104 134 170 211 254 302
#     4   9  18  32  49  70  96 125 158 198 244 294
#     4   9  18  33  51  70  95 129 167 204 244 293
#
# _framework density 17.900034000000002
#
# number of rings (size 3 to 8) (size 9 to 14) (size 15 to 20)
#    0.000    2.667    0.000    2.000    0.000    6.000 
#    0.000    6.667    0.000    0.000    0.000    0.000 
#    0.000    0.000    0.000    0.000    0.000    0.000 
#
# Total GULP energy -595358.125349 kJ/mol
# GULP energy per Si atom -12403.294278 kJ/mol
# Density = 1.785929 g / cm^3
# Si number density = 17.900034 Si / 1000 Ang^3
#
#
#
# Elastic Constant Matrix: (Units=GPa)
#
#
# Indices 1 2 3 4 5 6 
#
# 1 89.2675 49.8757 67.4615 0.0000 0.0000 0.0000
# 2 49.8757 66.7658 63.6258 0.0000 0.0000 0.0000
# 3 67.4615 63.6258 118.0974 0.0000 0.0000 0.0000
# 4 0.0000 0.0000 0.0000 27.5295 0.0000 0.0000
# 5 0.0000 0.0000 0.0000 0.0000 38.4887 0.0000
# 6 0.0000 0.0000 0.0000 0.0000 0.0000 29.6751
#
#
#
# Elastic Compliance Matrix: (Units=1/GPa)
#
#
# Indices 1 2 3 4 5 6 
#
# 1 0.022175 -0.009236 -0.007691 0.000000 0.000000 0.000000
# 2 -0.009236 0.034628 -0.013380 0.000000 0.000000 0.000000
# 3 -0.007691 -0.013380 0.020070 0.000000 0.000000 0.000000
# 4 0.000000 0.000000 0.000000 0.036325 0.000000 0.000000
# 5 0.000000 0.000000 0.000000 0.000000 0.025982 0.000000
# 6 0.000000 0.000000 0.000000 0.000000 0.000000 0.033698
#
#
# Mechanical properties :
#
#
# Convention : Reuss Voigt Hill
#
# Bulk Modulus (GPa) = 61.50735 70.67298 66.09016
# Shear Modulus (GPa) = 20.92823 25.34985 23.13904
#
# Velocity S-wave (km/s) = 3.42303 3.76731 3.59929
# Velocity P-wave (km/s) = 7.07524 7.64796 7.36717
#
# Compressibility (1/GPa) = 0.01625822
#
# Stress axis : x y z
#
# Youngs Moduli (GPa) = 45.09595 28.87833 49.82557
#
# Poissons Ratio (x) = 0.26671 0.38323
# Poissons Ratio (y) = 0.41648 0.66669
# Poissons Ratio (z) = 0.34685 0.38641
#
# Static dielectric constant tensor:
#      x y z
#    x 3.272080 0.000000 0.000000 
#    y 0.000000 3.250930 0.000000 
#    z 0.000000 0.000000 3.316290 
# 
# 
# High freq. dielectric constant tensor:
#      x y z
#    x 1.692840 0.000000 0.000000 
#    y 0.000000 1.688740 0.000000 
#    z 0.000000 0.000000 1.698150 
# 
# From -- ./inp_files/36918.got.cif
#   From: 2010.03.12/outbox.cif.g09.slc.cpg/sg51_19_cif.got.tgz:36918.got - 2010.04.16 13:43:02.
