data_PCOD8213057
_publ_section_title
;
Structure prediction by ZEFSAII (Michael W. Deem and Ramdas Pophale) SiO2 
 PCOD8213057
Probable space group: P M M A
;
_chemical_formula_sum "Si O2"
_cell_formula_units_Z 40
_cell_length_a 9.447403
_cell_length_b 9.448509
_cell_length_c 25.574407
_cell_angle_alpha 90.000000
_cell_angle_beta 90.000000
_cell_angle_gamma 90.000000
_cell_volume 2282.870600
_symmetry_space_group_name_H-M "P M M A"
_symmetry_group_IT_number 51
_symmetry_cell_setting 'orthorhombic'
loop_
_space_group_symop_operation_xyz
x,y,z
1/2-x,-y,z
1/2+x,-y,-z
-x,y,-z
-x,-y,-z
1/2+x,y,-z
1/2-x,y,z
x,-y,z
loop_
_atom_site_type_symbol
_atom_site_label
_atom_site_fract_x
_atom_site_fract_y
_atom_site_fract_z
Si Si1 0.914338 0.335162 0.549845
Si Si2 0.415715 0.335503 0.848231
Si Si3 0.085634 0.837247 0.949275
Si Si4 0.917993 0.843761 0.646324
Si Si5 0.415493 0.164376 0.236699
O O1 0.750000 0.299636 0.540852
O O2 0.941117 0.500000 0.557728
O O3 0.975902 0.261662 0.601999
O O4 0.000000 0.277106 0.500000
O O5 0.250000 0.311910 0.838833
O O6 0.455358 0.500000 0.852126
O O7 0.464877 0.259744 0.901444
O O8 0.497272 0.266157 0.800436
O O9 0.250000 0.815017 0.961694
O O10 0.051834 0.000000 0.935017
O O11 0.000000 0.787738 0.000000
O O12 0.750000 0.847597 0.645015
O O13 0.964305 0.795790 0.704353
O O14 0.978351 0.000000 0.634315
O O15 0.250000 0.194177 0.228502
O O16 0.449569 0.000000 0.225003
#
# Coordination Sequence:
#
# PCOD8213057 Si02
#       5
#     8   8   8   8   8
#     4   9  17  29  45  65  90 121 154 187 227 276
#     4  10  21  35  50  72 103 135 164 196 239 289
#     4   9  18  33  52  72  95 126 163 200 238 282
#     4   8  15  29  48  69  92 118 151 193 237 278
#     4   9  18  33  53  75  97 124 162 205 245 288
#
# _framework density 17.521798
#
# number of rings (size 3 to 8) (size 9 to 14) (size 15 to 20)
#    0.000    3.000    0.000    1.800    0.000    4.000 
#    0.000    5.000    0.000    3.600    0.000    0.000 
#    0.000    0.000    0.000    0.000    0.000    0.000 
#
# Total GULP energy -495941.722315 kJ/mol
# GULP energy per Si atom -12398.543058 kJ/mol
# Density = 1.748192 g / cm^3
# Si number density = 17.521798 Si / 1000 Ang^3
#
#
#
# Elastic Constant Matrix: (Units=GPa)
#
#
# Indices 1 2 3 4 5 6 
#
# 1 39.7561 42.2761 57.5113 0.0000 0.0000 0.0000
# 2 42.2761 100.9758 96.7356 0.0000 0.0000 0.0000
# 3 57.5113 96.7356 180.9302 0.0000 0.0000 0.0000
# 4 0.0000 0.0000 0.0000 22.2844 0.0000 0.0000
# 5 0.0000 0.0000 0.0000 0.0000 33.4217 0.0000
# 6 0.0000 0.0000 0.0000 0.0000 0.0000 22.4944
#
#
#
# Elastic Compliance Matrix: (Units=1/GPa)
#
#
# Indices 1 2 3 4 5 6 
#
# 1 0.053255 -0.012463 -0.010264 0.000000 0.000000 0.000000
# 2 -0.012463 0.023219 -0.008453 0.000000 0.000000 0.000000
# 3 -0.010264 -0.008453 0.013309 0.000000 0.000000 0.000000
# 4 0.000000 0.000000 0.000000 0.044875 0.000000 0.000000
# 5 0.000000 0.000000 0.000000 0.000000 0.029921 0.000000
# 6 0.000000 0.000000 0.000000 0.000000 0.000000 0.044455
#
#
# Mechanical properties :
#
#
# Convention : Reuss Voigt Hill
#
# Bulk Modulus (GPa) = 36.46626 79.41203 57.93915
# Shear Modulus (GPa) = 17.82310 23.98271 20.90291
#
# Velocity S-wave (km/s) = 3.19281 3.70366 3.45768
# Velocity P-wave (km/s) = 5.86934 7.98183 7.00567
#
# Compressibility (1/GPa) = 0.02742261
#
# Stress axis : x y z
#
# Youngs Moduli (GPa) = 18.77760 43.06803 75.13760
#
# Poissons Ratio (x) = 0.53677 0.77124
# Poissons Ratio (y) = 0.23403 0.63511
# Poissons Ratio (z) = 0.19274 0.36404
#
# Static dielectric constant tensor:
#      x y z
#    x 2.941290 0.000000 0.000000 
#    y 0.000000 3.325760 0.000000 
#    z 0.000000 0.000000 3.484560 
# 
# 
# High freq. dielectric constant tensor:
#      x y z
#    x 1.650250 0.000000 0.000000 
#    y 0.000000 1.675190 0.000000 
#    z 0.000000 0.000000 1.688930 
# 
# From -- ./inp_files/28814.got.cif
#   From: 2010.03.12/outbox.cif.g09.slc.cpg/sg51_15_cif.got.tgz:28814.got - 2010.04.16 13:43:02.
