data_PCOD8213518
_publ_section_title
;
Structure prediction by ZEFSAII (Michael W. Deem and Ramdas Pophale) SiO2 
 PCOD8213518
Probable space group: P M M A
;
_chemical_formula_sum "Si O2"
_cell_formula_units_Z 44
_cell_length_a 9.175077
_cell_length_b 12.333354
_cell_length_c 24.800534
_cell_angle_alpha 90.000000
_cell_angle_beta 90.000000
_cell_angle_gamma 90.000000
_cell_volume 2806.415348
_symmetry_space_group_name_H-M "P M M A"
_symmetry_group_IT_number 51
_symmetry_cell_setting 'orthorhombic'
loop_
_space_group_symop_operation_xyz
x,y,z
1/2-x,-y,z
1/2+x,-y,-z
-x,y,-z
-x,-y,-z
1/2+x,y,-z
1/2-x,y,z
x,-y,z
loop_
_atom_site_type_symbol
_atom_site_label
_atom_site_fract_x
_atom_site_fract_y
_atom_site_fract_z
Si Si1 0.579635 0.500000 0.443367
Si Si2 0.586779 0.629391 0.051633
Si Si3 0.580037 0.626229 0.726854
Si Si4 0.088269 0.370992 0.152987
Si Si5 0.081442 0.872910 0.445674
Si Si6 0.922313 0.291447 0.373870
O O1 0.750000 0.500000 0.455013
O O2 0.500000 0.500000 0.500000
O O3 0.532469 0.605265 0.409700
O O4 0.750000 0.673948 0.047710
O O5 0.583265 0.500000 0.051998
O O6 0.518033 0.675584 0.106993
O O7 0.500000 0.674343 0.000000
O O8 0.750000 0.648466 0.714873
O O9 0.544200 0.500000 0.719876
O O10 0.538633 0.665784 0.787284
O O11 0.477979 0.693170 0.686832
O O12 0.250000 0.326705 0.140695
O O13 0.091015 0.500000 0.151453
O O14 0.250000 0.837955 0.450345
O O15 0.000000 0.836921 0.500000
O O16 0.003721 0.813869 0.396250
O O17 0.065372 0.000000 0.435225
O O18 0.750000 0.272196 0.373568
#
# Coordination Sequence:
#
# PCOD8213518 Si02
#       6
#     4   8   8   8   8   8
#     4  10  22  34  44  64  90 116 141 172 211 254
#     4   9  15  21  30  45  65  92 128 171 216 254
#     4   9  17  29  44  61  83 114 147 178 216 259
#     4   8  14  24  36  50  70  98 134 173 211 252
#     4  10  21  37  55  73  91 112 142 179 219 264
#     4  11  21  33  48  68  93 118 147 179 216 261
#
# _framework density 15.678362
#
# number of rings (size 3 to 8) (size 9 to 14) (size 15 to 20)
#    0.000    2.545    0.909    3.273    0.000    6.909 
#    0.000    1.818    0.000    0.000    0.000    0.000 
#    0.000    0.000    0.000    0.000    0.000    0.909 
#
# Total GULP energy -545557.053539 kJ/mol
# GULP energy per Si atom -12399.023944 kJ/mol
# Density = 1.564268 g / cm^3
# Si number density = 15.678362 Si / 1000 Ang^3
#
#
#
# Elastic Constant Matrix: (Units=GPa)
#
#
# Indices 1 2 3 4 5 6 
#
# 1 115.7756 28.1834 79.5672 0.0000 0.0000 0.0000
# 2 28.1834 27.3075 27.2385 0.0000 0.0000 0.0000
# 3 79.5672 27.2385 143.7549 0.0000 0.0000 0.0000
# 4 0.0000 0.0000 0.0000 10.1984 0.0000 0.0000
# 5 0.0000 0.0000 0.0000 0.0000 35.3801 0.0000
# 6 0.0000 0.0000 0.0000 0.0000 0.0000 15.9777
#
#
#
# Elastic Compliance Matrix: (Units=1/GPa)
#
#
# Indices 1 2 3 4 5 6 
#
# 1 0.015630 -0.009251 -0.006898 0.000000 0.000000 0.000000
# 2 -0.009251 0.050629 -0.004473 0.000000 0.000000 0.000000
# 3 -0.006898 -0.004473 0.011622 0.000000 0.000000 0.000000
# 4 0.000000 0.000000 0.000000 0.098055 0.000000 0.000000
# 5 0.000000 0.000000 0.000000 0.000000 0.028264 0.000000
# 6 0.000000 0.000000 0.000000 0.000000 0.000000 0.062587
#
#
# Mechanical properties :
#
#
# Convention : Reuss Voigt Hill
#
# Bulk Modulus (GPa) = 27.29467 61.86847 44.58157
# Shear Modulus (GPa) = 15.61309 22.43450 19.02379
#
# Velocity S-wave (km/s) = 3.15911 3.78686 3.48714
# Velocity P-wave (km/s) = 5.54559 7.65944 6.68658
#
# Compressibility (1/GPa) = 0.03663719
#
# Stress axis : x y z
#
# Youngs Moduli (GPa) = 63.97851 19.75157 86.04340
#
# Poissons Ratio (x) = 0.18271 0.59356
# Poissons Ratio (y) = 0.59184 0.38487
# Poissons Ratio (z) = 0.44135 0.08835
#
# Static dielectric constant tensor:
#      x y z
#    x 3.126730 0.000000 0.000000 
#    y 0.000000 2.502550 0.000000 
#    z 0.000000 0.000000 3.169960 
# 
# 
# High freq. dielectric constant tensor:
#      x y z
#    x 1.613970 0.000000 0.000000 
#    y 0.000000 1.532780 0.000000 
#    z 0.000000 0.000000 1.612840 
# 
# From -- ./inp_files/34526.got.cif
#   From: 2010.03.12/outbox.cif.g09.slc.cpg/sg51_18_cif.got.tgz:34526.got - 2010.04.16 13:43:02.
