data_PCOD8213341
_publ_section_title
;
Structure prediction by ZEFSAII (Michael W. Deem and Ramdas Pophale) SiO2 
 PCOD8213341
Probable space group: P M M A
;
_chemical_formula_sum "Si O2"
_cell_formula_units_Z 64
_cell_length_a 9.038833
_cell_length_b 9.742094
_cell_length_c 40.549240
_cell_angle_alpha 90.000000
_cell_angle_beta 90.000000
_cell_angle_gamma 90.000000
_cell_volume 3570.650944
_symmetry_space_group_name_H-M "P M M A"
_symmetry_group_IT_number 51
_symmetry_cell_setting 'orthorhombic'
loop_
_space_group_symop_operation_xyz
x,y,z
1/2-x,-y,z
1/2+x,-y,-z
-x,y,-z
-x,-y,-z
1/2+x,y,-z
1/2-x,y,z
x,-y,z
loop_
_atom_site_type_symbol
_atom_site_label
_atom_site_fract_x
_atom_site_fract_y
_atom_site_fract_z
Si Si1 0.922940 0.658566 0.034021
Si Si2 0.421315 0.157907 0.843812
Si Si3 0.077760 0.840438 0.088540
Si Si4 0.924164 0.657377 0.466763
Si Si5 0.918663 0.838880 0.335353
Si Si6 0.924336 0.348179 0.716537
Si Si7 0.079982 0.659981 0.208656
Si Si8 0.426190 0.152540 0.591485
O O1 0.750000 0.689043 0.030601
O O2 0.954005 0.500000 0.042693
O O3 0.989907 0.751294 0.062406
O O4 0.000000 0.700328 0.000000
O O5 0.250000 0.186136 0.851718
O O6 0.516839 0.198201 0.875593
O O7 0.471877 0.251634 0.813753
O O8 0.448232 0.000000 0.833965
O O9 0.250000 0.802659 0.087183
O O10 0.049866 0.000000 0.080641
O O11 0.750000 0.677355 0.470691
O O12 0.967394 0.500000 0.460295
O O13 0.987968 0.743223 0.435938
O O14 0.000000 0.712485 0.500000
O O15 0.750000 0.790800 0.331702
O O16 0.979040 0.801789 0.372021
O O17 0.013557 0.762504 0.308339
O O18 0.933790 0.000000 0.329191
O O19 0.750000 0.349352 0.713270
O O20 0.986453 0.500000 0.707975
O O21 0.968234 0.309086 0.753820
O O22 0.250000 0.703674 0.202647
O O23 0.059187 0.500000 0.200402
O O24 0.250000 0.150986 0.591490
O O25 0.485757 0.000000 0.583255
#
# Coordination Sequence:
#
# PCOD8213341 Si02
#       8
#     8   8   8   8   8   8   8   8
#     4  10  21  37  57  81 109 141 177 217 261 308
#     4  10  21  36  54  78 107 136 168 210 257 302
#     4  10  21  37  57  80 106 139 178 216 256 305
#     4   9  17  29  45  65  89 117 150 188 230 277
#     4   9  18  32  50  73  99 126 160 202 245 291
#     4   9  19  35  52  72 100 132 166 204 246 293
#     4   9  19  36  55  74  99 133 171 208 247 295
#     4   8  15  29  47  66  90 120 153 190 231 277
#
# _framework density 17.923904
#
# number of rings (size 3 to 8) (size 9 to 14) (size 15 to 20)
#    0.000    2.750    0.000    2.625    0.000    5.500 
#    0.000    5.625    0.000    2.250    0.000    0.000 
#    0.000    0.000    0.000    0.000    0.000    0.000 
#
# Total GULP energy -793591.300961 kJ/mol
# GULP energy per Si atom -12399.864078 kJ/mol
# Density = 1.788311 g / cm^3
# Si number density = 17.923904 Si / 1000 Ang^3
#
#
#
# Elastic Constant Matrix: (Units=GPa)
#
#
# Indices 1 2 3 4 5 6 
#
# 1 57.5857 34.8478 48.7753 0.0000 0.0000 0.0000
# 2 34.8478 71.4287 73.6412 0.0000 0.0000 0.0000
# 3 48.7753 73.6412 137.3958 0.0000 0.0000 0.0000
# 4 0.0000 0.0000 0.0000 35.0285 0.0000 0.0000
# 5 0.0000 0.0000 0.0000 0.0000 34.0215 0.0000
# 6 0.0000 0.0000 0.0000 0.0000 0.0000 29.2088
#
#
#
# Elastic Compliance Matrix: (Units=1/GPa)
#
#
# Indices 1 2 3 4 5 6 
#
# 1 0.026386 -0.007187 -0.005515 0.000000 0.000000 0.000000
# 2 -0.007187 0.033248 -0.015269 0.000000 0.000000 0.000000
# 3 -0.005515 -0.015269 0.017420 0.000000 0.000000 0.000000
# 4 0.000000 0.000000 0.000000 0.028548 0.000000 0.000000
# 5 0.000000 0.000000 0.000000 0.000000 0.029393 0.000000
# 6 0.000000 0.000000 0.000000 0.000000 0.000000 0.034236
#
#
# Mechanical properties :
#
#
# Convention : Reuss Voigt Hill
#
# Bulk Modulus (GPa) = 47.36626 64.54874 55.95750
# Shear Modulus (GPa) = 21.53220 26.92815 24.23017
#
# Velocity S-wave (km/s) = 3.46975 3.88023 3.68072
# Velocity P-wave (km/s) = 6.52196 7.49438 7.02502
#
# Compressibility (1/GPa) = 0.02111207
#
# Stress axis : x y z
#
# Youngs Moduli (GPa) = 37.89926 30.07676 57.40624
#
# Poissons Ratio (x) = 0.21617 0.31658
# Poissons Ratio (y) = 0.27239 0.87653
# Poissons Ratio (z) = 0.20900 0.45924
#
# Static dielectric constant tensor:
#      x y z
#    x 3.192870 0.000000 0.000000 
#    y 0.000000 3.406550 0.000000 
#    z 0.000000 0.000000 3.464300 
# 
# 
# High freq. dielectric constant tensor:
#      x y z
#    x 1.682700 0.000000 0.000000 
#    y 0.000000 1.692430 0.000000 
#    z 0.000000 0.000000 1.702460 
# 
# From -- ./inp_files/37432.got.cif
#   From: 2010.03.12/outbox.cif.g09.slc.cpg/sg51_19_cif.got.tgz:37432.got - 2010.04.16 13:43:02.
