data_PCOD8213729
_publ_section_title
;
Structure prediction by ZEFSAII (Michael W. Deem and Ramdas Pophale) SiO2 
 PCOD8213729
Probable space group: P M M A
;
_chemical_formula_sum "Si O2"
_cell_formula_units_Z 64
_cell_length_a 8.851876
_cell_length_b 23.654296
_cell_length_c 15.562168
_cell_angle_alpha 90.000000
_cell_angle_beta 90.000000
_cell_angle_gamma 90.000000
_cell_volume 3258.482914
_symmetry_space_group_name_H-M "P M M A"
_symmetry_group_IT_number 51
_symmetry_cell_setting 'orthorhombic'
loop_
_space_group_symop_operation_xyz
x,y,z
1/2-x,-y,z
1/2+x,-y,-z
-x,y,-z
-x,-y,-z
1/2+x,y,-z
1/2-x,y,z
x,-y,z
loop_
_atom_site_type_symbol
_atom_site_label
_atom_site_fract_x
_atom_site_fract_y
_atom_site_fract_z
Si Si1 0.428006 0.435823 0.588028
Si Si2 0.571227 0.362805 0.249132
Si Si3 0.571750 0.177006 0.586723
Si Si4 0.925779 0.063929 0.853078
Si Si5 0.428425 0.758622 0.242749
Si Si6 0.070669 0.061060 0.343044
Si Si7 0.927662 0.563999 0.086657
Si Si8 0.571610 0.173179 0.087021
O O1 0.500000 0.412578 0.500000
O O2 0.250000 0.433841 0.577832
O O3 0.482609 0.500000 0.606456
O O4 0.480912 0.396238 0.665921
O O5 0.750000 0.350849 0.249451
O O6 0.478611 0.305697 0.243272
O O7 0.520588 0.399443 0.167541
O O8 0.500000 0.202062 0.500000
O O9 0.750000 0.177583 0.576772
O O10 0.520263 0.214956 0.666592
O O11 0.508611 0.112930 0.600306
O O12 0.750000 0.080548 0.862171
O O13 0.980412 0.069660 0.754922
O O14 0.025807 0.107185 0.907773
O O15 0.953804 0.000000 0.886155
O O16 0.250000 0.763965 0.229390
O O17 0.509528 0.792131 0.167240
O O18 0.250000 0.060912 0.344655
O O19 0.009644 0.000000 0.377295
O O20 0.750000 0.565858 0.075697
O O21 0.984840 0.500000 0.101744
O O22 0.000000 0.589508 0.000000
O O23 0.750000 0.179560 0.083007
O O24 0.500000 0.198807 0.000000
#
# Coordination Sequence:
#
# PCOD8213729 Si02
#       8
#     8   8   8   8   8   8   8   8
#     4   9  18  34  57  85 118 154 192 237 288 344
#     4  10  21  37  58  83 113 151 193 234 284 342
#     4  10  21  37  58  82 111 147 189 234 285 343
#     4   9  17  34  61  88 117 152 188 231 287 348
#     4  11  24  43  61  81 113 152 198 246 292 341
#     4   8  14  29  55  82 110 145 181 222 279 340
#     4   9  18  34  57  85 117 150 183 222 271 329
#     4  12  25  41  63  87 115 150 192 242 293 349
#
# _framework density 19.641041000000001
#
# number of rings (size 3 to 8) (size 9 to 14) (size 15 to 20)
#    0.000    2.250    1.250    2.625    0.000    5.250 
#    0.000    3.750    0.000    3.750    0.000    0.000 
#    0.000    0.000    0.000    0.000    0.000    0.000 
#
# Total GULP energy -793572.272381 kJ/mol
# GULP energy per Si atom -12399.566756 kJ/mol
# Density = 1.959634 g / cm^3
# Si number density = 19.641041 Si / 1000 Ang^3
#
#
#
# Elastic Constant Matrix: (Units=GPa)
#
#
# Indices 1 2 3 4 5 6 
#
# 1 64.2247 42.6326 55.5087 0.0000 0.0000 0.0000
# 2 42.6326 116.1817 75.2059 0.0000 0.0000 0.0000
# 3 55.5087 75.2059 166.5916 0.0000 0.0000 0.0000
# 4 0.0000 0.0000 0.0000 6.7493 0.0000 0.0000
# 5 0.0000 0.0000 0.0000 0.0000 32.4439 0.0000
# 6 0.0000 0.0000 0.0000 0.0000 0.0000 27.9189
#
#
#
# Elastic Compliance Matrix: (Units=1/GPa)
#
#
# Indices 1 2 3 4 5 6 
#
# 1 0.023825 -0.005092 -0.005640 0.000000 0.000000 0.000000
# 2 -0.005092 0.013249 -0.004285 0.000000 0.000000 0.000000
# 3 -0.005640 -0.004285 0.009816 0.000000 0.000000 0.000000
# 4 0.000000 0.000000 0.000000 0.148163 0.000000 0.000000
# 5 0.000000 0.000000 0.000000 0.000000 0.030822 0.000000
# 6 0.000000 0.000000 0.000000 0.000000 0.000000 0.035818
#
#
# Mechanical properties :
#
#
# Convention : Reuss Voigt Hill
#
# Bulk Modulus (GPa) = 59.32024 77.07694 68.19859
# Shear Modulus (GPa) = 16.81552 24.99916 20.90734
#
# Velocity S-wave (km/s) = 2.92916 3.57151 3.26616
# Velocity P-wave (km/s) = 6.45815 7.50570 7.00155
#
# Compressibility (1/GPa) = 0.01685765
#
# Stress axis : x y z
#
# Youngs Moduli (GPa) = 41.97338 75.47721 101.87310
#
# Poissons Ratio (x) = 0.38430 0.57455
# Poissons Ratio (y) = 0.21371 0.43648
# Poissons Ratio (z) = 0.23672 0.32339
#
# Static dielectric constant tensor:
#      x y z
#    x 3.332920 0.000000 0.000000 
#    y 0.000000 3.781400 0.000000 
#    z 0.000000 0.000000 3.714490 
# 
# 
# High freq. dielectric constant tensor:
#      x y z
#    x 1.742720 0.000000 0.000000 
#    y 0.000000 1.766190 0.000000 
#    z 0.000000 0.000000 1.773710 
# 
# From -- ./inp_files/22363.got.cif
#   From: 2010.03.12/outbox.cif.g09.slc.cpg/sg51_12_cif.got.tgz:22363.got - 2010.04.16 13:43:02.
