data_PCOD8213424
_publ_section_title
;
Structure prediction by ZEFSAII (Michael W. Deem and Ramdas Pophale) SiO2 
 PCOD8213424
Probable space group: P M M A
;
_chemical_formula_sum "Si O2"
_cell_formula_units_Z 56
_cell_length_a 8.883098
_cell_length_b 22.919931
_cell_length_c 14.253357
_cell_angle_alpha 90.000000
_cell_angle_beta 90.000000
_cell_angle_gamma 90.000000
_cell_volume 2901.983389
_symmetry_space_group_name_H-M "P M M A"
_symmetry_group_IT_number 51
_symmetry_cell_setting 'orthorhombic'
loop_
_space_group_symop_operation_xyz
x,y,z
1/2-x,-y,z
1/2+x,-y,-z
-x,y,-z
-x,-y,-z
1/2+x,y,-z
1/2-x,y,z
x,-y,z
loop_
_atom_site_type_symbol
_atom_site_label
_atom_site_fract_x
_atom_site_fract_y
_atom_site_fract_z
Si Si1 0.075521 0.334795 0.707222
Si Si2 0.074515 0.066002 0.093384
Si Si3 0.428954 0.783440 0.602705
Si Si4 0.929693 0.000000 0.398077
Si Si5 0.575703 0.373714 0.098092
Si Si6 0.573884 0.500000 0.099027
Si Si7 0.073497 0.434385 0.402720
Si Si8 0.428354 0.891301 0.294410
O O1 0.250000 0.349482 0.690332
O O2 0.028050 0.277496 0.650827
O O3 0.042496 0.326917 0.819087
O O4 0.978055 0.389475 0.675361
O O5 0.250000 0.064959 0.075257
O O6 0.034917 0.105271 0.183589
O O7 0.014647 0.000000 0.110788
O O8 0.000000 0.093315 0.000000
O O9 0.500000 0.785775 0.500000
O O10 0.250000 0.793443 0.596761
O O11 0.505819 0.831421 0.667549
O O12 0.000000 0.000000 0.500000
O O13 0.986636 0.943195 0.345397
O O14 0.750000 0.000000 0.404112
O O15 0.750000 0.375797 0.073229
O O16 0.523452 0.437312 0.142218
O O17 0.500000 0.355652 0.000000
O O18 0.750000 0.500000 0.089019
O O19 0.500000 0.500000 0.000000
O O20 0.250000 0.430695 0.416054
O O21 0.022878 0.500000 0.373925
O O22 0.000000 0.415219 0.500000
O O23 0.250000 0.896107 0.313655
#
# Coordination Sequence:
#
# PCOD8213424 Si02
#       8
#     8   8   8   4   8   4   8   8
#     4  10  22  38  59  83 112 150 194 240 289 347
#     4   9  18  34  57  87 122 157 194 236 282 336
#     4  11  24  42  61  85 114 152 199 245 292 350
#     4  12  24  38  59  88 121 156 191 240 298 350
#     4   9  18  33  53  80 110 147 186 232 285 342
#     4   8  14  26  46  72 103 136 175 218 273 334
#     4  10  21  36  55  82 113 144 183 234 291 351
#     4  11  22  40  62  88 121 157 197 243 290 344
#
# _framework density 19.297146000000001
#
# number of rings (size 3 to 8) (size 9 to 14) (size 15 to 20)
#    0.000    2.000    0.714    2.786    1.000    4.857 
#    0.000    0.714    0.000    3.429    0.000    0.000 
#    0.000    0.000    0.000    0.000    0.000    0.000 
#
# Total GULP energy -694058.487899 kJ/mol
# GULP energy per Si atom -12393.901570 kJ/mol
# Density = 1.925322 g / cm^3
# Si number density = 19.297146 Si / 1000 Ang^3
#
#
#
# Elastic Constant Matrix: (Units=GPa)
#
#
# Indices 1 2 3 4 5 6 
#
# 1 77.2661 45.9815 57.6851 0.0000 0.0000 0.0000
# 2 45.9815 91.6035 69.1149 0.0000 0.0000 0.0000
# 3 57.6851 69.1149 155.4355 0.0000 0.0000 0.0000
# 4 0.0000 0.0000 0.0000 32.3512 0.0000 0.0000
# 5 0.0000 0.0000 0.0000 0.0000 33.5782 0.0000
# 6 0.0000 0.0000 0.0000 0.0000 0.0000 30.6954
#
#
#
# Elastic Compliance Matrix: (Units=1/GPa)
#
#
# Indices 1 2 3 4 5 6 
#
# 1 0.020380 -0.006807 -0.004537 0.000000 0.000000 0.000000
# 2 -0.006807 0.018702 -0.005790 0.000000 0.000000 0.000000
# 3 -0.004537 -0.005790 0.010691 0.000000 0.000000 0.000000
# 4 0.000000 0.000000 0.000000 0.030911 0.000000 0.000000
# 5 0.000000 0.000000 0.000000 0.000000 0.029781 0.000000
# 6 0.000000 0.000000 0.000000 0.000000 0.000000 0.032578
#
#
# Mechanical properties :
#
#
# Convention : Reuss Voigt Hill
#
# Bulk Modulus (GPa) = 64.48798 74.42978 69.45888
# Shear Modulus (GPa) = 27.40038 29.42655 28.41347
#
# Velocity S-wave (km/s) = 3.77227 3.90926 3.84137
# Velocity P-wave (km/s) = 7.24322 7.68313 7.46642
#
# Compressibility (1/GPa) = 0.01550677
#
# Stress axis : x y z
#
# Youngs Moduli (GPa) = 49.06717 53.47097 93.53225
#
# Poissons Ratio (x) = 0.36399 0.42432
# Poissons Ratio (y) = 0.33401 0.54151
# Poissons Ratio (z) = 0.22260 0.30957
#
# Static dielectric constant tensor:
#      x y z
#    x 3.544780 0.000000 0.000000 
#    y 0.000000 3.505320 0.000000 
#    z 0.000000 0.000000 3.630220 
# 
# 
# High freq. dielectric constant tensor:
#      x y z
#    x 1.753390 0.000000 0.000000 
#    y 0.000000 1.737750 0.000000 
#    z 0.000000 0.000000 1.760760 
# 
# From -- ./inp_files/21928.got.cif
#   From: 2010.03.12/outbox.cif.g09.slc.cpg/sg51_11_cif.got.tgz:21928.got - 2010.04.16 13:43:02.
