data_PCOD8213688
_publ_section_title
;
Structure prediction by ZEFSAII (Michael W. Deem and Ramdas Pophale) SiO2 
 PCOD8213688
Probable space group: P M M A
;
_chemical_formula_sum "Si O2"
_cell_formula_units_Z 56
_cell_length_a 8.881679
_cell_length_b 14.169032
_cell_length_c 23.520129
_cell_angle_alpha 90.000000
_cell_angle_beta 90.000000
_cell_angle_gamma 90.000000
_cell_volume 2959.885788
_symmetry_space_group_name_H-M "P M M A"
_symmetry_group_IT_number 51
_symmetry_cell_setting 'orthorhombic'
loop_
_space_group_symop_operation_xyz
x,y,z
1/2-x,-y,z
1/2+x,-y,-z
-x,y,-z
-x,-y,-z
1/2+x,y,-z
1/2-x,y,z
x,-y,z
loop_
_atom_site_type_symbol
_atom_site_label
_atom_site_fract_x
_atom_site_fract_y
_atom_site_fract_z
Si Si1 0.073255 0.607612 0.939310
Si Si2 0.929117 0.271969 0.841368
Si Si3 0.426622 0.109503 0.780898
Si Si4 0.427593 0.606173 0.264600
Si Si5 0.579022 0.111549 0.663623
Si Si6 0.925256 0.788219 0.441160
Si Si7 0.075764 0.394661 0.621054
O O1 0.250000 0.627683 0.943006
O O2 0.041089 0.500000 0.919298
O O3 0.996700 0.681309 0.897236
O O4 0.000000 0.625994 0.000000
O O5 0.750000 0.268036 0.846749
O O6 0.986557 0.332579 0.787718
O O7 0.995954 0.167131 0.832425
O O8 0.250000 0.129770 0.779243
O O9 0.497243 0.144089 0.721313
O O10 0.462053 0.000000 0.792134
O O11 0.250000 0.608783 0.267596
O O12 0.488232 0.500000 0.255857
O O13 0.490280 0.646363 0.323896
O O14 0.750000 0.149505 0.665798
O O15 0.494603 0.151940 0.609424
O O16 0.574409 0.000000 0.658059
O O17 0.750000 0.811690 0.444591
O O18 0.955481 0.676629 0.430786
O O19 0.000000 0.818864 0.500000
O O20 0.250000 0.397006 0.636999
O O21 0.018175 0.500000 0.604359
#
# Coordination Sequence:
#
# PCOD8213688 Si02
#       7
#     8   8   8   8   8   8   8
#     4  10  21  37  57  82 115 155 196 235 274 319
#     4  11  21  33  54  82 113 148 186 229 273 321
#     4  10  21  37  57  82 112 144 179 222 272 326
#     4   9  18  31  48  74 106 137 169 208 258 314
#     4  10  21  38  59  81 106 136 170 212 266 326
#     4  11  23  37  54  75 100 132 171 216 263 315
#     4   9  19  35  52  71  98 132 169 210 257 309
#
# _framework density 18.919649
#
# number of rings (size 3 to 8) (size 9 to 14) (size 15 to 20)
#    0.000    2.000    0.000    3.429    0.000    8.286 
#    0.000    1.429    0.000    0.429    0.000    0.000 
#    0.000    0.000    0.000    0.000    0.000    0.000 
#
# Total GULP energy -694540.243428 kJ/mol
# GULP energy per Si atom -12402.504347 kJ/mol
# Density = 1.887659 g / cm^3
# Si number density = 18.919649 Si / 1000 Ang^3
#
#
#
# Elastic Constant Matrix: (Units=GPa)
#
#
# Indices 1 2 3 4 5 6 
#
# 1 107.2358 48.4153 60.1047 0.0000 0.0000 0.0000
# 2 48.4153 67.3627 58.9647 0.0000 0.0000 0.0000
# 3 60.1047 58.9647 113.0150 0.0000 0.0000 0.0000
# 4 0.0000 0.0000 0.0000 28.5766 0.0000 0.0000
# 5 0.0000 0.0000 0.0000 0.0000 36.9810 0.0000
# 6 0.0000 0.0000 0.0000 0.0000 0.0000 28.6840
#
#
#
# Elastic Compliance Matrix: (Units=1/GPa)
#
#
# Indices 1 2 3 4 5 6 
#
# 1 0.014854 -0.006923 -0.004288 0.000000 0.000000 0.000000
# 2 -0.006923 0.030550 -0.012258 0.000000 0.000000 0.000000
# 3 -0.004288 -0.012258 0.017524 0.000000 0.000000 0.000000
# 4 0.000000 0.000000 0.000000 0.034994 0.000000 0.000000
# 5 0.000000 0.000000 0.000000 0.000000 0.027041 0.000000
# 6 0.000000 0.000000 0.000000 0.000000 0.000000 0.034863
#
#
# Mechanical properties :
#
#
# Convention : Reuss Voigt Hill
#
# Bulk Modulus (GPa) = 62.53193 69.17588 65.85390
# Shear Modulus (GPa) = 23.57466 26.85691 25.21579
#
# Velocity S-wave (km/s) = 3.53376 3.77175 3.65469
# Velocity P-wave (km/s) = 7.05500 7.45724 7.25891
#
# Compressibility (1/GPa) = 0.01599183
#
# Stress axis : x y z
#
# Youngs Moduli (GPa) = 67.32158 32.73341 57.06410
#
# Poissons Ratio (x) = 0.22660 0.24469
# Poissons Ratio (y) = 0.46604 0.69946
# Poissons Ratio (z) = 0.28868 0.40123
#
# Static dielectric constant tensor:
#      x y z
#    x 3.358190 0.000000 0.000000 
#    y 0.000000 3.648700 0.000000 
#    z 0.000000 0.000000 3.309620 
# 
# 
# High freq. dielectric constant tensor:
#      x y z
#    x 1.745400 0.000000 0.000000 
#    y 0.000000 1.740140 0.000000 
#    z 0.000000 0.000000 1.719690 
# 
# From -- ./inp_files/31883.got.cif
#   From: 2010.03.12/outbox.cif.g09.slc.cpg/sg51_16_cif.got.tgz:31883.got - 2010.04.16 13:43:02.
