data_PCOD8213224
_publ_section_title
;
Structure prediction by ZEFSAII (Michael W. Deem and Ramdas Pophale) SiO2 
 PCOD8213224
Probable space group: P M M A
;
_chemical_formula_sum "Si O2"
_cell_formula_units_Z 44
_cell_length_a 9.456830
_cell_length_b 7.945460
_cell_length_c 30.220863
_cell_angle_alpha 90.000000
_cell_angle_beta 90.000000
_cell_angle_gamma 90.000000
_cell_volume 2270.761330
_symmetry_space_group_name_H-M "P M M A"
_symmetry_group_IT_number 51
_symmetry_cell_setting 'orthorhombic'
loop_
_space_group_symop_operation_xyz
x,y,z
1/2-x,-y,z
1/2+x,-y,-z
-x,y,-z
-x,-y,-z
1/2+x,y,-z
1/2-x,y,z
x,-y,z
loop_
_atom_site_type_symbol
_atom_site_label
_atom_site_fract_x
_atom_site_fract_y
_atom_site_fract_z
Si Si1 0.414771 0.694601 0.391681
Si Si2 0.594481 0.306754 0.309672
Si Si3 0.590251 0.200556 0.121132
Si Si4 0.917984 0.814230 0.217358
Si Si5 0.907343 0.303737 0.960388
Si Si6 0.584635 0.000000 0.544963
O O1 0.250000 0.705155 0.381225
O O2 0.455744 0.500000 0.404595
O O3 0.492073 0.763585 0.347575
O O4 0.457280 0.827192 0.429715
O O5 0.750000 0.218555 0.312503
O O6 0.614176 0.500000 0.319536
O O7 0.527435 0.286006 0.260487
O O8 0.750000 0.263798 0.110602
O O9 0.538542 0.265701 0.169803
O O10 0.482176 0.274827 0.086171
O O11 0.587195 0.000000 0.120626
O O12 0.750000 0.820829 0.217237
O O13 0.982870 0.000000 0.221510
O O14 0.750000 0.222082 0.960124
O O15 0.892536 0.500000 0.969277
O O16 0.000000 0.220986 0.000000
O O17 0.500000 0.000000 0.500000
O O18 0.750000 0.000000 0.534322
#
# Coordination Sequence:
#
# PCOD8213224 Si02
#       6
#     8   8   8   8   8   4
#     4   9  19  36  54  74 106 142 172 212 264 313
#     4   9  17  29  48  76 104 132 172 214 249 293
#     4   9  18  33  52  74 101 132 166 203 248 302
#     4   8  15  28  46  70 100 132 164 202 247 293
#     4  10  21  36  53  73  96 124 162 207 254 305
#     4  10  22  38  56  80 106 136 178 218 261 318
#
# _framework density 19.376760000000001
#
# number of rings (size 3 to 8) (size 9 to 14) (size 15 to 20)
#    0.000    2.909    0.000    1.636    1.273    3.636 
#    0.000    2.727    0.000    3.273    0.000    0.000 
#    0.000    0.000    0.000    0.000    0.000    0.000 
#
# Total GULP energy -545149.547888 kJ/mol
# GULP energy per Si atom -12389.762452 kJ/mol
# Density = 1.933266 g / cm^3
# Si number density = 19.376760 Si / 1000 Ang^3
#
#
#
# Elastic Constant Matrix: (Units=GPa)
#
#
# Indices 1 2 3 4 5 6 
#
# 1 89.9212 25.2570 79.6489 0.0000 0.0000 0.0000
# 2 25.2570 50.8156 41.6824 0.0000 0.0000 0.0000
# 3 79.6489 41.6824 188.4229 0.0000 0.0000 0.0000
# 4 0.0000 0.0000 0.0000 29.9539 0.0000 0.0000
# 5 0.0000 0.0000 0.0000 0.0000 32.4716 0.0000
# 6 0.0000 0.0000 0.0000 0.0000 0.0000 16.5059
#
#
#
# Elastic Compliance Matrix: (Units=1/GPa)
#
#
# Indices 1 2 3 4 5 6 
#
# 1 0.018231 -0.003348 -0.006966 0.000000 0.000000 0.000000
# 2 -0.003348 0.024656 -0.004039 0.000000 0.000000 0.000000
# 3 -0.006966 -0.004039 0.009145 0.000000 0.000000 0.000000
# 4 0.000000 0.000000 0.000000 0.033385 0.000000 0.000000
# 5 0.000000 0.000000 0.000000 0.000000 0.030796 0.000000
# 6 0.000000 0.000000 0.000000 0.000000 0.000000 0.060584
#
#
# Mechanical properties :
#
#
# Convention : Reuss Voigt Hill
#
# Bulk Modulus (GPa) = 42.86865 69.14846 56.00856
# Shear Modulus (GPa) = 23.44337 27.95770 25.70053
#
# Velocity S-wave (km/s) = 3.48209 3.80260 3.64587
# Velocity P-wave (km/s) = 6.19180 7.41913 6.83308
#
# Compressibility (1/GPa) = 0.02332707
#
# Stress axis : x y z
#
# Youngs Moduli (GPa) = 54.85018 40.55786 109.34378
#
# Poissons Ratio (x) = 0.13577 0.76171
# Poissons Ratio (y) = 0.18361 0.44167
# Poissons Ratio (z) = 0.38210 0.16383
#
# Static dielectric constant tensor:
#      x y z
#    x 3.734860 0.000000 0.000000 
#    y 0.000000 3.475460 0.000000 
#    z 0.000000 0.000000 3.787760 
# 
# 
# High freq. dielectric constant tensor:
#      x y z
#    x 1.726780 0.000000 0.000000 
#    y 0.000000 1.740020 0.000000 
#    z 0.000000 0.000000 1.763020 
# 
# From -- ./inp_files/36761.got.cif
#   From: 2010.03.12/outbox.cif.g09.slc.cpg/sg51_19_cif.got.tgz:36761.got - 2010.04.16 13:43:02.
