data_PCOD8213004
_publ_section_title
;
Structure prediction by ZEFSAII (Michael W. Deem and Ramdas Pophale) SiO2 
 PCOD8213004
Probable space group: P M M A
;
_chemical_formula_sum "Si O2"
_cell_formula_units_Z 64
_cell_length_a 9.194751
_cell_length_b 14.751262
_cell_length_c 24.251046
_cell_angle_alpha 90.000000
_cell_angle_beta 90.000000
_cell_angle_gamma 90.000000
_cell_volume 3289.270763
_symmetry_space_group_name_H-M "P M M A"
_symmetry_group_IT_number 51
_symmetry_cell_setting 'orthorhombic'
loop_
_space_group_symop_operation_xyz
x,y,z
1/2-x,-y,z
1/2+x,-y,-z
-x,y,-z
-x,-y,-z
1/2+x,y,-z
1/2-x,y,z
x,-y,z
loop_
_atom_site_type_symbol
_atom_site_label
_atom_site_fract_x
_atom_site_fract_y
_atom_site_fract_z
Si Si1 0.585510 0.393435 0.837325
Si Si2 0.411014 0.361478 0.949257
Si Si3 0.092885 0.155469 0.952074
Si Si4 0.577364 0.394814 0.274485
Si Si5 0.412712 0.106632 0.149121
Si Si6 0.910272 0.101916 0.251030
Si Si7 0.412427 0.236979 0.649435
Si Si8 0.576775 0.103279 0.442511
O O1 0.750000 0.352204 0.838257
O O2 0.596090 0.500000 0.836275
O O3 0.498112 0.365086 0.891850
O O4 0.501249 0.362109 0.781787
O O5 0.250000 0.407097 0.942420
O O6 0.384233 0.259153 0.968017
O O7 0.500000 0.408921 0.000000
O O8 0.250000 0.106647 0.947742
O O9 0.011315 0.155210 0.894802
O O10 0.000000 0.105741 0.000000
O O11 0.750000 0.379683 0.265913
O O12 0.542343 0.500000 0.288571
O O13 0.519249 0.330946 0.325650
O O14 0.250000 0.142201 0.142199
O O15 0.470231 0.137644 0.208332
O O16 0.425569 0.000000 0.141285
O O17 0.750000 0.105650 0.223304
O O18 0.915031 0.163293 0.303464
O O19 0.947369 0.000000 0.269852
O O20 0.250000 0.261835 0.631052
O O21 0.486422 0.183238 0.598059
O O22 0.500000 0.122725 0.500000
O O23 0.750000 0.112323 0.448483
O O24 0.539123 0.000000 0.422250
#
# Coordination Sequence:
#
# PCOD8213004 Si02
#       8
#     8   8   8   8   8   8   8   8
#     4  10  21  36  53  74 101 132 165 205 258 319
#     4  10  21  36  54  75  98 125 161 207 259 317
#     4  10  21  36  53  71  91 119 158 203 249 301
#     4   9  18  33  52  75 103 135 175 223 266 306
#     4  10  21  35  49  68  96 127 158 198 249 303
#     4   9  17  30  48  71  99 129 164 207 251 301
#     4   9  17  30  52  78 102 136 179 215 255 308
#     4   9  17  31  52  79 112 147 181 219 260 304
#
# _framework density 19.457201000000001
#
# number of rings (size 3 to 8) (size 9 to 14) (size 15 to 20)
#    0.000    2.500    0.000    1.875    1.750    5.000 
#    0.000    1.250    0.000    3.375    0.000    0.000 
#    0.000    0.000    0.000    0.000    0.000    0.000 
#
# Total GULP energy -792840.932398 kJ/mol
# GULP energy per Si atom -12388.139569 kJ/mol
# Density = 1.941292 g / cm^3
# Si number density = 19.457201 Si / 1000 Ang^3
#
#
#
# Elastic Constant Matrix: (Units=GPa)
#
#
# Indices 1 2 3 4 5 6 
#
# 1 110.5218 22.8706 46.9479 0.0000 0.0000 0.0000
# 2 22.8706 67.3512 53.9259 0.0000 0.0000 0.0000
# 3 46.9479 53.9259 112.2756 0.0000 0.0000 0.0000
# 4 0.0000 0.0000 0.0000 31.0417 0.0000 0.0000
# 5 0.0000 0.0000 0.0000 0.0000 29.9599 0.0000
# 6 0.0000 0.0000 0.0000 0.0000 0.0000 15.5496
#
#
#
# Elastic Compliance Matrix: (Units=1/GPa)
#
#
# Indices 1 2 3 4 5 6 
#
# 1 0.011003 -0.000085 -0.004560 0.000000 0.000000 0.000000
# 2 -0.000085 0.024126 -0.011552 0.000000 0.000000 0.000000
# 3 -0.004560 -0.011552 0.016362 0.000000 0.000000 0.000000
# 4 0.000000 0.000000 0.000000 0.032215 0.000000 0.000000
# 5 0.000000 0.000000 0.000000 0.000000 0.033378 0.000000
# 6 0.000000 0.000000 0.000000 0.000000 0.000000 0.064311
#
#
# Mechanical properties :
#
#
# Convention : Reuss Voigt Hill
#
# Bulk Modulus (GPa) = 52.36687 59.73750 56.05219
# Shear Modulus (GPa) = 22.71155 26.40385 24.55770
#
# Velocity S-wave (km/s) = 3.42022 3.68777 3.55651
# Velocity P-wave (km/s) = 6.52453 6.99296 6.76281
#
# Compressibility (1/GPa) = 0.01909604
#
# Stress axis : x y z
#
# Youngs Moduli (GPa) = 90.88817 41.44948 61.11858
#
# Poissons Ratio (x) = 0.00354 0.27868
# Poissons Ratio (y) = 0.00776 0.70603
# Poissons Ratio (z) = 0.41442 0.47882
#
# Static dielectric constant tensor:
#      x y z
#    x 3.923290 0.000000 0.000000 
#    y 0.000000 3.650990 0.000000 
#    z 0.000000 0.000000 3.531690 
# 
# 
# High freq. dielectric constant tensor:
#      x y z
#    x 1.749200 0.000000 0.000000 
#    y 0.000000 1.754740 0.000000 
#    z 0.000000 0.000000 1.738920 
# 
# From -- ./inp_files/34913.got.cif
#   From: 2010.03.12/outbox.cif.g09.slc.cpg/sg51_18_cif.got.tgz:34913.got - 2010.04.16 13:43:02.
