data_PCOD8213033
_publ_section_title
;
Structure prediction by ZEFSAII (Michael W. Deem and Ramdas Pophale) SiO2 
 PCOD8213033
Probable space group: P M M A
;
_chemical_formula_sum "Si O2"
_cell_formula_units_Z 48
_cell_length_a 9.130286
_cell_length_b 14.238654
_cell_length_c 20.554594
_cell_angle_alpha 90.000000
_cell_angle_beta 90.000000
_cell_angle_gamma 90.000000
_cell_volume 2672.158540
_symmetry_space_group_name_H-M "P M M A"
_symmetry_group_IT_number 51
_symmetry_cell_setting 'orthorhombic'
loop_
_space_group_symop_operation_xyz
x,y,z
1/2-x,-y,z
1/2+x,-y,-z
-x,y,-z
-x,-y,-z
1/2+x,y,-z
1/2-x,y,z
x,-y,z
loop_
_atom_site_type_symbol
_atom_site_label
_atom_site_fract_x
_atom_site_fract_y
_atom_site_fract_z
Si Si1 0.079904 0.704396 0.815798
Si Si2 0.079232 0.608765 0.066296
Si Si3 0.418681 0.610582 0.302804
Si Si4 0.083174 0.895987 0.757034
Si Si5 0.078757 0.292359 0.435954
Si Si6 0.422469 0.103451 0.374962
O O1 0.250000 0.677994 0.825552
O O2 0.056695 0.817099 0.811873
O O3 0.986547 0.670173 0.876377
O O4 0.023714 0.656793 0.750020
O O5 0.250000 0.630909 0.058979
O O6 0.051303 0.500000 0.082943
O O7 0.000000 0.637884 0.000000
O O8 0.250000 0.639021 0.288708
O O9 0.439801 0.500000 0.299614
O O10 0.467452 0.645764 0.373959
O O11 0.250000 0.892059 0.732529
O O12 0.984231 0.871983 0.695529
O O13 0.045978 0.000000 0.785373
O O14 0.250000 0.299970 0.448466
O O15 0.027799 0.184001 0.425068
O O16 0.000000 0.332069 0.500000
O O17 0.250000 0.105891 0.366751
O O18 0.476273 0.000000 0.398798
#
# Coordination Sequence:
#
# PCOD8213033 Si02
#       6
#     8   8   8   8   8   8
#     4  11  21  33  55  84 111 139 174 216 260 307
#     4  10  21  37  57  82 114 149 181 215 257 305
#     4  10  21  37  54  73 100 135 175 219 266 314
#     4   9  18  32  51  77 107 137 170 211 259 308
#     4  10  21  35  50  70  98 132 171 215 265 320
#     4   9  17  31  51  73  97 127 166 213 263 316
#
# _framework density 17.963006
#
# number of rings (size 3 to 8) (size 9 to 14) (size 15 to 20)
#    0.000    2.167    1.667    1.500    0.000    6.000 
#    0.000    0.000    0.000    0.500    0.000    0.000 
#    0.000    0.000    0.000    0.000    0.000    0.000 
#
# Total GULP energy -595157.829081 kJ/mol
# GULP energy per Si atom -12399.121439 kJ/mol
# Density = 1.792212 g / cm^3
# Si number density = 17.963006 Si / 1000 Ang^3
#
#
#
# Elastic Constant Matrix: (Units=GPa)
#
#
# Indices 1 2 3 4 5 6 
#
# 1 56.9901 33.5804 43.9828 0.0000 0.0000 0.0000
# 2 33.5804 78.0845 48.7842 0.0000 0.0000 0.0000
# 3 43.9828 48.7842 109.8418 0.0000 0.0000 0.0000
# 4 0.0000 0.0000 0.0000 22.2614 0.0000 0.0000
# 5 0.0000 0.0000 0.0000 0.0000 35.1887 0.0000
# 6 0.0000 0.0000 0.0000 0.0000 0.0000 22.0153
#
#
#
# Elastic Compliance Matrix: (Units=1/GPa)
#
#
# Indices 1 2 3 4 5 6 
#
# 1 0.027870 -0.006939 -0.008078 0.000000 0.000000 0.000000
# 2 -0.006939 0.019452 -0.005861 0.000000 0.000000 0.000000
# 3 -0.008078 -0.005861 0.014942 0.000000 0.000000 0.000000
# 4 0.000000 0.000000 0.000000 0.044921 0.000000 0.000000
# 5 0.000000 0.000000 0.000000 0.000000 0.028418 0.000000
# 6 0.000000 0.000000 0.000000 0.000000 0.000000 0.045423
#
#
# Mechanical properties :
#
#
# Convention : Reuss Voigt Hill
#
# Bulk Modulus (GPa) = 48.76033 55.29014 52.02524
# Shear Modulus (GPa) = 21.77542 23.79768 22.78655
#
# Velocity S-wave (km/s) = 3.48550 3.64375 3.56550
# Velocity P-wave (km/s) = 6.58802 6.96774 6.78054
#
# Compressibility (1/GPa) = 0.02050848
#
# Stress axis : x y z
#
# Youngs Moduli (GPa) = 35.88147 51.40761 66.92722
#
# Poissons Ratio (x) = 0.35670 0.54063
# Poissons Ratio (y) = 0.24897 0.39226
# Poissons Ratio (z) = 0.28984 0.30130
#
# Static dielectric constant tensor:
#      x y z
#    x 3.347530 0.000000 0.000000 
#    y 0.000000 3.662360 0.000000 
#    z 0.000000 0.000000 3.175870 
# 
# 
# High freq. dielectric constant tensor:
#      x y z
#    x 1.698580 0.000000 0.000000 
#    y 0.000000 1.703680 0.000000 
#    z 0.000000 0.000000 1.676080 
# 
# From -- ./inp_files/27533.got.cif
#   From: 2010.03.12/outbox.cif.g09.slc.cpg/sg51_14_cif.got.tgz:27533.got - 2010.04.16 13:43:02.
