data_PCOD8213815
_publ_section_title
;
Structure prediction by ZEFSAII (Michael W. Deem and Ramdas Pophale) SiO2 
 PCOD8213815
Probable space group: P M M A
;
_chemical_formula_sum "Si O2"
_cell_formula_units_Z 64
_cell_length_a 8.814709
_cell_length_b 23.503421
_cell_length_c 15.353500
_cell_angle_alpha 90.000000
_cell_angle_beta 90.000000
_cell_angle_gamma 90.000000
_cell_volume 3180.873900
_symmetry_space_group_name_H-M "P M M A"
_symmetry_group_IT_number 51
_symmetry_cell_setting 'orthorhombic'
loop_
_space_group_symop_operation_xyz
x,y,z
1/2-x,-y,z
1/2+x,-y,-z
-x,y,-z
-x,-y,-z
1/2+x,y,-z
1/2-x,y,z
x,-y,z
loop_
_atom_site_type_symbol
_atom_site_label
_atom_site_fract_x
_atom_site_fract_y
_atom_site_fract_z
Si Si1 0.572413 0.237312 0.650992
Si Si2 0.928228 0.638767 0.589698
Si Si3 0.076512 0.749032 0.832839
Si Si4 0.425959 0.565972 0.247853
Si Si5 0.571717 0.371092 0.091747
Si Si6 0.924209 0.131326 0.089834
Si Si7 0.929278 0.123395 0.410520
Si Si8 0.425359 0.933950 0.247644
O O1 0.750000 0.224867 0.640531
O O2 0.523827 0.296247 0.606506
O O3 0.533343 0.238913 0.752544
O O4 0.478885 0.188313 0.603773
O O5 0.750000 0.631559 0.582143
O O6 0.990071 0.600558 0.669188
O O7 0.000000 0.616838 0.500000
O O8 0.250000 0.742757 0.799462
O O9 0.019875 0.692211 0.880762
O O10 0.062407 0.800744 0.900397
O O11 0.250000 0.580478 0.232121
O O12 0.452582 0.500000 0.266888
O O13 0.517614 0.583499 0.162526
O O14 0.750000 0.375011 0.081960
O O15 0.500000 0.387738 0.000000
O O16 0.750000 0.111421 0.090667
O O17 0.011572 0.101089 0.167258
O O18 0.000000 0.112190 0.000000
O O19 0.750000 0.120637 0.416126
O O20 0.000000 0.100108 0.500000
O O21 0.984473 0.082645 0.333908
O O22 0.250000 0.918231 0.261393
O O23 0.449367 0.000000 0.228110
#
# Coordination Sequence:
#
# PCOD8213815 Si02
#       8
#     8   8   8   8   8   8   8   8
#     4  11  21  36  62  92 125 163 201 246 304 365
#     4  10  22  38  59  90 121 158 199 244 302 360
#     4  10  21  37  60  92 125 161 198 246 304 364
#     4  10  22  42  63  84 116 158 206 257 307 360
#     4  11  23  39  62  91 124 159 201 248 303 365
#     4  11  23  40  64  94 127 164 205 250 305 366
#     4  12  25  42  65  94 128 164 206 251 306 369
#     4  11  25  45  67  92 123 162 210 260 310 363
#
# _framework density 20.120256999999999
#
# number of rings (size 3 to 8) (size 9 to 14) (size 15 to 20)
#    0.000    1.250    2.500    3.375    0.000    5.750 
#    0.000    0.000    0.000    0.000    0.000    0.000 
#    0.000    0.000    0.000    0.000    0.000    0.000 
#
# Total GULP energy -794028.570283 kJ/mol
# GULP energy per Si atom -12406.696411 kJ/mol
# Density = 2.007446 g / cm^3
# Si number density = 20.120257 Si / 1000 Ang^3
#
#
#
# Elastic Constant Matrix: (Units=GPa)
#
#
# Indices 1 2 3 4 5 6 
#
# 1 99.3428 29.1932 38.8997 0.0000 0.0000 0.0000
# 2 29.1932 67.3095 16.1063 0.0000 0.0000 0.0000
# 3 38.8997 16.1063 131.0802 0.0000 0.0000 0.0000
# 4 0.0000 0.0000 0.0000 -13.8687 0.0000 0.0000
# 5 0.0000 0.0000 0.0000 0.0000 39.8265 0.0000
# 6 0.0000 0.0000 0.0000 0.0000 0.0000 40.8835
#
#
#
# Elastic Compliance Matrix: (Units=1/GPa)
#
#
# Indices 1 2 3 4 5 6 
#
# 1 0.012710 -0.004750 -0.003188 0.000000 0.000000 0.000000
# 2 -0.004750 0.017082 -0.000689 0.000000 0.000000 0.000000
# 3 -0.003188 -0.000689 0.008660 0.000000 0.000000 0.000000
# 4 0.000000 0.000000 0.000000 -0.072105 0.000000 0.000000
# 5 0.000000 0.000000 0.000000 0.000000 0.025109 0.000000
# 6 0.000000 0.000000 0.000000 0.000000 0.000000 0.024460
#
#
# Mechanical properties :
#
#
# Convention : Reuss Voigt Hill
#
# Bulk Modulus (GPa) = 47.17645 51.79233 49.48439
# Shear Modulus (GPa) = 124.26481 27.60379 75.93430
#
# Velocity S-wave (km/s) = 7.86735 3.70799 6.14997
# Velocity P-wave (km/s) = 10.29684 6.64301 8.66471
#
# Compressibility (1/GPa) = 0.02119702
#
# Stress axis : x y z
#
# Youngs Moduli (GPa) = 78.67568 58.54207 115.47607
#
# Poissons Ratio (x) = 0.27806 0.36818
# Poissons Ratio (y) = 0.37369 0.07960
# Poissons Ratio (z) = 0.25085 0.04035
#
# Static dielectric constant tensor:
#      x y z
#    x 3.676730 0.000000 0.000000 
#    y 0.000000 3.706220 0.000000 
#    z 0.000000 0.000000 3.730320 
# 
# 
# High freq. dielectric constant tensor:
#      x y z
#    x 1.790260 0.000000 0.000000 
#    y 0.000000 1.784550 0.000000 
#    z 0.000000 0.000000 1.796250 
# 
# From -- ./inp_files/22246.got.cif
#   From: 2010.03.12/outbox.cif.g09.slc.cpg/sg51_12_cif.got.tgz:22246.got - 2010.04.16 13:43:02.
