data_PCOD8213358
_publ_section_title
;
Structure prediction by ZEFSAII (Michael W. Deem and Ramdas Pophale) SiO2 
 PCOD8213358
Probable space group: P M M A
;
_chemical_formula_sum "Si O2"
_cell_formula_units_Z 40
_cell_length_a 8.906358
_cell_length_b 7.640450
_cell_length_c 29.383743
_cell_angle_alpha 90.000000
_cell_angle_beta 90.000000
_cell_angle_gamma 90.000000
_cell_volume 1999.522074
_symmetry_space_group_name_H-M "P M M A"
_symmetry_group_IT_number 51
_symmetry_cell_setting 'orthorhombic'
loop_
_space_group_symop_operation_xyz
x,y,z
1/2-x,-y,z
1/2+x,-y,-z
-x,y,-z
-x,-y,-z
1/2+x,y,-z
1/2-x,y,z
x,-y,z
loop_
_atom_site_type_symbol
_atom_site_label
_atom_site_fract_x
_atom_site_fract_y
_atom_site_fract_z
Si Si1 0.927081 0.697712 0.452701
Si Si2 0.071079 0.000000 0.715594
Si Si3 0.419821 0.705333 0.867642
Si Si4 0.572009 0.000000 0.387419
Si Si5 0.585719 0.799731 0.957463
Si Si6 0.573380 0.703009 0.774431
O O1 0.750000 0.713913 0.458725
O O2 0.974874 0.500000 0.439594
O O3 0.986798 0.826297 0.413218
O O4 0.000000 0.756371 0.500000
O O5 0.008621 0.177113 0.737680
O O6 0.250000 0.000000 0.719168
O O7 0.011370 0.000000 0.663864
O O8 0.250000 0.773256 0.860989
O O9 0.424228 0.500000 0.874800
O O10 0.489606 0.791972 0.911855
O O11 0.516274 0.761505 0.823992
O O12 0.750000 0.000000 0.386695
O O13 0.750000 0.710170 0.950856
O O14 0.611096 0.000000 0.970328
O O15 0.500000 0.707662 0.000000
O O16 0.750000 0.735976 0.772146
O O17 0.532650 0.500000 0.764640
#
# Coordination Sequence:
#
# PCOD8213358 Si02
#       6
#     8   4   8   4   8   8
#     4   9  17  31  52  78 109 146 187 230 276 328
#     4  11  23  38  60  88 115 151 196 242 293 348
#     4  10  21  37  58  83 108 138 179 225 275 333
#     4   9  19  34  52  78 110 145 187 230 279 336
#     4  10  21  36  54  78 109 144 180 220 269 328
#     4  10  22  41  62  84 114 150 190 239 292 349
#
# _framework density 20.004781000000001
#
# number of rings (size 3 to 8) (size 9 to 14) (size 15 to 20)
#    0.000    2.200    0.000    2.400    1.400    4.800 
#    0.000    4.000    0.000    2.400    0.000    0.000 
#    0.000    0.000    0.000    0.000    0.000    0.000 
#
# Total GULP energy -495999.657199 kJ/mol
# GULP energy per Si atom -12399.991430 kJ/mol
# Density = 1.995925 g / cm^3
# Si number density = 20.004781 Si / 1000 Ang^3
#
#
#
# Elastic Constant Matrix: (Units=GPa)
#
#
# Indices 1 2 3 4 5 6 
#
# 1 102.3994 39.4919 54.9253 0.0000 0.0000 0.0000
# 2 39.4919 89.1172 74.8499 0.0000 0.0000 0.0000
# 3 54.9253 74.8499 180.9429 0.0000 0.0000 0.0000
# 4 0.0000 0.0000 0.0000 56.3651 0.0000 0.0000
# 5 0.0000 0.0000 0.0000 0.0000 31.4832 0.0000
# 6 0.0000 0.0000 0.0000 0.0000 0.0000 21.5932
#
#
#
# Elastic Compliance Matrix: (Units=1/GPa)
#
#
# Indices 1 2 3 4 5 6 
#
# 1 0.012362 -0.003565 -0.002278 0.000000 0.000000 0.000000
# 2 -0.003565 0.018224 -0.006456 0.000000 0.000000 0.000000
# 3 -0.002278 -0.006456 0.008889 0.000000 0.000000 0.000000
# 4 0.000000 0.000000 0.000000 0.017741 0.000000 0.000000
# 5 0.000000 0.000000 0.000000 0.000000 0.031763 0.000000
# 6 0.000000 0.000000 0.000000 0.000000 0.000000 0.046311
#
#
# Mechanical properties :
#
#
# Convention : Reuss Voigt Hill
#
# Bulk Modulus (GPa) = 67.22103 78.99928 73.11016
# Shear Modulus (GPa) = 30.33100 35.43447 32.88274
#
# Velocity S-wave (km/s) = 3.89805 4.21325 4.05871
# Velocity P-wave (km/s) = 7.34406 7.95264 7.65440
#
# Compressibility (1/GPa) = 0.01487630
#
# Stress axis : x y z
#
# Youngs Moduli (GPa) = 80.89016 54.87334 112.50110
#
# Poissons Ratio (x) = 0.19564 0.25626
# Poissons Ratio (y) = 0.28839 0.72634
# Poissons Ratio (z) = 0.18425 0.35428
#
# Static dielectric constant tensor:
#      x y z
#    x 10.983810 0.000000 0.000000 
#    y 0.000000 3.661730 0.000000 
#    z 0.000000 0.000000 3.720440 
# 
# 
# High freq. dielectric constant tensor:
#      x y z
#    x 1.781320 0.000000 0.000000 
#    y 0.000000 1.781620 0.000000 
#    z 0.000000 0.000000 1.778200 
# 
# From -- ./inp_files/36061.got.cif
#   From: 2010.03.12/outbox.cif.g09.slc.cpg/sg51_19_cif.got.tgz:36061.got - 2010.04.16 13:43:02.
