data_PCOD8213044
_publ_section_title
;
Structure prediction by ZEFSAII (Michael W. Deem and Ramdas Pophale) SiO2 
 PCOD8213044
Probable space group: P M M A
;
_chemical_formula_sum "Si O2"
_cell_formula_units_Z 64
_cell_length_a 19.642982
_cell_length_b 9.061821
_cell_length_c 20.070401
_cell_angle_alpha 90.000000
_cell_angle_beta 90.000000
_cell_angle_gamma 90.000000
_cell_volume 3572.555197
_symmetry_space_group_name_H-M "P M M A"
_symmetry_group_IT_number 51
_symmetry_cell_setting 'orthorhombic'
loop_
_space_group_symop_operation_xyz
x,y,z
1/2-x,-y,z
1/2+x,-y,-z
-x,y,-z
-x,-y,-z
1/2+x,y,-z
1/2-x,y,z
x,-y,z
loop_
_atom_site_type_symbol
_atom_site_label
_atom_site_fract_x
_atom_site_fract_y
_atom_site_fract_z
Si Si1 0.575612 0.325649 0.683145
Si Si2 0.825131 0.174662 0.432395
Si Si3 0.435463 0.172346 0.671159
Si Si4 0.171938 0.172570 0.059548
Si Si5 0.077208 0.171972 0.179685
Si Si6 0.421295 0.167755 0.823542
Si Si7 0.669916 0.167864 0.582435
Si Si8 0.327735 0.327088 0.925272
O O1 0.569864 0.500000 0.687481
O O2 0.504425 0.260213 0.657903
O O3 0.596483 0.263562 0.755126
O O4 0.633546 0.280932 0.631344
O O5 0.750000 0.241301 0.417314
O O6 0.879159 0.237266 0.379352
O O7 0.848422 0.216059 0.507012
O O8 0.820751 0.000000 0.425525
O O9 0.408463 0.198247 0.745724
O O10 0.450610 0.000000 0.658817
O O11 0.250000 0.213664 0.075682
O O12 0.126021 0.227377 0.120756
O O13 0.162317 0.000000 0.047540
O O14 0.145985 0.252948 0.993188
O O15 0.999546 0.200951 0.157999
O O16 0.088479 0.000000 0.196342
O O17 0.373307 0.276680 0.863828
O O18 0.402317 0.000000 0.841971
O O19 0.750000 0.179758 0.594375
O O20 0.645379 0.000000 0.595902
O O21 0.250000 0.279716 0.910939
O O22 0.335037 0.500000 0.934090
#
# Coordination Sequence:
#
# PCOD8213044 Si02
#       8
#     8   8   8   8   8   8   8   8
#     4  11  22  34  50  74 106 139 170 206 248 300
#     4   8  15  30  54  81 102 125 167 219 261 297
#     4   9  18  34  55  77 102 132 168 211 256 301
#     4   9  18  34  56  78  99 126 162 204 248 295
#     4   9  19  36  55  76 101 129 167 211 253 296
#     4   9  18  32  51  74 100 131 166 208 252 294
#     4   9  18  34  55  76 100 132 170 212 256 302
#     4  10  21  35  50  71 102 136 167 202 244 295
#
# _framework density 17.914349999999999
#
# number of rings (size 3 to 8) (size 9 to 14) (size 15 to 20)
#    0.000    2.750    0.000    3.000    0.000    5.500 
#    0.000    8.125    0.000    1.125    0.000    0.000 
#    0.000    0.000    0.000    0.000    0.000    0.000 
#
# Total GULP energy -793672.008488 kJ/mol
# GULP energy per Si atom -12401.125133 kJ/mol
# Density = 1.787358 g / cm^3
# Si number density = 17.914350 Si / 1000 Ang^3
#
#
#
# Elastic Constant Matrix: (Units=GPa)
#
#
# Indices 1 2 3 4 5 6 
#
# 1 84.1919 39.8022 76.0359 0.0000 0.0000 0.0000
# 2 39.8022 65.3916 49.5541 0.0000 0.0000 0.0000
# 3 76.0359 49.5541 120.8350 0.0000 0.0000 0.0000
# 4 0.0000 0.0000 0.0000 5.3722 0.0000 0.0000
# 5 0.0000 0.0000 0.0000 0.0000 36.7592 0.0000
# 6 0.0000 0.0000 0.0000 0.0000 0.0000 19.0283
#
#
#
# Elastic Compliance Matrix: (Units=1/GPa)
#
#
# Indices 1 2 3 4 5 6 
#
# 1 0.028821 -0.005512 -0.015875 0.000000 0.000000 0.000000
# 2 -0.005512 0.023242 -0.006063 0.000000 0.000000 0.000000
# 3 -0.015875 -0.006063 0.020752 0.000000 0.000000 0.000000
# 4 0.000000 0.000000 0.000000 0.186142 0.000000 0.000000
# 5 0.000000 0.000000 0.000000 0.000000 0.027204 0.000000
# 6 0.000000 0.000000 0.000000 0.000000 0.000000 0.052553
#
#
# Mechanical properties :
#
#
# Convention : Reuss Voigt Hill
#
# Bulk Modulus (GPa) = 55.82210 66.80032 61.31121
# Shear Modulus (GPa) = 12.51296 19.23369 15.87332
#
# Velocity S-wave (km/s) = 2.64576 3.28021 2.97992
# Velocity P-wave (km/s) = 6.36880 7.19139 6.79256
#
# Compressibility (1/GPa) = 0.01791405
#
# Stress axis : x y z
#
# Youngs Moduli (GPa) = 34.69731 43.02515 48.18923
#
# Poissons Ratio (x) = 0.23717 0.76500
# Poissons Ratio (y) = 0.19126 0.29217
# Poissons Ratio (z) = 0.55082 0.26086
#
# Static dielectric constant tensor:
#      x y z
#    x 3.455480 0.000000 0.000000 
#    y 0.000000 3.080560 0.000000 
#    z 0.000000 0.000000 3.392780 
# 
# 
# High freq. dielectric constant tensor:
#      x y z
#    x 1.693860 0.000000 0.000000 
#    y 0.000000 1.671640 0.000000 
#    z 0.000000 0.000000 1.698640 
# 
# From -- ./inp_files/30507.got.cif
#   From: 2010.03.12/outbox.cif.g09.slc.cpg/sg51_16_cif.got.tgz:30507.got - 2010.04.16 13:43:02.
