data_PCOD8213188
_publ_section_title
;
Structure prediction by ZEFSAII (Michael W. Deem and Ramdas Pophale) SiO2 
 PCOD8213188
Probable space group: P M M A
;
_chemical_formula_sum "Si O2"
_cell_formula_units_Z 32
_cell_length_a 14.109419
_cell_length_b 12.428405
_cell_length_c 9.244410
_cell_angle_alpha 90.000000
_cell_angle_beta 90.000000
_cell_angle_gamma 90.000000
_cell_volume 1621.077307
_symmetry_space_group_name_H-M "P M M A"
_symmetry_group_IT_number 51
_symmetry_cell_setting 'orthorhombic'
loop_
_space_group_symop_operation_xyz
x,y,z
1/2-x,-y,z
1/2+x,-y,-z
-x,y,-z
-x,-y,-z
1/2+x,y,-z
1/2-x,y,z
x,-y,z
loop_
_atom_site_type_symbol
_atom_site_label
_atom_site_fract_x
_atom_site_fract_y
_atom_site_fract_z
Si Si1 0.109785 0.000000 0.671333
Si Si2 0.401087 0.500000 0.419887
Si Si3 0.750000 0.818982 0.282182
Si Si4 0.250000 0.328186 0.455943
Si Si5 0.750000 0.169673 0.781657
Si Si6 0.101853 0.500000 0.073108
Si Si7 0.750000 0.674619 0.019294
Si Si8 0.609095 0.000000 0.671309
O O1 0.156970 0.893160 0.739423
O O2 0.126869 0.000000 0.499462
O O3 0.000468 0.000000 0.712957
O O4 0.500000 0.500000 0.500000
O O5 0.345073 0.396446 0.477320
O O6 0.409063 0.500000 0.246313
O O7 0.750000 0.776623 0.445387
O O8 0.750000 0.709969 0.187107
O O9 0.250000 0.286000 0.292852
O O10 0.750000 0.205802 0.948224
O O11 0.655420 0.104740 0.742750
O O12 0.156769 0.393711 0.019527
O O13 0.000000 0.500000 0.000000
#
# Coordination Sequence:
#
# PCOD8213188 Si02
#       8
#     4   4   4   4   4   4   4   4
#     4  10  21  39  57  96 125 149 201 269 300 345
#     4  11  25  40  65  97 121 154 212 262 294 364
#     4  11  23  39  63  90 124 162 204 253 304 361
#     4  11  21  41  65  87 128 160 207 251 299 362
#     4  11  19  41  61  87 112 172 201 235 303 376
#     4  11  25  44  61  89 129 162 202 254 314 368
#     4  11  25  43  63  84 130 170 198 245 316 377
#     4  10  21  35  65  90 123 155 200 256 312 355
#
# _framework density 19.739958999999999
#
# number of rings (size 3 to 8) (size 9 to 14) (size 15 to 20)
#    0.000    1.250    5.000    1.500    3.500    7.000 
#    0.000    1.250    0.000    0.000    0.000    0.000 
#    0.000    0.000    0.000    0.000    0.000    0.000 
#
# Total GULP energy -396799.582630 kJ/mol
# GULP energy per Si atom -12399.986957 kJ/mol
# Density = 1.969503 g / cm^3
# Si number density = 19.739959 Si / 1000 Ang^3
#
#
#
# Elastic Constant Matrix: (Units=GPa)
#
#
# Indices 1 2 3 4 5 6 
#
# 1 190.0849 65.6803 39.0459 0.0000 0.0000 0.0000
# 2 65.6803 116.2873 28.3676 0.0000 0.0000 0.0000
# 3 39.0459 28.3676 65.7980 0.0000 0.0000 0.0000
# 4 0.0000 0.0000 0.0000 39.6790 0.0000 0.0000
# 5 0.0000 0.0000 0.0000 0.0000 24.1164 0.0000
# 6 0.0000 0.0000 0.0000 0.0000 0.0000 16.5971
#
#
#
# Elastic Compliance Matrix: (Units=1/GPa)
#
#
# Indices 1 2 3 4 5 6 
#
# 1 0.006945 -0.003260 -0.002716 0.000000 0.000000 0.000000
# 2 -0.003260 0.011141 -0.002868 0.000000 0.000000 0.000000
# 3 -0.002716 -0.002868 0.018046 0.000000 0.000000 0.000000
# 4 0.000000 0.000000 0.000000 0.025202 0.000000 0.000000
# 5 0.000000 0.000000 0.000000 0.000000 0.041466 0.000000
# 6 0.000000 0.000000 0.000000 0.000000 0.000000 0.060252
#
#
# Mechanical properties :
#
#
# Convention : Reuss Voigt Hill
#
# Bulk Modulus (GPa) = 54.22050 70.92864 62.57457
# Shear Modulus (GPa) = 26.75400 32.01692 29.38546
#
# Velocity S-wave (km/s) = 3.68546 4.03169 3.86246
# Velocity P-wave (km/s) = 6.75553 7.59488 7.18747
#
# Compressibility (1/GPa) = 0.01844321
#
# Stress axis : x y z
#
# Youngs Moduli (GPa) = 143.98481 89.76252 55.41299
#
# Poissons Ratio (x) = 0.29264 0.15049
# Poissons Ratio (y) = 0.46942 0.15894
# Poissons Ratio (z) = 0.39104 0.25747
#
# Static dielectric constant tensor:
#      x y z
#    x 3.554380 0.000000 0.000000 
#    y 0.000000 3.584150 0.000000 
#    z 0.000000 0.000000 3.458320 
# 
# 
# High freq. dielectric constant tensor:
#      x y z
#    x 1.769110 0.000000 0.000000 
#    y 0.000000 1.782890 0.000000 
#    z 0.000000 0.000000 1.766970 
# 
# From -- ./inp_files/7696.got.cif
#   From: 2010.03.12/outbox.cif.g09.slc.cpg/sg51_4_cif.got.tgz:7696.got - 2010.04.16 13:43:02.
