data_PCOD8213255
_publ_section_title
;
Structure prediction by ZEFSAII (Michael W. Deem and Ramdas Pophale) SiO2 
 PCOD8213255
Probable space group: P M M A
;
_chemical_formula_sum "Si O2"
_cell_formula_units_Z 64
_cell_length_a 9.103246
_cell_length_b 18.345061
_cell_length_c 20.627587
_cell_angle_alpha 90.000000
_cell_angle_beta 90.000000
_cell_angle_gamma 90.000000
_cell_volume 3444.798843
_symmetry_space_group_name_H-M "P M M A"
_symmetry_group_IT_number 51
_symmetry_cell_setting 'orthorhombic'
loop_
_space_group_symop_operation_xyz
x,y,z
1/2-x,-y,z
1/2+x,-y,-z
-x,y,-z
-x,-y,-z
1/2+x,y,-z
1/2-x,y,z
x,-y,z
loop_
_atom_site_type_symbol
_atom_site_label
_atom_site_fract_x
_atom_site_fract_y
_atom_site_fract_z
Si Si1 0.921841 0.582765 0.564123
Si Si2 0.420685 0.083867 0.810154
Si Si3 0.078169 0.678651 0.313501
Si Si4 0.915803 0.086868 0.937324
Si Si5 0.420275 0.583311 0.189132
Si Si6 0.584636 0.413138 0.062344
Si Si7 0.423612 0.169209 0.681489
Si Si8 0.078300 0.084595 0.433447
O O1 0.750000 0.586458 0.551740
O O2 0.972534 0.500000 0.578582
O O3 0.968439 0.632167 0.624204
O O4 0.000000 0.613631 0.500000
O O5 0.250000 0.092902 0.826067
O O6 0.508328 0.115580 0.871719
O O7 0.468551 0.128489 0.747259
O O8 0.461595 0.000000 0.796900
O O9 0.250000 0.700131 0.315350
O O10 0.039581 0.631029 0.251023
O O11 0.975626 0.748492 0.312036
O O12 0.750000 0.116113 0.939118
O O13 0.921542 0.000000 0.938546
O O14 0.000000 0.118495 0.000000
O O15 0.250000 0.588347 0.171164
O O16 0.464736 0.500000 0.204615
O O17 0.508880 0.615085 0.128005
O O18 0.750000 0.383413 0.060510
O O19 0.579690 0.500000 0.060728
O O20 0.500000 0.381148 0.000000
O O21 0.250000 0.165122 0.668879
O O22 0.507674 0.131654 0.622903
O O23 0.250000 0.102851 0.439384
O O24 0.000000 0.107039 0.500000
O O25 0.051007 0.000000 0.417678
#
# Coordination Sequence:
#
# PCOD8213255 Si02
#       8
#     8   8   8   8   8   8   8   8
#     4   9  18  34  56  80 104 132 168 210 256 305
#     4   9  18  33  52  73  99 133 172 213 256 302
#     4  10  21  36  53  74 104 140 176 215 259 309
#     4   9  16  26  44  72 103 132 164 206 255 305
#     4   9  17  31  52  75  99 132 174 218 265 315
#     4   9  16  26  43  70 102 132 164 207 258 311
#     4  11  23  37  54  77 108 144 179 216 259 308
#     4  10  21  38  61  86 110 137 172 215 261 310
#
# _framework density 18.578734000000001
#
# number of rings (size 3 to 8) (size 9 to 14) (size 15 to 20)
#    0.000    2.500    0.000    2.250    0.000    8.250 
#    0.000    2.500    0.000    4.500    0.000    5.250 
#    0.000    0.000    0.000    0.000    0.000    0.000 
#
# Total GULP energy -793726.680521 kJ/mol
# GULP energy per Si atom -12401.979383 kJ/mol
# Density = 1.853645 g / cm^3
# Si number density = 18.578734 Si / 1000 Ang^3
#
#
#
# Elastic Constant Matrix: (Units=GPa)
#
#
# Indices 1 2 3 4 5 6 
#
# 1 103.1514 44.3296 87.3827 0.0000 0.0000 0.0000
# 2 44.3296 67.3011 65.3926 0.0000 0.0000 0.0000
# 3 87.3827 65.3926 186.5914 0.0000 0.0000 0.0000
# 4 0.0000 0.0000 0.0000 -3.7137 0.0000 0.0000
# 5 0.0000 0.0000 0.0000 0.0000 39.1029 0.0000
# 6 0.0000 0.0000 0.0000 0.0000 0.0000 20.0927
#
#
#
# Elastic Compliance Matrix: (Units=1/GPa)
#
#
# Indices 1 2 3 4 5 6 
#
# 1 0.017242 -0.005324 -0.006209 0.000000 0.000000 0.000000
# 2 -0.005324 0.024175 -0.005979 0.000000 0.000000 0.000000
# 3 -0.006209 -0.005979 0.010362 0.000000 0.000000 0.000000
# 4 0.000000 0.000000 0.000000 -0.269273 0.000000 0.000000
# 5 0.000000 0.000000 0.000000 0.000000 0.025574 0.000000
# 6 0.000000 0.000000 0.000000 0.000000 0.000000 0.049769
#
#
# Mechanical properties :
#
#
# Convention : Reuss Voigt Hill
#
# Bulk Modulus (GPa) = 59.68186 83.47265 71.57725
# Shear Modulus (GPa) = -49.24126 21.75897 -13.74115
#
# Velocity S-wave (km/s) = -5.15380 3.42596 -2.72254
# Velocity P-wave (km/s) = 1.79500 7.78950 5.35977
#
# Compressibility (1/GPa) = 0.01675551
#
# Stress axis : x y z
#
# Youngs Moduli (GPa) = 57.99688 41.36507 96.50383
#
# Poissons Ratio (x) = 0.22024 0.59917
# Poissons Ratio (y) = 0.30880 0.57698
# Poissons Ratio (z) = 0.36009 0.24732
#
# Static dielectric constant tensor:
#      x y z
#    x 3.479450 0.000000 0.000000 
#    y 0.000000 3.120620 0.000000 
#    z 0.000000 0.000000 3.598590 
# 
# 
# High freq. dielectric constant tensor:
#      x y z
#    x 1.725110 0.000000 0.000000 
#    y 0.000000 1.686060 0.000000 
#    z 0.000000 0.000000 1.738320 
# 
# From -- ./inp_files/32306.got.cif
#   From: 2010.03.12/outbox.cif.g09.slc.cpg/sg51_17_cif.got.tgz:32306.got - 2010.04.16 13:43:02.
