data_PCOD8213060
_publ_section_title
;
Structure prediction by ZEFSAII (Michael W. Deem and Ramdas Pophale) SiO2 
 PCOD8213060
Probable space group: P M M A
;
_chemical_formula_sum "Si O2"
_cell_formula_units_Z 48
_cell_length_a 9.101312
_cell_length_b 14.893966
_cell_length_c 18.982093
_cell_angle_alpha 90.000000
_cell_angle_beta 90.000000
_cell_angle_gamma 90.000000
_cell_volume 2573.110621
_symmetry_space_group_name_H-M "P M M A"
_symmetry_group_IT_number 51
_symmetry_cell_setting 'orthorhombic'
loop_
_space_group_symop_operation_xyz
x,y,z
1/2-x,-y,z
1/2+x,-y,-z
-x,y,-z
-x,-y,-z
1/2+x,y,-z
1/2-x,y,z
x,-y,z
loop_
_atom_site_type_symbol
_atom_site_label
_atom_site_fract_x
_atom_site_fract_y
_atom_site_fract_z
Si Si1 0.421789 0.750279 0.180945
Si Si2 0.921203 0.601742 0.929769
Si Si3 0.576710 0.760152 0.327940
Si Si4 0.079070 0.895037 0.428134
Si Si5 0.578951 0.898377 0.930107
Si Si6 0.421334 0.398874 0.570713
O O1 0.250000 0.750028 0.201908
O O2 0.465201 0.662413 0.136453
O O3 0.523176 0.750484 0.248752
O O4 0.463919 0.838261 0.136452
O O5 0.750000 0.609584 0.945290
O O6 0.969305 0.500000 0.912064
O O7 0.000000 0.637146 0.000000
O O8 0.750000 0.778599 0.330138
O O9 0.493698 0.843347 0.363362
O O10 0.533982 0.667518 0.366609
O O11 0.250000 0.869976 0.434315
O O12 0.000000 0.865137 0.500000
O O13 0.056080 0.000000 0.413539
O O14 0.750000 0.891284 0.946000
O O15 0.529820 0.000000 0.912725
O O16 0.500000 0.862055 0.000000
O O17 0.500000 0.365757 0.500000
O O18 0.250000 0.395083 0.555070
O O19 0.471168 0.500000 0.591372
#
# Coordination Sequence:
#
# PCOD8213060 Si02
#       6
#     8   8   8   8   8   8
#     4  10  21  35  50  72 105 140 172 210 259 315
#     4   9  18  33  53  76 101 132 173 220 268 318
#     4  11  23  36  53  79 110 143 179 220 264 312
#     4  10  21  38  60  83 108 140 177 218 264 314
#     4   9  18  33  53  75  98 127 165 208 253 302
#     4   9  19  36  56  78 104 135 173 216 261 309
#
# _framework density 18.654464999999998
#
# number of rings (size 3 to 8) (size 9 to 14) (size 15 to 20)
#    0.000    2.333    0.000    2.000    0.000    6.333 
#    0.000    1.667    0.000    0.000    0.000    0.000 
#    0.000    0.000    0.000    0.000    0.000    0.000 
#
# Total GULP energy -595352.834110 kJ/mol
# GULP energy per Si atom -12403.184044 kJ/mol
# Density = 1.861201 g / cm^3
# Si number density = 18.654465 Si / 1000 Ang^3
#
#
#
# Elastic Constant Matrix: (Units=GPa)
#
#
# Indices 1 2 3 4 5 6 
#
# 1 75.5621 49.0083 66.0195 0.0000 0.0000 0.0000
# 2 49.0083 98.4844 71.7129 0.0000 0.0000 0.0000
# 3 66.0195 71.7129 150.5423 0.0000 0.0000 0.0000
# 4 0.0000 0.0000 0.0000 26.2830 0.0000 0.0000
# 5 0.0000 0.0000 0.0000 0.0000 40.2159 0.0000
# 6 0.0000 0.0000 0.0000 0.0000 0.0000 21.2894
#
#
#
# Elastic Compliance Matrix: (Units=1/GPa)
#
#
# Indices 1 2 3 4 5 6 
#
# 1 0.023914 -0.006528 -0.007378 0.000000 0.000000 0.000000
# 2 -0.006528 0.017329 -0.005392 0.000000 0.000000 0.000000
# 3 -0.007378 -0.005392 0.012447 0.000000 0.000000 0.000000
# 4 0.000000 0.000000 0.000000 0.038047 0.000000 0.000000
# 5 0.000000 0.000000 0.000000 0.000000 0.024866 0.000000
# 6 0.000000 0.000000 0.000000 0.000000 0.000000 0.046972
#
#
# Mechanical properties :
#
#
# Convention : Reuss Voigt Hill
#
# Bulk Modulus (GPa) = 66.25128 77.56337 71.90733
# Shear Modulus (GPa) = 24.13116 26.74751 25.43934
#
# Velocity S-wave (km/s) = 3.60055 3.79072 3.69685
# Velocity P-wave (km/s) = 7.27168 7.79927 7.54009
#
# Compressibility (1/GPa) = 0.01509405
#
# Stress axis : x y z
#
# Youngs Moduli (GPa) = 41.81628 57.70808 80.34348
#
# Poissons Ratio (x) = 0.37673 0.59275
# Poissons Ratio (y) = 0.27298 0.43320
# Poissons Ratio (z) = 0.30851 0.31115
#
# Static dielectric constant tensor:
#      x y z
#    x 3.406380 0.000000 0.000000 
#    y 0.000000 3.783720 0.000000 
#    z 0.000000 0.000000 3.330600 
# 
# 
# High freq. dielectric constant tensor:
#      x y z
#    x 1.723440 0.000000 0.000000 
#    y 0.000000 1.737890 0.000000 
#    z 0.000000 0.000000 1.717900 
# 
# From -- ./inp_files/27569.got.cif
#   From: 2010.03.12/outbox.cif.g09.slc.cpg/sg51_14_cif.got.tgz:27569.got - 2010.04.16 13:43:02.
