data_PCOD8213032
_publ_section_title
;
Structure prediction by ZEFSAII (Michael W. Deem and Ramdas Pophale) SiO2 
 PCOD8213032
Probable space group: P M M A
;
_chemical_formula_sum "Si O2"
_cell_formula_units_Z 64
_cell_length_a 14.369302
_cell_length_b 9.085966
_cell_length_c 28.043060
_cell_angle_alpha 90.000000
_cell_angle_beta 90.000000
_cell_angle_gamma 90.000000
_cell_volume 3661.273574
_symmetry_space_group_name_H-M "P M M A"
_symmetry_group_IT_number 51
_symmetry_cell_setting 'orthorhombic'
loop_
_space_group_symop_operation_xyz
x,y,z
1/2-x,-y,z
1/2+x,-y,-z
-x,y,-z
-x,-y,-z
1/2+x,y,-z
1/2-x,y,z
x,-y,z
loop_
_atom_site_type_symbol
_atom_site_label
_atom_site_fract_x
_atom_site_fract_y
_atom_site_fract_z
Si Si1 0.358610 0.667333 0.466026
Si Si2 0.643240 0.331026 0.975763
Si Si3 0.854785 0.328732 0.424515
Si Si4 0.856949 0.172828 0.072784
Si Si5 0.641745 0.828889 0.806153
Si Si6 0.523255 0.673508 0.884916
Si Si7 0.474171 0.826058 0.387896
Si Si8 0.647292 0.825794 0.698665
O O1 0.250000 0.691664 0.456738
O O2 0.387377 0.500000 0.453498
O O3 0.383215 0.701271 0.520806
O O4 0.415425 0.779032 0.433772
O O5 0.750000 0.307381 0.960859
O O6 0.623429 0.500000 0.989811
O O7 0.581678 0.280173 0.931387
O O8 0.615699 0.231980 0.020627
O O9 0.750000 0.273598 0.415018
O O10 0.863287 0.500000 0.412830
O O11 0.922394 0.239567 0.389703
O O12 0.750000 0.212311 0.084792
O O13 0.921934 0.250770 0.112061
O O14 0.874563 0.000000 0.073899
O O15 0.750000 0.795411 0.816538
O O16 0.576952 0.729581 0.838779
O O17 0.616187 0.783382 0.752034
O O18 0.620330 0.000000 0.815574
O O19 0.510485 0.500000 0.880835
O O20 0.425411 0.763414 0.339984
O O21 0.481244 0.000000 0.387039
O O22 0.750000 0.759855 0.687867
O O23 0.653379 0.000000 0.694455
#
# Coordination Sequence:
#
# PCOD8213032 Si02
#       8
#     8   8   8   8   8   8   8   8
#     4   9  18  32  48  67  95 132 169 199 232 283
#     4   9  18  32  48  69 101 136 163 191 237 293
#     4   9  19  35  50  64  91 133 172 203 237 281
#     4  10  21  35  50  70  97 130 170 211 242 275
#     4   9  18  34  55  75  97 128 163 197 235 284
#     4  11  21  32  50  75 102 131 162 199 245 294
#     4  11  20  29  48  76 101 125 157 201 248 290
#     4   8  16  32  51  72 100 130 156 187 236 294
#
# _framework density 17.480257000000002
#
# number of rings (size 3 to 8) (size 9 to 14) (size 15 to 20)
#    0.000    2.500    0.000    4.125    0.000    7.000 
#    0.000    3.750    0.000    2.250    0.000    1.750 
#    0.000    0.000    0.000    0.000    0.000    0.000 
#
# Total GULP energy -793647.513498 kJ/mol
# GULP energy per Si atom -12400.742398 kJ/mol
# Density = 1.744047 g / cm^3
# Si number density = 17.480257 Si / 1000 Ang^3
#
#
#
# Elastic Constant Matrix: (Units=GPa)
#
#
# Indices 1 2 3 4 5 6 
#
# 1 102.5757 48.7568 75.0634 0.0000 0.0000 0.0000
# 2 48.7568 64.6881 48.5049 0.0000 0.0000 0.0000
# 3 75.0634 48.5049 98.7875 0.0000 0.0000 0.0000
# 4 0.0000 0.0000 0.0000 6.2049 0.0000 0.0000
# 5 0.0000 0.0000 0.0000 0.0000 30.1978 0.0000
# 6 0.0000 0.0000 0.0000 0.0000 0.0000 30.4378
#
#
#
# Elastic Compliance Matrix: (Units=1/GPa)
#
#
# Indices 1 2 3 4 5 6 
#
# 1 0.023768 -0.006920 -0.014662 0.000000 0.000000 0.000000
# 2 -0.006920 0.026482 -0.007744 0.000000 0.000000 0.000000
# 3 -0.014662 -0.007744 0.025066 0.000000 0.000000 0.000000
# 4 0.000000 0.000000 0.000000 0.161162 0.000000 0.000000
# 5 0.000000 0.000000 0.000000 0.000000 0.033115 0.000000
# 6 0.000000 0.000000 0.000000 0.000000 0.000000 0.032854
#
#
# Mechanical properties :
#
#
# Convention : Reuss Voigt Hill
#
# Bulk Modulus (GPa) = 60.01519 67.85574 63.93546
# Shear Modulus (GPa) = 13.63686 19.61651 16.62669
#
# Velocity S-wave (km/s) = 2.79611 3.35357 3.08745
# Velocity P-wave (km/s) = 6.69567 7.34153 7.02602
#
# Compressibility (1/GPa) = 0.01666245
#
# Stress axis : x y z
#
# Youngs Moduli (GPa) = 42.07392 37.76220 39.89474
#
# Poissons Ratio (x) = 0.26133 0.58493
# Poissons Ratio (y) = 0.29116 0.30895
# Poissons Ratio (z) = 0.61689 0.29244
#
# Static dielectric constant tensor:
#      x y z
#    x 3.429280 0.000000 0.000000 
#    y 0.000000 3.086350 0.000000 
#    z 0.000000 0.000000 3.193400 
# 
# 
# High freq. dielectric constant tensor:
#      x y z
#    x 1.682030 0.000000 0.000000 
#    y 0.000000 1.665630 0.000000 
#    z 0.000000 0.000000 1.655730 
# 
# From -- ./inp_files/37796.got.cif
#   From: 2010.03.12/outbox.cif.g09.slc.cpg/sg51_19_cif.got.tgz:37796.got - 2010.04.16 13:43:02.
