data_PCOD8213795
_publ_section_title
;
Structure prediction by ZEFSAII (Michael W. Deem and Ramdas Pophale) SiO2 
 PCOD8213795
Probable space group: P M M A
;
_chemical_formula_sum "Si O2"
_cell_formula_units_Z 40
_cell_length_a 16.398131
_cell_length_b 9.240473
_cell_length_c 12.600553
_cell_angle_alpha 90.000000
_cell_angle_beta 90.000000
_cell_angle_gamma 90.000000
_cell_volume 1909.317527
_symmetry_space_group_name_H-M "P M M A"
_symmetry_group_IT_number 51
_symmetry_cell_setting 'orthorhombic'
loop_
_space_group_symop_operation_xyz
x,y,z
1/2-x,-y,z
1/2+x,-y,-z
-x,y,-z
-x,-y,-z
1/2+x,y,-z
1/2-x,y,z
x,-y,z
loop_
_atom_site_type_symbol
_atom_site_label
_atom_site_fract_x
_atom_site_fract_y
_atom_site_fract_z
Si Si1 0.845389 0.831372 0.238729
Si Si2 0.091460 0.668465 0.961094
Si Si3 0.655772 0.340864 0.658499
Si Si4 0.092955 0.166083 0.528866
Si Si5 0.844048 0.159327 0.849813
O O1 0.750000 0.789203 0.241110
O O2 0.894281 0.735873 0.154238
O O3 0.887047 0.793238 0.350543
O O4 0.856040 0.000000 0.210563
O O5 0.114464 0.500000 0.958740
O O6 0.150009 0.750601 0.042398
O O7 0.000000 0.694619 0.000000
O O8 0.750000 0.359716 0.685787
O O9 0.614200 0.500000 0.656733
O O10 0.648364 0.265018 0.545209
O O11 0.613711 0.245374 0.751835
O O12 0.000000 0.199132 0.500000
O O13 0.115843 0.000000 0.506323
O O14 0.750000 0.136750 0.823455
O O15 0.885515 0.000000 0.860424
#
# Coordination Sequence:
#
# PCOD8213795 Si02
#       5
#     8   8   8   8   8
#     4  10  22  41  64  90 123 165 211 257 305 364
#     4  11  25  41  59  88 124 159 199 251 311 367
#     4  10  21  37  59  88 122 159 198 244 301 362
#     4  10  22  39  61  91 124 160 205 254 305 359
#     4  10  21  38  62  89 117 154 200 248 299 358
#
# _framework density 20.949892999999999
#
# number of rings (size 3 to 8) (size 9 to 14) (size 15 to 20)
#    0.000    1.800    0.000    3.000    2.800    8.800 
#    0.000    0.000    0.000    0.000    0.000    0.000 
#    0.000    0.000    0.000    0.000    0.000    0.000 
#
# Total GULP energy -496084.802660 kJ/mol
# GULP energy per Si atom -12402.120066 kJ/mol
# Density = 2.090221 g / cm^3
# Si number density = 20.949893 Si / 1000 Ang^3
#
#
#
# Elastic Constant Matrix: (Units=GPa)
#
#
# Indices 1 2 3 4 5 6 
#
# 1 58.0032 37.0027 39.4207 0.0000 0.0000 0.0000
# 2 37.0027 160.1270 100.2980 0.0000 0.0000 0.0000
# 3 39.4207 100.2980 172.9166 0.0000 0.0000 0.0000
# 4 0.0000 0.0000 0.0000 12.4178 0.0000 0.0000
# 5 0.0000 0.0000 0.0000 0.0000 34.5776 0.0000
# 6 0.0000 0.0000 0.0000 0.0000 0.0000 19.0684
#
#
#
# Elastic Compliance Matrix: (Units=1/GPa)
#
#
# Indices 1 2 3 4 5 6 
#
# 1 0.021251 -0.002947 -0.003135 0.000000 0.000000 0.000000
# 2 -0.002947 0.010217 -0.005255 0.000000 0.000000 0.000000
# 3 -0.003135 -0.005255 0.009546 0.000000 0.000000 0.000000
# 4 0.000000 0.000000 0.000000 0.080529 0.000000 0.000000
# 5 0.000000 0.000000 0.000000 0.000000 0.028920 0.000000
# 6 0.000000 0.000000 0.000000 0.000000 0.000000 0.052443
#
#
# Mechanical properties :
#
#
# Convention : Reuss Voigt Hill
#
# Bulk Modulus (GPa) = 54.52401 82.72106 68.62254
# Shear Modulus (GPa) = 21.58013 27.50111 24.54062
#
# Velocity S-wave (km/s) = 3.21297 3.62706 3.42628
# Velocity P-wave (km/s) = 6.31242 7.55723 6.96270
#
# Compressibility (1/GPa) = 0.01834054
#
# Stress axis : x y z
#
# Youngs Moduli (GPa) = 47.05585 97.87295 104.75789
#
# Poissons Ratio (x) = 0.28842 0.32847
# Poissons Ratio (y) = 0.13867 0.55046
# Poissons Ratio (z) = 0.14754 0.51428
#
# Static dielectric constant tensor:
#      x y z
#    x 3.543170 0.000000 0.000000 
#    y 0.000000 4.122020 0.000000 
#    z 0.000000 0.000000 3.796810 
# 
# 
# High freq. dielectric constant tensor:
#      x y z
#    x 1.802350 0.000000 0.000000 
#    y 0.000000 1.830230 0.000000 
#    z 0.000000 0.000000 1.831790 
# 
# From -- ./inp_files/17070.got.cif
#   From: 2010.03.12/outbox.cif.g09.slc.cpg/sg51_9_cif.got.tgz:17070.got - 2010.04.16 13:43:02.
