data_PCOD8213720
_publ_section_title
;
Structure prediction by ZEFSAII (Michael W. Deem and Ramdas Pophale) SiO2 
 PCOD8213720
Probable space group: P M M A
;
_chemical_formula_sum "Si O2"
_cell_formula_units_Z 48
_cell_length_a 8.849823
_cell_length_b 20.129029
_cell_length_c 14.510413
_cell_angle_alpha 90.000000
_cell_angle_beta 90.000000
_cell_angle_gamma 90.000000
_cell_volume 2584.860940
_symmetry_space_group_name_H-M "P M M A"
_symmetry_group_IT_number 51
_symmetry_cell_setting 'orthorhombic'
loop_
_space_group_symop_operation_xyz
x,y,z
1/2-x,-y,z
1/2+x,-y,-z
-x,y,-z
-x,-y,-z
1/2+x,y,-z
1/2-x,y,z
x,-y,z
loop_
_atom_site_type_symbol
_atom_site_label
_atom_site_fract_x
_atom_site_fract_y
_atom_site_fract_z
Si Si1 0.927291 0.119471 0.591760
Si Si2 0.075325 0.075498 0.210146
Si Si3 0.571729 0.687894 0.789664
Si Si4 0.925786 0.729804 0.590415
Si Si5 0.070909 0.808685 0.899856
Si Si6 0.574164 0.577086 0.096360
O O1 0.750000 0.114951 0.578972
O O2 0.978271 0.080568 0.683526
O O3 0.985208 0.195032 0.603403
O O4 0.000000 0.087126 0.500000
O O5 0.250000 0.098454 0.202136
O O6 0.974432 0.121369 0.145167
O O7 0.054295 0.000000 0.176611
O O8 0.750000 0.694528 0.807334
O O9 0.532170 0.688606 0.681381
O O10 0.488975 0.748480 0.838717
O O11 0.509564 0.617792 0.824536
O O12 0.750000 0.730255 0.572708
O O13 0.000000 0.696460 0.500000
O O14 0.250000 0.804268 0.907842
O O15 0.000000 0.802711 0.000000
O O16 0.750000 0.595622 0.092513
O O17 0.547997 0.500000 0.118315
O O18 0.500000 0.597552 0.000000
#
# Coordination Sequence:
#
# PCOD8213720 Si02
#       6
#     8   8   8   8   8   8
#     4   9  17  32  52  78 109 141 178 221 275 329
#     4  10  21  39  59  78 107 145 183 228 281 334
#     4  11  21  37  60  86 116 148 186 229 276 326
#     4   9  18  32  53  80 112 144 179 225 274 326
#     4  12  25  40  59  81 108 141 183 232 280 331
#     4  10  21  37  57  85 120 155 190 228 273 326
#
# _framework density 18.569665000000001
#
# number of rings (size 3 to 8) (size 9 to 14) (size 15 to 20)
#    0.000    1.833    1.667    3.000    0.000    4.000 
#    0.000    0.000    0.000    0.500    0.000    0.000 
#    0.000    0.000    0.000    0.000    0.000    0.000 
#
# Total GULP energy -595290.795818 kJ/mol
# GULP energy per Si atom -12401.891580 kJ/mol
# Density = 1.852740 g / cm^3
# Si number density = 18.569665 Si / 1000 Ang^3
#
#
#
# Elastic Constant Matrix: (Units=GPa)
#
#
# Indices 1 2 3 4 5 6 
#
# 1 104.9769 43.6857 68.2546 0.0000 0.0000 0.0000
# 2 43.6857 77.8870 52.0455 0.0000 0.0000 0.0000
# 3 68.2546 52.0455 134.0053 0.0000 0.0000 0.0000
# 4 0.0000 0.0000 0.0000 29.7651 0.0000 0.0000
# 5 0.0000 0.0000 0.0000 0.0000 36.7597 0.0000
# 6 0.0000 0.0000 0.0000 0.0000 0.0000 24.3492
#
#
#
# Elastic Compliance Matrix: (Units=1/GPa)
#
#
# Indices 1 2 3 4 5 6 
#
# 1 0.015362 -0.004575 -0.006048 0.000000 0.000000 0.000000
# 2 -0.004575 0.018702 -0.004933 0.000000 0.000000 0.000000
# 3 -0.006048 -0.004933 0.012459 0.000000 0.000000 0.000000
# 4 0.000000 0.000000 0.000000 0.033596 0.000000 0.000000
# 5 0.000000 0.000000 0.000000 0.000000 0.027204 0.000000
# 6 0.000000 0.000000 0.000000 0.000000 0.000000 0.041069
#
#
# Mechanical properties :
#
#
# Convention : Reuss Voigt Hill
#
# Bulk Modulus (GPa) = 64.89076 71.64897 68.26986
# Shear Modulus (GPa) = 27.07976 28.36703 27.72339
#
# Velocity S-wave (km/s) = 3.82289 3.91269 3.86805
# Velocity P-wave (km/s) = 7.38284 7.68634 7.53612
#
# Compressibility (1/GPa) = 0.01541051
#
# Stress axis : x y z
#
# Youngs Moduli (GPa) = 65.09624 53.47118 80.26600
#
# Poissons Ratio (x) = 0.24464 0.48541
# Poissons Ratio (y) = 0.29783 0.39596
# Poissons Ratio (z) = 0.39367 0.26378
#
# Static dielectric constant tensor:
#      x y z
#    x 3.433730 0.000000 0.000000 
#    y 0.000000 3.294740 0.000000 
#    z 0.000000 0.000000 3.600710 
# 
# 
# High freq. dielectric constant tensor:
#      x y z
#    x 1.723050 0.000000 0.000000 
#    y 0.000000 1.702970 0.000000 
#    z 0.000000 0.000000 1.728960 
# 
# From -- ./inp_files/21099.got.cif
#   From: 2010.03.12/outbox.cif.g09.slc.cpg/sg51_11_cif.got.tgz:21099.got - 2010.04.16 13:43:02.
