data_PCOD8213212
_publ_section_title
;
Structure prediction by ZEFSAII (Michael W. Deem and Ramdas Pophale) SiO2 
 PCOD8213212
Probable space group: P M M A
;
_chemical_formula_sum "Si O2"
_cell_formula_units_Z 24
_cell_length_a 14.806631
_cell_length_b 7.936925
_cell_length_c 9.056999
_cell_angle_alpha 90.000000
_cell_angle_beta 90.000000
_cell_angle_gamma 90.000000
_cell_volume 1064.370550
_symmetry_space_group_name_H-M "P M M A"
_symmetry_group_IT_number 51
_symmetry_cell_setting 'orthorhombic'
loop_
_space_group_symop_operation_xyz
x,y,z
1/2-x,-y,z
1/2+x,-y,-z
-x,y,-z
-x,-y,-z
1/2+x,y,-z
1/2-x,y,z
x,-y,z
loop_
_atom_site_type_symbol
_atom_site_label
_atom_site_fract_x
_atom_site_fract_y
_atom_site_fract_z
Si Si1 0.598483 0.000000 0.923314
Si Si2 0.355464 0.310432 0.607278
Si Si3 0.598880 0.319047 0.066659
Si Si4 0.356844 0.000000 0.406173
O O1 0.590825 0.000000 0.747910
O O2 0.500000 0.000000 0.000000
O O3 0.650764 0.831997 0.980826
O O4 0.250000 0.287726 0.641511
O O5 0.375425 0.500000 0.545657
O O6 0.408330 0.278541 0.759527
O O7 0.387804 0.169184 0.491451
O O8 0.649154 0.500000 0.044556
O O9 0.500000 0.333684 0.000000
O O10 0.250000 0.000000 0.377289
#
# Coordination Sequence:
#
# PCOD8213212 Si02
#       4
#     4   8   8   4
#     4  10  21  36  52  75 109 143 176 216 261 314
#     4   9  18  34  56  80 106 138 176 219 266 313
#     4   9  18  34  54  77 107 141 177 215 258 312
#     4  10  21  36  56  81 107 137 174 218 266 314
#
# _framework density 22.548538000000001
#
# number of rings (size 3 to 8) (size 9 to 14) (size 15 to 20)
#    0.000    2.667    0.000    1.000    0.000    2.667 
#    0.000   13.333    0.000   18.000    0.000    0.000 
#    0.000    0.000    0.000    0.000    0.000    0.000 
#
# Total GULP energy -297362.743850 kJ/mol
# GULP energy per Si atom -12390.114327 kJ/mol
# Density = 2.249722 g / cm^3
# Si number density = 22.548538 Si / 1000 Ang^3
#
#
#
# Elastic Constant Matrix: (Units=GPa)
#
#
# Indices 1 2 3 4 5 6 
#
# 1 36.0050 6.6852 33.5167 0.0000 0.0000 0.0000
# 2 6.6852 260.9100 129.6393 0.0000 0.0000 0.0000
# 3 33.5167 129.6393 197.9022 0.0000 0.0000 0.0000
# 4 0.0000 0.0000 0.0000 16.7199 0.0000 0.0000
# 5 0.0000 0.0000 0.0000 0.0000 17.5639 0.0000
# 6 0.0000 0.0000 0.0000 0.0000 0.0000 1.2382
#
#
#
# Elastic Compliance Matrix: (Units=1/GPa)
#
#
# Indices 1 2 3 4 5 6 
#
# 1 0.034479 0.002992 -0.007799 0.000000 0.000000 0.000000
# 2 0.002992 0.005942 -0.004399 0.000000 0.000000 0.000000
# 3 -0.007799 -0.004399 0.009255 0.000000 0.000000 0.000000
# 4 0.000000 0.000000 0.000000 0.059809 0.000000 0.000000
# 5 0.000000 0.000000 0.000000 0.000000 0.056935 0.000000
# 6 0.000000 0.000000 0.000000 0.000000 0.000000 0.807614
#
#
# Mechanical properties :
#
#
# Convention : Reuss Voigt Hill
#
# Bulk Modulus (GPa) = 31.98647 92.72218 62.35433
# Shear Modulus (GPa) = 4.98570 28.76947 16.87759
#
# Velocity S-wave (km/s) = 1.48859 3.57584 2.73884
# Velocity P-wave (km/s) = 4.14378 7.63277 6.14126
#
# Compressibility (1/GPa) = 0.03126321
#
# Stress axis : x y z
#
# Youngs Moduli (GPa) = 29.00353 168.29881 108.04423
#
# Poissons Ratio (x) = -0.50350 0.84264
# Poissons Ratio (y) = -0.08677 0.47528
# Poissons Ratio (z) = 0.22620 0.74034
#
# Static dielectric constant tensor:
#      x y z
#    x 3.632310 0.000000 0.000000 
#    y 0.000000 7.425730 0.000000 
#    z 0.000000 0.000000 3.858810 
# 
# 
# High freq. dielectric constant tensor:
#      x y z
#    x 1.847700 0.000000 0.000000 
#    y 0.000000 1.928490 0.000000 
#    z 0.000000 0.000000 1.878960 
# 
# From -- ./inp_files/2769.got.cif
#   From: 2010.03.12/outbox.cif.g09.slc.cpg/sg51_2_cif.got.tgz:2769.got - 2010.04.16 13:43:02.
