data_PCOD8213908
_publ_section_title
;
Structure prediction by ZEFSAII (Michael W. Deem and Ramdas Pophale) SiO2 
 PCOD8213908
Probable space group: P M M A
;
_chemical_formula_sum "Si O2"
_cell_formula_units_Z 64
_cell_length_a 8.817649
_cell_length_b 23.680969
_cell_length_c 15.226412
_cell_angle_alpha 90.000000
_cell_angle_beta 90.000000
_cell_angle_gamma 90.000000
_cell_volume 3179.434286
_symmetry_space_group_name_H-M "P M M A"
_symmetry_group_IT_number 51
_symmetry_cell_setting 'orthorhombic'
loop_
_space_group_symop_operation_xyz
x,y,z
1/2-x,-y,z
1/2+x,-y,-z
-x,y,-z
-x,-y,-z
1/2+x,y,-z
1/2-x,y,z
x,-y,z
loop_
_atom_site_type_symbol
_atom_site_label
_atom_site_fract_x
_atom_site_fract_y
_atom_site_fract_z
Si Si1 0.427451 0.183711 0.851427
Si Si2 0.071548 0.061014 0.906030
Si Si3 0.430459 0.703257 0.090521
Si Si4 0.576036 0.652050 0.263259
Si Si5 0.073982 0.938436 0.410853
Si Si6 0.572166 0.565172 0.407523
Si Si7 0.925484 0.828083 0.677764
Si Si8 0.923015 0.738099 0.417736
O O1 0.250000 0.189901 0.871654
O O2 0.491409 0.119521 0.864823
O O3 0.515387 0.231216 0.906673
O O4 0.463227 0.196950 0.750969
O O5 0.250000 0.067598 0.914556
O O6 0.033241 0.000000 0.857509
O O7 0.000000 0.056575 0.000000
O O8 0.250000 0.701226 0.086551
O O9 0.483617 0.665347 0.174002
O O10 0.500000 0.677605 0.000000
O O11 0.750000 0.641882 0.234953
O O12 0.512633 0.598747 0.320691
O O13 0.560691 0.704222 0.328272
O O14 0.250000 0.941295 0.430671
O O15 0.039853 0.894561 0.333397
O O16 0.000000 0.916915 0.500000
O O17 0.010416 0.000000 0.382542
O O18 0.500000 0.585393 0.500000
O O19 0.750000 0.577325 0.417095
O O20 0.533353 0.500000 0.390456
O O21 0.750000 0.816942 0.701145
O O22 0.976082 0.795046 0.590549
O O23 0.750000 0.752301 0.439348
O O24 0.000000 0.705038 0.500000
#
# Coordination Sequence:
#
# PCOD8213908 Si02
#       8
#     8   8   8   8   8   8   8   8
#     4  11  22  37  56  79 110 143 183 235 292 354
#     4   9  19  35  54  76 101 131 170 219 279 349
#     4  12  25  41  63  87 116 154 199 250 304 361
#     4  10  21  38  59  87 123 161 202 248 293 341
#     4   9  19  35  52  70  94 128 174 226 279 338
#     4   9  18  34  59  93 133 175 213 248 289 340
#     4  11  22  35  52  75 104 138 181 230 283 343
#     4  11  22  35  54  79 114 153 190 234 285 341
#
# _framework density 20.129366999999998
#
# number of rings (size 3 to 8) (size 9 to 14) (size 15 to 20)
#    0.000    1.750    1.250    3.375    0.000    5.500 
#    0.000    0.000    0.000    0.375    0.000    0.000 
#    0.000    0.000    0.000    0.000    0.000    0.000 
#
# Total GULP energy -792911.317103 kJ/mol
# GULP energy per Si atom -12389.239330 kJ/mol
# Density = 2.008355 g / cm^3
# Si number density = 20.129367 Si / 1000 Ang^3
#
#
#
# Elastic Constant Matrix: (Units=GPa)
#
#
# Indices 1 2 3 4 5 6 
#
# 1 78.8012 35.9854 49.1697 0.0000 0.0000 0.0000
# 2 35.9854 103.6494 44.1125 0.0000 0.0000 0.0000
# 3 49.1697 44.1125 120.0443 0.0000 0.0000 0.0000
# 4 0.0000 0.0000 0.0000 6.4925 0.0000 0.0000
# 5 0.0000 0.0000 0.0000 0.0000 34.5186 0.0000
# 6 0.0000 0.0000 0.0000 0.0000 0.0000 20.4227
#
#
#
# Elastic Compliance Matrix: (Units=1/GPa)
#
#
# Indices 1 2 3 4 5 6 
#
# 1 0.018185 -0.003726 -0.006079 0.000000 0.000000 0.000000
# 2 -0.003726 0.012200 -0.002957 0.000000 0.000000 0.000000
# 3 -0.006079 -0.002957 0.011907 0.000000 0.000000 0.000000
# 4 0.000000 0.000000 0.000000 0.154025 0.000000 0.000000
# 5 0.000000 0.000000 0.000000 0.000000 0.028970 0.000000
# 6 0.000000 0.000000 0.000000 0.000000 0.000000 0.048965
#
#
# Mechanical properties :
#
#
# Convention : Reuss Voigt Hill
#
# Bulk Modulus (GPa) = 59.64029 62.33667 60.98848
# Shear Modulus (GPa) = 16.37382 23.83525 20.10454
#
# Velocity S-wave (km/s) = 2.85516 3.44481 3.16376
# Velocity P-wave (km/s) = 6.36884 6.84526 6.61134
#
# Compressibility (1/GPa) = 0.01676719
#
# Stress axis : x y z
#
# Youngs Moduli (GPa) = 54.99020 81.96707 83.98533
#
# Poissons Ratio (x) = 0.30543 0.51057
# Poissons Ratio (y) = 0.20491 0.24833
# Poissons Ratio (z) = 0.33430 0.24237
#
# Static dielectric constant tensor:
#      x y z
#    x 3.422510 0.000000 0.000000 
#    y 0.000000 4.048550 0.000000 
#    z 0.000000 0.000000 3.587780 
# 
# 
# High freq. dielectric constant tensor:
#      x y z
#    x 1.780510 0.000000 0.000000 
#    y 0.000000 1.780980 0.000000 
#    z 0.000000 0.000000 1.779720 
# 
# From -- ./inp_files/22197.got.cif
#   From: 2010.03.12/outbox.cif.g09.slc.cpg/sg51_12_cif.got.tgz:22197.got - 2010.04.16 13:43:02.
