data_PCOD8213130
_publ_section_title
;
Structure prediction by ZEFSAII (Michael W. Deem and Ramdas Pophale) SiO2 
 PCOD8213130
Probable space group: P M M A
;
_chemical_formula_sum "Si O2"
_cell_formula_units_Z 48
_cell_length_a 22.894535
_cell_length_b 8.962568
_cell_length_c 12.580898
_cell_angle_alpha 90.000000
_cell_angle_beta 90.000000
_cell_angle_gamma 90.000000
_cell_volume 2581.522605
_symmetry_space_group_name_H-M "P M M A"
_symmetry_group_IT_number 51
_symmetry_cell_setting 'orthorhombic'
loop_
_space_group_symop_operation_xyz
x,y,z
1/2-x,-y,z
1/2+x,-y,-z
-x,y,-z
-x,-y,-z
1/2+x,y,-z
1/2-x,y,z
x,-y,z
loop_
_atom_site_type_symbol
_atom_site_label
_atom_site_fract_x
_atom_site_fract_y
_atom_site_fract_z
Si Si1 0.009439 0.670801 0.620118
Si Si2 0.379757 0.827364 0.709752
Si Si3 0.619170 0.329829 0.691657
Si Si4 0.317083 0.825856 0.119142
Si Si5 0.682549 0.828783 0.506367
Si Si6 0.316541 0.675894 0.901106
O O1 0.031831 0.500000 0.617662
O O2 0.950406 0.685573 0.687573
O O3 0.000000 0.728497 0.500000
O O4 0.056149 0.774812 0.677039
O O5 0.334190 0.798184 0.615195
O O6 0.358935 0.735515 0.810866
O O7 0.382448 0.000000 0.740942
O O8 0.638061 0.500000 0.712840
O O9 0.642837 0.225817 0.784419
O O10 0.644895 0.279842 0.578976
O O11 0.250000 0.787828 0.147303
O O12 0.326144 0.000000 0.100608
O O13 0.337431 0.741986 0.013192
O O14 0.750000 0.789790 0.522245
O O15 0.669476 0.000000 0.537835
O O16 0.250000 0.726082 0.877222
O O17 0.322367 0.500000 0.907301
#
# Coordination Sequence:
#
# PCOD8213130 Si02
#       6
#     8   8   8   8   8   8
#     4  10  21  39  58  79 113 154 194 237 286 338
#     4  11  22  36  58  85 115 150 192 237 284 339
#     4  11  22  36  57  83 112 148 191 237 282 334
#     4  10  21  38  60  85 116 151 186 231 286 341
#     4  10  21  35  52  79 115 149 182 227 282 339
#     4  10  21  38  61  87 116 151 190 232 282 341
#
# _framework density 18.593677
#
# number of rings (size 3 to 8) (size 9 to 14) (size 15 to 20)
#    0.000    1.667    1.667    3.000    0.000    7.333 
#    0.000    0.833    0.000    5.000    0.000    0.000 
#    0.000    0.000    0.000    0.000    0.000    0.000 
#
# Total GULP energy -595498.386821 kJ/mol
# GULP energy per Si atom -12406.216392 kJ/mol
# Density = 1.855136 g / cm^3
# Si number density = 18.593677 Si / 1000 Ang^3
#
#
#
# Elastic Constant Matrix: (Units=GPa)
#
#
# Indices 1 2 3 4 5 6 
#
# 1 60.9904 27.7129 25.6574 0.0000 0.0000 0.0000
# 2 27.7129 76.7176 38.1814 0.0000 0.0000 0.0000
# 3 25.6574 38.1814 97.0554 0.0000 0.0000 0.0000
# 4 0.0000 0.0000 0.0000 37.3960 0.0000 0.0000
# 5 0.0000 0.0000 0.0000 0.0000 23.0266 0.0000
# 6 0.0000 0.0000 0.0000 0.0000 0.0000 30.0208
#
#
#
# Elastic Compliance Matrix: (Units=1/GPa)
#
#
# Indices 1 2 3 4 5 6 
#
# 1 0.020335 -0.005807 -0.003091 0.000000 0.000000 0.000000
# 2 -0.005807 0.017867 -0.005493 0.000000 0.000000 0.000000
# 3 -0.003091 -0.005493 0.013282 0.000000 0.000000 0.000000
# 4 0.000000 0.000000 0.000000 0.026741 0.000000 0.000000
# 5 0.000000 0.000000 0.000000 0.000000 0.043428 0.000000
# 6 0.000000 0.000000 0.000000 0.000000 0.000000 0.033310
#
#
# Mechanical properties :
#
#
# Convention : Reuss Voigt Hill
#
# Bulk Modulus (GPa) = 44.05371 46.42963 45.24167
# Shear Modulus (GPa) = 26.13517 27.63612 26.88565
#
# Velocity S-wave (km/s) = 3.75319 3.85946 3.80670
# Velocity P-wave (km/s) = 6.52121 6.69966 6.61104
#
# Compressibility (1/GPa) = 0.02269956
#
# Stress axis : x y z
#
# Youngs Moduli (GPa) = 49.17597 55.97026 75.29154
#
# Poissons Ratio (x) = 0.32503 0.23274
# Poissons Ratio (y) = 0.28558 0.41361
# Poissons Ratio (z) = 0.15201 0.30747
#
# Static dielectric constant tensor:
#      x y z
#    x 3.395140 0.000000 0.000000 
#    y 0.000000 3.520080 0.000000 
#    z 0.000000 0.000000 3.380930 
# 
# 
# High freq. dielectric constant tensor:
#      x y z
#    x 1.717600 0.000000 0.000000 
#    y 0.000000 1.732410 0.000000 
#    z 0.000000 0.000000 1.723290 
# 
# From -- ./inp_files/18549.got.cif
#   From: 2010.03.12/outbox.cif.g09.slc.cpg/sg51_10_cif.got.tgz:18549.got - 2010.04.16 13:43:02.
