data_PCOD8213895
_publ_section_title
;
Structure prediction by ZEFSAII (Michael W. Deem and Ramdas Pophale) SiO2 
 PCOD8213895
Probable space group: P M M A
;
_chemical_formula_sum "Si O2"
_cell_formula_units_Z 48
_cell_length_a 8.572052
_cell_length_b 30.259733
_cell_length_c 9.473206
_cell_angle_alpha 90.000000
_cell_angle_beta 90.000000
_cell_angle_gamma 90.000000
_cell_volume 2457.236003
_symmetry_space_group_name_H-M "P M M A"
_symmetry_group_IT_number 51
_symmetry_cell_setting 'orthorhombic'
loop_
_space_group_symop_operation_xyz
x,y,z
1/2-x,-y,z
1/2+x,-y,-z
-x,y,-z
-x,-y,-z
1/2+x,y,-z
1/2-x,y,z
x,-y,z
loop_
_atom_site_type_symbol
_atom_site_label
_atom_site_fract_x
_atom_site_fract_y
_atom_site_fract_z
Si Si1 0.929366 0.450307 0.653804
Si Si2 0.934203 0.284681 0.846688
Si Si3 0.065610 0.872434 0.844335
Si Si4 0.065416 0.950397 0.649739
Si Si5 0.567364 0.379061 0.147921
Si Si6 0.934768 0.209394 0.343880
O O1 0.750000 0.434354 0.652849
O O2 0.941599 0.500000 0.715446
O O3 0.000000 0.449093 0.500000
O O4 0.035764 0.417852 0.743411
O O5 0.750000 0.280032 0.851545
O O6 0.981851 0.334270 0.804973
O O7 0.002071 0.254017 0.724867
O O8 0.000000 0.271109 0.000000
O O9 0.250000 0.872372 0.853833
O O10 0.004334 0.917670 0.771876
O O11 0.006048 0.831543 0.750629
O O12 0.000000 0.868208 0.000000
O O13 0.250000 0.948729 0.639524
O O14 0.000000 0.934132 0.500000
O O15 0.006125 0.000000 0.684945
O O16 0.750000 0.369296 0.134986
O O17 0.500000 0.395686 0.000000
O O18 0.750000 0.211371 0.351174
O O19 0.000000 0.203607 0.500000
#
# Coordination Sequence:
#
# PCOD8213895 Si02
#       6
#     8   8   8   8   8   8
#     4  10  21  38  59  84 115 151 191 235 283 334
#     4  11  22  39  61  85 114 147 184 227 278 333
#     4  10  22  37  55  80 111 146 184 228 276 329
#     4   9  18  34  55  80 110 144 183 227 275 327
#     4  11  22  38  60  86 116 150 189 232 280 333
#     4  11  23  39  58  83 112 144 185 230 279 332
#
# _framework density 19.534144000000001
#
# number of rings (size 3 to 8) (size 9 to 14) (size 15 to 20)
#    0.000    1.667    0.000    6.000    0.000    5.667 
#    0.000    3.333    0.000    0.000    0.000    0.000 
#    0.000    0.000    0.000    0.000    0.000    0.000 
#
# Total GULP energy -595346.353422 kJ/mol
# GULP energy per Si atom -12403.049030 kJ/mol
# Density = 1.948968 g / cm^3
# Si number density = 19.534144 Si / 1000 Ang^3
#
#
#
# Elastic Constant Matrix: (Units=GPa)
#
#
# Indices 1 2 3 4 5 6 
#
# 1 73.9469 25.6447 36.2515 0.0000 0.0000 0.0000
# 2 25.6447 109.9777 82.4108 0.0000 0.0000 0.0000
# 3 36.2515 82.4108 145.6375 0.0000 0.0000 0.0000
# 4 0.0000 0.0000 0.0000 57.4256 0.0000 0.0000
# 5 0.0000 0.0000 0.0000 0.0000 36.7672 0.0000
# 6 0.0000 0.0000 0.0000 0.0000 0.0000 26.2434
#
#
#
# Elastic Compliance Matrix: (Units=1/GPa)
#
#
# Indices 1 2 3 4 5 6 
#
# 1 0.015502 -0.001256 -0.003148 0.000000 0.000000 0.000000
# 2 -0.001256 0.015888 -0.008678 0.000000 0.000000 0.000000
# 3 -0.003148 -0.008678 0.012561 0.000000 0.000000 0.000000
# 4 0.000000 0.000000 0.000000 0.017414 0.000000 0.000000
# 5 0.000000 0.000000 0.000000 0.000000 0.027198 0.000000
# 6 0.000000 0.000000 0.000000 0.000000 0.000000 0.038105
#
#
# Mechanical properties :
#
#
# Convention : Reuss Voigt Hill
#
# Bulk Modulus (GPa) = 56.22048 68.68623 62.45336
# Shear Modulus (GPa) = 31.49393 36.43759 33.96576
#
# Velocity S-wave (km/s) = 4.01964 4.32363 4.17440
# Velocity P-wave (km/s) = 7.09834 7.75651 7.43471
#
# Compressibility (1/GPa) = 0.01778711
#
# Stress axis : x y z
#
# Youngs Moduli (GPa) = 64.50768 62.93893 79.61419
#
# Poissons Ratio (x) = 0.07904 0.25063
# Poissons Ratio (y) = 0.08101 0.69090
# Poissons Ratio (z) = 0.20308 0.54619
#
# Static dielectric constant tensor:
#      x y z
#    x 3.578970 0.000000 0.000000 
#    y 0.000000 3.835720 0.000000 
#    z 0.000000 0.000000 3.380630 
# 
# 
# High freq. dielectric constant tensor:
#      x y z
#    x 1.768670 0.000000 0.000000 
#    y 0.000000 1.773300 0.000000 
#    z 0.000000 0.000000 1.761380 
# 
# From -- ./inp_files/6052.got.cif
#   From: 2010.03.12/outbox.cif.g09.slc.cpg/sg51_4_cif.got.tgz:6052.got - 2010.04.16 13:43:02.
