data_PCOD8213560
_publ_section_title
;
Structure prediction by ZEFSAII (Michael W. Deem and Ramdas Pophale) SiO2 
 PCOD8213560
Probable space group: P M M A
;
_chemical_formula_sum "Si O2"
_cell_formula_units_Z 56
_cell_length_a 8.887154
_cell_length_b 14.378196
_cell_length_c 23.116559
_cell_angle_alpha 90.000000
_cell_angle_beta 90.000000
_cell_angle_gamma 90.000000
_cell_volume 2953.862622
_symmetry_space_group_name_H-M "P M M A"
_symmetry_group_IT_number 51
_symmetry_cell_setting 'orthorhombic'
loop_
_space_group_symop_operation_xyz
x,y,z
1/2-x,-y,z
1/2+x,-y,-z
-x,y,-z
-x,-y,-z
1/2+x,y,-z
1/2-x,y,z
x,-y,z
loop_
_atom_site_type_symbol
_atom_site_label
_atom_site_fract_x
_atom_site_fract_y
_atom_site_fract_z
Si Si1 0.577847 0.107075 0.272514
Si Si2 0.573887 0.893810 0.609402
Si Si3 0.074123 0.393785 0.212281
Si Si4 0.926562 0.724180 0.442144
Si Si5 0.926803 0.777506 0.161085
Si Si6 0.572904 0.894080 0.939175
Si Si7 0.578611 0.391928 0.655391
O O1 0.750000 0.128638 0.290067
O O2 0.471438 0.134979 0.325605
O O3 0.524916 0.166610 0.218118
O O4 0.557120 0.000000 0.255226
O O5 0.750000 0.877864 0.601601
O O6 0.485263 0.829707 0.564427
O O7 0.526452 0.000000 0.597075
O O8 0.250000 0.374436 0.203618
O O9 0.035156 0.500000 0.196327
O O10 0.028191 0.373491 0.278701
O O11 0.979134 0.328800 0.169291
O O12 0.750000 0.724078 0.449952
O O13 0.000000 0.680720 0.500000
O O14 0.969459 0.664283 0.386370
O O15 0.750000 0.782029 0.149751
O O16 0.010604 0.822538 0.107368
O O17 0.750000 0.881583 0.944510
O O18 0.530128 0.000000 0.921739
O O19 0.500000 0.867447 0.000000
O O20 0.750000 0.358459 0.645733
O O21 0.563870 0.500000 0.640436
#
# Coordination Sequence:
#
# PCOD8213560 Si02
#       7
#     8   8   8   8   8   8   8
#     4   9  18  32  50  76 110 143 174 212 262 319
#     4  10  21  37  56  77 103 136 174 218 268 321
#     4   9  19  36  57  81 110 144 180 220 268 321
#     4  12  25  39  56  77 103 136 175 219 265 318
#     4  11  21  32  52  82 114 147 183 225 270 316
#     4  10  21  37  57  81 112 151 192 231 270 315
#     4   9  19  38  62  85 110 139 172 215 268 323
#
# _framework density 18.958227999999998
#
# number of rings (size 3 to 8) (size 9 to 14) (size 15 to 20)
#    0.000    2.000    0.000    4.714    0.000    7.429 
#    0.000    2.857    0.000    0.429    0.000    0.000 
#    0.000    0.000    0.000    0.000    0.000    0.000 
#
# Total GULP energy -694630.041635 kJ/mol
# GULP energy per Si atom -12404.107886 kJ/mol
# Density = 1.891508 g / cm^3
# Si number density = 18.958228 Si / 1000 Ang^3
#
#
#
# Elastic Constant Matrix: (Units=GPa)
#
#
# Indices 1 2 3 4 5 6 
#
# 1 98.7101 39.7759 47.7066 0.0000 0.0000 0.0000
# 2 39.7759 87.0901 53.4501 0.0000 0.0000 0.0000
# 3 47.7066 53.4501 84.7984 0.0000 0.0000 0.0000
# 4 0.0000 0.0000 0.0000 22.6051 0.0000 0.0000
# 5 0.0000 0.0000 0.0000 0.0000 33.4763 0.0000
# 6 0.0000 0.0000 0.0000 0.0000 0.0000 30.5446
#
#
#
# Elastic Compliance Matrix: (Units=1/GPa)
#
#
# Indices 1 2 3 4 5 6 
#
# 1 0.014264 -0.002593 -0.006391 0.000000 0.000000 0.000000
# 2 -0.002593 0.019198 -0.010642 0.000000 0.000000 0.000000
# 3 -0.006391 -0.010642 0.022096 0.000000 0.000000 0.000000
# 4 0.000000 0.000000 0.000000 0.044238 0.000000 0.000000
# 5 0.000000 0.000000 0.000000 0.000000 0.029872 0.000000
# 6 0.000000 0.000000 0.000000 0.000000 0.000000 0.032739
#
#
# Mechanical properties :
#
#
# Convention : Reuss Voigt Hill
#
# Bulk Modulus (GPa) = 61.32330 61.38485 61.35407
# Shear Modulus (GPa) = 24.14373 25.96961 25.05667
#
# Velocity S-wave (km/s) = 3.57252 3.70514 3.63943
# Velocity P-wave (km/s) = 7.03093 7.12414 7.07769
#
# Compressibility (1/GPa) = 0.01630702
#
# Stress axis : x y z
#
# Youngs Moduli (GPa) = 70.10692 52.08883 45.25702
#
# Poissons Ratio (x) = 0.13504 0.28922
# Poissons Ratio (y) = 0.18175 0.48164
# Poissons Ratio (z) = 0.44803 0.55435
#
# Static dielectric constant tensor:
#      x y z
#    x 3.417100 0.000000 0.000000 
#    y 0.000000 3.522310 0.000000 
#    z 0.000000 0.000000 3.391410 
# 
# 
# High freq. dielectric constant tensor:
#      x y z
#    x 1.740270 0.000000 0.000000 
#    y 0.000000 1.739410 0.000000 
#    z 0.000000 0.000000 1.723480 
# 
# From -- ./inp_files/31907.got.cif
#   From: 2010.03.12/outbox.cif.g09.slc.cpg/sg51_16_cif.got.tgz:31907.got - 2010.04.16 13:43:02.
