data_PCOD8213853
_publ_section_title
;
Structure prediction by ZEFSAII (Michael W. Deem and Ramdas Pophale) SiO2 
 PCOD8213853
Probable space group: P M M A
;
_chemical_formula_sum "Si O2"
_cell_formula_units_Z 48
_cell_length_a 8.658123
_cell_length_b 30.107728
_cell_length_c 9.184041
_cell_angle_alpha 90.000000
_cell_angle_beta 90.000000
_cell_angle_gamma 90.000000
_cell_volume 2394.062858
_symmetry_space_group_name_H-M "P M M A"
_symmetry_group_IT_number 51
_symmetry_cell_setting 'orthorhombic'
loop_
_space_group_symop_operation_xyz
x,y,z
1/2-x,-y,z
1/2+x,-y,-z
-x,y,-z
-x,-y,-z
1/2+x,y,-z
1/2-x,y,z
x,-y,z
loop_
_atom_site_type_symbol
_atom_site_label
_atom_site_fract_x
_atom_site_fract_y
_atom_site_fract_z
Si Si1 0.431070 0.345339 0.345882
Si Si2 0.933016 0.000000 0.160174
Si Si3 0.567468 0.084498 0.340401
Si Si4 0.566758 0.580476 0.159035
Si Si5 0.067632 0.831369 0.842731
Si Si6 0.066230 0.500000 0.339917
Si Si7 0.070008 0.757693 0.346904
O O1 0.500000 0.360896 0.500000
O O2 0.250000 0.356037 0.343980
O O3 0.516953 0.371327 0.217432
O O4 0.466023 0.293773 0.318462
O O5 0.994064 0.956752 0.245495
O O6 0.750000 0.000000 0.149020
O O7 0.000000 0.000000 0.000000
O O8 0.500000 0.081313 0.500000
O O9 0.750000 0.083143 0.352080
O O10 0.510526 0.129781 0.264752
O O11 0.750000 0.576064 0.155662
O O12 0.494282 0.543698 0.261952
O O13 0.500000 0.573126 0.000000
O O14 0.250000 0.829640 0.854727
O O15 0.006928 0.784400 0.784314
O O16 0.000000 0.841405 0.000000
O O17 0.250000 0.500000 0.342396
O O18 0.000000 0.500000 0.500000
O O19 0.250000 0.767829 0.351001
O O20 0.000000 0.773573 0.500000
#
# Coordination Sequence:
#
# PCOD8213853 Si02
#       7
#     8   4   8   8   8   4   8
#     4  10  21  39  62  89 119 155 197 241 290 346
#     4  10  21  38  58  84 116 148 187 232 284 340
#     4  10  22  38  58  84 113 148 190 236 284 342
#     4  12  25  42  63  90 123 159 198 243 295 349
#     4  11  23  38  57  83 115 151 193 239 292 348
#     4  12  25  44  67  92 122 158 200 244 291 346
#     4  10  21  38  61  87 117 153 195 241 290 345
#
# _framework density 20.049600000000002
#
# number of rings (size 3 to 8) (size 9 to 14) (size 15 to 20)
#    0.000    1.333    0.000    5.750    0.000    6.000 
#    0.000    0.000    0.000    0.000    0.000    0.000 
#    0.000    0.000    0.000    0.000    0.000    0.000 
#
# Total GULP energy -595522.516367 kJ/mol
# GULP energy per Si atom -12406.719091 kJ/mol
# Density = 2.000397 g / cm^3
# Si number density = 20.049600 Si / 1000 Ang^3
#
#
#
# Elastic Constant Matrix: (Units=GPa)
#
#
# Indices 1 2 3 4 5 6 
#
# 1 118.0926 54.2606 62.7789 0.0000 0.0000 0.0000
# 2 54.2606 112.3986 75.6992 0.0000 0.0000 0.0000
# 3 62.7789 75.6992 178.6813 0.0000 0.0000 0.0000
# 4 0.0000 0.0000 0.0000 15.5224 0.0000 0.0000
# 5 0.0000 0.0000 0.0000 0.0000 43.8035 0.0000
# 6 0.0000 0.0000 0.0000 0.0000 0.0000 26.2451
#
#
#
# Elastic Compliance Matrix: (Units=1/GPa)
#
#
# Indices 1 2 3 4 5 6 
#
# 1 0.011560 -0.003981 -0.002375 0.000000 0.000000 0.000000
# 2 -0.003981 0.013820 -0.004456 0.000000 0.000000 0.000000
# 3 -0.002375 -0.004456 0.008319 0.000000 0.000000 0.000000
# 4 0.000000 0.000000 0.000000 0.064423 0.000000 0.000000
# 5 0.000000 0.000000 0.000000 0.000000 0.022829 0.000000
# 6 0.000000 0.000000 0.000000 0.000000 0.000000 0.038102
#
#
# Mechanical properties :
#
#
# Convention : Reuss Voigt Hill
#
# Bulk Modulus (GPa) = 82.82036 88.29443 85.55740
# Shear Modulus (GPa) = 27.07067 31.54312 29.30690
#
# Velocity S-wave (km/s) = 3.67847 3.97073 3.82739
# Velocity P-wave (km/s) = 7.70967 8.07192 7.89287
#
# Compressibility (1/GPa) = 0.01207433
#
# Stress axis : x y z
#
# Youngs Moduli (GPa) = 86.50842 72.35942 120.20935
#
# Poissons Ratio (x) = 0.28806 0.28548
# Poissons Ratio (y) = 0.34439 0.53567
# Poissons Ratio (z) = 0.20544 0.32245
#
# Static dielectric constant tensor:
#      x y z
#    x 3.718370 0.000000 0.000000 
#    y 0.000000 3.895620 0.000000 
#    z 0.000000 0.000000 3.692260 
# 
# 
# High freq. dielectric constant tensor:
#      x y z
#    x 1.792340 0.000000 0.000000 
#    y 0.000000 1.797820 0.000000 
#    z 0.000000 0.000000 1.792490 
# 
# From -- ./inp_files/6125.got.cif
#   From: 2010.03.12/outbox.cif.g09.slc.cpg/sg51_4_cif.got.tgz:6125.got - 2010.04.16 13:43:02.
