data_PCOD8213749
_publ_section_title
;
Structure prediction by ZEFSAII (Michael W. Deem and Ramdas Pophale) SiO2 
 PCOD8213749
Probable space group: P M M A
;
_chemical_formula_sum "Si O2"
_cell_formula_units_Z 48
_cell_length_a 20.867808
_cell_length_b 22.508458
_cell_length_c 5.120898
_cell_angle_alpha 90.000000
_cell_angle_beta 90.000000
_cell_angle_gamma 90.000000
_cell_volume 2405.296954
_symmetry_space_group_name_H-M "P M M A"
_symmetry_group_IT_number 51
_symmetry_cell_setting 'orthorhombic'
loop_
_space_group_symop_operation_xyz
x,y,z
1/2-x,-y,z
1/2+x,-y,-z
-x,y,-z
-x,-y,-z
1/2+x,y,-z
1/2-x,y,z
x,-y,z
loop_
_atom_site_type_symbol
_atom_site_label
_atom_site_fract_x
_atom_site_fract_y
_atom_site_fract_z
Si Si1 0.936064 0.068457 0.157524
Si Si2 0.826149 0.636217 0.973967
Si Si3 0.325625 0.229411 0.086547
Si Si4 0.826505 0.567081 0.473124
Si Si5 0.636958 0.840795 0.430701
Si Si6 0.318961 0.935081 0.221149
O O1 0.928477 0.119342 0.382372
O O2 0.936964 0.000000 0.264701
O O3 0.874408 0.081633 0.979586
O O4 0.000000 0.081737 0.000000
O O5 0.750000 0.634535 0.976834
O O6 0.849638 0.704053 0.969812
O O7 0.853850 0.603328 0.227500
O O8 0.853198 0.600536 0.726752
O O9 0.250000 0.227395 0.159114
O O10 0.337750 0.190619 0.829419
O O11 0.368432 0.206876 0.332245
O O12 0.750000 0.566329 0.471389
O O13 0.853146 0.500000 0.467113
O O14 0.686393 0.890104 0.536501
O O15 0.250000 0.933034 0.075455
O O16 0.332714 0.000000 0.340025
#
# Coordination Sequence:
#
# PCOD8213749 Si02
#       6
#     8   8   8   8   8   8
#     4  10  23  43  64  85 112 146 186 235 292 353
#     4   9  17  28  40  62  95 134 178 225 273 318
#     4  11  22  34  52  76 109 146 184 231 282 338
#     4   9  15  24  40  61  89 130 183 233 268 307
#     4  12  22  37  56  80 106 141 186 229 285 336
#     4  10  21  37  58  85 114 141 178 235 291 337
#
# _framework density 19.955956
#
# number of rings (size 3 to 8) (size 9 to 14) (size 15 to 20)
#    0.000    1.833    1.667    3.500    0.000    6.667 
#    0.000    4.167    0.000    0.000    0.000    0.000 
#    0.000    0.000    0.000    0.000    0.000   58.333 
#
# Total GULP energy -594666.187686 kJ/mol
# GULP energy per Si atom -12388.878910 kJ/mol
# Density = 1.991054 g / cm^3
# Si number density = 19.955956 Si / 1000 Ang^3
#
#
#
# Elastic Constant Matrix: (Units=GPa)
#
#
# Indices 1 2 3 4 5 6 
#
# 1 49.4003 11.2009 16.2895 0.0000 0.0000 0.0000
# 2 11.2009 169.5654 51.8095 0.0000 0.0000 0.0000
# 3 16.2895 51.8095 114.5661 0.0000 0.0000 0.0000
# 4 0.0000 0.0000 0.0000 27.4900 0.0000 0.0000
# 5 0.0000 0.0000 0.0000 0.0000 10.3581 0.0000
# 6 0.0000 0.0000 0.0000 0.0000 0.0000 12.4466
#
#
#
# Elastic Compliance Matrix: (Units=1/GPa)
#
#
# Indices 1 2 3 4 5 6 
#
# 1 0.021284 -0.000558 -0.002774 0.000000 0.000000 0.000000
# 2 -0.000558 0.006858 -0.003022 0.000000 0.000000 0.000000
# 3 -0.002774 -0.003022 0.010489 0.000000 0.000000 0.000000
# 4 0.000000 0.000000 0.000000 0.036377 0.000000 0.000000
# 5 0.000000 0.000000 0.000000 0.000000 0.096542 0.000000
# 6 0.000000 0.000000 0.000000 0.000000 0.000000 0.080343
#
#
# Mechanical properties :
#
#
# Convention : Reuss Voigt Hill
#
# Bulk Modulus (GPa) = 38.57542 54.68129 46.62836
# Shear Modulus (GPa) = 18.29877 27.00775 22.65326
#
# Velocity S-wave (km/s) = 3.03142 3.68281 3.37287
# Velocity P-wave (km/s) = 5.62360 6.74867 6.21166
#
# Compressibility (1/GPa) = 0.02592324
#
# Stress axis : x y z
#
# Youngs Moduli (GPa) = 46.98358 145.82368 95.33359
#
# Poissons Ratio (x) = 0.08144 0.26443
# Poissons Ratio (y) = 0.02624 0.28808
# Poissons Ratio (z) = 0.13032 0.44065
#
# Static dielectric constant tensor:
#      x y z
#    x 3.131620 0.000000 0.000000 
#    y 0.000000 4.018870 0.000000 
#    z 0.000000 0.000000 3.793480 
# 
# 
# High freq. dielectric constant tensor:
#      x y z
#    x 1.703440 0.000000 0.000000 
#    y 0.000000 1.795510 0.000000 
#    z 0.000000 0.000000 1.788260 
# 
# From -- ./inp_files/2537.got.cif
#   From: 2010.03.12/outbox.cif.g09.slc.cpg/sg51_2_cif.got.tgz:2537.got - 2010.04.16 13:43:02.
