data_PCOD8213542
_publ_section_title
;
Structure prediction by ZEFSAII (Michael W. Deem and Ramdas Pophale) SiO2 
 PCOD8213542
Probable space group: P M M A
;
_chemical_formula_sum "Si O2"
_cell_formula_units_Z 52
_cell_length_a 9.170103
_cell_length_b 13.260437
_cell_length_c 22.444345
_cell_angle_alpha 90.000000
_cell_angle_beta 90.000000
_cell_angle_gamma 90.000000
_cell_volume 2729.222771
_symmetry_space_group_name_H-M "P M M A"
_symmetry_group_IT_number 51
_symmetry_cell_setting 'orthorhombic'
loop_
_space_group_symop_operation_xyz
x,y,z
1/2-x,-y,z
1/2+x,-y,-z
-x,y,-z
-x,-y,-z
1/2+x,y,-z
1/2-x,y,z
x,-y,z
loop_
_atom_site_type_symbol
_atom_site_label
_atom_site_fract_x
_atom_site_fract_y
_atom_site_fract_z
Si Si1 0.419938 0.113974 0.438714
Si Si2 0.083021 0.113621 0.183122
Si Si3 0.918615 0.612484 0.868066
Si Si4 0.076774 0.707744 0.761197
Si Si5 0.578947 0.694773 0.638722
Si Si6 0.082816 0.800411 0.058702
Si Si7 0.580696 0.500000 0.561812
O O1 0.500000 0.138084 0.500000
O O2 0.250000 0.124003 0.452278
O O3 0.467036 0.197965 0.390531
O O4 0.457965 0.000000 0.415869
O O5 0.250000 0.148110 0.194538
O O6 0.047566 0.123832 0.112914
O O7 0.975646 0.179856 0.222757
O O8 0.057971 0.000000 0.203629
O O9 0.750000 0.632388 0.850696
O O10 0.944141 0.500000 0.891952
O O11 0.965813 0.688172 0.920723
O O12 0.015212 0.629370 0.809512
O O13 0.250000 0.702854 0.760691
O O14 0.015318 0.677532 0.697381
O O15 0.750000 0.694268 0.654706
O O16 0.536914 0.601361 0.596743
O O17 0.250000 0.802942 0.040785
O O18 0.000000 0.835812 0.000000
O O19 0.750000 0.500000 0.547702
O O20 0.500000 0.500000 0.500000
#
# Coordination Sequence:
#
# PCOD8213542 Si02
#       7
#     8   8   8   8   8   8   4
#     4   9  18  33  54  78 104 135 173 218 266 318
#     4   9  19  38  60  78 104 147 190 224 267 328
#     4   9  19  37  58  75 100 143 186 223 268 327
#     4  11  23  36  53  82 113 138 174 229 282 323
#     4  10  21  37  55  78 108 146 188 221 266 334
#     4   9  18  32  51  79 110 140 178 222 270 325
#     4  10  22  38  58  82 110 146 185 230 277 328
#
# _framework density 19.053044
#
# number of rings (size 3 to 8) (size 9 to 14) (size 15 to 20)
#    0.000    2.462    0.000    2.769    1.077    5.538 
#    0.000    1.538    0.000    0.000    0.000    0.000 
#    0.000    0.000    0.000    0.000    0.000    0.000 
#
# Total GULP energy -644763.671457 kJ/mol
# GULP energy per Si atom -12399.301374 kJ/mol
# Density = 1.900968 g / cm^3
# Si number density = 19.053044 Si / 1000 Ang^3
#
#
#
# Elastic Constant Matrix: (Units=GPa)
#
#
# Indices 1 2 3 4 5 6 
#
# 1 70.9332 14.5739 43.1154 0.0000 0.0000 0.0000
# 2 14.5739 82.0286 8.3934 0.0000 0.0000 0.0000
# 3 43.1154 8.3934 90.3614 0.0000 0.0000 0.0000
# 4 0.0000 0.0000 0.0000 -0.9371 0.0000 0.0000
# 5 0.0000 0.0000 0.0000 0.0000 35.7299 0.0000
# 6 0.0000 0.0000 0.0000 0.0000 0.0000 20.1272
#
#
#
# Elastic Compliance Matrix: (Units=1/GPa)
#
#
# Indices 1 2 3 4 5 6 
#
# 1 0.020414 -0.002655 -0.009494 0.000000 0.000000 0.000000
# 2 -0.002655 0.012653 0.000092 0.000000 0.000000 0.000000
# 3 -0.009494 0.000092 0.015588 0.000000 0.000000 0.000000
# 4 0.000000 0.000000 0.000000 -1.067140 0.000000 0.000000
# 5 0.000000 0.000000 0.000000 0.000000 0.027988 0.000000
# 6 0.000000 0.000000 0.000000 0.000000 0.000000 0.049684
#
#
# Mechanical properties :
#
#
# Convention : Reuss Voigt Hill
#
# Bulk Modulus (GPa) = 40.74936 41.72096 41.23516
# Shear Modulus (GPa) = -5.50347 22.80003 8.64828
#
# Velocity S-wave (km/s) = -1.70140 3.46303 2.13282
# Velocity P-wave (km/s) = 4.19214 6.15913 5.26825
#
# Compressibility (1/GPa) = 0.02454027
#
# Stress axis : x y z
#
# Youngs Moduli (GPa) = 48.98605 79.03094 64.15168
#
# Poissons Ratio (x) = 0.20986 0.60904
# Poissons Ratio (y) = 0.13008 -0.00588
# Poissons Ratio (z) = 0.46506 -0.00725
#
# Static dielectric constant tensor:
#      x y z
#    x 3.337050 0.000000 0.000000 
#    y 0.000000 3.748890 0.000000 
#    z 0.000000 0.000000 3.312680 
# 
# 
# High freq. dielectric constant tensor:
#      x y z
#    x 1.727050 0.000000 0.000000 
#    y 0.000000 1.752320 0.000000 
#    z 0.000000 0.000000 1.733040 
# 
# From -- ./inp_files/31716.got.cif
#   From: 2010.03.12/outbox.cif.g09.slc.cpg/sg51_16_cif.got.tgz:31716.got - 2010.04.16 13:43:02.
