data_PCOD8213074
_publ_section_title
;
Structure prediction by ZEFSAII (Michael W. Deem and Ramdas Pophale) SiO2 
 PCOD8213074
Probable space group: P M M A
;
_chemical_formula_sum "Si O2"
_cell_formula_units_Z 44
_cell_length_a 9.554162
_cell_length_b 28.208063
_cell_length_c 9.119000
_cell_angle_alpha 90.000000
_cell_angle_beta 90.000000
_cell_angle_gamma 90.000000
_cell_volume 2457.610657
_symmetry_space_group_name_H-M "P M M A"
_symmetry_group_IT_number 51
_symmetry_cell_setting 'orthorhombic'
loop_
_space_group_symop_operation_xyz
x,y,z
1/2-x,-y,z
1/2+x,-y,-z
-x,y,-z
-x,-y,-z
1/2+x,y,-z
1/2-x,y,z
x,-y,z
loop_
_atom_site_type_symbol
_atom_site_label
_atom_site_fract_x
_atom_site_fract_y
_atom_site_fract_z
Si Si1 0.086333 0.000000 0.350294
Si Si2 0.086922 0.176488 0.352653
Si Si3 0.413181 0.088580 0.149116
Si Si4 0.409867 0.447851 0.356791
Si Si5 0.911608 0.632822 0.858497
Si Si6 0.411413 0.260101 0.144075
O O1 0.044810 0.045525 0.254837
O O2 0.000000 0.000000 0.500000
O O3 0.250000 0.000000 0.391101
O O4 0.250000 0.174327 0.394796
O O5 0.048182 0.136345 0.235108
O O6 0.045267 0.226466 0.278691
O O7 0.000000 0.169037 0.500000
O O8 0.250000 0.086614 0.107209
O O9 0.500000 0.085756 0.000000
O O10 0.500000 0.446149 0.500000
O O11 0.250000 0.438122 0.400487
O O12 0.425294 0.500000 0.281423
O O13 0.466510 0.405752 0.255918
O O14 0.750000 0.624635 0.896939
O O15 0.938346 0.686224 0.800920
O O16 0.000000 0.622621 0.000000
O O17 0.250000 0.251811 0.100936
O O18 0.500000 0.247787 0.000000
#
# Coordination Sequence:
#
# PCOD8213074 Si02
#       6
#     4   8   8   8   8   8
#     4  10  21  36  54  78 106 134 167 206 246 290
#     4  10  21  35  51  74 102 130 163 202 243 288
#     4  10  21  36  54  77 103 132 168 206 244 290
#     4   9  18  32  48  67  93 124 157 194 236 282
#     4   9  18  32  49  70  96 124 156 196 239 283
#     4   9  18  33  51  71  96 126 160 197 238 286
#
# _framework density 17.903566999999999
#
# number of rings (size 3 to 8) (size 9 to 14) (size 15 to 20)
#    0.000    2.545    0.000    1.364    0.000    4.000 
#    0.000    0.000    0.000    0.000    0.000    0.000 
#    0.000    0.000    0.000    0.000    0.000    0.000 
#
# Total GULP energy -545576.259475 kJ/mol
# GULP energy per Si atom -12399.460443 kJ/mol
# Density = 1.786282 g / cm^3
# Si number density = 17.903567 Si / 1000 Ang^3
#
#
#
# Elastic Constant Matrix: (Units=GPa)
#
#
# Indices 1 2 3 4 5 6 
#
# 1 58.6709 48.9471 63.3609 0.0000 0.0000 0.0000
# 2 48.9471 137.4870 82.0781 0.0000 0.0000 0.0000
# 3 63.3609 82.0781 130.8375 0.0000 0.0000 0.0000
# 4 0.0000 0.0000 0.0000 31.2576 0.0000 0.0000
# 5 0.0000 0.0000 0.0000 0.0000 38.2450 0.0000
# 6 0.0000 0.0000 0.0000 0.0000 0.0000 21.7805
#
#
#
# Elastic Compliance Matrix: (Units=1/GPa)
#
#
# Indices 1 2 3 4 5 6 
#
# 1 0.037033 -0.003961 -0.015449 0.000000 0.000000 0.000000
# 2 -0.003961 0.012052 -0.005642 0.000000 0.000000 0.000000
# 3 -0.015449 -0.005642 0.018664 0.000000 0.000000 0.000000
# 4 0.000000 0.000000 0.000000 0.031992 0.000000 0.000000
# 5 0.000000 0.000000 0.000000 0.000000 0.026147 0.000000
# 6 0.000000 0.000000 0.000000 0.000000 0.000000 0.045913
#
#
# Mechanical properties :
#
#
# Convention : Reuss Voigt Hill
#
# Bulk Modulus (GPa) = 56.67639 79.52974 68.10307
# Shear Modulus (GPa) = 21.95030 27.09725 24.52377
#
# Velocity S-wave (km/s) = 3.50527 3.89461 3.70506
# Velocity P-wave (km/s) = 6.93597 8.04621 7.51163
#
# Compressibility (1/GPa) = 0.01764403
#
# Stress axis : x y z
#
# Youngs Moduli (GPa) = 27.00300 82.97346 53.57889
#
# Poissons Ratio (x) = 0.32869 0.82774
# Poissons Ratio (y) = 0.10697 0.30230
# Poissons Ratio (z) = 0.41717 0.46815
#
# Static dielectric constant tensor:
#      x y z
#    x 3.284590 0.000000 0.000000 
#    y 0.000000 3.754840 0.000000 
#    z 0.000000 0.000000 3.124740 
# 
# 
# High freq. dielectric constant tensor:
#      x y z
#    x 1.690500 0.000000 0.000000 
#    y 0.000000 1.715500 0.000000 
#    z 0.000000 0.000000 1.680780 
# 
# From -- ./inp_files/5822.got.cif
#   From: 2010.03.12/outbox.cif.g09.slc.cpg/sg51_3_cif.got.tgz:5822.got - 2010.04.16 13:43:02.
