data_PCOD8213991
_publ_section_title
;
Structure prediction by ZEFSAII (Michael W. Deem and Ramdas Pophale) SiO2 
 PCOD8213991
Probable space group: P M M A
;
_chemical_formula_sum "Si O2"
_cell_formula_units_Z 48
_cell_length_a 8.624872
_cell_length_b 18.482902
_cell_length_c 15.381570
_cell_angle_alpha 90.000000
_cell_angle_beta 90.000000
_cell_angle_gamma 90.000000
_cell_volume 2452.017049
_symmetry_space_group_name_H-M "P M M A"
_symmetry_group_IT_number 51
_symmetry_cell_setting 'orthorhombic'
loop_
_space_group_symop_operation_xyz
x,y,z
1/2-x,-y,z
1/2+x,-y,-z
-x,y,-z
-x,-y,-z
1/2+x,y,-z
1/2-x,y,z
x,-y,z
loop_
_atom_site_type_symbol
_atom_site_label
_atom_site_fract_x
_atom_site_fract_y
_atom_site_fract_z
Si Si1 0.068940 0.831757 0.247817
Si Si2 0.566913 0.418461 0.410408
Si Si3 0.432752 0.674697 0.752804
Si Si4 0.067551 0.081588 0.910229
Si Si5 0.930728 0.083655 0.406559
Si Si6 0.569637 0.584301 0.906919
O O1 0.250000 0.842934 0.234911
O O2 0.028231 0.748005 0.247554
O O3 0.981702 0.868871 0.168743
O O4 0.017705 0.866998 0.337841
O O5 0.500000 0.385952 0.500000
O O6 0.750000 0.418237 0.415956
O O7 0.503657 0.500000 0.396101
O O8 0.509220 0.369736 0.330954
O O9 0.250000 0.690774 0.749896
O O10 0.472005 0.629120 0.837800
O O11 0.250000 0.082435 0.917277
O O12 0.005251 0.000000 0.894814
O O13 0.000000 0.113325 0.000000
O O14 0.750000 0.102679 0.406045
O O15 0.000000 0.102536 0.500000
O O16 0.959559 0.000000 0.382661
O O17 0.750000 0.605824 0.903838
O O18 0.545315 0.500000 0.886559
O O19 0.500000 0.604680 0.000000
#
# Coordination Sequence:
#
# PCOD8213991 Si02
#       6
#     8   8   8   8   8   8
#     4  12  25  39  57  84 119 156 194 236 287 345
#     4   9  19  36  59  85 111 143 184 230 279 331
#     4  11  23  39  58  82 116 154 193 237 286 340
#     4  10  21  39  63  89 116 148 189 236 285 339
#     4  10  21  39  63  89 116 149 192 240 289 342
#     4  10  21  38  61  88 116 148 189 236 286 342
#
# _framework density 19.57572
#
# number of rings (size 3 to 8) (size 9 to 14) (size 15 to 20)
#    0.000    1.667    0.000    4.500    0.000    8.333 
#    0.000    6.667    0.000    0.000    0.000    0.000 
#    0.000    0.000    0.000    0.000    0.000    0.000 
#
# Total GULP energy -595449.645625 kJ/mol
# GULP energy per Si atom -12405.200951 kJ/mol
# Density = 1.953117 g / cm^3
# Si number density = 19.575720 Si / 1000 Ang^3
#
#
#
# Elastic Constant Matrix: (Units=GPa)
#
#
# Indices 1 2 3 4 5 6 
#
# 1 55.4712 12.8991 15.1375 0.0000 0.0000 0.0000
# 2 12.8991 77.9068 55.5006 0.0000 0.0000 0.0000
# 3 15.1375 55.5006 126.3637 0.0000 0.0000 0.0000
# 4 0.0000 0.0000 0.0000 -15.0178 0.0000 0.0000
# 5 0.0000 0.0000 0.0000 0.0000 38.8456 0.0000
# 6 0.0000 0.0000 0.0000 0.0000 0.0000 28.1114
#
#
#
# Elastic Compliance Matrix: (Units=1/GPa)
#
#
# Indices 1 2 3 4 5 6 
#
# 1 0.018894 -0.002206 -0.001294 0.000000 0.000000 0.000000
# 2 -0.002206 0.018939 -0.008054 0.000000 0.000000 0.000000
# 3 -0.001294 -0.008054 0.011606 0.000000 0.000000 0.000000
# 4 0.000000 0.000000 0.000000 -0.066588 0.000000 0.000000
# 5 0.000000 0.000000 0.000000 0.000000 0.025743 0.000000
# 6 0.000000 0.000000 0.000000 0.000000 0.000000 0.035573
#
#
# Mechanical properties :
#
#
# Convention : Reuss Voigt Hill
#
# Bulk Modulus (GPa) = 37.97994 47.42400 42.70197
# Shear Modulus (GPa) = 65.74490 22.13481 43.93986
#
# Velocity S-wave (km/s) = 5.80154 3.36628 4.74287
# Velocity P-wave (km/s) = 8.02002 6.27596 7.20099
#
# Compressibility (1/GPa) = 0.02632969
#
# Stress axis : x y z
#
# Youngs Moduli (GPa) = 52.92796 52.80217 86.16191
#
# Poissons Ratio (x) = 0.11649 0.11153
# Poissons Ratio (y) = 0.11677 0.69393
# Poissons Ratio (z) = 0.06851 0.42526
#
# Static dielectric constant tensor:
#      x y z
#    x 3.620110 0.000000 0.000000 
#    y 0.000000 3.621400 0.000000 
#    z 0.000000 0.000000 3.730260 
# 
# 
# High freq. dielectric constant tensor:
#      x y z
#    x 1.773100 0.000000 0.000000 
#    y 0.000000 1.758680 0.000000 
#    z 0.000000 0.000000 1.779170 
# 
# From -- ./inp_files/21063.got.cif
#   From: 2010.03.12/outbox.cif.g09.slc.cpg/sg51_11_cif.got.tgz:21063.got - 2010.04.16 13:43:02.
