data_PCOD8213490
_publ_section_title
;
Structure prediction by ZEFSAII (Michael W. Deem and Ramdas Pophale) SiO2 
 PCOD8213490
Probable space group: P M M A
;
_chemical_formula_sum "Si O2"
_cell_formula_units_Z 64
_cell_length_a 17.167032
_cell_length_b 14.431866
_cell_length_c 12.223973
_cell_angle_alpha 90.000000
_cell_angle_beta 90.000000
_cell_angle_gamma 90.000000
_cell_volume 3028.517492
_symmetry_space_group_name_H-M "P M M A"
_symmetry_group_IT_number 51
_symmetry_cell_setting 'orthorhombic'
loop_
_space_group_symop_operation_xyz
x,y,z
1/2-x,-y,z
1/2+x,-y,-z
-x,y,-z
-x,-y,-z
1/2+x,y,-z
1/2-x,y,z
x,-y,z
loop_
_atom_site_type_symbol
_atom_site_label
_atom_site_fract_x
_atom_site_fract_y
_atom_site_fract_z
Si Si1 0.085198 0.707317 0.947240
Si Si2 0.591066 0.100880 0.988388
Si Si3 0.339738 0.604329 0.137474
Si Si4 0.594257 0.394256 0.280340
Si Si5 0.337770 0.108603 0.242856
Si Si6 0.337732 0.716423 0.536751
Si Si7 0.578232 0.394225 0.648203
Si Si8 0.590421 0.105837 0.527821
O O1 0.083201 0.651737 0.836323
O O2 0.113747 0.814622 0.930162
O O3 0.146804 0.660369 0.027329
O O4 0.000000 0.705744 0.000000
O O5 0.615542 0.136079 0.866937
O O6 0.630872 0.000000 0.015899
O O7 0.500000 0.085077 0.000000
O O8 0.250000 0.606802 0.168977
O O9 0.369987 0.500000 0.117649
O O10 0.386702 0.647799 0.239504
O O11 0.622731 0.500000 0.265489
O O12 0.657747 0.335622 0.347046
O O13 0.514591 0.390724 0.348167
O O14 0.250000 0.153414 0.245045
O O15 0.389675 0.138407 0.347765
O O16 0.327423 0.000000 0.246082
O O17 0.250000 0.711017 0.493320
O O18 0.394733 0.667439 0.451807
O O19 0.362864 0.824113 0.551271
O O20 0.607640 0.500000 0.631365
O O21 0.500000 0.115763 0.500000
O O22 0.618105 0.000000 0.506733
#
# Coordination Sequence:
#
# PCOD8213490 Si02
#       8
#     8   8   8   8   8   8   8   8
#     4  11  22  38  63  89 121 162 210 257 314 385
#     4   9  20  36  56  87 126 165 207 255 310 375
#     4  10  21  36  58  91 124 153 197 259 320 374
#     4  11  24  42  65  91 125 169 217 265 320 391
#     4   9  18  35  60  90 123 158 200 258 322 375
#     4  12  26  41  62  91 129 171 214 261 319 387
#     4  10  21  40  65  91 122 160 209 267 321 378
#     4  10  22  40  65  95 128 166 212 264 319 383
#
# _framework density 21.132452000000001
#
# number of rings (size 3 to 8) (size 9 to 14) (size 15 to 20)
#    0.000    1.750    1.250    2.625    1.750    6.750 
#    0.000    1.875    0.000    0.000    0.000    0.000 
#    0.000    0.000    0.000    0.000    0.000    0.000 
#
# Total GULP energy -793411.398758 kJ/mol
# GULP energy per Si atom -12397.053106 kJ/mol
# Density = 2.108435 g / cm^3
# Si number density = 21.132452 Si / 1000 Ang^3
#
#
#
# Elastic Constant Matrix: (Units=GPa)
#
#
# Indices 1 2 3 4 5 6 
#
# 1 79.5857 21.0897 31.6657 0.0000 0.0000 0.0000
# 2 21.0897 139.0999 57.6473 0.0000 0.0000 0.0000
# 3 31.6657 57.6473 89.0153 0.0000 0.0000 0.0000
# 4 0.0000 0.0000 0.0000 27.2621 0.0000 0.0000
# 5 0.0000 0.0000 0.0000 0.0000 31.3971 0.0000
# 6 0.0000 0.0000 0.0000 0.0000 0.0000 80.1027
#
#
#
# Elastic Compliance Matrix: (Units=1/GPa)
#
#
# Indices 1 2 3 4 5 6 
#
# 1 0.014637 -0.000084 -0.005153 0.000000 0.000000 0.000000
# 2 -0.000084 0.009827 -0.006334 0.000000 0.000000 0.000000
# 3 -0.005153 -0.006334 0.017169 0.000000 0.000000 0.000000
# 4 0.000000 0.000000 0.000000 0.036681 0.000000 0.000000
# 5 0.000000 0.000000 0.000000 0.000000 0.031850 0.000000
# 6 0.000000 0.000000 0.000000 0.000000 0.000000 0.012484
#
#
# Mechanical properties :
#
#
# Convention : Reuss Voigt Hill
#
# Bulk Modulus (GPa) = 54.07752 58.72291 56.40022
# Shear Modulus (GPa) = 32.90473 40.90561 36.90517
#
# Velocity S-wave (km/s) = 3.95025 4.40441 4.18350
# Velocity P-wave (km/s) = 6.81552 7.32894 7.07689
#
# Compressibility (1/GPa) = 0.01849197
#
# Stress axis : x y z
#
# Youngs Moduli (GPa) = 68.31781 101.76181 58.24409
#
# Poissons Ratio (x) = 0.00853 0.30012
# Poissons Ratio (y) = 0.00573 0.36893
# Poissons Ratio (z) = 0.35203 0.64458
#
# Static dielectric constant tensor:
#      x y z
#    x 3.778200 0.000000 0.000000 
#    y 0.000000 4.264230 0.000000 
#    z 0.000000 0.000000 3.799970 
# 
# 
# High freq. dielectric constant tensor:
#      x y z
#    x 1.816390 0.000000 0.000000 
#    y 0.000000 1.847190 0.000000 
#    z 0.000000 0.000000 1.811460 
# 
# From -- ./inp_files/17588.got.cif
#   From: 2010.03.12/outbox.cif.g09.slc.cpg/sg51_9_cif.got.tgz:17588.got - 2010.04.16 13:43:02.
