data_PCOD8213451
_publ_section_title
;
Structure prediction by ZEFSAII (Michael W. Deem and Ramdas Pophale) SiO2 
 PCOD8213451
Probable space group: P M M A
;
_chemical_formula_sum "Si O2"
_cell_formula_units_Z 48
_cell_length_a 9.124620
_cell_length_b 17.237356
_cell_length_c 15.545503
_cell_angle_alpha 90.000000
_cell_angle_beta 90.000000
_cell_angle_gamma 90.000000
_cell_volume 2445.063920
_symmetry_space_group_name_H-M "P M M A"
_symmetry_group_IT_number 51
_symmetry_cell_setting 'orthorhombic'
loop_
_space_group_symop_operation_xyz
x,y,z
1/2-x,-y,z
1/2+x,-y,-z
-x,y,-z
-x,-y,-z
1/2+x,y,-z
1/2-x,y,z
x,-y,z
loop_
_atom_site_type_symbol
_atom_site_label
_atom_site_fract_x
_atom_site_fract_y
_atom_site_fract_z
Si Si1 0.577235 0.165819 0.843985
Si Si2 0.916478 0.000000 0.324784
Si Si3 0.580998 0.591095 0.242346
Si Si4 0.578460 0.000000 0.849039
Si Si5 0.581584 0.832256 0.335868
Si Si6 0.577213 0.671435 0.913970
Si Si7 0.079011 0.323814 0.584622
O O1 0.750000 0.162571 0.828106
O O2 0.521039 0.083146 0.886963
O O3 0.505848 0.178663 0.751735
O O4 0.535593 0.237513 0.904774
O O5 0.940644 0.919154 0.377123
O O6 0.035450 0.000000 0.250338
O O7 0.750000 0.000000 0.287037
O O8 0.750000 0.612842 0.223655
O O9 0.557657 0.500000 0.248969
O O10 0.480795 0.623470 0.166590
O O11 0.527895 0.628077 0.332083
O O12 0.750000 0.000000 0.858753
O O13 0.750000 0.817328 0.311500
O O14 0.532107 0.766575 0.403194
O O15 0.750000 0.658257 0.921625
O O16 0.500000 0.639966 0.000000
O O17 0.250000 0.334326 0.569079
O O18 0.000000 0.356618 0.500000
#
# Coordination Sequence:
#
# PCOD8213451 Si02
#       7
#     8   4   8   4   8   8   8
#     4   9  17  30  51  78 108 145 186 228 273 321
#     4   8  14  24  43  72 102 137 183 227 269 319
#     4  10  22  42  65  86 111 144 182 228 283 339
#     4   8  14  26  45  72 106 141 181 227 271 315
#     4   9  16  29  50  75 106 144 184 228 275 322
#     4  11  23  38  59  87 117 150 187 228 276 332
#     4  10  21  36  56  83 114 148 184 226 275 329
#
# _framework density 19.631388000000001
#
# number of rings (size 3 to 8) (size 9 to 14) (size 15 to 20)
#    0.000    2.500    1.667    0.500    0.000    3.000 
#    0.000    0.833    0.000    0.000    0.000    0.000 
#    0.000    0.000    0.000    0.000    0.000    0.000 
#
# Total GULP energy -594676.997709 kJ/mol
# GULP energy per Si atom -12389.104119 kJ/mol
# Density = 1.958671 g / cm^3
# Si number density = 19.631388 Si / 1000 Ang^3
#
#
#
# Elastic Constant Matrix: (Units=GPa)
#
#
# Indices 1 2 3 4 5 6 
#
# 1 43.6038 35.2713 46.7400 0.0000 0.0000 0.0000
# 2 35.2713 121.1750 52.5605 0.0000 0.0000 0.0000
# 3 46.7400 52.5605 120.9996 0.0000 0.0000 0.0000
# 4 0.0000 0.0000 0.0000 5.0295 0.0000 0.0000
# 5 0.0000 0.0000 0.0000 0.0000 29.8134 0.0000
# 6 0.0000 0.0000 0.0000 0.0000 0.0000 22.6374
#
#
#
# Elastic Compliance Matrix: (Units=1/GPa)
#
#
# Indices 1 2 3 4 5 6 
#
# 1 0.042972 -0.006540 -0.013758 0.000000 0.000000 0.000000
# 2 -0.006540 0.011164 -0.002323 0.000000 0.000000 0.000000
# 3 -0.013758 -0.002323 0.014588 0.000000 0.000000 0.000000
# 4 0.000000 0.000000 0.000000 0.198826 0.000000 0.000000
# 5 0.000000 0.000000 0.000000 0.000000 0.033542 0.000000
# 6 0.000000 0.000000 0.000000 0.000000 0.000000 0.044175
#
#
# Mechanical properties :
#
#
# Convention : Reuss Voigt Hill
#
# Bulk Modulus (GPa) = 42.58804 61.65800 52.12302
# Shear Modulus (GPa) = 12.55216 21.57651 17.06433
#
# Velocity S-wave (km/s) = 2.53136 3.31884 2.95148
# Velocity P-wave (km/s) = 5.50315 6.79428 6.18251
#
# Compressibility (1/GPa) = 0.02348077
#
# Stress axis : x y z
#
# Youngs Moduli (GPa) = 23.27082 89.57433 68.54869
#
# Poissons Ratio (x) = 0.58586 0.94312
# Poissons Ratio (y) = 0.15220 0.15924
# Poissons Ratio (z) = 0.32017 0.20808
#
# Static dielectric constant tensor:
#      x y z
#    x 3.709490 0.000000 0.000000 
#    y 0.000000 4.168300 0.000000 
#    z 0.000000 0.000000 3.183140 
# 
# 
# High freq. dielectric constant tensor:
#      x y z
#    x 1.756630 0.000000 0.000000 
#    y 0.000000 1.787170 0.000000 
#    z 0.000000 0.000000 1.728750 
# 
# From -- ./inp_files/21138.got.cif
#   From: 2010.03.12/outbox.cif.g09.slc.cpg/sg51_11_cif.got.tgz:21138.got - 2010.04.16 13:43:02.
