data_PCOD8213010
_publ_section_title
;
Structure prediction by ZEFSAII (Michael W. Deem and Ramdas Pophale) SiO2 
 PCOD8213010
Probable space group: P M M A
;
_chemical_formula_sum "Si O2"
_cell_formula_units_Z 64
_cell_length_a 19.139571
_cell_length_b 19.140647
_cell_length_c 9.533146
_cell_angle_alpha 90.000000
_cell_angle_beta 90.000000
_cell_angle_gamma 90.000000
_cell_volume 3492.408667
_symmetry_space_group_name_H-M "P M M A"
_symmetry_group_IT_number 51
_symmetry_cell_setting 'orthorhombic'
loop_
_space_group_symop_operation_xyz
x,y,z
1/2-x,-y,z
1/2+x,-y,-z
-x,y,-z
-x,-y,-z
1/2+x,y,-z
1/2-x,y,z
x,-y,z
loop_
_atom_site_type_symbol
_atom_site_label
_atom_site_fract_x
_atom_site_fract_y
_atom_site_fract_z
Si Si1 0.428679 0.580595 0.917949
Si Si2 0.668515 0.825134 0.833429
Si Si3 0.331247 0.919814 0.706765
Si Si4 0.058660 0.581188 0.602649
Si Si5 0.921839 0.919250 0.020992
Si Si6 0.167954 0.654776 0.437903
Si Si7 0.331166 0.331996 0.117442
Si Si8 0.332469 0.191144 0.475837
O O1 0.403817 0.500000 0.912836
O O2 0.440225 0.611657 0.761032
O O3 0.500000 0.588777 0.000000
O O4 0.370652 0.624863 0.998690
O O5 0.750000 0.842377 0.837484
O O6 0.654006 0.750106 0.904639
O O7 0.638160 0.828594 0.676282
O O8 0.628829 0.885490 0.910593
O O9 0.250000 0.904852 0.751734
O O10 0.387090 0.905641 0.828303
O O11 0.357378 0.865986 0.588040
O O12 0.337005 0.000000 0.653410
O O13 0.042733 0.500000 0.616114
O O14 0.132879 0.594124 0.528974
O O15 0.000000 0.615934 0.500000
O O16 0.924152 0.000000 0.984221
O O17 0.000000 0.887796 0.000000
O O18 0.250000 0.644901 0.450534
O O19 0.145035 0.647558 0.275114
O O20 0.143687 0.729060 0.506249
O O21 0.250000 0.348790 0.098130
O O22 0.250000 0.191273 0.466068
#
# Coordination Sequence:
#
# PCOD8213010 Si02
#       8
#     8   8   8   8   8   8   8   8
#     4  10  21  36  54  76 103 137 175 213 255 304
#     4   9  18  34  55  77 100 129 169 211 250 299
#     4   9  17  31  52  76 101 131 168 208 250 298
#     4  10  21  36  53  74 101 132 170 215 254 295
#     4  10  21  35  49  70 103 138 170 207 252 301
#     4   9  18  34  54  75 103 136 166 202 253 308
#     4   9  19  35  54  78 107 135 166 210 260 307
#     4   8  16  32  53  77 102 127 162 209 252 293
#
# _framework density 18.325461000000001
#
# number of rings (size 3 to 8) (size 9 to 14) (size 15 to 20)
#    0.000    2.750    0.000    2.625    0.000    5.250 
#    0.000    9.375    0.000    2.250    0.000    0.000 
#    0.000    0.000    0.000    0.000    0.000    0.000 
#
# Total GULP energy -793201.544653 kJ/mol
# GULP energy per Si atom -12393.774135 kJ/mol
# Density = 1.828375 g / cm^3
# Si number density = 18.325461 Si / 1000 Ang^3
#
#
#
# Elastic Constant Matrix: (Units=GPa)
#
#
# Indices 1 2 3 4 5 6 
#
# 1 71.1944 38.2245 60.0171 0.0000 0.0000 0.0000
# 2 38.2245 34.7871 46.7480 0.0000 0.0000 0.0000
# 3 60.0171 46.7480 125.6036 0.0000 0.0000 0.0000
# 4 0.0000 0.0000 0.0000 35.8955 0.0000 0.0000
# 5 0.0000 0.0000 0.0000 0.0000 25.5188 0.0000
# 6 0.0000 0.0000 0.0000 0.0000 0.0000 -4.5742
#
#
#
# Elastic Compliance Matrix: (Units=1/GPa)
#
#
# Indices 1 2 3 4 5 6 
#
# 1 0.035713 -0.032630 -0.004920 0.000000 0.000000 0.000000
# 2 -0.032630 0.087323 -0.016909 0.000000 0.000000 0.000000
# 3 -0.004920 -0.016909 0.016606 0.000000 0.000000 0.000000
# 4 0.000000 0.000000 0.000000 0.027859 0.000000 0.000000
# 5 0.000000 0.000000 0.000000 0.000000 0.039187 0.000000
# 6 0.000000 0.000000 0.000000 0.000000 0.000000 -0.218615
#
#
# Mechanical properties :
#
#
# Convention : Reuss Voigt Hill
#
# Bulk Modulus (GPa) = 32.54811 57.95158 45.24985
# Shear Modulus (GPa) = 46.62828 17.14105 31.88466
#
# Velocity S-wave (km/s) = 5.04973 3.06170 4.17575
# Velocity P-wave (km/s) = 7.19718 6.64762 6.92785
#
# Compressibility (1/GPa) = 0.03072375
#
# Stress axis : x y z
#
# Youngs Moduli (GPa) = 28.00112 11.45175 60.21929
#
# Poissons Ratio (x) = 0.37367 0.29630
# Poissons Ratio (y) = 0.91366 1.01825
# Poissons Ratio (z) = 0.13778 0.19364
#
# Static dielectric constant tensor:
#      x y z
#    x 6.507180 0.000000 0.000000 
#    y 0.000000 3.388270 0.000000 
#    z 0.000000 0.000000 3.589310 
# 
# 
# High freq. dielectric constant tensor:
#      x y z
#    x 1.697900 0.000000 0.000000 
#    y 0.000000 1.704700 0.000000 
#    z 0.000000 0.000000 1.714290 
# 
# From -- ./inp_files/10068.got.cif
#   From: 2010.03.12/outbox.cif.g09.slc.cpg/sg51_6_cif.got.tgz:10068.got - 2010.04.16 13:43:02.
