data_PCOD8213566
_publ_section_title
;
Structure prediction by ZEFSAII (Michael W. Deem and Ramdas Pophale) SiO2 
 PCOD8213566
Probable space group: P M M A
;
_chemical_formula_sum "Si O2"
_cell_formula_units_Z 64
_cell_length_a 14.348829
_cell_length_b 8.964379
_cell_length_c 26.322842
_cell_angle_alpha 90.000000
_cell_angle_beta 90.000000
_cell_angle_gamma 90.000000
_cell_volume 3385.863506
_symmetry_space_group_name_H-M "P M M A"
_symmetry_group_IT_number 51
_symmetry_cell_setting 'orthorhombic'
loop_
_space_group_symop_operation_xyz
x,y,z
1/2-x,-y,z
1/2+x,-y,-z
-x,y,-z
-x,-y,-z
1/2+x,y,-z
1/2-x,y,z
x,-y,z
loop_
_atom_site_type_symbol
_atom_site_label
_atom_site_fract_x
_atom_site_fract_y
_atom_site_fract_z
Si Si1 0.855663 0.824440 0.868911
Si Si2 0.860429 0.831802 0.498838
Si Si3 0.509354 0.323993 0.942661
Si Si4 0.001441 0.176616 0.326797
Si Si5 0.640712 0.326987 0.397171
Si Si6 0.644451 0.324016 0.136849
Si Si7 0.009609 0.174531 0.789654
Si Si8 0.640752 0.673186 0.600439
O O1 0.750000 0.767782 0.860793
O O2 0.898483 0.748644 0.918842
O O3 0.916138 0.777393 0.819741
O O4 0.858329 0.000000 0.877408
O O5 0.750000 0.832473 0.499081
O O6 0.896673 0.743733 0.449603
O O7 0.897387 0.748023 0.548797
O O8 0.900153 0.000000 0.497970
O O9 0.523119 0.500000 0.941081
O O10 0.416731 0.274708 0.911890
O O11 0.500000 0.265104 0.000000
O O12 0.003493 0.224044 0.268183
O O13 0.092331 0.248104 0.352137
O O14 0.907636 0.242934 0.350744
O O15 0.003540 0.000000 0.334156
O O16 0.750000 0.302733 0.390509
O O17 0.613209 0.500000 0.397036
O O18 0.750000 0.264903 0.129572
O O19 0.643579 0.500000 0.143413
O O20 0.600372 0.255055 0.187684
O O21 0.027711 0.000000 0.794491
O O22 0.750000 0.698504 0.607007
O O23 0.614217 0.500000 0.598747
#
# Coordination Sequence:
#
# PCOD8213566 Si02
#       8
#     8   8   8   8   8   8   8   8
#     4   9  18  34  55  77 103 138 178 217 260 309
#     4   9  17  32  55  80 106 136 171 212 257 309
#     4   9  18  32  51  78 112 145 176 214 257 302
#     4  11  23  37  55  79 105 135 174 219 265 314
#     4  10  21  37  56  78 106 139 173 212 262 318
#     4   9  18  33  53  76 103 138 178 217 259 308
#     4   9  20  37  54  74 101 133 172 220 266 308
#     4  10  21  37  56  79 108 139 171 210 258 314
#
# _framework density 18.902121999999999
#
# number of rings (size 3 to 8) (size 9 to 14) (size 15 to 20)
#    0.000    2.500    0.000    1.500    0.000    6.750 
#    0.000    7.500    0.000    0.000    0.000    0.000 
#    0.000    0.000    0.000    0.000    0.000    0.000 
#
# Total GULP energy -793706.991883 kJ/mol
# GULP energy per Si atom -12401.671748 kJ/mol
# Density = 1.885910 g / cm^3
# Si number density = 18.902122 Si / 1000 Ang^3
#
#
#
# Elastic Constant Matrix: (Units=GPa)
#
#
# Indices 1 2 3 4 5 6 
#
# 1 124.5815 38.1245 64.6086 0.0000 0.0000 0.0000
# 2 38.1245 79.7883 58.9379 0.0000 0.0000 0.0000
# 3 64.6086 58.9379 168.8027 0.0000 0.0000 0.0000
# 4 0.0000 0.0000 0.0000 29.9848 0.0000 0.0000
# 5 0.0000 0.0000 0.0000 0.0000 21.8839 0.0000
# 6 0.0000 0.0000 0.0000 0.0000 0.0000 27.9943
#
#
#
# Elastic Compliance Matrix: (Units=1/GPa)
#
#
# Indices 1 2 3 4 5 6 
#
# 1 0.010443 -0.002745 -0.003038 0.000000 0.000000 0.000000
# 2 -0.002745 0.017611 -0.005098 0.000000 0.000000 0.000000
# 3 -0.003038 -0.005098 0.008867 0.000000 0.000000 0.000000
# 4 0.000000 0.000000 0.000000 0.033350 0.000000 0.000000
# 5 0.000000 0.000000 0.000000 0.000000 0.045696 0.000000
# 6 0.000000 0.000000 0.000000 0.000000 0.000000 0.035722
#
#
# Mechanical properties :
#
#
# Convention : Reuss Voigt Hill
#
# Bulk Modulus (GPa) = 65.97652 77.39051 71.68351
# Shear Modulus (GPa) = 28.01060 30.07272 29.04166
#
# Velocity S-wave (km/s) = 3.85369 3.99302 3.92398
# Velocity P-wave (km/s) = 7.40144 7.89244 7.65088
#
# Compressibility (1/GPa) = 0.01515691
#
# Stress axis : x y z
#
# Youngs Moduli (GPa) = 95.76041 56.78331 112.77769
#
# Poissons Ratio (x) = 0.15589 0.34266
# Poissons Ratio (y) = 0.26290 0.57495
# Poissons Ratio (z) = 0.29095 0.28949
#
# Static dielectric constant tensor:
#      x y z
#    x 3.515500 0.000000 0.000000 
#    y 0.000000 3.479530 0.000000 
#    z 0.000000 0.000000 3.534600 
# 
# 
# High freq. dielectric constant tensor:
#      x y z
#    x 1.739620 0.000000 0.000000 
#    y 0.000000 1.736200 0.000000 
#    z 0.000000 0.000000 1.731930 
# 
# From -- ./inp_files/35860.got.cif
#   From: 2010.03.12/outbox.cif.g09.slc.cpg/sg51_18_cif.got.tgz:35860.got - 2010.04.16 13:43:02.
