data_PCOD8213617
_publ_section_title
;
Structure prediction by ZEFSAII (Michael W. Deem and Ramdas Pophale) SiO2 
 PCOD8213617
Probable space group: P M M A
;
_chemical_formula_sum "Si O2"
_cell_formula_units_Z 48
_cell_length_a 9.321712
_cell_length_b 8.995464
_cell_length_c 30.859807
_cell_angle_alpha 90.000000
_cell_angle_beta 90.000000
_cell_angle_gamma 90.000000
_cell_volume 2587.691245
_symmetry_space_group_name_H-M "P M M A"
_symmetry_group_IT_number 51
_symmetry_cell_setting 'orthorhombic'
loop_
_space_group_symop_operation_xyz
x,y,z
1/2-x,-y,z
1/2+x,-y,-z
-x,y,-z
-x,-y,-z
1/2+x,y,-z
1/2-x,y,z
x,-y,z
loop_
_atom_site_type_symbol
_atom_site_label
_atom_site_fract_x
_atom_site_fract_y
_atom_site_fract_z
Si Si1 0.087714 0.177086 0.540988
Si Si2 0.084479 0.827333 0.375711
Si Si3 0.407632 0.324030 0.038902
Si Si4 0.085868 0.675150 0.286990
Si Si5 0.416501 0.826319 0.789359
Si Si6 0.419271 0.328747 0.135396
O O1 0.250000 0.238611 0.539567
O O2 0.000000 0.240894 0.500000
O O3 0.011272 0.232793 0.584748
O O4 0.087040 0.000000 0.539512
O O5 0.250000 0.799095 0.387807
O O6 0.037619 0.737197 0.333397
O O7 0.055303 0.000000 0.366465
O O8 0.250000 0.253825 0.034796
O O9 0.398124 0.500000 0.033380
O O10 0.470351 0.288239 0.086564
O O11 0.500000 0.252788 0.000000
O O12 0.250000 0.721614 0.276864
O O13 0.067829 0.500000 0.287355
O O14 0.983101 0.741315 0.251000
O O15 0.250000 0.784623 0.792781
O O16 0.493813 0.778078 0.833291
O O17 0.440621 0.000000 0.782311
O O18 0.250000 0.300864 0.140654
O O19 0.454846 0.500000 0.146433
#
# Coordination Sequence:
#
# PCOD8213617 Si02
#       6
#     8   8   8   8   8   8
#     4   9  16  26  43  69 100 132 166 205 247 290
#     4   9  17  30  49  73 101 132 165 202 246 295
#     4   8  14  25  43  70 102 132 163 201 244 291
#     4  10  21  37  57  79 102 131 168 208 252 306
#     4  11  24  38  52  74 103 133 168 211 256 302
#     4   9  18  33  53  77 104 134 170 210 251 299
#
# _framework density 18.549353
#
# number of rings (size 3 to 8) (size 9 to 14) (size 15 to 20)
#    0.000    2.667    0.000    3.000    0.000    8.000 
#    0.000    3.333    0.000    1.000    0.000    0.000 
#    0.000    0.000    0.000    0.000    0.000    0.000 
#
# Total GULP energy -595163.268545 kJ/mol
# GULP energy per Si atom -12399.234761 kJ/mol
# Density = 1.850713 g / cm^3
# Si number density = 18.549353 Si / 1000 Ang^3
#
#
#
# Elastic Constant Matrix: (Units=GPa)
#
#
# Indices 1 2 3 4 5 6 
#
# 1 96.0109 27.7214 79.0064 0.0000 0.0000 0.0000
# 2 27.7214 38.9896 39.2265 0.0000 0.0000 0.0000
# 3 79.0064 39.2265 161.7309 0.0000 0.0000 0.0000
# 4 0.0000 0.0000 0.0000 26.8047 0.0000 0.0000
# 5 0.0000 0.0000 0.0000 0.0000 39.9484 0.0000
# 6 0.0000 0.0000 0.0000 0.0000 0.0000 20.0166
#
#
#
# Elastic Compliance Matrix: (Units=1/GPa)
#
#
# Indices 1 2 3 4 5 6 
#
# 1 0.018205 -0.005286 -0.007611 0.000000 0.000000 0.000000
# 2 -0.005286 0.035461 -0.006018 0.000000 0.000000 0.000000
# 3 -0.007611 -0.006018 0.011361 0.000000 0.000000 0.000000
# 4 0.000000 0.000000 0.000000 0.037307 0.000000 0.000000
# 5 0.000000 0.000000 0.000000 0.000000 0.025032 0.000000
# 6 0.000000 0.000000 0.000000 0.000000 0.000000 0.049959
#
#
# Mechanical properties :
#
#
# Convention : Reuss Voigt Hill
#
# Bulk Modulus (GPa) = 36.77074 65.40444 51.08759
# Shear Modulus (GPa) = 22.29937 27.40576 24.85257
#
# Velocity S-wave (km/s) = 3.47099 3.84793 3.66431
# Velocity P-wave (km/s) = 5.99415 7.42148 6.74567
#
# Compressibility (1/GPa) = 0.02719554
#
# Stress axis : x y z
#
# Youngs Moduli (GPa) = 54.93056 28.19966 88.02160
#
# Poissons Ratio (x) = 0.14907 0.66993
# Poissons Ratio (y) = 0.29038 0.52976
# Poissons Ratio (z) = 0.41808 0.16972
#
# Static dielectric constant tensor:
#      x y z
#    x 3.564780 0.000000 0.000000 
#    y 0.000000 3.038030 0.000000 
#    z 0.000000 0.000000 3.634900 
# 
# 
# High freq. dielectric constant tensor:
#      x y z
#    x 1.718470 0.000000 0.000000 
#    y 0.000000 1.680150 0.000000 
#    z 0.000000 0.000000 1.737220 
# 
# From -- ./inp_files/37027.got.cif
#   From: 2010.03.12/outbox.cif.g09.slc.cpg/sg51_19_cif.got.tgz:37027.got - 2010.04.16 13:43:02.
