data_PCOD8213901
_publ_section_title
;
Structure prediction by ZEFSAII (Michael W. Deem and Ramdas Pophale) SiO2 
 PCOD8213901
Probable space group: P M M A
;
_chemical_formula_sum "Si O2"
_cell_formula_units_Z 56
_cell_length_a 17.744322
_cell_length_b 23.082006
_cell_length_c 6.881143
_cell_angle_alpha 90.000000
_cell_angle_beta 90.000000
_cell_angle_gamma 90.000000
_cell_volume 2818.341026
_symmetry_space_group_name_H-M "P M M A"
_symmetry_group_IT_number 51
_symmetry_cell_setting 'orthorhombic'
loop_
_space_group_symop_operation_xyz
x,y,z
1/2-x,-y,z
1/2+x,-y,-z
-x,y,-z
-x,-y,-z
1/2+x,y,-z
1/2-x,y,z
x,-y,z
loop_
_atom_site_type_symbol
_atom_site_label
_atom_site_fract_x
_atom_site_fract_y
_atom_site_fract_z
Si Si1 0.161699 0.661781 0.189694
Si Si2 0.415834 0.934617 0.048915
Si Si3 0.837998 0.433957 0.113397
Si Si4 0.664516 0.935790 0.560141
Si Si5 0.163283 0.850097 0.781310
Si Si6 0.923101 0.738641 0.103687
Si Si7 0.421602 0.639606 0.582580
O O1 0.250000 0.668823 0.210922
O O2 0.128660 0.662538 0.405429
O O3 0.139132 0.602475 0.077780
O O4 0.132663 0.715650 0.063239
O O5 0.399406 0.931765 0.276771
O O6 0.405118 0.000000 0.969729
O O7 0.500000 0.912626 0.000000
O O8 0.354210 0.892375 0.958591
O O9 0.750000 0.426821 0.157571
O O10 0.860675 0.500000 0.071203
O O11 0.880496 0.412474 0.305941
O O12 0.750000 0.926930 0.640393
O O13 0.643398 0.885394 0.411830
O O14 0.659188 0.000000 0.463326
O O15 0.250000 0.831311 0.789125
O O16 0.112845 0.793023 0.787797
O O17 0.939142 0.691107 0.267900
O O18 0.000000 0.757454 0.000000
O O19 0.500000 0.615287 0.500000
#
# Coordination Sequence:
#
# PCOD8213901 Si02
#       7
#     8   8   8   8   8   8   8
#     4  10  21  39  64  89 119 163 207 248 298 359
#     4  10  21  38  59  85 117 154 192 237 299 366
#     4   9  20  38  61  93 130 162 199 250 303 359
#     4   9  19  37  60  86 118 154 192 239 295 357
#     4  11  23  38  59  87 116 151 200 248 297 357
#     4  11  23  42  61  85 122 158 201 256 307 356
#     4  11  22  39  63  88 119 165 209 250 305 361
#
# _framework density 19.869847
#
# number of rings (size 3 to 8) (size 9 to 14) (size 15 to 20)
#    0.000    1.857    1.429    2.143    0.000    5.714 
#    2.571    5.714    0.000    0.000    0.000    0.000 
#    0.000    0.000    0.000    0.000    0.000    0.000 
#
# Total GULP energy -694465.463632 kJ/mol
# GULP energy per Si atom -12401.168993 kJ/mol
# Density = 1.982462 g / cm^3
# Si number density = 19.869847 Si / 1000 Ang^3
#
#
#
# Elastic Constant Matrix: (Units=GPa)
#
#
# Indices 1 2 3 4 5 6 
#
# 1 97.5261 41.2088 45.9263 0.0000 0.0000 0.0000
# 2 41.2088 98.2277 26.3699 0.0000 0.0000 0.0000
# 3 45.9263 26.3699 88.2060 0.0000 0.0000 0.0000
# 4 0.0000 0.0000 0.0000 20.5482 0.0000 0.0000
# 5 0.0000 0.0000 0.0000 0.0000 36.0817 0.0000
# 6 0.0000 0.0000 0.0000 0.0000 0.0000 44.4514
#
#
#
# Elastic Compliance Matrix: (Units=1/GPa)
#
#
# Indices 1 2 3 4 5 6 
#
# 1 0.015324 -0.004661 -0.006585 0.000000 0.000000 0.000000
# 2 -0.004661 0.012486 -0.001306 0.000000 0.000000 0.000000
# 3 -0.006585 -0.001306 0.015156 0.000000 0.000000 0.000000
# 4 0.000000 0.000000 0.000000 0.048666 0.000000 0.000000
# 5 0.000000 0.000000 0.000000 0.000000 0.027715 0.000000
# 6 0.000000 0.000000 0.000000 0.000000 0.000000 0.022496
#
#
# Mechanical properties :
#
#
# Convention : Reuss Voigt Hill
#
# Bulk Modulus (GPa) = 55.98453 56.77444 56.37948
# Shear Modulus (GPa) = 28.91781 31.57992 30.24886
#
# Velocity S-wave (km/s) = 3.81906 3.99098 3.90596
# Velocity P-wave (km/s) = 6.90534 7.06204 6.98413
#
# Compressibility (1/GPa) = 0.01786208
#
# Stress axis : x y z
#
# Youngs Moduli (GPa) = 65.25573 80.08682 65.97856
#
# Poissons Ratio (x) = 0.37328 0.43450
# Poissons Ratio (y) = 0.30416 0.08617
# Poissons Ratio (z) = 0.42974 0.10460
#
# Static dielectric constant tensor:
#      x y z
#    x 3.637250 0.000000 0.000000 
#    y 0.000000 3.593480 0.000000 
#    z 0.000000 0.000000 3.683050 
# 
# 
# High freq. dielectric constant tensor:
#      x y z
#    x 1.783240 0.000000 0.000000 
#    y 0.000000 1.771050 0.000000 
#    z 0.000000 0.000000 1.775910 
# 
# From -- ./inp_files/2614.got.cif
#   From: 2010.03.12/outbox.cif.g09.slc.cpg/sg51_2_cif.got.tgz:2614.got - 2010.04.16 13:43:02.
