data_PCOD8213611
_publ_section_title
;
Structure prediction by ZEFSAII (Michael W. Deem and Ramdas Pophale) SiO2 
 PCOD8213611
Probable space group: P M M A
;
_chemical_formula_sum "Si O2"
_cell_formula_units_Z 48
_cell_length_a 9.797924
_cell_length_b 8.681522
_cell_length_c 28.931842
_cell_angle_alpha 90.000000
_cell_angle_beta 90.000000
_cell_angle_gamma 90.000000
_cell_volume 2460.968310
_symmetry_space_group_name_H-M "P M M A"
_symmetry_group_IT_number 51
_symmetry_cell_setting 'orthorhombic'
loop_
_space_group_symop_operation_xyz
x,y,z
1/2-x,-y,z
1/2+x,-y,-z
-x,y,-z
-x,-y,-z
1/2+x,y,-z
1/2-x,y,z
x,-y,z
loop_
_atom_site_type_symbol
_atom_site_label
_atom_site_fract_x
_atom_site_fract_y
_atom_site_fract_z
Si Si1 0.023361 0.317154 0.397608
Si Si2 0.906773 0.682558 0.958011
Si Si3 0.750000 0.182538 0.432660
Si Si4 0.593770 0.322576 0.216334
Si Si5 0.750000 0.181602 0.539171
Si Si6 0.905181 0.819377 0.118648
Si Si7 0.598112 0.318014 0.703382
O O1 0.033022 0.500000 0.399477
O O2 0.116222 0.249084 0.437671
O O3 0.068300 0.252057 0.347589
O O4 0.873839 0.257733 0.406069
O O5 0.750000 0.746412 0.960873
O O6 0.902055 0.500000 0.959372
O O7 0.980778 0.734440 0.911378
O O8 0.000000 0.747121 0.000000
O O9 0.750000 0.232149 0.485977
O O10 0.750000 0.000000 0.427172
O O11 0.750000 0.307850 0.231771
O O12 0.555587 0.500000 0.205508
O O13 0.562686 0.221595 0.171417
O O14 0.505054 0.252122 0.258215
O O15 0.750000 0.000000 0.544479
O O16 0.750000 0.765152 0.105872
O O17 0.919934 0.000000 0.111023
O O18 0.750000 0.269394 0.718302
O O19 0.580453 0.500000 0.701248
#
# Coordination Sequence:
#
# PCOD8213611 Si02
#       7
#     8   8   4   8   4   8   8
#     4  11  22  38  62  89 115 146 191 243 288 339
#     4  10  21  37  59  86 114 148 193 242 288 338
#     4  11  25  41  57  83 117 155 191 231 288 349
#     4   9  18  33  57  83 109 147 191 232 279 336
#     4  11  23  41  61  81 117 157 189 229 286 353
#     4  10  21  37  56  81 117 155 190 232 283 336
#     4   9  18  34  56  83 112 141 179 231 285 334
#
# _framework density 19.504518000000001
#
# number of rings (size 3 to 8) (size 9 to 14) (size 15 to 20)
#    0.000    2.000    0.833    2.500    1.167    6.333 
#    0.000    3.333    0.000    0.000    0.000    0.000 
#    0.000    0.000    0.000    0.000    0.000    0.000 
#
# Total GULP energy -595232.624646 kJ/mol
# GULP energy per Si atom -12400.679680 kJ/mol
# Density = 1.946012 g / cm^3
# Si number density = 19.504518 Si / 1000 Ang^3
#
#
#
# Elastic Constant Matrix: (Units=GPa)
#
#
# Indices 1 2 3 4 5 6 
#
# 1 144.0857 16.6348 64.9431 0.0000 0.0000 0.0000
# 2 16.6348 25.3477 14.4316 0.0000 0.0000 0.0000
# 3 64.9431 14.4316 108.3051 0.0000 0.0000 0.0000
# 4 0.0000 0.0000 0.0000 -2.5052 0.0000 0.0000
# 5 0.0000 0.0000 0.0000 0.0000 44.9538 0.0000
# 6 0.0000 0.0000 0.0000 0.0000 0.0000 27.4615
#
#
#
# Elastic Compliance Matrix: (Units=1/GPa)
#
#
# Indices 1 2 3 4 5 6 
#
# 1 0.009763 -0.003327 -0.005411 0.000000 0.000000 0.000000
# 2 -0.003327 0.043823 -0.003845 0.000000 0.000000 0.000000
# 3 -0.005411 -0.003845 0.012990 0.000000 0.000000 0.000000
# 4 0.000000 0.000000 0.000000 -0.399174 0.000000 0.000000
# 5 0.000000 0.000000 0.000000 0.000000 0.022245 0.000000
# 6 0.000000 0.000000 0.000000 0.000000 0.000000 0.036415
#
#
# Mechanical properties :
#
#
# Convention : Reuss Voigt Hill
#
# Bulk Modulus (GPa) = 24.14756 52.19530 38.17143
# Shear Modulus (GPa) = -21.27941 26.09728 2.40893
#
# Velocity S-wave (km/s) = -3.30661 3.66185 1.11254
# Velocity P-wave (km/s) = 1.47338 6.68563 4.61122
#
# Compressibility (1/GPa) = 0.04141205
#
# Stress axis : x y z
#
# Youngs Moduli (GPa) = 102.42448 22.81885 76.98126
#
# Poissons Ratio (x) = 0.07591 0.41655
# Poissons Ratio (y) = 0.34072 0.29598
# Poissons Ratio (z) = 0.55423 0.08773
#
# Static dielectric constant tensor:
#      x y z
#    x 3.954870 0.000000 0.000000 
#    y 0.000000 3.345770 0.000000 
#    z 0.000000 0.000000 3.711100 
# 
# 
# High freq. dielectric constant tensor:
#      x y z
#    x 1.772960 0.000000 0.000000 
#    y 0.000000 1.738260 0.000000 
#    z 0.000000 0.000000 1.768480 
# 
# From -- ./inp_files/37118.got.cif
#   From: 2010.03.12/outbox.cif.g09.slc.cpg/sg51_19_cif.got.tgz:37118.got - 2010.04.16 13:43:02.
