data_PCOD8213682
_publ_section_title
;
Structure prediction by ZEFSAII (Michael W. Deem and Ramdas Pophale) SiO2 
 PCOD8213682
Probable space group: P M M A
;
_chemical_formula_sum "Si O2"
_cell_formula_units_Z 56
_cell_length_a 9.103390
_cell_length_b 14.286831
_cell_length_c 20.993967
_cell_angle_alpha 90.000000
_cell_angle_beta 90.000000
_cell_angle_gamma 90.000000
_cell_volume 2730.445840
_symmetry_space_group_name_H-M "P M M A"
_symmetry_group_IT_number 51
_symmetry_cell_setting 'orthorhombic'
loop_
_space_group_symop_operation_xyz
x,y,z
1/2-x,-y,z
1/2+x,-y,-z
-x,y,-z
-x,-y,-z
1/2+x,y,-z
1/2-x,y,z
x,-y,z
loop_
_atom_site_type_symbol
_atom_site_label
_atom_site_fract_x
_atom_site_fract_y
_atom_site_fract_z
Si Si1 0.424445 0.772037 0.937264
Si Si2 0.913885 0.389154 0.249574
Si Si3 0.922265 0.106855 0.184316
Si Si4 0.581418 0.210058 0.562807
Si Si5 0.918246 0.395175 0.626564
Si Si6 0.578980 0.890821 0.689200
Si Si7 0.922206 0.609079 0.876158
O O1 0.250000 0.766917 0.945911
O O2 0.471961 0.835316 0.877428
O O3 0.491455 0.667859 0.929405
O O4 0.500000 0.816420 0.000000
O O5 0.750000 0.346204 0.241903
O O6 0.905782 0.500000 0.250427
O O7 0.985136 0.355669 0.315414
O O8 0.014911 0.355957 0.191544
O O9 0.750000 0.114140 0.194867
O O10 0.997628 0.148673 0.247934
O O11 0.973002 0.000000 0.173416
O O12 0.500000 0.173807 0.500000
O O13 0.750000 0.181858 0.554437
O O14 0.560487 0.322652 0.568722
O O15 0.517608 0.160219 0.625981
O O16 0.750000 0.395777 0.650068
O O17 0.965935 0.500000 0.604817
O O18 0.750000 0.869045 0.697996
O O19 0.545769 0.000000 0.680890
O O20 0.750000 0.630807 0.878742
O O21 0.955049 0.500000 0.888239
#
# Coordination Sequence:
#
# PCOD8213682 Si02
#       7
#     8   8   8   8   8   8   8
#     4  11  24  40  59  87 120 156 195 238 287 342
#     4   9  17  30  50  78 108 139 182 235 286 334
#     4   9  20  40  64  90 118 148 187 235 287 344
#     4  10  22  37  53  79 111 147 188 233 282 339
#     4   9  18  33  51  73 106 147 188 231 280 334
#     4   9  19  37  60  85 112 143 183 231 283 340
#     4  10  21  37  57  81 113 155 198 240 287 338
#
# _framework density 20.509471000000001
#
# number of rings (size 3 to 8) (size 9 to 14) (size 15 to 20)
#    0.000    2.429    0.000    1.286    2.000    6.000 
#    0.000    0.000    0.000    0.000    0.000    0.000 
#    0.000    0.000    0.000    0.000    0.000    0.000 
#
# Total GULP energy -694409.265188 kJ/mol
# GULP energy per Si atom -12400.165450 kJ/mol
# Density = 2.046279 g / cm^3
# Si number density = 20.509471 Si / 1000 Ang^3
#
#
#
# Elastic Constant Matrix: (Units=GPa)
#
#
# Indices 1 2 3 4 5 6 
#
# 1 82.9142 31.7464 64.6864 0.0000 0.0000 0.0000
# 2 31.7464 61.9266 55.8524 0.0000 0.0000 0.0000
# 3 64.6864 55.8524 165.6091 0.0000 0.0000 0.0000
# 4 0.0000 0.0000 0.0000 25.4729 0.0000 0.0000
# 5 0.0000 0.0000 0.0000 0.0000 40.2782 0.0000
# 6 0.0000 0.0000 0.0000 0.0000 0.0000 20.7922
#
#
#
# Elastic Compliance Matrix: (Units=1/GPa)
#
#
# Indices 1 2 3 4 5 6 
#
# 1 0.018064 -0.004163 -0.005652 0.000000 0.000000 0.000000
# 2 -0.004163 0.024167 -0.006524 0.000000 0.000000 0.000000
# 3 -0.005652 -0.006524 0.010446 0.000000 0.000000 0.000000
# 4 0.000000 0.000000 0.000000 0.039257 0.000000 0.000000
# 5 0.000000 0.000000 0.000000 0.000000 0.024827 0.000000
# 6 0.000000 0.000000 0.000000 0.000000 0.000000 0.048095
#
#
# Mechanical properties :
#
#
# Convention : Reuss Voigt Hill
#
# Bulk Modulus (GPa) = 50.00314 68.33558 59.16936
# Shear Modulus (GPa) = 24.48576 27.85298 26.16937
#
# Velocity S-wave (km/s) = 3.45900 3.68918 3.57594
# Velocity P-wave (km/s) = 6.35502 7.17900 6.77954
#
# Compressibility (1/GPa) = 0.01999875
#
# Stress axis : x y z
#
# Youngs Moduli (GPa) = 55.35924 41.37944 95.72883
#
# Poissons Ratio (x) = 0.17226 0.54103
# Poissons Ratio (y) = 0.23046 0.62456
# Poissons Ratio (z) = 0.31287 0.26997
#
# Static dielectric constant tensor:
#      x y z
#    x 3.707150 0.000000 0.000000 
#    y 0.000000 3.734160 0.000000 
#    z 0.000000 0.000000 3.682920 
# 
# 
# High freq. dielectric constant tensor:
#      x y z
#    x 1.795590 0.000000 0.000000 
#    y 0.000000 1.800090 0.000000 
#    z 0.000000 0.000000 1.796560 
# 
# From -- ./inp_files/31880.got.cif
#   From: 2010.03.12/outbox.cif.g09.slc.cpg/sg51_16_cif.got.tgz:31880.got - 2010.04.16 13:43:02.
