data_PCOD8213147
_publ_section_title
;
Structure prediction by ZEFSAII (Michael W. Deem and Ramdas Pophale) SiO2 
 PCOD8213147
Probable space group: P M M A
;
_chemical_formula_sum "Si O2"
_cell_formula_units_Z 52
_cell_length_a 9.023850
_cell_length_b 10.462371
_cell_length_c 29.887726
_cell_angle_alpha 90.000000
_cell_angle_beta 90.000000
_cell_angle_gamma 90.000000
_cell_volume 2821.726111
_symmetry_space_group_name_H-M "P M M A"
_symmetry_group_IT_number 51
_symmetry_cell_setting 'orthorhombic'
loop_
_space_group_symop_operation_xyz
x,y,z
1/2-x,-y,z
1/2+x,-y,-z
-x,y,-z
-x,-y,-z
1/2+x,y,-z
1/2-x,y,z
x,-y,z
loop_
_atom_site_type_symbol
_atom_site_label
_atom_site_fract_x
_atom_site_fract_y
_atom_site_fract_z
Si Si1 0.923725 0.854461 0.042557
Si Si2 0.924541 0.852884 0.771841
Si Si3 0.085552 0.848755 0.860460
Si Si4 0.085363 0.146718 0.457422
Si Si5 0.576120 0.353162 0.291569
Si Si6 0.424273 0.708372 0.606917
Si Si7 0.075231 0.500000 0.452633
O O1 0.750000 0.846052 0.035533
O O2 0.965906 0.792153 0.091050
O O3 0.980805 0.000000 0.043047
O O4 0.000000 0.783179 0.000000
O O5 0.750000 0.843705 0.767868
O O6 0.971583 0.809966 0.821709
O O7 0.994271 0.751206 0.738300
O O8 0.977284 0.000000 0.761887
O O9 0.250000 0.796873 0.848016
O O10 0.094523 0.000000 0.865961
O O11 0.250000 0.209495 0.452548
O O12 0.000000 0.210395 0.500000
O O13 0.985217 0.156286 0.411504
O O14 0.108018 0.000000 0.467809
O O15 0.750000 0.338332 0.283348
O O16 0.526717 0.500000 0.281103
O O17 0.533365 0.318685 0.342120
O O18 0.250000 0.688811 0.599623
O O19 0.521426 0.621234 0.574765
O O20 0.250000 0.500000 0.458002
O O21 0.000000 0.500000 0.500000
#
# Coordination Sequence:
#
# PCOD8213147 Si02
#       7
#     8   8   8   8   8   8   4
#     4   8  13  20  32  54  86 126 170 213 260 315
#     4  10  21  35  53  80 110 140 179 226 274 323
#     4   8  14  26  43  63  92 133 178 220 264 317
#     4  10  21  37  56  80 110 142 175 209 249 300
#     4  10  22  41  61  80 106 140 179 221 268 323
#     4  11  22  39  59  80 106 133 169 211 253 304
#     4  12  24  38  58  82 108 136 166 200 245 296
#
# _framework density 18.428436000000001
#
# number of rings (size 3 to 8) (size 9 to 14) (size 15 to 20)
#    0.000    2.308    0.769    3.462    0.000    4.615 
#    0.000    6.154    0.000    0.000    0.000    0.000 
#    0.000    0.615    0.000    2.000    0.000    4.000 
#
# Total GULP energy -644214.194807 kJ/mol
# GULP energy per Si atom -12388.734516 kJ/mol
# Density = 1.838649 g / cm^3
# Si number density = 18.428436 Si / 1000 Ang^3
#
#
#
# Elastic Constant Matrix: (Units=GPa)
#
#
# Indices 1 2 3 4 5 6 
#
# 1 92.8887 36.8179 78.0462 0.0000 0.0000 0.0000
# 2 36.8179 61.4994 55.9936 0.0000 0.0000 0.0000
# 3 78.0462 55.9936 165.0880 0.0000 0.0000 0.0000
# 4 0.0000 0.0000 0.0000 12.2748 0.0000 0.0000
# 5 0.0000 0.0000 0.0000 0.0000 36.7962 0.0000
# 6 0.0000 0.0000 0.0000 0.0000 0.0000 25.7323
#
#
#
# Elastic Compliance Matrix: (Units=1/GPa)
#
#
# Indices 1 2 3 4 5 6 
#
# 1 0.018701 -0.004552 -0.007297 0.000000 0.000000 0.000000
# 2 -0.004552 0.024633 -0.006203 0.000000 0.000000 0.000000
# 3 -0.007297 -0.006203 0.011611 0.000000 0.000000 0.000000
# 4 0.000000 0.000000 0.000000 0.081468 0.000000 0.000000
# 5 0.000000 0.000000 0.000000 0.000000 0.027177 0.000000
# 6 0.000000 0.000000 0.000000 0.000000 0.000000 0.038862
#
#
# Mechanical properties :
#
#
# Convention : Reuss Voigt Hill
#
# Bulk Modulus (GPa) = 53.07550 73.46572 63.27061
# Shear Modulus (GPa) = 20.42192 24.86856 22.64524
#
# Velocity S-wave (km/s) = 3.33254 3.67749 3.50926
# Velocity P-wave (km/s) = 6.60841 7.61472 7.12934
#
# Compressibility (1/GPa) = 0.01884109
#
# Stress axis : x y z
#
# Youngs Moduli (GPa) = 53.47352 40.59590 86.12541
#
# Poissons Ratio (x) = 0.18479 0.62846
# Poissons Ratio (y) = 0.24340 0.53423
# Poissons Ratio (z) = 0.39020 0.25181
#
# Static dielectric constant tensor:
#      x y z
#    x 3.316590 0.000000 0.000000 
#    y 0.000000 3.254170 0.000000 
#    z 0.000000 0.000000 3.723280 
# 
# 
# High freq. dielectric constant tensor:
#      x y z
#    x 1.719700 0.000000 0.000000 
#    y 0.000000 1.674070 0.000000 
#    z 0.000000 0.000000 1.724580 
# 
# From -- ./inp_files/36198.got.cif
#   From: 2010.03.12/outbox.cif.g09.slc.cpg/sg51_19_cif.got.tgz:36198.got - 2010.04.16 13:43:02.
