data_PCOD8213692
_publ_section_title
;
Structure prediction by ZEFSAII (Michael W. Deem and Ramdas Pophale) SiO2 
 PCOD8213692
Probable space group: P M M A
;
_chemical_formula_sum "Si O2"
_cell_formula_units_Z 64
_cell_length_a 14.615795
_cell_length_b 23.770605
_cell_length_c 9.385876
_cell_angle_alpha 90.000000
_cell_angle_beta 90.000000
_cell_angle_gamma 90.000000
_cell_volume 3260.900074
_symmetry_space_group_name_H-M "P M M A"
_symmetry_group_IT_number 51
_symmetry_cell_setting 'orthorhombic'
loop_
_space_group_symop_operation_xyz
x,y,z
1/2-x,-y,z
1/2+x,-y,-z
-x,y,-z
-x,-y,-z
1/2+x,y,-z
1/2-x,y,z
x,-y,z
loop_
_atom_site_type_symbol
_atom_site_label
_atom_site_fract_x
_atom_site_fract_y
_atom_site_fract_z
Si Si1 0.350518 0.845720 0.370681
Si Si2 0.645193 0.747037 0.270621
Si Si3 0.645623 0.436803 0.873647
Si Si4 0.648726 0.867050 0.293997
Si Si5 0.144661 0.634995 0.857307
Si Si6 0.487883 0.937915 0.331415
Si Si7 0.141057 0.279790 0.416923
Si Si8 0.021079 0.383462 0.341780
O O1 0.250000 0.854117 0.305553
O O2 0.349957 0.858161 0.537328
O O3 0.413962 0.890580 0.289098
O O4 0.381586 0.780989 0.347237
O O5 0.750000 0.760526 0.309782
O O6 0.605910 0.808631 0.229287
O O7 0.635677 0.703381 0.139257
O O8 0.606147 0.719786 0.417656
O O9 0.750000 0.425591 0.830298
O O10 0.632871 0.500000 0.934130
O O11 0.584555 0.429601 0.733958
O O12 0.614266 0.391815 0.993271
O O13 0.750000 0.881377 0.235137
O O14 0.582867 0.919135 0.256487
O O15 0.250000 0.617831 0.820230
O O16 0.076884 0.615024 0.734925
O O17 0.500000 0.940385 0.500000
O O18 0.460326 0.000000 0.274296
O O19 0.250000 0.294155 0.403325
O O20 0.077726 0.324661 0.334515
O O21 0.000000 0.404041 0.500000
#
# Coordination Sequence:
#
# PCOD8213692 Si02
#       8
#     8   8   8   8   8   8   8   8
#     4   8  15  25  37  54  83 125 168 214 268 326
#     4   8  14  27  47  71  99 131 175 225 277 333
#     4  10  24  47  67  82 111 154 191 224 268 329
#     4   8  14  23  36  54  82 120 162 218 275 326
#     4  10  21  37  57  82 112 149 190 229 274 333
#     4   9  16  22  31  49  78 121 173 221 265 328
#     4   9  17  30  48  75 108 136 172 226 289 344
#     4  12  23  33  60  92 116 145 180 232 284 332
#
# _framework density 19.626483
#
# number of rings (size 3 to 8) (size 9 to 14) (size 15 to 20)
#    0.000    2.750    1.250    2.250    1.750    2.750 
#    0.000    2.500    0.000    1.500    0.000    0.000 
#    0.000    0.000    0.000    2.250    0.000   20.875 
#
# Total GULP energy -792976.628719 kJ/mol
# GULP energy per Si atom -12390.259824 kJ/mol
# Density = 1.958181 g / cm^3
# Si number density = 19.626483 Si / 1000 Ang^3
#
#
#
# Elastic Constant Matrix: (Units=GPa)
#
#
# Indices 1 2 3 4 5 6 
#
# 1 91.9427 49.8140 38.4348 0.0000 0.0000 0.0000
# 2 49.8140 118.0396 38.8587 0.0000 0.0000 0.0000
# 3 38.4348 38.8587 59.9811 0.0000 0.0000 0.0000
# 4 0.0000 0.0000 0.0000 13.7603 0.0000 0.0000
# 5 0.0000 0.0000 0.0000 0.0000 20.9399 0.0000
# 6 0.0000 0.0000 0.0000 0.0000 0.0000 28.3624
#
#
#
# Elastic Compliance Matrix: (Units=1/GPa)
#
#
# Indices 1 2 3 4 5 6 
#
# 1 0.016493 -0.004425 -0.007702 0.000000 0.000000 0.000000
# 2 -0.004425 0.011955 -0.004910 0.000000 0.000000 0.000000
# 3 -0.007702 -0.004910 0.024788 0.000000 0.000000 0.000000
# 4 0.000000 0.000000 0.000000 0.072673 0.000000 0.000000
# 5 0.000000 0.000000 0.000000 0.000000 0.047756 0.000000
# 6 0.000000 0.000000 0.000000 0.000000 0.000000 0.035258
#
#
# Mechanical properties :
#
#
# Convention : Reuss Voigt Hill
#
# Bulk Modulus (GPa) = 52.18308 58.24203 55.21256
# Shear Modulus (GPa) = 20.04936 22.13627 21.09282
#
# Velocity S-wave (km/s) = 3.19963 3.36203 3.28184
# Velocity P-wave (km/s) = 6.34791 6.69408 6.52329
#
# Compressibility (1/GPa) = 0.01916330
#
# Stress axis : x y z
#
# Youngs Moduli (GPa) = 60.63047 83.64399 40.34196
#
# Poissons Ratio (x) = 0.37011 0.31071
# Poissons Ratio (y) = 0.26828 0.19808
# Poissons Ratio (z) = 0.46697 0.41069
#
# Static dielectric constant tensor:
#      x y z
#    x 3.831750 0.000000 0.000000 
#    y 0.000000 3.768480 0.000000 
#    z 0.000000 0.000000 2.941700 
# 
# 
# High freq. dielectric constant tensor:
#      x y z
#    x 1.777290 0.000000 0.000000 
#    y 0.000000 1.764680 0.000000 
#    z 0.000000 0.000000 1.688840 
# 
# From -- ./inp_files/8735.got.cif
#   From: 2010.03.12/outbox.cif.g09.slc.cpg/sg51_5_cif.got.tgz:8735.got - 2010.04.16 13:43:02.
