data_PCOD8213231
_publ_section_title
;
Structure prediction by ZEFSAII (Michael W. Deem and Ramdas Pophale) SiO2 
 PCOD8213231
Probable space group: P M M A
;
_chemical_formula_sum "Si O2"
_cell_formula_units_Z 40
_cell_length_a 9.173560
_cell_length_b 9.473548
_cell_length_c 25.642246
_cell_angle_alpha 90.000000
_cell_angle_beta 90.000000
_cell_angle_gamma 90.000000
_cell_volume 2228.469159
_symmetry_space_group_name_H-M "P M M A"
_symmetry_group_IT_number 51
_symmetry_cell_setting 'orthorhombic'
loop_
_space_group_symop_operation_xyz
x,y,z
1/2-x,-y,z
1/2+x,-y,-z
-x,y,-z
-x,-y,-z
1/2+x,y,-z
1/2-x,y,z
x,-y,z
loop_
_atom_site_type_symbol
_atom_site_label
_atom_site_fract_x
_atom_site_fract_y
_atom_site_fract_z
Si Si1 0.079363 0.662335 0.552194
Si Si2 0.422949 0.343575 0.744623
Si Si3 0.083406 0.333863 0.861611
Si Si4 0.579970 0.163284 0.947900
Si Si5 0.923811 0.841072 0.349745
O O1 0.250000 0.684098 0.543642
O O2 0.041785 0.500000 0.564966
O O3 0.020139 0.756709 0.599718
O O4 0.000000 0.713935 0.500000
O O5 0.250000 0.351523 0.740250
O O6 0.486721 0.500000 0.733332
O O7 0.465290 0.294000 0.802799
O O8 0.486461 0.234402 0.702201
O O9 0.250000 0.286463 0.871822
O O10 0.067189 0.500000 0.870921
O O11 0.975955 0.252059 0.899346
O O12 0.750000 0.191058 0.955500
O O13 0.544683 0.000000 0.937116
O O14 0.500000 0.216179 0.000000
O O15 0.750000 0.840837 0.348457
O O16 0.985266 0.000000 0.351674
#
# Coordination Sequence:
#
# PCOD8213231 Si02
#       5
#     8   8   8   8   8
#     4   9  17  29  45  64  87 117 152 189 229 273
#     4   8  14  26  44  66  93 122 151 186 228 274
#     4   9  18  32  51  76 102 127 158 197 241 287
#     4  10  21  36  53  73  98 130 166 201 239 285
#     4   9  16  25  40  65  93 119 150 188 229 272
#
# _framework density 17.949542000000001
#
# number of rings (size 3 to 8) (size 9 to 14) (size 15 to 20)
#    0.000    3.000    0.000    2.400    0.000    5.600 
#    0.000    2.000    0.000    1.200    0.000    2.800 
#    0.000    0.000    0.000    0.000    0.000    0.000 
#
# Total GULP energy -495945.254620 kJ/mol
# GULP energy per Si atom -12398.631365 kJ/mol
# Density = 1.790869 g / cm^3
# Si number density = 17.949542 Si / 1000 Ang^3
#
#
#
# Elastic Constant Matrix: (Units=GPa)
#
#
# Indices 1 2 3 4 5 6 
#
# 1 40.7977 30.1070 44.0817 0.0000 0.0000 0.0000
# 2 30.1070 99.7337 89.5879 0.0000 0.0000 0.0000
# 3 44.0817 89.5879 173.0232 0.0000 0.0000 0.0000
# 4 0.0000 0.0000 0.0000 23.2775 0.0000 0.0000
# 5 0.0000 0.0000 0.0000 0.0000 26.0997 0.0000
# 6 0.0000 0.0000 0.0000 0.0000 0.0000 19.2760
#
#
#
# Elastic Compliance Matrix: (Units=1/GPa)
#
#
# Indices 1 2 3 4 5 6 
#
# 1 0.034998 -0.004778 -0.006443 0.000000 0.000000 0.000000
# 2 -0.004778 0.019397 -0.008826 0.000000 0.000000 0.000000
# 3 -0.006443 -0.008826 0.011991 0.000000 0.000000 0.000000
# 4 0.000000 0.000000 0.000000 0.042960 0.000000 0.000000
# 5 0.000000 0.000000 0.000000 0.000000 0.038315 0.000000
# 6 0.000000 0.000000 0.000000 0.000000 0.000000 0.051878
#
#
# Mechanical properties :
#
#
# Convention : Reuss Voigt Hill
#
# Bulk Modulus (GPa) = 38.03270 71.23422 54.63346
# Shear Modulus (GPa) = 20.12902 23.71585 21.92243
#
# Velocity S-wave (km/s) = 3.35240 3.63884 3.49855
# Velocity P-wave (km/s) = 6.01826 7.57805 6.84275
#
# Compressibility (1/GPa) = 0.02629316
#
# Stress axis : x y z
#
# Youngs Moduli (GPa) = 28.57275 51.55322 83.39465
#
# Poissons Ratio (x) = 0.24630 0.53730
# Poissons Ratio (y) = 0.13651 0.73607
# Poissons Ratio (z) = 0.18409 0.45503
#
# Static dielectric constant tensor:
#      x y z
#    x 2.897900 0.000000 0.000000 
#    y 0.000000 3.425600 0.000000 
#    z 0.000000 0.000000 3.534020 
# 
# 
# High freq. dielectric constant tensor:
#      x y z
#    x 1.646890 0.000000 0.000000 
#    y 0.000000 1.692960 0.000000 
#    z 0.000000 0.000000 1.709130 
# 
# From -- ./inp_files/34331.got.cif
#   From: 2010.03.12/outbox.cif.g09.slc.cpg/sg51_18_cif.got.tgz:34331.got - 2010.04.16 13:43:02.
