data_PCOD8213446
_publ_section_title
;
Structure prediction by ZEFSAII (Michael W. Deem and Ramdas Pophale) SiO2 
 PCOD8213446
Probable space group: P M M A
;
_chemical_formula_sum "Si O2"
_cell_formula_units_Z 48
_cell_length_a 8.628883
_cell_length_b 30.976938
_cell_length_c 8.935920
_cell_angle_alpha 90.000000
_cell_angle_beta 90.000000
_cell_angle_gamma 90.000000
_cell_volume 2388.539012
_symmetry_space_group_name_H-M "P M M A"
_symmetry_group_IT_number 51
_symmetry_cell_setting 'orthorhombic'
loop_
_space_group_symop_operation_xyz
x,y,z
1/2-x,-y,z
1/2+x,-y,-z
-x,y,-z
-x,-y,-z
1/2+x,y,-z
1/2-x,y,z
x,-y,z
loop_
_atom_site_type_symbol
_atom_site_label
_atom_site_fract_x
_atom_site_fract_y
_atom_site_fract_z
Si Si1 0.567598 0.000000 0.665725
Si Si2 0.565997 0.752924 0.837271
Si Si3 0.566247 0.584174 0.836295
Si Si4 0.566244 0.166968 0.336241
Si Si5 0.566529 0.500000 0.663684
Si Si6 0.932607 0.332327 0.663277
Si Si7 0.066121 0.086025 0.166069
O O1 0.500000 0.000000 0.500000
O O2 0.511078 0.958714 0.759822
O O3 0.750000 0.000000 0.647772
O O4 0.750000 0.759547 0.841262
O O5 0.485313 0.795064 0.772560
O O6 0.514772 0.712149 0.738837
O O7 0.500000 0.744122 0.000000
O O8 0.750000 0.584649 0.843955
O O9 0.504438 0.542465 0.747688
O O10 0.501668 0.627270 0.756948
O O11 0.500000 0.582081 0.000000
O O12 0.500000 0.175910 0.500000
O O13 0.750000 0.164555 0.344408
O O14 0.500722 0.122665 0.272485
O O15 0.750000 0.500000 0.655913
O O16 0.500000 0.500000 0.500000
O O17 0.750000 0.335201 0.653097
O O18 0.000000 0.334490 0.500000
O O19 0.250000 0.090072 0.158247
O O20 0.000000 0.090174 0.000000
#
# Coordination Sequence:
#
# PCOD8213446 Si02
#       7
#     4   8   8   8   4   8   8
#     4  10  23  40  62  90 122 158 199 244 293 346
#     4  11  23  40  61  87 117 153 194 240 291 347
#     4  10  21  37  56  83 114 148 189 235 283 340
#     4  12  25  42  63  89 120 156 196 243 293 348
#     4  10  21  36  56  82 114 148 189 234 282 338
#     4  10  22  38  58  84 115 149 191 237 287 343
#     4  11  23  41  63  91 123 159 200 244 293 347
#
# _framework density 20.095965
#
# number of rings (size 3 to 8) (size 9 to 14) (size 15 to 20)
#    0.000    1.333    0.000    5.500    0.000    6.667 
#    0.000    0.000    0.000    0.000    0.000    0.000 
#    0.000    0.000    0.000    0.000    0.000    0.000 
#
# Total GULP energy -595449.946144 kJ/mol
# GULP energy per Si atom -12405.207211 kJ/mol
# Density = 2.005023 g / cm^3
# Si number density = 20.095965 Si / 1000 Ang^3
#
#
#
# Elastic Constant Matrix: (Units=GPa)
#
#
# Indices 1 2 3 4 5 6 
#
# 1 61.7725 33.8170 26.5688 0.0000 0.0000 0.0000
# 2 33.8170 142.2668 37.5562 0.0000 0.0000 0.0000
# 3 26.5688 37.5562 133.5005 0.0000 0.0000 0.0000
# 4 0.0000 0.0000 0.0000 51.0928 0.0000 0.0000
# 5 0.0000 0.0000 0.0000 0.0000 43.0973 0.0000
# 6 0.0000 0.0000 0.0000 0.0000 0.0000 -0.0580
#
#
#
# Elastic Compliance Matrix: (Units=1/GPa)
#
#
# Indices 1 2 3 4 5 6 
#
# 1 0.019525 -0.003905 -0.002787 0.000000 0.000000 0.000000
# 2 -0.003905 0.008374 -0.001579 0.000000 0.000000 0.000000
# 3 -0.002787 -0.001579 0.008489 0.000000 0.000000 0.000000
# 4 0.000000 0.000000 0.000000 0.019572 0.000000 0.000000
# 5 0.000000 0.000000 0.000000 0.000000 0.023203 0.000000
# 6 0.000000 0.000000 0.000000 0.000000 0.000000-17.247458
#
#
# Mechanical properties :
#
#
# Convention : Reuss Voigt Hill
#
# Bulk Modulus (GPa) = 50.38691 59.26930 54.82811
# Shear Modulus (GPa) = -0.29163 34.79959 17.25398
#
# Velocity S-wave (km/s) = -0.38136 4.16585 2.93333
# Velocity P-wave (km/s) = 4.99336 7.25922 6.23016
#
# Compressibility (1/GPa) = 0.01984642
#
# Stress axis : x y z
#
# Youngs Moduli (GPa) = 51.21588 119.41611 117.79422
#
# Poissons Ratio (x) = 0.46637 0.32831
# Poissons Ratio (y) = 0.20002 0.18594
# Poissons Ratio (z) = 0.14275 0.18850
#
# Static dielectric constant tensor:
#      x y z
#    x 3.649810 0.000000 0.000000 
#    y 0.000000 4.788890 0.000000 
#    z 0.000000 0.000000 3.758680 
# 
# 
# High freq. dielectric constant tensor:
#      x y z
#    x 1.783580 0.000000 0.000000 
#    y 0.000000 1.808540 0.000000 
#    z 0.000000 0.000000 1.804420 
# 
# From -- ./inp_files/6161.got.cif
#   From: 2010.03.12/outbox.cif.g09.slc.cpg/sg51_4_cif.got.tgz:6161.got - 2010.04.16 13:43:02.
