data_PCOD8213840
_publ_section_title
;
Structure prediction by ZEFSAII (Michael W. Deem and Ramdas Pophale) SiO2 
 PCOD8213840
Probable space group: P M M A
;
_chemical_formula_sum "Si O2"
_cell_formula_units_Z 64
_cell_length_a 8.859013
_cell_length_b 20.260969
_cell_length_c 17.975172
_cell_angle_alpha 90.000000
_cell_angle_beta 90.000000
_cell_angle_gamma 90.000000
_cell_volume 3226.402948
_symmetry_space_group_name_H-M "P M M A"
_symmetry_group_IT_number 51
_symmetry_cell_setting 'orthorhombic'
loop_
_space_group_symop_operation_xyz
x,y,z
1/2-x,-y,z
1/2+x,-y,-z
-x,y,-z
-x,-y,-z
1/2+x,y,-z
1/2-x,y,z
x,-y,z
loop_
_atom_site_type_symbol
_atom_site_label
_atom_site_fract_x
_atom_site_fract_y
_atom_site_fract_z
Si Si1 0.429340 0.928134 0.735440
Si Si2 0.427097 0.209562 0.787909
Si Si3 0.429953 0.297169 0.924833
Si Si4 0.572256 0.423546 0.866984
Si Si5 0.921231 0.750728 0.377356
Si Si6 0.921316 0.102904 0.425455
Si Si7 0.573310 0.375693 0.575183
Si Si8 0.415168 0.424296 0.718960
O O1 0.250000 0.918625 0.729280
O O2 0.492558 0.866420 0.784458
O O3 0.493111 0.926518 0.650609
O O4 0.471751 0.000000 0.770725
O O5 0.250000 0.205043 0.799642
O O6 0.493765 0.252040 0.856537
O O7 0.465471 0.244639 0.709810
O O8 0.250000 0.297044 0.928017
O O9 0.487270 0.373117 0.921496
O O10 0.500000 0.266167 0.000000
O O11 0.750000 0.414290 0.874767
O O12 0.526623 0.500000 0.884048
O O13 0.521600 0.399291 0.785158
O O14 0.750000 0.723915 0.385133
O O15 0.937454 0.818666 0.420504
O O16 0.037986 0.701676 0.416254
O O17 0.750000 0.079865 0.432072
O O18 0.000000 0.076069 0.500000
O O19 0.500000 0.403666 0.500000
O O20 0.750000 0.388746 0.573497
O O21 0.499199 0.415018 0.642066
O O22 0.250000 0.388004 0.720858
O O23 0.384289 0.500000 0.731691
#
# Coordination Sequence:
#
# PCOD8213840 Si02
#       8
#     8   8   8   8   8   8   8   8
#     4   8  14  27  48  73  99 130 174 223 265 308
#     4   8  16  31  52  76 101 134 173 215 262 312
#     4  11  22  36  56  82 113 145 177 214 260 314
#     4  10  21  38  60  86 114 142 175 214 255 306
#     4   9  17  32  51  70  95 126 167 215 261 313
#     4   9  17  27  42  67  99 134 168 208 259 311
#     4  12  24  35  49  70  97 130 172 222 274 321
#     4  10  21  38  58  77  99 131 170 210 256 311
#
# _framework density 19.836333
#
# number of rings (size 3 to 8) (size 9 to 14) (size 15 to 20)
#    0.000    2.375    0.000    4.875    0.000    4.750 
#    0.000    0.625    0.000    1.875    0.000    0.000 
#    0.000    0.000    0.000    0.000    0.000    0.125 
#
# Total GULP energy -793132.964734 kJ/mol
# GULP energy per Si atom -12392.702574 kJ/mol
# Density = 1.979118 g / cm^3
# Si number density = 19.836333 Si / 1000 Ang^3
#
#
#
# Elastic Constant Matrix: (Units=GPa)
#
#
# Indices 1 2 3 4 5 6 
#
# 1 75.1016 18.2984 25.3204 0.0000 0.0000 0.0000
# 2 18.2984 72.8275 30.8132 0.0000 0.0000 0.0000
# 3 25.3204 30.8132 102.1871 0.0000 0.0000 0.0000
# 4 0.0000 0.0000 0.0000 8.9489 0.0000 0.0000
# 5 0.0000 0.0000 0.0000 0.0000 29.0303 0.0000
# 6 0.0000 0.0000 0.0000 0.0000 0.0000 11.0452
#
#
#
# Elastic Compliance Matrix: (Units=1/GPa)
#
#
# Indices 1 2 3 4 5 6 
#
# 1 0.014917 -0.002504 -0.002941 0.000000 0.000000 0.000000
# 2 -0.002504 0.016159 -0.004252 0.000000 0.000000 0.000000
# 3 -0.002941 -0.004252 0.011797 0.000000 0.000000 0.000000
# 4 0.000000 0.000000 0.000000 0.111746 0.000000 0.000000
# 5 0.000000 0.000000 0.000000 0.000000 0.034447 0.000000
# 6 0.000000 0.000000 0.000000 0.000000 0.000000 0.090537
#
#
# Mechanical properties :
#
#
# Convention : Reuss Voigt Hill
#
# Bulk Modulus (GPa) = 42.59127 44.33113 43.46120
# Shear Modulus (GPa) = 16.29603 21.51716 18.90659
#
# Velocity S-wave (km/s) = 2.86933 3.29710 3.09063
# Velocity P-wave (km/s) = 5.70047 6.07384 5.89011
#
# Compressibility (1/GPa) = 0.02347899
#
# Stress axis : x y z
#
# Youngs Moduli (GPa) = 67.03794 61.88410 84.76739
#
# Poissons Ratio (x) = 0.15493 0.24932
# Poissons Ratio (y) = 0.16783 0.36045
# Poissons Ratio (z) = 0.19718 0.26315
#
# Static dielectric constant tensor:
#      x y z
#    x 3.413340 0.000000 0.000000 
#    y 0.000000 3.758960 0.000000 
#    z 0.000000 0.000000 3.725640 
# 
# 
# High freq. dielectric constant tensor:
#      x y z
#    x 1.743370 0.000000 0.000000 
#    y 0.000000 1.774130 0.000000 
#    z 0.000000 0.000000 1.763010 
# 
# From -- ./inp_files/28428.got.cif
#   From: 2010.03.12/outbox.cif.g09.slc.cpg/sg51_15_cif.got.tgz:28428.got - 2010.04.16 13:43:02.
