data_PCOD8213245
_publ_section_title
;
Structure prediction by ZEFSAII (Michael W. Deem and Ramdas Pophale) SiO2 
 PCOD8213245
Probable space group: P M M A
;
_chemical_formula_sum "Si O2"
_cell_formula_units_Z 48
_cell_length_a 9.706182
_cell_length_b 8.997871
_cell_length_c 30.486338
_cell_angle_alpha 90.000000
_cell_angle_beta 90.000000
_cell_angle_gamma 90.000000
_cell_volume 2662.523523
_symmetry_space_group_name_H-M "P M M A"
_symmetry_group_IT_number 51
_symmetry_cell_setting 'orthorhombic'
loop_
_space_group_symop_operation_xyz
x,y,z
1/2-x,-y,z
1/2+x,-y,-z
-x,y,-z
-x,-y,-z
1/2+x,y,-z
1/2-x,y,z
x,-y,z
loop_
_atom_site_type_symbol
_atom_site_label
_atom_site_fract_x
_atom_site_fract_y
_atom_site_fract_z
Si Si1 0.907888 0.826496 0.293080
Si Si2 0.408766 0.325630 0.796606
Si Si3 0.911955 0.671007 0.635605
Si Si4 0.909873 0.826903 0.869829
Si Si5 0.401904 0.676277 0.462743
Si Si6 0.091307 0.328458 0.040670
O O1 0.750000 0.786103 0.304317
O O2 0.957047 0.742837 0.249420
O O3 0.003024 0.777211 0.332948
O O4 0.927331 0.000000 0.284802
O O5 0.250000 0.285292 0.806137
O O6 0.433313 0.500000 0.794339
O O7 0.500770 0.259259 0.834692
O O8 0.750000 0.696595 0.642891
O O9 0.950692 0.500000 0.645065
O O10 0.954434 0.716007 0.586028
O O11 0.750000 0.793195 0.860417
O O12 0.951680 0.769500 0.917789
O O13 0.943665 0.000000 0.866939
O O14 0.500000 0.746474 0.500000
O O15 0.250000 0.743521 0.470204
O O16 0.395176 0.500000 0.467465
O O17 0.250000 0.303470 0.027920
O O18 0.061213 0.500000 0.052066
O O19 0.000000 0.273862 0.000000
#
# Coordination Sequence:
#
# PCOD8213245 Si02
#       6
#     8   8   8   8   8   8
#     4  10  21  36  53  74 101 132 167 208 253 301
#     4  10  21  37  57  79 102 131 169 211 255 304
#     4   9  18  32  50  74 103 133 167 207 250 299
#     4  10  21  36  54  78 108 140 173 209 252 303
#     4   8  14  25  42  67  98 128 160 201 247 293
#     4   9  18  33  52  74 102 136 174 215 255 296
#
# _framework density 18.028009999999998
#
# number of rings (size 3 to 8) (size 9 to 14) (size 15 to 20)
#    0.000    2.667    0.000    2.500    0.000    5.667 
#    0.000    3.333    0.000    0.500    0.000    0.000 
#    0.000    0.000    0.000    0.000    0.000    0.000 
#
# Total GULP energy -595251.323794 kJ/mol
# GULP energy per Si atom -12401.069246 kJ/mol
# Density = 1.798698 g / cm^3
# Si number density = 18.028010 Si / 1000 Ang^3
#
#
#
# Elastic Constant Matrix: (Units=GPa)
#
#
# Indices 1 2 3 4 5 6 
#
# 1 73.7102 39.8440 77.3380 0.0000 0.0000 0.0000
# 2 39.8440 69.1745 55.0404 0.0000 0.0000 0.0000
# 3 77.3380 55.0404 147.4761 0.0000 0.0000 0.0000
# 4 0.0000 0.0000 0.0000 -12.8449 0.0000 0.0000
# 5 0.0000 0.0000 0.0000 0.0000 38.2017 0.0000
# 6 0.0000 0.0000 0.0000 0.0000 0.0000 26.0540
#
#
#
# Elastic Compliance Matrix: (Units=1/GPa)
#
#
# Indices 1 2 3 4 5 6 
#
# 1 0.032601 -0.007361 -0.014349 0.000000 0.000000 0.000000
# 2 -0.007361 0.022224 -0.004434 0.000000 0.000000 0.000000
# 3 -0.014349 -0.004434 0.015961 0.000000 0.000000 0.000000
# 4 0.000000 0.000000 0.000000 -0.077852 0.000000 0.000000
# 5 0.000000 0.000000 0.000000 0.000000 0.026177 0.000000
# 6 0.000000 0.000000 0.000000 0.000000 0.000000 0.038382
#
#
# Mechanical properties :
#
#
# Convention : Reuss Voigt Hill
#
# Bulk Modulus (GPa) = 54.06199 70.53397 62.29798
# Shear Modulus (GPa) = 43.12346 18.15805 30.64076
#
# Velocity S-wave (km/s) = 4.89614 3.17711 4.12712
# Velocity P-wave (km/s) = 7.87501 7.25729 7.57245
#
# Compressibility (1/GPa) = 0.01849728
#
# Stress axis : x y z
#
# Youngs Moduli (GPa) = 30.67425 44.99590 62.65440
#
# Poissons Ratio (x) = 0.33119 0.89903
# Poissons Ratio (y) = 0.22578 0.27784
# Poissons Ratio (z) = 0.44015 0.19953
#
# Static dielectric constant tensor:
#      x y z
#    x 3.431490 0.000000 0.000000 
#    y 0.000000 3.196030 0.000000 
#    z 0.000000 0.000000 3.447400 
# 
# 
# High freq. dielectric constant tensor:
#      x y z
#    x 1.695870 0.000000 0.000000 
#    y 0.000000 1.685020 0.000000 
#    z 0.000000 0.000000 1.707120 
# 
# From -- ./inp_files/36968.got.cif
#   From: 2010.03.12/outbox.cif.g09.slc.cpg/sg51_19_cif.got.tgz:36968.got - 2010.04.16 13:43:02.
