data_PCOD8213781
_publ_section_title
;
Structure prediction by ZEFSAII (Michael W. Deem and Ramdas Pophale) SiO2 
 PCOD8213781
Probable space group: P M M A
;
_chemical_formula_sum "Si O2"
_cell_formula_units_Z 28
_cell_length_a 22.685161
_cell_length_b 9.587078
_cell_length_c 6.387072
_cell_angle_alpha 90.000000
_cell_angle_beta 90.000000
_cell_angle_gamma 90.000000
_cell_volume 1389.088572
_symmetry_space_group_name_H-M "P M M A"
_symmetry_group_IT_number 51
_symmetry_cell_setting 'orthorhombic'
loop_
_space_group_symop_operation_xyz
x,y,z
1/2-x,-y,z
1/2+x,-y,-z
-x,y,-z
-x,-y,-z
1/2+x,y,-z
1/2-x,y,z
x,-y,z
loop_
_atom_site_type_symbol
_atom_site_label
_atom_site_fract_x
_atom_site_fract_y
_atom_site_fract_z
Si Si1 0.399391 0.842605 0.285659
Si Si2 0.317729 0.660728 0.014355
Si Si3 0.411405 0.345080 0.674449
Si Si4 0.500000 0.245915 0.000000
O O1 0.343960 0.756969 0.197088
O O2 0.421543 0.769779 0.497420
O O3 0.452920 0.849759 0.120797
O O4 0.379335 0.000000 0.335572
O O5 0.250000 0.701014 0.980502
O O6 0.325491 0.500000 0.083987
O O7 0.350623 0.688365 0.795321
O O8 0.409142 0.500000 0.574843
O O9 0.465805 0.343371 0.835927
#
# Coordination Sequence:
#
# PCOD8213781 Si02
#       4
#     8   8   8   4
#     4  11  23  37  56  84 116 150 186 227 279 335
#     4   9  20  40  62  82 108 145 188 232 277 328
#     4  10  21  37  59  86 113 145 188 235 281 330
#     4  10  22  38  58  80 112 152 192 232 272 326
#
# _framework density 20.157101999999998
#
# number of rings (size 3 to 8) (size 9 to 14) (size 15 to 20)
#    0.000    2.000    0.000    2.571    0.000   13.143 
#    0.000    2.857    0.000    0.000    0.000    0.000 
#    0.000    0.000    0.000    0.000    0.000    0.000 
#
# Total GULP energy -347269.605272 kJ/mol
# GULP energy per Si atom -12402.485903 kJ/mol
# Density = 2.011122 g / cm^3
# Si number density = 20.157102 Si / 1000 Ang^3
#
#
#
# Elastic Constant Matrix: (Units=GPa)
#
#
# Indices 1 2 3 4 5 6 
#
# 1 129.9615 36.6537 39.1214 0.0000 0.0000 0.0000
# 2 36.6537 135.1104 59.8150 0.0000 0.0000 0.0000
# 3 39.1214 59.8150 101.0632 0.0000 0.0000 0.0000
# 4 0.0000 0.0000 0.0000 13.2368 0.0000 0.0000
# 5 0.0000 0.0000 0.0000 0.0000 18.5555 0.0000
# 6 0.0000 0.0000 0.0000 0.0000 0.0000 18.9260
#
#
#
# Elastic Compliance Matrix: (Units=1/GPa)
#
#
# Indices 1 2 3 4 5 6 
#
# 1 0.008850 -0.001198 -0.002717 0.000000 0.000000 0.000000
# 2 -0.001198 0.010191 -0.005568 0.000000 0.000000 0.000000
# 3 -0.002717 -0.005568 0.014242 0.000000 0.000000 0.000000
# 4 0.000000 0.000000 0.000000 0.075547 0.000000 0.000000
# 5 0.000000 0.000000 0.000000 0.000000 0.053892 0.000000
# 6 0.000000 0.000000 0.000000 0.000000 0.000000 0.052837
#
#
# Mechanical properties :
#
#
# Convention : Reuss Voigt Hill
#
# Bulk Modulus (GPa) = 69.84396 70.81282 70.32839
# Shear Modulus (GPa) = 20.89434 25.51332 23.20383
#
# Velocity S-wave (km/s) = 3.22308 3.56156 3.39654
# Velocity P-wave (km/s) = 6.96965 7.21940 7.09562
#
# Compressibility (1/GPa) = 0.01431763
#
# Stress axis : x y z
#
# Youngs Moduli (GPa) = 112.98999 98.12128 70.21506
#
# Poissons Ratio (x) = 0.11757 0.19076
# Poissons Ratio (y) = 0.13539 0.39096
# Poissons Ratio (z) = 0.30697 0.54635
#
# Static dielectric constant tensor:
#      x y z
#    x 3.717740 0.000000 0.000000 
#    y 0.000000 3.453670 0.000000 
#    z 0.000000 0.000000 3.586330 
# 
# 
# High freq. dielectric constant tensor:
#      x y z
#    x 1.788570 0.000000 0.000000 
#    y 0.000000 1.779550 0.000000 
#    z 0.000000 0.000000 1.783250 
# 
# From -- ./inp_files/2221.got.cif
#   From: 2010.03.12/outbox.cif.g09.slc.cpg/sg51_2_cif.got.tgz:2221.got - 2010.04.16 13:43:02.
