data_PCOD8213916
_publ_section_title
;
Structure prediction by ZEFSAII (Michael W. Deem and Ramdas Pophale) SiO2 
 PCOD8213916
Probable space group: P M M A
;
_chemical_formula_sum "Si O2"
_cell_formula_units_Z 44
_cell_length_a 8.987290
_cell_length_b 27.666117
_cell_length_c 9.684226
_cell_angle_alpha 90.000000
_cell_angle_beta 90.000000
_cell_angle_gamma 90.000000
_cell_volume 2407.919040
_symmetry_space_group_name_H-M "P M M A"
_symmetry_group_IT_number 51
_symmetry_cell_setting 'orthorhombic'
loop_
_space_group_symop_operation_xyz
x,y,z
1/2-x,-y,z
1/2+x,-y,-z
-x,y,-z
-x,-y,-z
1/2+x,y,-z
1/2-x,y,z
x,-y,z
loop_
_atom_site_type_symbol
_atom_site_label
_atom_site_fract_x
_atom_site_fract_y
_atom_site_fract_z
Si Si1 0.923454 0.707836 0.140696
Si Si2 0.575053 0.104195 0.352685
Si Si3 0.425521 0.182998 0.858800
Si Si4 0.926514 0.374654 0.351035
Si Si5 0.921915 0.000000 0.355769
Si Si6 0.578388 0.442954 0.859066
O O1 0.750000 0.705039 0.111473
O O2 0.972924 0.762286 0.180025
O O3 0.969731 0.673641 0.267072
O O4 0.000000 0.689934 0.000000
O O5 0.500000 0.109569 0.500000
O O6 0.750000 0.110643 0.373393
O O7 0.511670 0.146657 0.256601
O O8 0.537570 0.051272 0.281930
O O9 0.250000 0.178135 0.875493
O O10 0.500000 0.166635 0.000000
O O11 0.750000 0.381349 0.365880
O O12 0.000000 0.370465 0.500000
O O13 0.994323 0.420385 0.271478
O O14 0.000000 0.000000 0.500000
O O15 0.750000 0.000000 0.390226
O O16 0.750000 0.426297 0.862871
O O17 0.564357 0.500000 0.841993
O O18 0.500000 0.425349 0.000000
#
# Coordination Sequence:
#
# PCOD8213916 Si02
#       6
#     8   8   8   8   4   8
#     4   9  19  35  54  74  97 129 168 206 246 296
#     4   9  17  29  47  69  94 124 160 201 243 290
#     4   9  18  33  50  70  97 128 162 201 246 296
#     4  11  23  37  54  78 108 139 171 211 257 303
#     4   8  14  26  43  64  90 122 158 196 239 286
#     4  10  21  38  60  84 109 139 175 212 250 297
#
# _framework density 18.273040000000002
#
# number of rings (size 3 to 8) (size 9 to 14) (size 15 to 20)
#    0.000    2.545    0.000    1.636    0.000    5.818 
#    0.000    0.455    0.000    0.000    0.000    0.000 
#    0.000    0.000    0.000    0.000    0.000    0.000 
#
# Total GULP energy -545404.894424 kJ/mol
# GULP energy per Si atom -12395.565782 kJ/mol
# Density = 1.823145 g / cm^3
# Si number density = 18.273040 Si / 1000 Ang^3
#
#
#
# Elastic Constant Matrix: (Units=GPa)
#
#
# Indices 1 2 3 4 5 6 
#
# 1 64.0482 45.1881 53.8487 0.0000 0.0000 0.0000
# 2 45.1881 99.8251 73.0649 0.0000 0.0000 0.0000
# 3 53.8487 73.0649 139.7412 0.0000 0.0000 0.0000
# 4 0.0000 0.0000 0.0000 27.8311 0.0000 0.0000
# 5 0.0000 0.0000 0.0000 0.0000 33.9592 0.0000
# 6 0.0000 0.0000 0.0000 0.0000 0.0000 112.9123
#
#
#
# Elastic Compliance Matrix: (Units=1/GPa)
#
#
# Indices 1 2 3 4 5 6 
#
# 1 0.025914 -0.007163 -0.006241 0.000000 0.000000 0.000000
# 2 -0.007163 0.018208 -0.006760 0.000000 0.000000 0.000000
# 3 -0.006241 -0.006760 0.013095 0.000000 0.000000 0.000000
# 4 0.000000 0.000000 0.000000 0.035931 0.000000 0.000000
# 5 0.000000 0.000000 0.000000 0.000000 0.029447 0.000000
# 6 0.000000 0.000000 0.000000 0.000000 0.000000 0.008856
#
#
# Mechanical properties :
#
#
# Convention : Reuss Voigt Hill
#
# Bulk Modulus (GPa) = 59.20609 71.97977 65.59293
# Shear Modulus (GPa) = 28.18370 43.70805 35.94588
#
# Velocity S-wave (km/s) = 3.93156 4.89605 4.44007
# Velocity P-wave (km/s) = 7.28565 8.45213 7.89048
#
# Compressibility (1/GPa) = 0.01689015
#
# Stress axis : x y z
#
# Youngs Moduli (GPa) = 38.58985 54.92208 76.36292
#
# Poissons Ratio (x) = 0.39339 0.47655
# Poissons Ratio (y) = 0.27641 0.51621
# Poissons Ratio (z) = 0.24083 0.37127
#
# Static dielectric constant tensor:
#      x y z
#    x 3.375550 0.000000 0.000000 
#    y 0.000000 3.887800 0.000000 
#    z 0.000000 0.000000 3.253810 
# 
# 
# High freq. dielectric constant tensor:
#      x y z
#    x 1.709620 0.000000 0.000000 
#    y 0.000000 1.726550 0.000000 
#    z 0.000000 0.000000 1.689100 
# 
# From -- ./inp_files/5845.got.cif
#   From: 2010.03.12/outbox.cif.g09.slc.cpg/sg51_3_cif.got.tgz:5845.got - 2010.04.16 13:43:02.
