data_PCOD8213067
_publ_section_title
;
Structure prediction by ZEFSAII (Michael W. Deem and Ramdas Pophale) SiO2 
 PCOD8213067
Probable space group: P M M A
;
_chemical_formula_sum "Si O2"
_cell_formula_units_Z 56
_cell_length_a 14.328358
_cell_length_b 9.158849
_cell_length_c 23.741850
_cell_angle_alpha 90.000000
_cell_angle_beta 90.000000
_cell_angle_gamma 90.000000
_cell_volume 3115.673064
_symmetry_space_group_name_H-M "P M M A"
_symmetry_group_IT_number 51
_symmetry_cell_setting 'orthorhombic'
loop_
_space_group_symop_operation_xyz
x,y,z
1/2-x,-y,z
1/2+x,-y,-z
-x,y,-z
-x,-y,-z
1/2+x,y,-z
1/2-x,y,z
x,-y,z
loop_
_atom_site_type_symbol
_atom_site_label
_atom_site_fract_x
_atom_site_fract_y
_atom_site_fract_z
Si Si1 0.499302 0.671974 0.768788
Si Si2 0.644128 0.330630 0.450236
Si Si3 0.357675 0.172979 0.155606
Si Si4 0.359395 0.832474 0.439128
Si Si5 0.497810 0.829137 0.061914
Si Si6 0.142677 0.170920 0.845909
Si Si7 0.008663 0.668931 0.361143
O O1 0.503402 0.500000 0.780407
O O2 0.593458 0.746157 0.792235
O O3 0.406590 0.737801 0.796888
O O4 0.491555 0.709936 0.703295
O O5 0.750000 0.283762 0.436704
O O6 0.636836 0.500000 0.465622
O O7 0.604241 0.244388 0.503990
O O8 0.584712 0.290238 0.395330
O O9 0.250000 0.219802 0.152409
O O10 0.408935 0.225839 0.098236
O O11 0.369480 0.000000 0.164365
O O12 0.250000 0.809301 0.432151
O O13 0.405455 0.761994 0.384284
O O14 0.388247 0.000000 0.442811
O O15 0.593594 0.791849 0.094545
O O16 0.486299 0.000000 0.053534
O O17 0.500000 0.753643 0.000000
O O18 0.250000 0.218621 0.850213
O O19 0.131653 0.000000 0.831921
O O20 0.034546 0.500000 0.368208
#
# Coordination Sequence:
#
# PCOD8213067 Si02
#       7
#     8   8   8   8   8   8   8
#     4  10  21  35  51  73 100 130 169 214 251 290
#     4   9  18  34  54  73  96 126 158 195 241 293
#     4   9  18  33  52  73 100 134 168 204 250 300
#     4  10  21  35  51  74 102 129 158 195 242 295
#     4   8  14  26  47  77 107 130 160 205 250 293
#     4   9  18  33  52  74 102 135 168 204 249 298
#     4  10  21  35  52  74  97 126 165 205 245 288
#
# _framework density 17.973645000000001
#
# number of rings (size 3 to 8) (size 9 to 14) (size 15 to 20)
#    0.000    2.714    0.000    2.143    0.000    6.571 
#    0.000    7.143    0.000    8.571    0.000    8.000 
#    0.000    0.000    0.000    0.000    0.000    0.000 
#
# Total GULP energy -694406.625849 kJ/mol
# GULP energy per Si atom -12400.118319 kJ/mol
# Density = 1.793274 g / cm^3
# Si number density = 17.973645 Si / 1000 Ang^3
#
#
#
# Elastic Constant Matrix: (Units=GPa)
#
#
# Indices 1 2 3 4 5 6 
#
# 1 128.9747 45.2689 66.2998 0.0000 0.0000 0.0000
# 2 45.2689 59.2796 55.7297 0.0000 0.0000 0.0000
# 3 66.2998 55.7297 146.1250 0.0000 0.0000 0.0000
# 4 0.0000 0.0000 0.0000 24.5573 0.0000 0.0000
# 5 0.0000 0.0000 0.0000 0.0000 16.4869 0.0000
# 6 0.0000 0.0000 0.0000 0.0000 0.0000 24.2207
#
#
#
# Elastic Compliance Matrix: (Units=1/GPa)
#
#
# Indices 1 2 3 4 5 6 
#
# 1 0.011313 -0.005945 -0.002866 0.000000 0.000000 0.000000
# 2 -0.005945 0.029423 -0.008524 0.000000 0.000000 0.000000
# 3 -0.002866 -0.008524 0.011394 0.000000 0.000000 0.000000
# 4 0.000000 0.000000 0.000000 0.040721 0.000000 0.000000
# 5 0.000000 0.000000 0.000000 0.000000 0.060654 0.000000
# 6 0.000000 0.000000 0.000000 0.000000 0.000000 0.041287
#
#
# Mechanical properties :
#
#
# Convention : Reuss Voigt Hill
#
# Bulk Modulus (GPa) = 57.27070 74.33070 65.80070
# Shear Modulus (GPa) = 21.25099 24.19170 22.72134
#
# Velocity S-wave (km/s) = 3.44225 3.67270 3.55934
# Velocity P-wave (km/s) = 6.90881 7.70910 7.31990
#
# Compressibility (1/GPa) = 0.01746094
#
# Stress axis : x y z
#
# Youngs Moduli (GPa) = 88.39139 33.98715 87.76181
#
# Poissons Ratio (x) = 0.20207 0.25149
# Poissons Ratio (y) = 0.52553 0.74807
# Poissons Ratio (z) = 0.25329 0.28970
#
# Static dielectric constant tensor:
#      x y z
#    x 3.438430 0.000000 0.000000 
#    y 0.000000 3.182270 0.000000 
#    z 0.000000 0.000000 3.463970 
# 
# 
# High freq. dielectric constant tensor:
#      x y z
#    x 1.702030 0.000000 0.000000 
#    y 0.000000 1.678490 0.000000 
#    z 0.000000 0.000000 1.695980 
# 
# From -- ./inp_files/33343.got.cif
#   From: 2010.03.12/outbox.cif.g09.slc.cpg/sg51_17_cif.got.tgz:33343.got - 2010.04.16 13:43:02.
