data_PCOD8213069
_publ_section_title
;
Structure prediction by ZEFSAII (Michael W. Deem and Ramdas Pophale) SiO2 
 PCOD8213069
Probable space group: P M M A
;
_chemical_formula_sum "Si O2"
_cell_formula_units_Z 48
_cell_length_a 14.709148
_cell_length_b 7.727947
_cell_length_c 21.035159
_cell_angle_alpha 90.000000
_cell_angle_beta 90.000000
_cell_angle_gamma 90.000000
_cell_volume 2391.098416
_symmetry_space_group_name_H-M "P M M A"
_symmetry_group_IT_number 51
_symmetry_cell_setting 'orthorhombic'
loop_
_space_group_symop_operation_xyz
x,y,z
1/2-x,-y,z
1/2+x,-y,-z
-x,y,-z
-x,-y,-z
1/2+x,y,-z
1/2-x,y,z
x,-y,z
loop_
_atom_site_type_symbol
_atom_site_label
_atom_site_fract_x
_atom_site_fract_y
_atom_site_fract_z
Si Si1 0.351107 0.205693 0.499964
Si Si2 0.857319 0.000000 0.929512
Si Si3 0.144516 0.301830 0.837608
Si Si4 0.855478 0.301838 0.837531
Si Si5 0.999951 0.301677 0.266100
Si Si6 0.857320 0.000000 0.070405
Si Si7 0.500044 0.804447 0.406930
O O1 0.250000 0.289922 0.499946
O O2 0.407552 0.274301 0.562146
O O3 0.407605 0.274300 0.437805
O O4 0.339600 0.000000 0.499962
O O5 0.889202 0.173711 0.893195
O O6 0.750000 0.000000 0.935199
O O7 0.901125 0.000000 0.999958
O O8 0.250000 0.272692 0.821816
O O9 0.124795 0.500000 0.859051
O O10 0.089583 0.254500 0.774200
O O11 0.110800 0.173715 0.893278
O O12 0.750000 0.272652 0.821726
O O13 0.875167 0.500000 0.858996
O O14 0.910427 0.254598 0.774122
O O15 0.999896 0.500000 0.285832
O O16 0.999910 0.197730 0.331042
O O17 0.750000 0.000000 0.064719
O O18 0.500032 0.000000 0.430228
#
# Coordination Sequence:
#
# PCOD8213069 Si02
#       7
#     8   4   8   8   8   4   8
#     4   8  15  31  50  72 104 132 162 208 255 301
#     4   9  18  33  55  81 104 133 177 219 260 315
#     4   9  19  35  52  73 105 140 173 215 264 311
#     4   9  19  35  52  73 105 140 173 215 264 311
#     4  10  21  35  51  73 104 139 172 211 258 308
#     4   9  18  33  55  81 104 133 177 219 260 315
#     4   9  18  30  50  76  97 129 172 209 251 301
#
# _framework density 20.074456999999999
#
# number of rings (size 3 to 8) (size 9 to 14) (size 15 to 20)
#    0.000    3.000    0.000    1.000    2.333    2.000 
#    0.000    6.667    0.000    4.000    0.000    0.000 
#    0.000    0.000    0.000    0.000    0.000    0.000 
#
# Total GULP energy -594832.445040 kJ/mol
# GULP energy per Si atom -12392.342605 kJ/mol
# Density = 2.002877 g / cm^3
# Si number density = 20.074457 Si / 1000 Ang^3
#
#
#
# Elastic Constant Matrix: (Units=GPa)
#
#
# Indices 1 2 3 4 5 6 
#
# 1 134.1576 28.9748 65.6499 0.0000 0.0000 0.0000
# 2 28.9748 74.9869 56.0883 0.0000 0.0000 0.0000
# 3 65.6499 56.0883 176.2332 0.0000 0.0000 0.0000
# 4 0.0000 0.0000 0.0000 -1.3168 0.0000 0.0000
# 5 0.0000 0.0000 0.0000 0.0000 89.6416 0.0000
# 6 0.0000 0.0000 0.0000 0.0000 0.0000 10.8885
#
#
#
# Elastic Compliance Matrix: (Units=1/GPa)
#
#
# Indices 1 2 3 4 5 6 
#
# 1 0.009212 -0.001303 -0.003017 0.000000 0.000000 0.000000
# 2 -0.001303 0.017686 -0.005144 0.000000 0.000000 0.000000
# 3 -0.003017 -0.005144 0.008435 0.000000 0.000000 0.000000
# 4 0.000000 0.000000 0.000000 -0.759431 0.000000 0.000000
# 5 0.000000 0.000000 0.000000 0.000000 0.011156 0.000000
# 6 0.000000 0.000000 0.000000 0.000000 0.000000 0.091840
#
#
# Mechanical properties :
#
#
# Convention : Reuss Voigt Hill
#
# Bulk Modulus (GPa) = 60.95112 76.31154 68.63133
# Shear Modulus (GPa) = -8.37932 35.48697 13.55383
#
# Velocity S-wave (km/s) = -2.04528 4.20904 2.60124
# Velocity P-wave (km/s) = 4.98506 7.85609 6.57910
#
# Compressibility (1/GPa) = 0.01640659
#
# Stress axis : x y z
#
# Youngs Moduli (GPa) = 108.55890 56.54086 118.55188
#
# Poissons Ratio (x) = 0.07366 0.35765
# Poissons Ratio (y) = 0.14143 0.60978
# Poissons Ratio (z) = 0.32750 0.29082
#
# Static dielectric constant tensor:
#      x y z
#    x 3.784280 0.000000 0.000000 
#    y 0.000000 3.536150 0.000000 
#    z 0.000000 0.000000 3.528840 
# 
# 
# High freq. dielectric constant tensor:
#      x y z
#    x 1.789020 0.000000 0.000000 
#    y 0.000000 1.771160 0.000000 
#    z 0.000000 0.000000 1.771030 
# 
# From -- ./inp_files/29509.got.cif
#   From: 2010.03.12/outbox.cif.g09.slc.cpg/sg51_15_cif.got.tgz:29509.got - 2010.04.16 13:43:02.
