data_PCOD8213135
_publ_section_title
;
Structure prediction by ZEFSAII (Michael W. Deem and Ramdas Pophale) SiO2 
 PCOD8213135
Probable space group: P M M A
;
_chemical_formula_sum "Si O2"
_cell_formula_units_Z 64
_cell_length_a 14.551156
_cell_length_b 8.903926
_cell_length_c 25.742136
_cell_angle_alpha 90.000000
_cell_angle_beta 90.000000
_cell_angle_gamma 90.000000
_cell_volume 3335.213339
_symmetry_space_group_name_H-M "P M M A"
_symmetry_group_IT_number 51
_symmetry_cell_setting 'orthorhombic'
loop_
_space_group_symop_operation_xyz
x,y,z
1/2-x,-y,z
1/2+x,-y,-z
-x,y,-z
-x,-y,-z
1/2+x,y,-z
1/2-x,y,z
x,-y,z
loop_
_atom_site_type_symbol
_atom_site_label
_atom_site_fract_x
_atom_site_fract_y
_atom_site_fract_z
Si Si1 0.999014 0.176011 0.173722
Si Si2 0.498222 0.823664 0.559838
Si Si3 0.502238 0.327718 0.718013
Si Si4 0.853282 0.330373 0.894744
Si Si5 0.355306 0.325734 0.370314
Si Si6 0.855415 0.675961 0.367270
Si Si7 0.391550 0.170107 0.000494
Si Si8 0.147160 0.331523 0.895006
O O1 0.911462 0.259057 0.150541
O O2 0.009035 0.217219 0.233685
O O3 0.089125 0.223153 0.142335
O O4 0.985114 0.000000 0.167309
O O5 0.500000 0.776677 0.500000
O O6 0.592391 0.764008 0.584846
O O7 0.406061 0.755863 0.584982
O O8 0.494424 0.000000 0.567944
O O9 0.498955 0.500000 0.737207
O O10 0.593392 0.298216 0.684165
O O11 0.410272 0.287487 0.685717
O O12 0.750000 0.328510 0.873341
O O13 0.892879 0.500000 0.893693
O O14 0.853351 0.271573 0.953437
O O15 0.250000 0.269531 0.365785
O O16 0.359621 0.500000 0.385363
O O17 0.750000 0.732729 0.362352
O O18 0.859100 0.500000 0.378701
O O19 0.354782 0.233995 0.946813
O O20 0.355852 0.000000 0.007352
O O21 0.500000 0.175600 0.000000
O O22 0.250000 0.335675 0.873264
O O23 0.111461 0.500000 0.907054
#
# Coordination Sequence:
#
# PCOD8213135 Si02
#       8
#     8   8   8   8   8   8   8   8
#     4  12  25  40  59  86 117 148 184 231 287 338
#     4  10  21  35  52  81 122 161 194 232 281 336
#     4   9  19  37  59  83 113 147 184 232 286 340
#     4  11  24  41  62  86 112 148 191 231 275 332
#     4   9  19  37  61  86 111 146 194 241 284 333
#     4   9  19  37  61  86 111 146 194 241 284 333
#     4  11  22  37  60  89 118 149 180 223 283 339
#     4  11  24  41  62  86 112 148 191 231 275 332
#
# _framework density 19.189176
#
# number of rings (size 3 to 8) (size 9 to 14) (size 15 to 20)
#    0.000    1.750    1.250    3.750    0.000    9.000 
#    0.000    5.000    0.000    0.000    0.000    0.000 
#    0.000    0.000    0.000    0.000    0.000    0.000 
#
# Total GULP energy -793789.252836 kJ/mol
# GULP energy per Si atom -12402.957076 kJ/mol
# Density = 1.914550 g / cm^3
# Si number density = 19.189176 Si / 1000 Ang^3
#
#
#
# Elastic Constant Matrix: (Units=GPa)
#
#
# Indices 1 2 3 4 5 6 
#
# 1 137.2251 29.2568 40.8302 0.0000 0.0000 0.0000
# 2 29.2568 73.4063 25.3470 0.0000 0.0000 0.0000
# 3 40.8302 25.3470 98.5006 0.0000 0.0000 0.0000
# 4 0.0000 0.0000 0.0000 12.1335 0.0000 0.0000
# 5 0.0000 0.0000 0.0000 0.0000 31.4421 0.0000
# 6 0.0000 0.0000 0.0000 0.0000 0.0000 56.1917
#
#
#
# Elastic Compliance Matrix: (Units=1/GPa)
#
#
# Indices 1 2 3 4 5 6 
#
# 1 0.008692 -0.002437 -0.002976 0.000000 0.000000 0.000000
# 2 -0.002437 0.015634 -0.003013 0.000000 0.000000 0.000000
# 3 -0.002976 -0.003013 0.012161 0.000000 0.000000 0.000000
# 4 0.000000 0.000000 0.000000 0.082417 0.000000 0.000000
# 5 0.000000 0.000000 0.000000 0.000000 0.031804 0.000000
# 6 0.000000 0.000000 0.000000 0.000000 0.000000 0.017796
#
#
# Mechanical properties :
#
#
# Convention : Reuss Voigt Hill
#
# Bulk Modulus (GPa) = 50.92665 55.55553 53.24109
# Shear Modulus (GPa) = 26.05488 34.20000 30.12744
#
# Velocity S-wave (km/s) = 3.68882 4.22626 3.96665
# Velocity P-wave (km/s) = 6.68880 7.26838 6.98460
#
# Compressibility (1/GPa) = 0.01963608
#
# Stress axis : x y z
#
# Youngs Moduli (GPa) = 115.04400 63.96140 82.22871
#
# Poissons Ratio (x) = 0.15586 0.24472
# Poissons Ratio (y) = 0.28034 0.24776
# Poissons Ratio (z) = 0.34238 0.19272
#
# Static dielectric constant tensor:
#      x y z
#    x 3.769990 0.000000 0.000000 
#    y 0.000000 3.586050 0.000000 
#    z 0.000000 0.000000 3.411010 
# 
# 
# High freq. dielectric constant tensor:
#      x y z
#    x 1.758670 0.000000 0.000000 
#    y 0.000000 1.752090 0.000000 
#    z 0.000000 0.000000 1.739620 
# 
# From -- ./inp_files/35802.got.cif
#   From: 2010.03.12/outbox.cif.g09.slc.cpg/sg51_18_cif.got.tgz:35802.got - 2010.04.16 13:43:02.
