data_PCOD8213552
_publ_section_title
;
Structure prediction by ZEFSAII (Michael W. Deem and Ramdas Pophale) SiO2 
 PCOD8213552
Probable space group: P M M A
;
_chemical_formula_sum "Si O2"
_cell_formula_units_Z 48
_cell_length_a 9.092046
_cell_length_b 7.542904
_cell_length_c 34.538457
_cell_angle_alpha 90.000000
_cell_angle_beta 90.000000
_cell_angle_gamma 90.000000
_cell_volume 2368.662237
_symmetry_space_group_name_H-M "P M M A"
_symmetry_group_IT_number 51
_symmetry_cell_setting 'orthorhombic'
loop_
_space_group_symop_operation_xyz
x,y,z
1/2-x,-y,z
1/2+x,-y,-z
-x,y,-z
-x,-y,-z
1/2+x,y,-z
1/2-x,y,z
x,-y,z
loop_
_atom_site_type_symbol
_atom_site_label
_atom_site_fract_x
_atom_site_fract_y
_atom_site_fract_z
Si Si1 0.077837 0.000000 0.098711
Si Si2 0.921110 0.299446 0.961283
Si Si3 0.413934 0.292288 0.694201
Si Si4 0.922290 0.708378 0.770113
Si Si5 0.085696 0.211555 0.462529
Si Si6 0.574504 0.000000 0.179626
Si Si7 0.412855 0.205928 0.610402
O O1 0.036690 0.174673 0.074412
O O2 0.972023 0.000000 0.135223
O O3 0.250000 0.000000 0.110800
O O4 0.750000 0.286998 0.970198
O O5 0.969397 0.500000 0.950693
O O6 0.000000 0.231831 0.000000
O O7 0.250000 0.207292 0.698760
O O8 0.400456 0.500000 0.696963
O O9 0.520893 0.225367 0.728136
O O10 0.483769 0.238679 0.652739
O O11 0.750000 0.749959 0.772959
O O12 0.954168 0.500000 0.777134
O O13 0.008982 0.821089 0.801861
O O14 0.250000 0.287063 0.464450
O O15 0.000000 0.283347 0.500000
O O16 0.011597 0.290336 0.423534
O O17 0.086395 0.000000 0.462020
O O18 0.750000 0.000000 0.183812
O O19 0.250000 0.293283 0.609444
O O20 0.399674 0.000000 0.601869
#
# Coordination Sequence:
#
# PCOD8213552 Si02
#       7
#     4   8   8   8   8   4   8
#     4  10  21  37  55  80 116 154 196 243 295 350
#     4   9  18  33  55  83 115 153 195 241 293 347
#     4   9  18  33  53  77 105 137 172 214 267 325
#     4  10  22  41  63  86 114 150 192 239 293 353
#     4   9  16  26  41  62  90 123 158 198 246 300
#     4  12  26  41  61  88 119 156 201 249 300 356
#     4   9  17  28  44  69  98 127 161 202 251 307
#
# _framework density 20.264600999999999
#
# number of rings (size 3 to 8) (size 9 to 14) (size 15 to 20)
#    0.000    2.500    0.000    2.000    1.167    5.000 
#    0.000    1.667    0.000    0.500    0.000    0.000 
#    0.000    0.000    0.000    0.000    0.000    0.000 
#
# Total GULP energy -595108.075864 kJ/mol
# GULP energy per Si atom -12398.084914 kJ/mol
# Density = 2.021848 g / cm^3
# Si number density = 20.264601 Si / 1000 Ang^3
#
#
#
# Elastic Constant Matrix: (Units=GPa)
#
#
# Indices 1 2 3 4 5 6 
#
# 1 129.7988 38.5844 88.8546 0.0000 0.0000 0.0000
# 2 38.5844 63.1744 48.6957 0.0000 0.0000 0.0000
# 3 88.8546 48.6957 178.4488 0.0000 0.0000 0.0000
# 4 0.0000 0.0000 0.0000 81.8188 0.0000 0.0000
# 5 0.0000 0.0000 0.0000 0.0000 34.9819 0.0000
# 6 0.0000 0.0000 0.0000 0.0000 0.0000 15.9826
#
#
#
# Elastic Compliance Matrix: (Units=1/GPa)
#
#
# Indices 1 2 3 4 5 6 
#
# 1 0.012280 -0.003529 -0.005151 0.000000 0.000000 0.000000
# 2 -0.003529 0.021060 -0.003990 0.000000 0.000000 0.000000
# 3 -0.005151 -0.003990 0.009258 0.000000 0.000000 0.000000
# 4 0.000000 0.000000 0.000000 0.012222 0.000000 0.000000
# 5 0.000000 0.000000 0.000000 0.000000 0.028586 0.000000
# 6 0.000000 0.000000 0.000000 0.000000 0.000000 0.062568
#
#
# Mechanical properties :
#
#
# Convention : Reuss Voigt Hill
#
# Bulk Modulus (GPa) = 57.94801 80.41014 69.17907
# Shear Modulus (GPa) = 28.23801 39.57582 33.90692
#
# Velocity S-wave (km/s) = 3.73696 4.42402 4.09493
# Velocity P-wave (km/s) = 6.87587 8.11555 7.52130
#
# Compressibility (1/GPa) = 0.01725685
#
# Stress axis : x y z
#
# Youngs Moduli (GPa) = 81.43506 47.48351 108.02007
#
# Poissons Ratio (x) = 0.16758 0.55645
# Poissons Ratio (y) = 0.28740 0.43096
# Poissons Ratio (z) = 0.41950 0.18944
#
# Static dielectric constant tensor:
#      x y z
#    x 3.268740 0.000000 0.000000 
#    y 0.000000 3.601270 0.000000 
#    z 0.000000 0.000000 3.758900 
# 
# 
# High freq. dielectric constant tensor:
#      x y z
#    x 1.784190 0.000000 0.000000 
#    y 0.000000 1.783160 0.000000 
#    z 0.000000 0.000000 1.793410 
# 
# From -- ./inp_files/37215.got.cif
#   From: 2010.03.12/outbox.cif.g09.slc.cpg/sg51_19_cif.got.tgz:37215.got - 2010.04.16 13:43:02.
