data_PCOD8213630
_publ_section_title
;
Structure prediction by ZEFSAII (Michael W. Deem and Ramdas Pophale) SiO2 
 PCOD8213630
Probable space group: P M M A
;
_chemical_formula_sum "Si O2"
_cell_formula_units_Z 48
_cell_length_a 9.008118
_cell_length_b 9.239297
_cell_length_c 30.849402
_cell_angle_alpha 90.000000
_cell_angle_beta 90.000000
_cell_angle_gamma 90.000000
_cell_volume 2567.554934
_symmetry_space_group_name_H-M "P M M A"
_symmetry_group_IT_number 51
_symmetry_cell_setting 'orthorhombic'
loop_
_space_group_symop_operation_xyz
x,y,z
1/2-x,-y,z
1/2+x,-y,-z
-x,y,-z
-x,-y,-z
1/2+x,y,-z
1/2-x,y,z
x,-y,z
loop_
_atom_site_type_symbol
_atom_site_label
_atom_site_fract_x
_atom_site_fract_y
_atom_site_fract_z
Si Si1 0.922778 0.167797 0.627829
Si Si2 0.923840 0.333300 0.044854
Si Si3 0.077814 0.170397 0.122206
Si Si4 0.919825 0.668413 0.712630
Si Si5 0.922603 0.331015 0.199542
Si Si6 0.917367 0.827486 0.457746
O O1 0.750000 0.196619 0.620317
O O2 0.980694 0.248526 0.670605
O O3 0.006079 0.231540 0.585893
O O4 0.958790 0.000000 0.634335
O O5 0.750000 0.304405 0.040451
O O6 0.957344 0.500000 0.056691
O O7 0.988626 0.232398 0.081804
O O8 0.000000 0.289230 0.000000
O O9 0.250000 0.210690 0.117098
O O10 0.016869 0.239214 0.165972
O O11 0.052139 0.000000 0.124250
O O12 0.750000 0.712664 0.723137
O O13 0.932602 0.500000 0.702493
O O14 0.022646 0.713227 0.752785
O O15 0.750000 0.292376 0.194821
O O16 0.951748 0.500000 0.190604
O O17 0.750000 0.770373 0.458849
O O18 0.000000 0.764608 0.500000
O O19 0.925154 0.000000 0.458242
#
# Coordination Sequence:
#
# PCOD8213630 Si02
#       6
#     8   8   8   8   8   8
#     4   9  17  29  46  69  96 125 159 201 247 294
#     4  10  21  38  61  87 113 144 183 223 263 310
#     4  11  24  39  56  81 112 145 180 219 266 316
#     4   9  18  33  52  73  99 133 169 205 250 304
#     4  10  21  37  57  80 105 136 176 219 262 311
#     4   9  16  26  42  65  93 124 158 197 242 292
#
# _framework density 18.694828999999999
#
# number of rings (size 3 to 8) (size 9 to 14) (size 15 to 20)
#    0.000    2.333    0.000    2.500    0.000    9.000 
#    0.000    1.667    0.000    0.500    0.000    0.000 
#    0.000    0.000    0.000    0.000    0.000    0.000 
#
# Total GULP energy -595343.406098 kJ/mol
# GULP energy per Si atom -12402.987627 kJ/mol
# Density = 1.865228 g / cm^3
# Si number density = 18.694829 Si / 1000 Ang^3
#
#
#
# Elastic Constant Matrix: (Units=GPa)
#
#
# Indices 1 2 3 4 5 6 
#
# 1 96.7588 40.1004 66.9767 0.0000 0.0000 0.0000
# 2 40.1004 49.7870 56.3945 0.0000 0.0000 0.0000
# 3 66.9767 56.3945 157.7301 0.0000 0.0000 0.0000
# 4 0.0000 0.0000 0.0000 30.9388 0.0000 0.0000
# 5 0.0000 0.0000 0.0000 0.0000 41.3667 0.0000
# 6 0.0000 0.0000 0.0000 0.0000 0.0000 21.5542
#
#
#
# Elastic Compliance Matrix: (Units=1/GPa)
#
#
# Indices 1 2 3 4 5 6 
#
# 1 0.016804 -0.009163 -0.003859 0.000000 0.000000 0.000000
# 2 -0.009163 0.038753 -0.009965 0.000000 0.000000 0.000000
# 3 -0.003859 -0.009965 0.011541 0.000000 0.000000 0.000000
# 4 0.000000 0.000000 0.000000 0.032322 0.000000 0.000000
# 5 0.000000 0.000000 0.000000 0.000000 0.024174 0.000000
# 6 0.000000 0.000000 0.000000 0.000000 0.000000 0.046395
#
#
# Mechanical properties :
#
#
# Convention : Reuss Voigt Hill
#
# Bulk Modulus (GPa) = 47.33901 70.13546 58.73724
# Shear Modulus (GPa) = 22.42106 28.15891 25.28998
#
# Velocity S-wave (km/s) = 3.46688 3.88524 3.68201
# Velocity P-wave (km/s) = 6.43448 7.59765 7.04013
#
# Compressibility (1/GPa) = 0.02112423
#
# Stress axis : x y z
#
# Youngs Moduli (GPa) = 59.51011 25.80439 86.64386
#
# Poissons Ratio (x) = 0.23645 0.33438
# Poissons Ratio (y) = 0.54529 0.86339
# Poissons Ratio (z) = 0.22967 0.25714
#
# Static dielectric constant tensor:
#      x y z
#    x 3.533920 0.000000 0.000000 
#    y 0.000000 3.211680 0.000000 
#    z 0.000000 0.000000 3.696320 
# 
# 
# High freq. dielectric constant tensor:
#      x y z
#    x 1.733760 0.000000 0.000000 
#    y 0.000000 1.698440 0.000000 
#    z 0.000000 0.000000 1.742290 
# 
# From -- ./inp_files/36941.got.cif
#   From: 2010.03.12/outbox.cif.g09.slc.cpg/sg51_19_cif.got.tgz:36941.got - 2010.04.16 13:43:02.
