data_PCOD8213892
_publ_section_title
;
Structure prediction by ZEFSAII (Michael W. Deem and Ramdas Pophale) SiO2 
 PCOD8213892
Probable space group: P M M A
;
_chemical_formula_sum "Si O2"
_cell_formula_units_Z 40
_cell_length_a 8.555672
_cell_length_b 25.244429
_cell_length_c 9.950624
_cell_angle_alpha 90.000000
_cell_angle_beta 90.000000
_cell_angle_gamma 90.000000
_cell_volume 2149.166164
_symmetry_space_group_name_H-M "P M M A"
_symmetry_group_IT_number 51
_symmetry_cell_setting 'orthorhombic'
loop_
_space_group_symop_operation_xyz
x,y,z
1/2-x,-y,z
1/2+x,-y,-z
-x,y,-z
-x,-y,-z
1/2+x,y,-z
1/2-x,y,z
x,-y,z
loop_
_atom_site_type_symbol
_atom_site_label
_atom_site_fract_x
_atom_site_fract_y
_atom_site_fract_z
Si Si1 0.434355 0.748253 0.645184
Si Si2 0.069338 0.938184 0.856595
Si Si3 0.566146 0.664019 0.849659
Si Si4 0.933360 0.861837 0.641738
Si Si5 0.567196 0.442695 0.147806
O O1 0.500000 0.731514 0.500000
O O2 0.250000 0.745197 0.638790
O O3 0.495860 0.709832 0.759510
O O4 0.486298 0.807165 0.685665
O O5 0.250000 0.921323 0.850117
O O6 0.969104 0.907140 0.747983
O O7 0.047501 0.000000 0.827122
O O8 0.000000 0.922625 0.000000
O O9 0.750000 0.670055 0.853794
O O10 0.518794 0.607159 0.782305
O O11 0.500000 0.668720 0.000000
O O12 0.750000 0.852055 0.629204
O O13 0.000000 0.881668 0.500000
O O14 0.750000 0.429934 0.140759
O O15 0.537481 0.500000 0.220890
O O16 0.500000 0.447456 0.000000
#
# Coordination Sequence:
#
# PCOD8213892 Si02
#       5
#     8   8   8   8   8
#     4  11  22  39  59  80 108 142 180 221 270 324
#     4  10  21  38  59  84 114 147 182 221 268 320
#     4  11  21  34  53  80 110 141 180 224 270 318
#     4  11  22  38  59  83 110 142 182 224 268 317
#     4   9  16  27  45  71 103 138 175 217 266 317
#
# _framework density 18.611868999999999
#
# number of rings (size 3 to 8) (size 9 to 14) (size 15 to 20)
#    0.000    1.600    0.000    9.000    0.000    3.600 
#    0.000    4.000    0.000    0.600    0.000    0.000 
#    0.000    0.000    0.000    0.000    0.000    0.000 
#
# Total GULP energy -495943.422452 kJ/mol
# GULP energy per Si atom -12398.585561 kJ/mol
# Density = 1.856951 g / cm^3
# Si number density = 18.611869 Si / 1000 Ang^3
#
#
#
# Elastic Constant Matrix: (Units=GPa)
#
#
# Indices 1 2 3 4 5 6 
#
# 1 168.7722 48.5107 47.4272 0.0000 0.0000 0.0000
# 2 48.5107 99.2010 70.4561 0.0000 0.0000 0.0000
# 3 47.4272 70.4561 89.2599 0.0000 0.0000 0.0000
# 4 0.0000 0.0000 0.0000 -55.0170 0.0000 0.0000
# 5 0.0000 0.0000 0.0000 0.0000 30.7764 0.0000
# 6 0.0000 0.0000 0.0000 0.0000 0.0000 17.8531
#
#
#
# Elastic Compliance Matrix: (Units=1/GPa)
#
#
# Indices 1 2 3 4 5 6 
#
# 1 0.007104 -0.001805 -0.002350 0.000000 0.000000 0.000000
# 2 -0.001805 0.023401 -0.017512 0.000000 0.000000 0.000000
# 3 -0.002350 -0.017512 0.026275 0.000000 0.000000 0.000000
# 4 0.000000 0.000000 0.000000 -0.018176 0.000000 0.000000
# 5 0.000000 0.000000 0.000000 0.000000 0.032492 0.000000
# 6 0.000000 0.000000 0.000000 0.000000 0.000000 0.056013
#
#
# Mechanical properties :
#
#
# Convention : Reuss Voigt Hill
#
# Bulk Modulus (GPa) = 74.37291 76.66901 75.52096
# Shear Modulus (GPa) = 28.58356 11.44512 20.01434
#
# Velocity S-wave (km/s) = 3.92314 2.48248 3.28282
# Velocity P-wave (km/s) = 7.78255 7.03562 7.41849
#
# Compressibility (1/GPa) = 0.01344576
#
# Stress axis : x y z
#
# Youngs Moduli (GPa) = 140.75844 42.73311 38.05910
#
# Poissons Ratio (x) = 0.07714 0.08944
# Poissons Ratio (y) = 0.25408 0.66650
# Poissons Ratio (z) = 0.33078 0.74835
#
# Static dielectric constant tensor:
#      x y z
#    x 3.624720 0.000000 0.000000 
#    y 0.000000 3.871020 0.000000 
#    z 0.000000 0.000000 3.204120 
# 
# 
# High freq. dielectric constant tensor:
#      x y z
#    x 1.748320 0.000000 0.000000 
#    y 0.000000 1.737740 0.000000 
#    z 0.000000 0.000000 1.692930 
# 
# From -- ./inp_files/5256.got.cif
#   From: 2010.03.12/outbox.cif.g09.slc.cpg/sg51_3_cif.got.tgz:5256.got - 2010.04.16 13:43:02.
