data_PCOD8213555
_publ_section_title
;
Structure prediction by ZEFSAII (Michael W. Deem and Ramdas Pophale) SiO2 
 PCOD8213555
Probable space group: P M M A
;
_chemical_formula_sum "Si O2"
_cell_formula_units_Z 64
_cell_length_a 9.121841
_cell_length_b 17.348546
_cell_length_c 20.790656
_cell_angle_alpha 90.000000
_cell_angle_beta 90.000000
_cell_angle_gamma 90.000000
_cell_volume 3290.135412
_symmetry_space_group_name_H-M "P M M A"
_symmetry_group_IT_number 51
_symmetry_cell_setting 'orthorhombic'
loop_
_space_group_symop_operation_xyz
x,y,z
1/2-x,-y,z
1/2+x,-y,-z
-x,y,-z
-x,-y,-z
1/2+x,y,-z
1/2-x,y,z
x,-y,z
loop_
_atom_site_type_symbol
_atom_site_label
_atom_site_fract_x
_atom_site_fract_y
_atom_site_fract_z
Si Si1 0.083094 0.312067 0.437884
Si Si2 0.085239 0.415094 0.896936
Si Si3 0.076952 0.628728 0.225318
Si Si4 0.584506 0.248481 0.060853
Si Si5 0.082587 0.087357 0.693972
Si Si6 0.583069 0.415942 0.343046
Si Si7 0.423321 0.783590 0.795370
Si Si8 0.081377 0.130394 0.435269
O O1 0.250000 0.338712 0.443090
O O2 0.066691 0.221494 0.430501
O O3 0.000000 0.343451 0.500000
O O4 0.008835 0.350510 0.377464
O O5 0.250000 0.410134 0.866895
O O6 0.064659 0.500000 0.930417
O O7 0.066471 0.341851 0.943684
O O8 0.960277 0.406145 0.843758
O O9 0.250000 0.628493 0.236771
O O10 0.993577 0.573372 0.274507
O O11 0.014251 0.714557 0.236066
O O12 0.750000 0.222981 0.050968
O O13 0.529089 0.212408 0.129026
O O14 0.500000 0.212276 0.000000
O O15 0.250000 0.106826 0.675258
O O16 0.032991 0.140587 0.754291
O O17 0.987536 0.096482 0.629540
O O18 0.065914 0.000000 0.718680
O O19 0.750000 0.387479 0.336444
O O20 0.576935 0.500000 0.377318
O O21 0.250000 0.766219 0.791463
O O22 0.250000 0.103879 0.439722
O O23 0.000000 0.100199 0.500000
#
# Coordination Sequence:
#
# PCOD8213555 Si02
#       8
#     8   8   8   8   8   8   8   8
#     4  10  21  37  56  76  98 128 170 216 261 311
#     4   9  18  33  50  69 100 141 179 216 264 320
#     4  11  21  32  50  76 102 130 171 219 263 311
#     4   9  18  32  51  76 104 139 182 225 269 317
#     4  10  21  37  59  86 112 140 176 217 261 311
#     4  11  23  36  50  69  96 133 174 217 268 320
#     4   9  19  37  58  78 106 143 178 215 264 323
#     4  10  21  37  58  84 113 146 180 214 256 309
#
# _framework density 19.452086000000001
#
# number of rings (size 3 to 8) (size 9 to 14) (size 15 to 20)
#    0.000    2.125    0.000    4.125    0.000    9.750 
#    0.000    0.000    0.000    0.375    0.000    0.000 
#    0.000    0.000    0.000    0.000    0.000    0.250 
#
# Total GULP energy -793207.866504 kJ/mol
# GULP energy per Si atom -12393.872914 kJ/mol
# Density = 1.940781 g / cm^3
# Si number density = 19.452086 Si / 1000 Ang^3
#
#
#
# Elastic Constant Matrix: (Units=GPa)
#
#
# Indices 1 2 3 4 5 6 
#
# 1 107.4412 40.2622 38.7844 0.0000 0.0000 0.0000
# 2 40.2622 63.9367 44.7587 0.0000 0.0000 0.0000
# 3 38.7844 44.7587 99.4831 0.0000 0.0000 0.0000
# 4 0.0000 0.0000 0.0000 10.6719 0.0000 0.0000
# 5 0.0000 0.0000 0.0000 0.0000 36.0184 0.0000
# 6 0.0000 0.0000 0.0000 0.0000 0.0000 2.4351
#
#
#
# Elastic Compliance Matrix: (Units=1/GPa)
#
#
# Indices 1 2 3 4 5 6 
#
# 1 0.012432 -0.006475 -0.001933 0.000000 0.000000 0.000000
# 2 -0.006475 0.026204 -0.009265 0.000000 0.000000 0.000000
# 3 -0.001933 -0.009265 0.014974 0.000000 0.000000 0.000000
# 4 0.000000 0.000000 0.000000 0.093704 0.000000 0.000000
# 5 0.000000 0.000000 0.000000 0.000000 0.027764 0.000000
# 6 0.000000 0.000000 0.000000 0.000000 0.000000 0.410661
#
#
# Mechanical properties :
#
#
# Convention : Reuss Voigt Hill
#
# Bulk Modulus (GPa) = 54.75631 57.60795 56.18213
# Shear Modulus (GPa) = 7.97228 19.62880 13.80054
#
# Velocity S-wave (km/s) = 2.02665 3.18005 2.66646
# Velocity P-wave (km/s) = 5.80404 6.56988 6.19880
#
# Compressibility (1/GPa) = 0.01826273
#
# Stress axis : x y z
#
# Youngs Moduli (GPa) = 80.43884 38.16221 66.78148
#
# Poissons Ratio (x) = 0.24710 0.12912
# Poissons Ratio (y) = 0.52085 0.61874
# Poissons Ratio (z) = 0.15552 0.35358
#
# Static dielectric constant tensor:
#      x y z
#    x 3.529910 0.000000 0.000000 
#    y 0.000000 3.449960 0.000000 
#    z 0.000000 0.000000 3.383370 
# 
# 
# High freq. dielectric constant tensor:
#      x y z
#    x 1.759370 0.000000 0.000000 
#    y 0.000000 1.740560 0.000000 
#    z 0.000000 0.000000 1.749470 
# 
# From -- ./inp_files/32399.got.cif
#   From: 2010.03.12/outbox.cif.g09.slc.cpg/sg51_17_cif.got.tgz:32399.got - 2010.04.16 13:43:02.
