data_PCOD8213835
_publ_section_title
;
Structure prediction by ZEFSAII (Michael W. Deem and Ramdas Pophale) SiO2 
 PCOD8213835
Probable space group: P M M A
;
_chemical_formula_sum "Si O2"
_cell_formula_units_Z 52
_cell_length_a 8.930464
_cell_length_b 12.370980
_cell_length_c 30.209874
_cell_angle_alpha 90.000000
_cell_angle_beta 90.000000
_cell_angle_gamma 90.000000
_cell_volume 3337.544330
_symmetry_space_group_name_H-M "P M M A"
_symmetry_group_IT_number 51
_symmetry_cell_setting 'orthorhombic'
loop_
_space_group_symop_operation_xyz
x,y,z
1/2-x,-y,z
1/2+x,-y,-z
-x,y,-z
-x,-y,-z
1/2+x,y,-z
1/2-x,y,z
x,-y,z
loop_
_atom_site_type_symbol
_atom_site_label
_atom_site_fract_x
_atom_site_fract_y
_atom_site_fract_z
Si Si1 0.418026 0.128877 0.956535
Si Si2 0.423810 0.626174 0.546099
Si Si3 0.082763 0.871036 0.130214
Si Si4 0.429646 0.000000 0.548311
Si Si5 0.927541 0.803137 0.600736
Si Si6 0.416304 0.128537 0.784426
Si Si7 0.075900 0.126740 0.686206
O O1 0.250000 0.172186 0.957850
O O2 0.492484 0.174508 0.911823
O O3 0.424396 0.000000 0.956534
O O4 0.500000 0.174848 0.000000
O O5 0.500000 0.658457 0.500000
O O6 0.250000 0.661234 0.544831
O O7 0.441003 0.500000 0.556055
O O8 0.514174 0.687396 0.584311
O O9 0.250000 0.827855 0.125393
O O10 0.018736 0.824117 0.176369
O O11 0.076275 0.000000 0.130788
O O12 0.500000 0.000000 0.500000
O O13 0.485198 0.105378 0.573796
O O14 0.250000 0.000000 0.545814
O O15 0.750000 0.815065 0.594234
O O16 0.969707 0.809920 0.652395
O O17 0.250000 0.174254 0.792114
O O18 0.473995 0.163036 0.735694
O O19 0.412393 0.000000 0.786523
O O20 0.250000 0.155289 0.678089
O O21 0.049956 0.000000 0.679254
#
# Coordination Sequence:
#
# PCOD8213835 Si02
#       7
#     8   8   8   4   8   8   8
#     4   9  15  21  28  37  51  72 100 138 184 234
#     4  10  21  38  58  76  94 118 147 178 212 251
#     4   9  15  21  29  42  59  80 108 144 186 231
#     4  12  24  38  52  68  94 122 150 178 209 252
#     4  12  23  34  50  73  97 120 146 177 215 256
#     4   8  14  24  37  51  67  92 124 155 191 233
#     4   9  17  30  46  62  84 114 142 171 206 249
#
# _framework density 15.580318
#
# number of rings (size 3 to 8) (size 9 to 14) (size 15 to 20)
#    0.000    2.308    0.769    4.846    0.000    5.231 
#    0.000    1.538    0.000    0.000    0.000    0.000 
#    0.000    0.000    0.000    0.000    0.000    0.000 
#
# Total GULP energy -644667.624961 kJ/mol
# GULP energy per Si atom -12397.454326 kJ/mol
# Density = 1.554486 g / cm^3
# Si number density = 15.580318 Si / 1000 Ang^3
#
#
#
# Elastic Constant Matrix: (Units=GPa)
#
#
# Indices 1 2 3 4 5 6 
#
# 1 137.8420 23.3626 77.9407 0.0000 0.0000 0.0000
# 2 23.3626 25.7394 24.6661 0.0000 0.0000 0.0000
# 3 77.9407 24.6661 150.4617 0.0000 0.0000 0.0000
# 4 0.0000 0.0000 0.0000 6.2182 0.0000 0.0000
# 5 0.0000 0.0000 0.0000 0.0000 34.5889 0.0000
# 6 0.0000 0.0000 0.0000 0.0000 0.0000 13.8387
#
#
#
# Elastic Compliance Matrix: (Units=1/GPa)
#
#
# Indices 1 2 3 4 5 6 
#
# 1 0.010834 -0.005286 -0.004745 0.000000 0.000000 0.000000
# 2 -0.005286 0.048671 -0.005241 0.000000 0.000000 0.000000
# 3 -0.004745 -0.005241 0.009964 0.000000 0.000000 0.000000
# 4 0.000000 0.000000 0.000000 0.160819 0.000000 0.000000
# 5 0.000000 0.000000 0.000000 0.000000 0.028911 0.000000
# 6 0.000000 0.000000 0.000000 0.000000 0.000000 0.072261
#
#
# Mechanical properties :
#
#
# Convention : Reuss Voigt Hill
#
# Bulk Modulus (GPa) = 25.69099 62.88686 44.28892
# Shear Modulus (GPa) = 13.33408 23.46740 18.40074
#
# Velocity S-wave (km/s) = 2.92863 3.88522 3.44033
# Velocity P-wave (km/s) = 5.28782 7.78313 6.65350
#
# Compressibility (1/GPa) = 0.03892416
#
# Stress axis : x y z
#
# Youngs Moduli (GPa) = 92.30344 20.54611 100.36553
#
# Poissons Ratio (x) = 0.10860 0.47628
# Poissons Ratio (y) = 0.48790 0.52600
# Poissons Ratio (z) = 0.43803 0.10768
#
# Static dielectric constant tensor:
#      x y z
#    x 3.150040 0.000000 0.000000 
#    y 0.000000 2.403240 0.000000 
#    z 0.000000 0.000000 3.271690 
# 
# 
# High freq. dielectric constant tensor:
#      x y z
#    x 1.612750 0.000000 0.000000 
#    y 0.000000 1.513570 0.000000 
#    z 0.000000 0.000000 1.614360 
# 
# From -- ./inp_files/37323.got.cif
#   From: 2010.03.12/outbox.cif.g09.slc.cpg/sg51_19_cif.got.tgz:37323.got - 2010.04.16 13:43:02.
