data_PCOD8213926
_publ_section_title
;
Structure prediction by ZEFSAII (Michael W. Deem and Ramdas Pophale) SiO2 
 PCOD8213926
Probable space group: P M M A
;
_chemical_formula_sum "Si O2"
_cell_formula_units_Z 56
_cell_length_a 14.793359
_cell_length_b 8.960383
_cell_length_c 21.410679
_cell_angle_alpha 90.000000
_cell_angle_beta 90.000000
_cell_angle_gamma 90.000000
_cell_volume 2838.074623
_symmetry_space_group_name_H-M "P M M A"
_symmetry_group_IT_number 51
_symmetry_cell_setting 'orthorhombic'
loop_
_space_group_symop_operation_xyz
x,y,z
1/2-x,-y,z
1/2+x,-y,-z
-x,y,-z
-x,-y,-z
1/2+x,y,-z
1/2-x,y,z
x,-y,z
loop_
_atom_site_type_symbol
_atom_site_label
_atom_site_fract_x
_atom_site_fract_y
_atom_site_fract_z
Si Si1 0.010747 0.325914 0.292822
Si Si2 0.143968 0.169836 0.060208
Si Si3 0.855980 0.174661 0.613341
Si Si4 0.357103 0.668016 0.511929
Si Si5 0.991049 0.671675 0.851475
Si Si6 0.645328 0.824098 0.361843
Si Si7 0.350648 0.176301 0.919612
O O1 0.007717 0.500000 0.310004
O O2 0.091979 0.246715 0.329030
O O3 0.031014 0.298570 0.220453
O O4 0.913957 0.252257 0.308169
O O5 0.250000 0.184734 0.072039
O O6 0.094035 0.274702 0.108816
O O7 0.111748 0.000000 0.070851
O O8 0.119482 0.220750 0.989844
O O9 0.750000 0.205859 0.622906
O O10 0.893175 0.249635 0.549834
O O11 0.877092 0.000000 0.609861
O O12 0.250000 0.665162 0.510302
O O13 0.396403 0.500000 0.514534
O O14 0.389633 0.759701 0.572183
O O15 0.007766 0.500000 0.865687
O O16 0.082295 0.756272 0.869279
O O17 0.750000 0.784091 0.349400
O O18 0.629313 0.000000 0.362043
O O19 0.250000 0.237652 0.905852
O O20 0.351139 0.000000 0.913218
#
# Coordination Sequence:
#
# PCOD8213926 Si02
#       7
#     8   8   8   8   8   8   8
#     4  11  25  41  55  77 112 153 193 228 271 333
#     4   9  19  37  61  87 113 144 184 228 274 326
#     4  10  21  38  60  85 112 142 183 236 284 327
#     4   9  17  32  57  86 114 145 179 220 279 342
#     4  11  24  38  54  81 116 151 186 228 277 328
#     4  10  21  38  60  85 112 142 183 236 284 327
#     4   9  19  37  61  87 113 144 184 228 274 326
#
# _framework density 19.731687999999998
#
# number of rings (size 3 to 8) (size 9 to 14) (size 15 to 20)
#    0.000    2.143    0.000    3.429    0.000   10.286 
#    0.000   10.000    0.000    0.000    0.000    0.000 
#    0.000    0.000    0.000    0.000    0.000    0.000 
#
# Total GULP energy -694563.873092 kJ/mol
# GULP energy per Si atom -12402.926305 kJ/mol
# Density = 1.968678 g / cm^3
# Si number density = 19.731688 Si / 1000 Ang^3
#
#
#
# Elastic Constant Matrix: (Units=GPa)
#
#
# Indices 1 2 3 4 5 6 
#
# 1 46.5069 19.3739 7.8194 0.0000 0.0000 0.0000
# 2 19.3739 89.7223 33.4077 0.0000 0.0000 0.0000
# 3 7.8194 33.4077 58.3296 0.0000 0.0000 0.0000
# 4 0.0000 0.0000 0.0000 32.9863 0.0000 0.0000
# 5 0.0000 0.0000 0.0000 0.0000 21.5853 0.0000
# 6 0.0000 0.0000 0.0000 0.0000 0.0000 9.5760
#
#
#
# Elastic Compliance Matrix: (Units=1/GPa)
#
#
# Indices 1 2 3 4 5 6 
#
# 1 0.023632 -0.004987 -0.000312 0.000000 0.000000 0.000000
# 2 -0.004987 0.015219 -0.008048 0.000000 0.000000 0.000000
# 3 -0.000312 -0.008048 0.021795 0.000000 0.000000 0.000000
# 4 0.000000 0.000000 0.000000 0.030316 0.000000 0.000000
# 5 0.000000 0.000000 0.000000 0.000000 0.046328 0.000000
# 6 0.000000 0.000000 0.000000 0.000000 0.000000 0.104428
#
#
# Mechanical properties :
#
#
# Convention : Reuss Voigt Hill
#
# Bulk Modulus (GPa) = 29.45262 35.08455 32.26858
# Shear Modulus (GPa) = 17.87445 21.76001 19.81723
#
# Velocity S-wave (km/s) = 3.01304 3.32444 3.17256
# Velocity P-wave (km/s) = 5.20226 5.70572 5.45980
#
# Compressibility (1/GPa) = 0.03395284
#
# Stress axis : x y z
#
# Youngs Moduli (GPa) = 42.31541 65.70755 45.88173
#
# Poissons Ratio (x) = 0.32767 0.01431
# Poissons Ratio (y) = 0.21102 0.36926
# Poissons Ratio (z) = 0.01320 0.52881
#
# Static dielectric constant tensor:
#      x y z
#    x 3.588540 0.000000 0.000000 
#    y 0.000000 3.669120 0.000000 
#    z 0.000000 0.000000 3.609200 
# 
# 
# High freq. dielectric constant tensor:
#      x y z
#    x 1.774590 0.000000 0.000000 
#    y 0.000000 1.775200 0.000000 
#    z 0.000000 0.000000 1.766310 
# 
# From -- ./inp_files/33372.got.cif
#   From: 2010.03.12/outbox.cif.g09.slc.cpg/sg51_17_cif.got.tgz:33372.got - 2010.04.16 13:43:02.
