data_PCOD8213937
_publ_section_title
;
Structure prediction by ZEFSAII (Michael W. Deem and Ramdas Pophale) SiO2 
 PCOD8213937
Probable space group: P M M A
;
_chemical_formula_sum "Si O2"
_cell_formula_units_Z 48
_cell_length_a 9.792575
_cell_length_b 14.011394
_cell_length_c 18.957438
_cell_angle_alpha 90.000000
_cell_angle_beta 90.000000
_cell_angle_gamma 90.000000
_cell_volume 2601.105074
_symmetry_space_group_name_H-M "P M M A"
_symmetry_group_IT_number 51
_symmetry_cell_setting 'orthorhombic'
loop_
_space_group_symop_operation_xyz
x,y,z
1/2-x,-y,z
1/2+x,-y,-z
-x,y,-z
-x,-y,-z
1/2+x,y,-z
1/2-x,y,z
x,-y,z
loop_
_atom_site_type_symbol
_atom_site_label
_atom_site_fract_x
_atom_site_fract_y
_atom_site_fract_z
Si Si1 0.092843 0.890357 0.702799
Si Si2 0.750000 0.109911 0.082490
Si Si3 0.501176 0.799136 0.158587
Si Si4 0.094834 0.609348 0.372695
Si Si5 0.087864 0.767877 0.565212
Si Si6 0.409152 0.393404 0.208251
Si Si7 0.750000 0.891346 0.915235
O O1 0.250000 0.878203 0.725962
O O2 0.064645 0.840940 0.628575
O O3 0.000282 0.843262 0.762996
O O4 0.051568 0.000000 0.694361
O O5 0.625278 0.168350 0.111905
O O6 0.750000 0.000000 0.109877
O O7 0.750000 0.112476 0.999039
O O8 0.496573 0.684032 0.164800
O O9 0.376319 0.836506 0.114944
O O10 0.250000 0.645907 0.388166
O O11 0.082298 0.500000 0.396275
O O12 0.061053 0.620252 0.290561
O O13 0.980808 0.666584 0.416044
O O14 0.250000 0.755324 0.548199
O O15 0.000000 0.810049 0.500000
O O16 0.250000 0.377175 0.192838
O O17 0.453444 0.500000 0.184432
O O18 0.750000 0.000000 0.888892
#
# Coordination Sequence:
#
# PCOD8213937 Si02
#       7
#     8   4   8   8   8   8   4
#     4  10  21  38  60  85 115 153 195 239 290 345
#     4  11  24  40  59  85 130 168 190 233 301 357
#     4  12  20  37  64  89 118 158 200 244 291 350
#     4   9  18  35  58  83 113 148 187 234 294 352
#     4  11  23  38  57  81 115 153 192 240 291 342
#     4   9  18  35  60  90 120 152 193 248 305 348
#     4  11  24  38  57  93 126 158 200 239 287 355
#
# _framework density 18.453695
#
# number of rings (size 3 to 8) (size 9 to 14) (size 15 to 20)
#    0.000    1.667    3.333    3.500    0.000    2.333 
#    1.500    0.417    0.000    3.000    0.000    0.000 
#    0.000    0.000    0.000    0.000    0.000    0.000 
#
# Total GULP energy -595110.897358 kJ/mol
# GULP energy per Si atom -12398.143695 kJ/mol
# Density = 1.841169 g / cm^3
# Si number density = 18.453695 Si / 1000 Ang^3
#
#
#
# Elastic Constant Matrix: (Units=GPa)
#
#
# Indices 1 2 3 4 5 6 
#
# 1 111.3304 46.9094 44.8530 0.0000 0.0000 0.0000
# 2 46.9094 127.5940 52.5216 0.0000 0.0000 0.0000
# 3 44.8530 52.5216 81.6544 0.0000 0.0000 0.0000
# 4 0.0000 0.0000 0.0000 30.1127 0.0000 0.0000
# 5 0.0000 0.0000 0.0000 0.0000 -6.9646 0.0000
# 6 0.0000 0.0000 0.0000 0.0000 0.0000 27.1960
#
#
#
# Elastic Compliance Matrix: (Units=1/GPa)
#
#
# Indices 1 2 3 4 5 6 
#
# 1 0.012017 -0.002313 -0.005113 0.000000 0.000000 0.000000
# 2 -0.002313 0.011105 -0.005872 0.000000 0.000000 0.000000
# 3 -0.005113 -0.005872 0.018832 0.000000 0.000000 0.000000
# 4 0.000000 0.000000 0.000000 0.033209 0.000000 0.000000
# 5 0.000000 0.000000 0.000000 0.000000 -0.143583 0.000000
# 6 0.000000 0.000000 0.000000 0.000000 0.000000 0.036770
#
#
# Mechanical properties :
#
#
# Convention : Reuss Voigt Hill
#
# Bulk Modulus (GPa) = 65.11545 67.68297 66.39921
# Shear Modulus (GPa) = 75686.76382 21.82181 37854.29282
#
# Velocity S-wave (km/s) = 202.73989 3.44251 143.37941
# Velocity P-wave (km/s) = 234.17937 7.24969 165.66915
#
# Compressibility (1/GPa) = 0.01535734
#
# Stress axis : x y z
#
# Youngs Moduli (GPa) = 83.21599 90.04925 53.09986
#
# Poissons Ratio (x) = 0.20831 0.27150
# Poissons Ratio (y) = 0.19250 0.31182
# Poissons Ratio (z) = 0.42548 0.52879
#
# Static dielectric constant tensor:
#      x y z
#    x 3.311890 0.000000 0.000000 
#    y 0.000000 3.512420 0.000000 
#    z 0.000000 0.000000 3.407190 
# 
# 
# High freq. dielectric constant tensor:
#      x y z
#    x 1.712550 0.000000 0.000000 
#    y 0.000000 1.720030 0.000000 
#    z 0.000000 0.000000 1.714350 
# 
# From -- ./inp_files/27646.got.cif
#   From: 2010.03.12/outbox.cif.g09.slc.cpg/sg51_14_cif.got.tgz:27646.got - 2010.04.16 13:43:02.
