data_PCOD8213526
_publ_section_title
;
Structure prediction by ZEFSAII (Michael W. Deem and Ramdas Pophale) SiO2 
 PCOD8213526
Probable space group: P M M A
;
_chemical_formula_sum "Si O2"
_cell_formula_units_Z 52
_cell_length_a 9.125489
_cell_length_b 10.801612
_cell_length_c 29.442440
_cell_angle_alpha 90.000000
_cell_angle_beta 90.000000
_cell_angle_gamma 90.000000
_cell_volume 2902.141060
_symmetry_space_group_name_H-M "P M M A"
_symmetry_group_IT_number 51
_symmetry_cell_setting 'orthorhombic'
loop_
_space_group_symop_operation_xyz
x,y,z
1/2-x,-y,z
1/2+x,-y,-z
-x,y,-z
-x,-y,-z
1/2+x,y,-z
1/2-x,y,z
x,-y,z
loop_
_atom_site_type_symbol
_atom_site_label
_atom_site_fract_x
_atom_site_fract_y
_atom_site_fract_z
Si Si1 0.575953 0.500000 0.451746
Si Si2 0.082541 0.679125 0.386676
Si Si3 0.084603 0.852303 0.955696
Si Si4 0.580476 0.641808 0.293557
Si Si5 0.586319 0.146074 0.868640
Si Si6 0.583846 0.135941 0.541192
Si Si7 0.579127 0.142177 0.222860
O O1 0.750000 0.500000 0.457624
O O2 0.500000 0.500000 0.500000
O O3 0.522187 0.385001 0.422725
O O4 0.250000 0.628431 0.386875
O O5 0.074485 0.816580 0.406836
O O6 0.020493 0.666384 0.336609
O O7 0.250000 0.800874 0.956599
O O8 0.003817 0.798606 0.911089
O O9 0.085652 0.000000 0.954963
O O10 0.000000 0.802924 0.000000
O O11 0.750000 0.656068 0.307398
O O12 0.552819 0.500000 0.275353
O O13 0.536233 0.750803 0.258674
O O14 0.750000 0.202749 0.868447
O O15 0.506904 0.181051 0.822092
O O16 0.594815 0.000000 0.874235
O O17 0.500000 0.208821 0.500000
O O18 0.750000 0.137163 0.524795
O O19 0.514957 0.000000 0.544532
O O20 0.750000 0.147590 0.211461
O O21 0.538199 0.000000 0.238651
#
# Coordination Sequence:
#
# PCOD8213526 Si02
#       7
#     4   8   8   8   8   8   8
#     4  12  24  38  56  78 104 130 160 198 239 286
#     4  11  22  36  55  78 102 130 164 200 242 293
#     4   9  15  22  34  55  87 128 170 210 255 308
#     4  10  21  37  55  75 102 135 168 209 258 306
#     4   9  16  26  41  63  92 126 166 212 261 310
#     4   9  19  35  53  75 103 132 161 195 236 284
#     4   9  18  33  52  73  98 131 173 216 259 308
#
# _framework density 17.917805999999999
#
# number of rings (size 3 to 8) (size 9 to 14) (size 15 to 20)
#    0.000    2.308    0.769    2.538    0.000    7.385 
#    0.000    0.000    0.000    0.000    0.000    0.000 
#    0.000    0.615    0.000    1.692    0.000    3.077 
#
# Total GULP energy -644214.422900 kJ/mol
# GULP energy per Si atom -12388.738902 kJ/mol
# Density = 1.787702 g / cm^3
# Si number density = 17.917806 Si / 1000 Ang^3
#
#
#
# Elastic Constant Matrix: (Units=GPa)
#
#
# Indices 1 2 3 4 5 6 
#
# 1 125.6353 34.6981 80.3093 0.0000 0.0000 0.0000
# 2 34.6981 71.7104 56.4822 0.0000 0.0000 0.0000
# 3 80.3093 56.4822 146.7595 0.0000 0.0000 0.0000
# 4 0.0000 0.0000 0.0000 11.1319 0.0000 0.0000
# 5 0.0000 0.0000 0.0000 0.0000 39.0229 0.0000
# 6 0.0000 0.0000 0.0000 0.0000 0.0000 15.9798
#
#
#
# Elastic Compliance Matrix: (Units=1/GPa)
#
#
# Indices 1 2 3 4 5 6 
#
# 1 0.012285 -0.000932 -0.006364 0.000000 0.000000 0.000000
# 2 -0.000932 0.020082 -0.007219 0.000000 0.000000 0.000000
# 3 -0.006364 -0.007219 0.013075 0.000000 0.000000 0.000000
# 4 0.000000 0.000000 0.000000 0.089832 0.000000 0.000000
# 5 0.000000 0.000000 0.000000 0.000000 0.025626 0.000000
# 6 0.000000 0.000000 0.000000 0.000000 0.000000 0.062579
#
#
# Mechanical properties :
#
#
# Convention : Reuss Voigt Hill
#
# Bulk Modulus (GPa) = 60.93037 76.34271 68.63654
# Shear Modulus (GPa) = 19.38152 24.73464 22.05808
#
# Velocity S-wave (km/s) = 3.29247 3.71947 3.51247
# Velocity P-wave (km/s) = 6.96657 7.81957 7.40536
#
# Compressibility (1/GPa) = 0.01641218
#
# Stress axis : x y z
#
# Youngs Moduli (GPa) = 81.40127 49.79676 76.48457
#
# Poissons Ratio (x) = 0.04640 0.48674
# Poissons Ratio (y) = 0.07584 0.55213
# Poissons Ratio (z) = 0.51803 0.35947
#
# Static dielectric constant tensor:
#      x y z
#    x 3.539690 0.000000 0.000000 
#    y 0.000000 3.246090 0.000000 
#    z 0.000000 0.000000 3.550160 
# 
# 
# High freq. dielectric constant tensor:
#      x y z
#    x 1.705510 0.000000 0.000000 
#    y 0.000000 1.653830 0.000000 
#    z 0.000000 0.000000 1.693480 
# 
# From -- ./inp_files/36244.got.cif
#   From: 2010.03.12/outbox.cif.g09.slc.cpg/sg51_19_cif.got.tgz:36244.got - 2010.04.16 13:43:02.
