data_PCOD8213405
_publ_section_title
;
Structure prediction by ZEFSAII (Michael W. Deem and Ramdas Pophale) SiO2 
 PCOD8213405
Probable space group: P M M A
;
_chemical_formula_sum "Si O2"
_cell_formula_units_Z 44
_cell_length_a 9.179653
_cell_length_b 15.131379
_cell_length_c 17.584956
_cell_angle_alpha 90.000000
_cell_angle_beta 90.000000
_cell_angle_gamma 90.000000
_cell_volume 2442.564608
_symmetry_space_group_name_H-M "P M M A"
_symmetry_group_IT_number 51
_symmetry_cell_setting 'orthorhombic'
loop_
_space_group_symop_operation_xyz
x,y,z
1/2-x,-y,z
1/2+x,-y,-z
-x,y,-z
-x,-y,-z
1/2+x,y,-z
1/2-x,y,z
x,-y,z
loop_
_atom_site_type_symbol
_atom_site_label
_atom_site_fract_x
_atom_site_fract_y
_atom_site_fract_z
Si Si1 0.422662 0.597674 0.263016
Si Si2 0.080377 0.000000 0.579083
Si Si3 0.589686 0.843664 0.638566
Si Si4 0.420906 0.899250 0.921245
Si Si5 0.917532 0.343749 0.574989
Si Si6 0.914778 0.226535 0.807650
O O1 0.250000 0.609696 0.269543
O O2 0.467457 0.500000 0.233360
O O3 0.484450 0.611309 0.348661
O O4 0.475794 0.672456 0.202741
O O5 0.000000 0.000000 0.500000
O O6 0.036746 0.914027 0.626372
O O7 0.250000 0.000000 0.564808
O O8 0.750000 0.884064 0.620941
O O9 0.562883 0.761413 0.582875
O O10 0.583981 0.815700 0.725269
O O11 0.250000 0.884455 0.932517
O O12 0.478789 0.829130 0.860596
O O13 0.453946 0.000000 0.894285
O O14 0.500000 0.879518 0.000000
O O15 0.750000 0.370779 0.565047
O O16 0.000000 0.377870 0.500000
O O17 0.750000 0.225466 0.841207
#
# Coordination Sequence:
#
# PCOD8213405 Si02
#       6
#     8   4   8   8   8   8
#     4   8  15  30  51  74 100 132 171 211 254 307
#     4  12  24  34  46  64  89 124 169 216 260 302
#     4   9  19  34  48  66  93 128 168 207 251 303
#     4  10  21  36  55  81 112 141 169 202 244 296
#     4   9  17  29  46  67  93 126 166 210 257 305
#     4   9  18  33  55  79 103 135 170 207 252 299
#
# _framework density 18.013853999999998
#
# number of rings (size 3 to 8) (size 9 to 14) (size 15 to 20)
#    0.000    2.727    0.000    4.091    1.273    4.364 
#    0.000    2.727    0.000    2.182    0.000    0.000 
#    0.000    0.000    0.000    0.000    0.000    0.000 
#
# Total GULP energy -545375.200838 kJ/mol
# GULP energy per Si atom -12394.890928 kJ/mol
# Density = 1.797285 g / cm^3
# Si number density = 18.013854 Si / 1000 Ang^3
#
#
#
# Elastic Constant Matrix: (Units=GPa)
#
#
# Indices 1 2 3 4 5 6 
#
# 1 82.6746 45.0613 34.0922 0.0000 0.0000 0.0000
# 2 45.0613 122.7693 48.5172 0.0000 0.0000 0.0000
# 3 34.0922 48.5172 72.3703 0.0000 0.0000 0.0000
# 4 0.0000 0.0000 0.0000 19.5165 0.0000 0.0000
# 5 0.0000 0.0000 0.0000 0.0000 30.3360 0.0000
# 6 0.0000 0.0000 0.0000 0.0000 0.0000 12.4725
#
#
#
# Elastic Compliance Matrix: (Units=1/GPa)
#
#
# Indices 1 2 3 4 5 6 
#
# 1 0.016353 -0.004024 -0.005006 0.000000 0.000000 0.000000
# 2 -0.004024 0.012071 -0.006197 0.000000 0.000000 0.000000
# 3 -0.005006 -0.006197 0.020331 0.000000 0.000000 0.000000
# 4 0.000000 0.000000 0.000000 0.051239 0.000000 0.000000
# 5 0.000000 0.000000 0.000000 0.000000 0.032964 0.000000
# 6 0.000000 0.000000 0.000000 0.000000 0.000000 0.080176
#
#
# Mechanical properties :
#
#
# Convention : Reuss Voigt Hill
#
# Bulk Modulus (GPa) = 54.64158 59.23950 56.94054
# Shear Modulus (GPa) = 20.02497 22.47458 21.24977
#
# Velocity S-wave (km/s) = 3.33775 3.53601 3.43831
# Velocity P-wave (km/s) = 6.72704 7.04472 6.88771
#
# Compressibility (1/GPa) = 0.01830108
#
# Stress axis : x y z
#
# Youngs Moduli (GPa) = 61.15037 82.84103 49.18706
#
# Poissons Ratio (x) = 0.33335 0.24623
# Poissons Ratio (y) = 0.24607 0.30481
# Poissons Ratio (z) = 0.30612 0.51337
#
# Static dielectric constant tensor:
#      x y z
#    x 3.288230 0.000000 0.000000 
#    y 0.000000 3.468380 0.000000 
#    z 0.000000 0.000000 3.165820 
# 
# 
# High freq. dielectric constant tensor:
#      x y z
#    x 1.675380 0.000000 0.000000 
#    y 0.000000 1.701750 0.000000 
#    z 0.000000 0.000000 1.678840 
# 
# From -- ./inp_files/27372.got.cif
#   From: 2010.03.12/outbox.cif.g09.slc.cpg/sg51_14_cif.got.tgz:27372.got - 2010.04.16 13:43:02.
