data_PCOD8213982
_publ_section_title
;
Structure prediction by ZEFSAII (Michael W. Deem and Ramdas Pophale) SiO2 
 PCOD8213982
Probable space group: P M M A
;
_chemical_formula_sum "Si O2"
_cell_formula_units_Z 48
_cell_length_a 8.727344
_cell_length_b 29.625857
_cell_length_c 9.572565
_cell_angle_alpha 90.000000
_cell_angle_beta 90.000000
_cell_angle_gamma 90.000000
_cell_volume 2475.034978
_symmetry_space_group_name_H-M "P M M A"
_symmetry_group_IT_number 51
_symmetry_cell_setting 'orthorhombic'
loop_
_space_group_symop_operation_xyz
x,y,z
1/2-x,-y,z
1/2+x,-y,-z
-x,y,-z
-x,-y,-z
1/2+x,y,-z
1/2-x,y,z
x,-y,z
loop_
_atom_site_type_symbol
_atom_site_label
_atom_site_fract_x
_atom_site_fract_y
_atom_site_fract_z
Si Si1 0.428380 0.052493 0.147332
Si Si2 0.569370 0.550667 0.145696
Si Si3 0.568405 0.875801 0.346871
Si Si4 0.071748 0.699367 0.146212
Si Si5 0.571266 0.804483 0.853513
Si Si6 0.931213 0.370995 0.347875
O O1 0.250000 0.064995 0.145124
O O2 0.512259 0.079399 0.268996
O O3 0.456344 0.000000 0.177418
O O4 0.500000 0.067006 0.000000
O O5 0.750000 0.552119 0.130235
O O6 0.512179 0.500000 0.182312
O O7 0.512654 0.584368 0.265984
O O8 0.500000 0.567448 0.000000
O O9 0.500000 0.876072 0.500000
O O10 0.750000 0.875604 0.354959
O O11 0.511233 0.830893 0.270051
O O12 0.250000 0.687710 0.142788
O O13 0.040479 0.751913 0.172418
O O14 0.991752 0.673615 0.272503
O O15 0.000000 0.683373 0.000000
O O16 0.750000 0.816312 0.854898
O O17 0.500000 0.820288 0.000000
O O18 0.750000 0.368250 0.357278
O O19 0.000000 0.373861 0.500000
#
# Coordination Sequence:
#
# PCOD8213982 Si02
#       6
#     8   8   8   8   8   8
#     4  10  21  39  63  89 117 151 192 236 281 332
#     4   9  19  36  57  81 108 141 183 229 277 330
#     4  12  25  40  59  84 117 154 191 234 284 338
#     4  10  21  38  61  86 113 146 186 232 279 331
#     4  10  21  39  62  87 114 147 188 232 279 332
#     4  11  23  37  55  80 113 150 187 230 280 335
#
# _framework density 19.393664999999999
#
# number of rings (size 3 to 8) (size 9 to 14) (size 15 to 20)
#    0.000    1.667    0.000    4.500    0.000    7.000 
#    0.000    0.000    0.000    0.000    0.000    0.000 
#    0.000    0.000    0.000    0.000    0.000    0.000 
#
# Total GULP energy -595463.639013 kJ/mol
# GULP energy per Si atom -12405.492479 kJ/mol
# Density = 1.934952 g / cm^3
# Si number density = 19.393665 Si / 1000 Ang^3
#
#
#
# Elastic Constant Matrix: (Units=GPa)
#
#
# Indices 1 2 3 4 5 6 
#
# 1 131.8809 59.7255 81.5229 0.0000 0.0000 0.0000
# 2 59.7255 104.0555 85.8361 0.0000 0.0000 0.0000
# 3 81.5229 85.8361 191.3887 0.0000 0.0000 0.0000
# 4 0.0000 0.0000 0.0000 29.9412 0.0000 0.0000
# 5 0.0000 0.0000 0.0000 0.0000 41.0134 0.0000
# 6 0.0000 0.0000 0.0000 0.0000 0.0000 30.3114
#
#
#
# Elastic Compliance Matrix: (Units=1/GPa)
#
#
# Indices 1 2 3 4 5 6 
#
# 1 0.011240 -0.003971 -0.003007 0.000000 0.000000 0.000000
# 2 -0.003971 0.016657 -0.005779 0.000000 0.000000 0.000000
# 3 -0.003007 -0.005779 0.009097 0.000000 0.000000 0.000000
# 4 0.000000 0.000000 0.000000 0.033399 0.000000 0.000000
# 5 0.000000 0.000000 0.000000 0.000000 0.024382 0.000000
# 6 0.000000 0.000000 0.000000 0.000000 0.000000 0.032991
#
#
# Mechanical properties :
#
#
# Convention : Reuss Voigt Hill
#
# Bulk Modulus (GPa) = 87.10389 97.94380 92.52384
# Shear Modulus (GPa) = 31.82584 33.60258 32.71421
#
# Velocity S-wave (km/s) = 4.05537 4.16704 4.11158
# Velocity P-wave (km/s) = 8.18164 8.58865 8.38761
#
# Compressibility (1/GPa) = 0.01148054
#
# Stress axis : x y z
#
# Youngs Moduli (GPa) = 88.97174 60.03638 109.92229
#
# Poissons Ratio (x) = 0.23841 0.33048
# Poissons Ratio (y) = 0.35332 0.63522
# Poissons Ratio (z) = 0.26749 0.34694
#
# Static dielectric constant tensor:
#      x y z
#    x 3.673100 0.000000 0.000000 
#    y 0.000000 3.720910 0.000000 
#    z 0.000000 0.000000 3.431570 
# 
# 
# High freq. dielectric constant tensor:
#      x y z
#    x 1.769160 0.000000 0.000000 
#    y 0.000000 1.769080 0.000000 
#    z 0.000000 0.000000 1.755190 
# 
# From -- ./inp_files/5998.got.cif
#   From: 2010.03.12/outbox.cif.g09.slc.cpg/sg51_3_cif.got.tgz:5998.got - 2010.04.16 13:43:02.
