data_PCOD8213374
_publ_section_title
;
Structure prediction by ZEFSAII (Michael W. Deem and Ramdas Pophale) SiO2 
 PCOD8213374
Probable space group: P M M A
;
_chemical_formula_sum "Si O2"
_cell_formula_units_Z 48
_cell_length_a 8.928734
_cell_length_b 30.921555
_cell_length_c 8.917459
_cell_angle_alpha 90.000000
_cell_angle_beta 90.000000
_cell_angle_gamma 90.000000
_cell_volume 2462.024282
_symmetry_space_group_name_H-M "P M M A"
_symmetry_group_IT_number 51
_symmetry_cell_setting 'orthorhombic'
loop_
_space_group_symop_operation_xyz
x,y,z
1/2-x,-y,z
1/2+x,-y,-z
-x,y,-z
-x,-y,-z
1/2+x,y,-z
1/2-x,y,z
x,-y,z
loop_
_atom_site_type_symbol
_atom_site_label
_atom_site_fract_x
_atom_site_fract_y
_atom_site_fract_z
Si Si1 0.427920 0.084512 0.160199
Si Si2 0.073667 0.161764 0.661418
Si Si3 0.926637 0.584547 0.161309
Si Si4 0.572850 0.330675 0.338502
Si Si5 0.424327 0.247622 0.841378
Si Si6 0.424983 0.000000 0.341039
Si Si7 0.426956 0.500000 0.661641
O O1 0.250000 0.089728 0.147088
O O2 0.497262 0.126644 0.234133
O O3 0.476267 0.042618 0.253718
O O4 0.500000 0.078167 0.000000
O O5 0.250000 0.152591 0.648841
O O6 0.038694 0.208312 0.731132
O O7 0.000000 0.159405 0.500000
O O8 0.750000 0.584352 0.138626
O O9 0.979665 0.625369 0.258763
O O10 0.982141 0.541807 0.247042
O O11 0.000000 0.586817 0.000000
O O12 0.500000 0.327506 0.500000
O O13 0.750000 0.328746 0.359381
O O14 0.514342 0.291094 0.236699
O O15 0.250000 0.251769 0.873252
O O16 0.500000 0.239675 0.000000
O O17 0.500000 0.000000 0.500000
O O18 0.250000 0.000000 0.366554
O O19 0.250000 0.500000 0.639978
O O20 0.500000 0.500000 0.500000
#
# Coordination Sequence:
#
# PCOD8213374 Si02
#       7
#     8   8   8   8   8   4   4
#     4  11  23  40  61  87 117 151 190 233 280 332
#     4  11  23  39  59  85 115 149 188 232 280 333
#     4  10  21  36  55  80 110 142 182 226 272 326
#     4  10  21  37  56  81 110 143 183 227 273 327
#     4  10  22  38  57  82 112 145 185 229 276 329
#     4  10  23  40  60  86 116 150 189 232 279 330
#     4  10  21  36  54  80 110 142 181 226 272 326
#
# _framework density 19.496153
#
# number of rings (size 3 to 8) (size 9 to 14) (size 15 to 20)
#    0.000    1.667    0.000    4.000    0.000    7.333 
#    0.000    0.000    0.000    0.000    0.000    0.000 
#    0.000    0.000    0.000    0.000    0.000    0.000 
#
# Total GULP energy -595440.283088 kJ/mol
# GULP energy per Si atom -12405.005898 kJ/mol
# Density = 1.945178 g / cm^3
# Si number density = 19.496153 Si / 1000 Ang^3
#
#
#
# Elastic Constant Matrix: (Units=GPa)
#
#
# Indices 1 2 3 4 5 6 
#
# 1 52.8605 42.2099 48.3439 0.0000 0.0000 0.0000
# 2 42.2099 127.6350 36.8519 0.0000 0.0000 0.0000
# 3 48.3439 36.8519 139.6309 0.0000 0.0000 0.0000
# 4 0.0000 0.0000 0.0000 41.9626 0.0000 0.0000
# 5 0.0000 0.0000 0.0000 0.0000 45.1806 0.0000
# 6 0.0000 0.0000 0.0000 0.0000 0.0000 44.1708
#
#
#
# Elastic Compliance Matrix: (Units=1/GPa)
#
#
# Indices 1 2 3 4 5 6 
#
# 1 0.034763 -0.008683 -0.009744 0.000000 0.000000 0.000000
# 2 -0.008683 0.010650 0.000195 0.000000 0.000000 0.000000
# 3 -0.009744 0.000195 0.010484 0.000000 0.000000 0.000000
# 4 0.000000 0.000000 0.000000 0.023831 0.000000 0.000000
# 5 0.000000 0.000000 0.000000 0.000000 0.022133 0.000000
# 6 0.000000 0.000000 0.000000 0.000000 0.000000 0.022639
#
#
# Mechanical properties :
#
#
# Convention : Reuss Voigt Hill
#
# Bulk Modulus (GPa) = 51.45797 63.88199 57.66998
# Shear Modulus (GPa) = 29.86127 39.11085 34.48606
#
# Velocity S-wave (km/s) = 3.91788 4.48379 4.21035
# Velocity P-wave (km/s) = 6.84964 7.72291 7.29935
#
# Compressibility (1/GPa) = 0.01943333
#
# Stress axis : x y z
#
# Youngs Moduli (GPa) = 28.76641 93.89754 95.38501
#
# Poissons Ratio (x) = 0.81530 0.92945
# Poissons Ratio (y) = 0.24978 -0.01865
# Poissons Ratio (z) = 0.28030 -0.01836
#
# Static dielectric constant tensor:
#      x y z
#    x 3.526340 0.000000 0.000000 
#    y 0.000000 3.545890 0.000000 
#    z 0.000000 0.000000 3.573840 
# 
# 
# High freq. dielectric constant tensor:
#      x y z
#    x 1.755450 0.000000 0.000000 
#    y 0.000000 1.782650 0.000000 
#    z 0.000000 0.000000 1.777300 
# 
# From -- ./inp_files/6096.got.cif
#   From: 2010.03.12/outbox.cif.g09.slc.cpg/sg51_4_cif.got.tgz:6096.got - 2010.04.16 13:43:02.
