data_PCOD8213951
_publ_section_title
;
Structure prediction by ZEFSAII (Michael W. Deem and Ramdas Pophale) SiO2 
 PCOD8213951
Probable space group: P M M A
;
_chemical_formula_sum "Si O2"
_cell_formula_units_Z 44
_cell_length_a 9.032500
_cell_length_b 13.476612
_cell_length_c 17.561349
_cell_angle_alpha 90.000000
_cell_angle_beta 90.000000
_cell_angle_gamma 90.000000
_cell_volume 2137.699073
_symmetry_space_group_name_H-M "P M M A"
_symmetry_group_IT_number 51
_symmetry_cell_setting 'orthorhombic'
loop_
_space_group_symop_operation_xyz
x,y,z
1/2-x,-y,z
1/2+x,-y,-z
-x,y,-z
-x,-y,-z
1/2+x,y,-z
1/2-x,y,z
x,-y,z
loop_
_atom_site_type_symbol
_atom_site_label
_atom_site_fract_x
_atom_site_fract_y
_atom_site_fract_z
Si Si1 0.417684 0.320788 0.426704
Si Si2 0.074852 0.500000 0.647496
Si Si3 0.074376 0.500000 0.819927
Si Si4 0.584898 0.853968 0.681086
Si Si5 0.423174 0.686241 0.920676
Si Si6 0.578324 0.000000 0.420697
Si Si7 0.579035 0.113721 0.164275
O O1 0.500000 0.270457 0.500000
O O2 0.250000 0.350696 0.449845
O O3 0.519117 0.410347 0.402587
O O4 0.410549 0.256340 0.350188
O O5 0.250000 0.500000 0.651315
O O6 0.010062 0.500000 0.733835
O O7 0.250000 0.500000 0.817126
O O8 0.019468 0.398315 0.861470
O O9 0.750000 0.901180 0.677398
O O10 0.467645 0.905400 0.626886
O O11 0.527731 0.861959 0.766310
O O12 0.250000 0.673246 0.932576
O O13 0.459691 0.800333 0.896567
O O14 0.500000 0.664250 0.000000
O O15 0.500000 0.000000 0.500000
O O16 0.750000 0.000000 0.436807
O O17 0.750000 0.123531 0.190024
O O18 0.549793 0.000000 0.134103
#
# Coordination Sequence:
#
# PCOD8213951 Si02
#       7
#     8   4   4   8   8   4   8
#     4  11  24  40  58  84 119 157 199 250 303 356
#     4  11  22  39  64  88 114 155 202 247 300 360
#     4   9  19  37  61  88 117 153 194 243 296 362
#     4  11  23  39  60  87 117 153 200 250 300 357
#     4  10  21  38  60  88 121 155 198 243 298 362
#     4  12  24  38  58  84 117 154 195 246 300 352
#     4  10  21  38  60  86 118 160 203 249 303 364
#
# _framework density 20.582878999999998
#
# number of rings (size 3 to 8) (size 9 to 14) (size 15 to 20)
#    0.000    1.455    0.909    4.364    0.000    6.909 
#    0.000    1.818    0.000    0.000    0.000    0.000 
#    0.000    0.000    0.000    0.000    0.000    0.000 
#
# Total GULP energy -545305.130191 kJ/mol
# GULP energy per Si atom -12393.298413 kJ/mol
# Density = 2.053603 g / cm^3
# Si number density = 20.582879 Si / 1000 Ang^3
#
#
#
# Elastic Constant Matrix: (Units=GPa)
#
#
# Indices 1 2 3 4 5 6 
#
# 1 100.9303 23.0269 30.6462 0.0000 0.0000 0.0000
# 2 23.0269 106.7704 16.2804 0.0000 0.0000 0.0000
# 3 30.6462 16.2804 77.7280 0.0000 0.0000 0.0000
# 4 0.0000 0.0000 0.0000 32.3408 0.0000 0.0000
# 5 0.0000 0.0000 0.0000 0.0000 38.6622 0.0000
# 6 0.0000 0.0000 0.0000 0.0000 0.0000 23.9191
#
#
#
# Elastic Compliance Matrix: (Units=1/GPa)
#
#
# Indices 1 2 3 4 5 6 
#
# 1 0.011604 -0.001864 -0.004185 0.000000 0.000000 0.000000
# 2 -0.001864 0.009974 -0.001354 0.000000 0.000000 0.000000
# 3 -0.004185 -0.001354 0.014799 0.000000 0.000000 0.000000
# 4 0.000000 0.000000 0.000000 0.030921 0.000000 0.000000
# 5 0.000000 0.000000 0.000000 0.000000 0.025865 0.000000
# 6 0.000000 0.000000 0.000000 0.000000 0.000000 0.041808
#
#
# Mechanical properties :
#
#
# Convention : Reuss Voigt Hill
#
# Bulk Modulus (GPa) = 46.35881 47.25954 46.80918
# Shear Modulus (GPa) = 31.85382 33.34942 32.60162
#
# Velocity S-wave (km/s) = 3.93821 4.02960 3.98417
# Velocity P-wave (km/s) = 6.57656 6.68287 6.62993
#
# Compressibility (1/GPa) = 0.02157087
#
# Stress axis : x y z
#
# Youngs Moduli (GPa) = 86.17864 100.25594 67.57281
#
# Poissons Ratio (x) = 0.18693 0.28276
# Poissons Ratio (y) = 0.16068 0.09150
# Poissons Ratio (z) = 0.36062 0.13575
#
# Static dielectric constant tensor:
#      x y z
#    x 3.708920 0.000000 0.000000 
#    y 0.000000 3.141680 0.000000 
#    z 0.000000 0.000000 2.801060 
# 
# 
# High freq. dielectric constant tensor:
#      x y z
#    x 1.801220 0.000000 0.000000 
#    y 0.000000 1.816110 0.000000 
#    z 0.000000 0.000000 1.803510 
# 
# From -- ./inp_files/27456.got.cif
#   From: 2010.03.12/outbox.cif.g09.slc.cpg/sg51_14_cif.got.tgz:27456.got - 2010.04.16 13:43:02.
