data_PCOD8213757
_publ_section_title
;
Structure prediction by ZEFSAII (Michael W. Deem and Ramdas Pophale) SiO2 
 PCOD8213757
Probable space group: P M M A
;
_chemical_formula_sum "Si O2"
_cell_formula_units_Z 48
_cell_length_a 8.892288
_cell_length_b 14.248017
_cell_length_c 20.552574
_cell_angle_alpha 90.000000
_cell_angle_beta 90.000000
_cell_angle_gamma 90.000000
_cell_volume 2603.959140
_symmetry_space_group_name_H-M "P M M A"
_symmetry_group_IT_number 51
_symmetry_cell_setting 'orthorhombic'
loop_
_space_group_symop_operation_xyz
x,y,z
1/2-x,-y,z
1/2+x,-y,-z
-x,y,-z
-x,-y,-z
1/2+x,y,-z
1/2-x,y,z
x,-y,z
loop_
_atom_site_type_symbol
_atom_site_label
_atom_site_fract_x
_atom_site_fract_y
_atom_site_fract_z
Si Si1 0.426649 0.392180 0.433370
Si Si2 0.426489 0.283868 0.684096
Si Si3 0.071977 0.294242 0.066733
Si Si4 0.571522 0.898316 0.877135
Si Si5 0.424389 0.893849 0.270547
Si Si6 0.923327 0.391216 0.185891
O O1 0.500000 0.355359 0.500000
O O2 0.250000 0.378324 0.438843
O O3 0.471673 0.500000 0.421046
O O4 0.488331 0.332146 0.374461
O O5 0.250000 0.292795 0.672333
O O6 0.476010 0.175226 0.685601
O O7 0.476333 0.333522 0.751131
O O8 0.250000 0.297085 0.060485
O O9 0.011030 0.188000 0.079745
O O10 0.023678 0.362373 0.124639
O O11 0.000000 0.331071 0.000000
O O12 0.750000 0.898682 0.876857
O O13 0.516270 0.884793 0.803334
O O14 0.512724 0.000000 0.903694
O O15 0.250000 0.864777 0.275401
O O16 0.447976 0.000000 0.295852
O O17 0.750000 0.370113 0.169261
O O18 0.950263 0.500000 0.201166
#
# Coordination Sequence:
#
# PCOD8213757 Si02
#       6
#     8   8   8   8   8   8
#     4  10  21  37  58  85 118 154 191 228 269 322
#     4  11  21  34  57  86 117 147 180 226 277 326
#     4  11  22  36  55  76 103 137 177 223 274 331
#     4   8  15  30  52  76 103 135 171 215 267 322
#     4   9  17  32  55  81 110 144 183 226 271 322
#     4  10  22  39  56  76 104 138 179 226 273 321
#
# _framework density 18.433468999999999
#
# number of rings (size 3 to 8) (size 9 to 14) (size 15 to 20)
#    0.000    2.167    1.667    3.000    0.000    3.667 
#    0.000    0.000    0.000    2.000    0.000    0.000 
#    0.000    0.000    0.000    0.000    0.000    0.000 
#
# Total GULP energy -595237.290520 kJ/mol
# GULP energy per Si atom -12400.776886 kJ/mol
# Density = 1.839151 g / cm^3
# Si number density = 18.433469 Si / 1000 Ang^3
#
#
#
# Elastic Constant Matrix: (Units=GPa)
#
#
# Indices 1 2 3 4 5 6 
#
# 1 56.6623 33.3728 37.9871 0.0000 0.0000 0.0000
# 2 33.3728 92.0923 44.4916 0.0000 0.0000 0.0000
# 3 37.9871 44.4916 108.2611 0.0000 0.0000 0.0000
# 4 0.0000 0.0000 0.0000 20.0775 0.0000 0.0000
# 5 0.0000 0.0000 0.0000 0.0000 27.1492 0.0000
# 6 0.0000 0.0000 0.0000 0.0000 0.0000 28.0628
#
#
#
# Elastic Compliance Matrix: (Units=1/GPa)
#
#
# Indices 1 2 3 4 5 6 
#
# 1 0.025602 -0.006161 -0.006451 0.000000 0.000000 0.000000
# 2 -0.006161 0.015031 -0.004016 0.000000 0.000000 0.000000
# 3 -0.006451 -0.004016 0.013151 0.000000 0.000000 0.000000
# 4 0.000000 0.000000 0.000000 0.049807 0.000000 0.000000
# 5 0.000000 0.000000 0.000000 0.000000 0.036834 0.000000
# 6 0.000000 0.000000 0.000000 0.000000 0.000000 0.035634
#
#
# Mechanical properties :
#
#
# Convention : Reuss Voigt Hill
#
# Bulk Modulus (GPa) = 48.71299 54.30207 51.50753
# Shear Modulus (GPa) = 23.13122 24.46885 23.80003
#
# Velocity S-wave (km/s) = 3.54623 3.64732 3.59713
# Velocity P-wave (km/s) = 6.57658 6.87456 6.72722
#
# Compressibility (1/GPa) = 0.02052841
#
# Stress axis : x y z
#
# Youngs Moduli (GPa) = 39.05910 66.52778 76.04057
#
# Poissons Ratio (x) = 0.40988 0.49057
# Poissons Ratio (y) = 0.24064 0.30534
# Poissons Ratio (z) = 0.25199 0.26715
#
# Static dielectric constant tensor:
#      x y z
#    x 3.222770 0.000000 0.000000 
#    y 0.000000 3.596840 0.000000 
#    z 0.000000 0.000000 3.270700 
# 
# 
# High freq. dielectric constant tensor:
#      x y z
#    x 1.705080 0.000000 0.000000 
#    y 0.000000 1.720760 0.000000 
#    z 0.000000 0.000000 1.699650 
# 
# From -- ./inp_files/27526.got.cif
#   From: 2010.03.12/outbox.cif.g09.slc.cpg/sg51_14_cif.got.tgz:27526.got - 2010.04.16 13:43:02.
