data_PCOD8213616
_publ_section_title
;
Structure prediction by ZEFSAII (Michael W. Deem and Ramdas Pophale) SiO2 
 PCOD8213616
Probable space group: P M M A
;
_chemical_formula_sum "Si O2"
_cell_formula_units_Z 40
_cell_length_a 17.788804
_cell_length_b 9.049247
_cell_length_c 13.599568
_cell_angle_alpha 90.000000
_cell_angle_beta 90.000000
_cell_angle_gamma 90.000000
_cell_volume 2189.194283
_symmetry_space_group_name_H-M "P M M A"
_symmetry_group_IT_number 51
_symmetry_cell_setting 'orthorhombic'
loop_
_space_group_symop_operation_xyz
x,y,z
1/2-x,-y,z
1/2+x,-y,-z
-x,y,-z
-x,-y,-z
1/2+x,y,-z
1/2-x,y,z
x,-y,z
loop_
_atom_site_type_symbol
_atom_site_label
_atom_site_fract_x
_atom_site_fract_y
_atom_site_fract_z
Si Si1 0.551903 0.328819 0.785863
Si Si2 0.025625 0.828048 0.609646
Si Si3 0.836645 0.826561 0.920520
Si Si4 0.335352 0.329674 0.686048
Si Si5 0.100720 0.667916 0.894349
O O1 0.567799 0.500000 0.766527
O O2 0.530120 0.256617 0.682511
O O3 0.626848 0.252969 0.826647
O O4 0.485874 0.306505 0.865491
O O5 0.111110 0.772226 0.620522
O O6 0.000000 0.793697 0.500000
O O7 0.022508 0.000000 0.635237
O O8 0.750000 0.778901 0.925460
O O9 0.846489 0.000000 0.907073
O O10 0.877811 0.779387 0.020151
O O11 0.250000 0.293522 0.656658
O O12 0.356279 0.500000 0.665382
O O13 0.346673 0.296634 0.801270
O O14 0.113081 0.500000 0.931235
#
# Coordination Sequence:
#
# PCOD8213616 Si02
#       5
#     8   8   8   8   8
#     4  10  21  37  57  78 101 135 178 220 261 308
#     4  10  21  37  57  80 106 137 172 214 267 320
#     4  11  23  35  49  75 110 144 177 214 256 305
#     4   9  18  33  54  81 110 138 172 217 263 307
#     4   9  18  33  53  77 105 137 173 212 255 306
#
# _framework density 18.271560999999998
#
# number of rings (size 3 to 8) (size 9 to 14) (size 15 to 20)
#    0.000    2.200    0.000    4.200    0.000   10.800 
#    0.000    1.000    0.000    1.200    0.000    0.000 
#    0.000    0.000    0.000    0.000    0.000    0.000 
#
# Total GULP energy -496161.491169 kJ/mol
# GULP energy per Si atom -12404.037279 kJ/mol
# Density = 1.822997 g / cm^3
# Si number density = 18.271561 Si / 1000 Ang^3
#
#
#
# Elastic Constant Matrix: (Units=GPa)
#
#
# Indices 1 2 3 4 5 6 
#
# 1 76.5281 53.3660 52.8905 0.0000 0.0000 0.0000
# 2 53.3660 108.4607 67.2232 0.0000 0.0000 0.0000
# 3 52.8905 67.2232 96.4078 0.0000 0.0000 0.0000
# 4 0.0000 0.0000 0.0000 28.1534 0.0000 0.0000
# 5 0.0000 0.0000 0.0000 0.0000 17.3224 0.0000
# 6 0.0000 0.0000 0.0000 0.0000 0.0000 32.9930
#
#
#
# Elastic Compliance Matrix: (Units=1/GPa)
#
#
# Indices 1 2 3 4 5 6 
#
# 1 0.023203 -0.006211 -0.008398 0.000000 0.000000 0.000000
# 2 -0.006211 0.017900 -0.009074 0.000000 0.000000 0.000000
# 3 -0.008398 -0.009074 0.021307 0.000000 0.000000 0.000000
# 4 0.000000 0.000000 0.000000 0.035520 0.000000 0.000000
# 5 0.000000 0.000000 0.000000 0.000000 0.057729 0.000000
# 6 0.000000 0.000000 0.000000 0.000000 0.000000 0.030309
#
#
# Mechanical properties :
#
#
# Convention : Reuss Voigt Hill
#
# Bulk Modulus (GPa) = 66.47584 69.81733 68.14658
# Shear Modulus (GPa) = 20.97772 22.88823 21.93297
#
# Velocity S-wave (km/s) = 3.39205 3.54315 3.46842
# Velocity P-wave (km/s) = 7.19739 7.41838 7.30872
#
# Compressibility (1/GPa) = 0.01504306
#
# Stress axis : x y z
#
# Youngs Moduli (GPa) = 43.09831 55.86651 46.93322
#
# Poissons Ratio (x) = 0.34700 0.39416
# Poissons Ratio (y) = 0.26769 0.42585
# Poissons Ratio (z) = 0.36195 0.50691
#
# Static dielectric constant tensor:
#      x y z
#    x 3.568970 0.000000 0.000000 
#    y 0.000000 3.399910 0.000000 
#    z 0.000000 0.000000 3.175330 
# 
# 
# High freq. dielectric constant tensor:
#      x y z
#    x 1.709420 0.000000 0.000000 
#    y 0.000000 1.715670 0.000000 
#    z 0.000000 0.000000 1.694750 
# 
# From -- ./inp_files/17084.got.cif
#   From: 2010.03.12/outbox.cif.g09.slc.cpg/sg51_9_cif.got.tgz:17084.got - 2010.04.16 13:43:02.
