data_PCOD8213802
_publ_section_title
;
Structure prediction by ZEFSAII (Michael W. Deem and Ramdas Pophale) SiO2 
 PCOD8213802
Probable space group: P M M A
;
_chemical_formula_sum "Si O2"
_cell_formula_units_Z 40
_cell_length_a 15.835656
_cell_length_b 9.143323
_cell_length_c 14.461028
_cell_angle_alpha 90.000000
_cell_angle_beta 90.000000
_cell_angle_gamma 90.000000
_cell_volume 2093.819731
_symmetry_space_group_name_H-M "P M M A"
_symmetry_group_IT_number 51
_symmetry_cell_setting 'orthorhombic'
loop_
_space_group_symop_operation_xyz
x,y,z
1/2-x,-y,z
1/2+x,-y,-z
-x,y,-z
-x,-y,-z
1/2+x,y,-z
1/2-x,y,z
x,-y,z
loop_
_atom_site_type_symbol
_atom_site_label
_atom_site_fract_x
_atom_site_fract_y
_atom_site_fract_z
Si Si1 0.250000 0.326445 0.927899
Si Si2 0.400523 0.673013 0.595312
Si Si3 0.346243 0.167396 0.215557
Si Si4 0.250000 0.324857 0.719795
Si Si5 0.590358 0.673072 0.611839
Si Si6 0.089232 0.672314 0.044284
O O1 0.250000 0.500000 0.924213
O O2 0.250000 0.262687 0.823903
O O3 0.334562 0.271091 0.979161
O O4 0.397270 0.500000 0.596196
O O5 0.332125 0.737534 0.666587
O O6 0.493356 0.722674 0.626900
O O7 0.380355 0.723150 0.490488
O O8 0.250000 0.180824 0.181508
O O9 0.352590 0.242141 0.315346
O O10 0.406129 0.249561 0.143055
O O11 0.375178 0.000000 0.222761
O O12 0.250000 0.500000 0.720075
O O13 0.601676 0.500000 0.625746
O O14 0.095901 0.500000 0.061355
O O15 0.000000 0.715668 0.000000
#
# Coordination Sequence:
#
# PCOD8213802 Si02
#       6
#     4   8   8   4   8   8
#     4   9  18  32  50  81 114 136 169 223 278 325
#     4   8  16  30  49  81 116 141 171 220 275 323
#     4  11  24  39  55  79 111 150 188 227 276 329
#     4   9  16  26  47  77 112 140 165 211 274 329
#     4   9  18  33  55  82 110 140 181 227 270 322
#     4  10  21  37  60  86 109 140 183 231 282 333
#
# _framework density 19.103843000000001
#
# number of rings (size 3 to 8) (size 9 to 14) (size 15 to 20)
#    0.000    2.600    1.000    1.800    4.200    1.600 
#    0.000    2.000    0.000    0.000    0.000    0.000 
#    0.000    0.000    0.000    0.000    0.000    0.000 
#
# Total GULP energy -495966.431216 kJ/mol
# GULP energy per Si atom -12399.160780 kJ/mol
# Density = 1.906036 g / cm^3
# Si number density = 19.103843 Si / 1000 Ang^3
#
#
#
# Elastic Constant Matrix: (Units=GPa)
#
#
# Indices 1 2 3 4 5 6 
#
# 1 97.1402 21.2737 45.2000 0.0000 0.0000 0.0000
# 2 21.2737 44.8276 31.8898 0.0000 0.0000 0.0000
# 3 45.2000 31.8898 124.6223 0.0000 0.0000 0.0000
# 4 0.0000 0.0000 0.0000 5.0367 0.0000 0.0000
# 5 0.0000 0.0000 0.0000 0.0000 36.7688 0.0000
# 6 0.0000 0.0000 0.0000 0.0000 0.0000 14.5214
#
#
#
# Elastic Compliance Matrix: (Units=1/GPa)
#
#
# Indices 1 2 3 4 5 6 
#
# 1 0.012792 -0.003386 -0.003773 0.000000 0.000000 0.000000
# 2 -0.003386 0.028169 -0.005980 0.000000 0.000000 0.000000
# 3 -0.003773 -0.005980 0.010923 0.000000 0.000000 0.000000
# 4 0.000000 0.000000 0.000000 0.198545 0.000000 0.000000
# 5 0.000000 0.000000 0.000000 0.000000 0.027197 0.000000
# 6 0.000000 0.000000 0.000000 0.000000 0.000000 0.068864
#
#
# Mechanical properties :
#
#
# Convention : Reuss Voigt Hill
#
# Bulk Modulus (GPa) = 39.05524 51.47966 45.26745
# Shear Modulus (GPa) = 13.11296 22.48048 17.79672
#
# Velocity S-wave (km/s) = 2.62277 3.43410 3.05549
# Velocity P-wave (km/s) = 5.44610 6.53681 6.01622
#
# Compressibility (1/GPa) = 0.02560476
#
# Stress axis : x y z
#
# Youngs Moduli (GPa) = 78.17640 35.50023 91.55109
#
# Poissons Ratio (x) = 0.12022 0.34541
# Poissons Ratio (y) = 0.26474 0.54747
# Poissons Ratio (z) = 0.29495 0.21229
#
# Static dielectric constant tensor:
#      x y z
#    x 3.739120 0.000000 0.000000 
#    y 0.000000 2.956150 0.000000 
#    z 0.000000 0.000000 3.630350 
# 
# 
# High freq. dielectric constant tensor:
#      x y z
#    x 1.749480 0.000000 0.000000 
#    y 0.000000 1.686390 0.000000 
#    z 0.000000 0.000000 1.754670 
# 
# From -- ./inp_files/23805.got.cif
#   From: 2010.03.12/outbox.cif.g09.slc.cpg/sg51_12_cif.got.tgz:23805.got - 2010.04.16 13:43:02.
