data_PCOD8213200
_publ_section_title
;
Structure prediction by ZEFSAII (Michael W. Deem and Ramdas Pophale) SiO2 
 PCOD8213200
Probable space group: P M M A
;
_chemical_formula_sum "Si O2"
_cell_formula_units_Z 48
_cell_length_a 9.282163
_cell_length_b 15.366843
_cell_length_c 19.643064
_cell_angle_alpha 90.000000
_cell_angle_beta 90.000000
_cell_angle_gamma 90.000000
_cell_volume 2801.838357
_symmetry_space_group_name_H-M "P M M A"
_symmetry_group_IT_number 51
_symmetry_cell_setting 'orthorhombic'
loop_
_space_group_symop_operation_xyz
x,y,z
1/2-x,-y,z
1/2+x,-y,-z
-x,y,-z
-x,-y,-z
1/2+x,y,-z
1/2-x,y,z
x,-y,z
loop_
_atom_site_type_symbol
_atom_site_label
_atom_site_fract_x
_atom_site_fract_y
_atom_site_fract_z
Si Si1 0.581364 0.598949 0.932736
Si Si2 0.413959 0.280012 0.333427
Si Si3 0.083217 0.259670 0.174455
Si Si4 0.417403 0.398950 0.567653
Si Si5 0.412984 0.092723 0.321303
Si Si6 0.082557 0.095331 0.815302
O O1 0.750000 0.607623 0.946901
O O2 0.538308 0.500000 0.914643
O O3 0.531483 0.657784 0.869320
O O4 0.500000 0.631359 0.000000
O O5 0.250000 0.311488 0.346021
O O6 0.450780 0.279172 0.253327
O O7 0.523015 0.345722 0.368608
O O8 0.437892 0.181627 0.364314
O O9 0.250000 0.241154 0.162851
O O10 0.000209 0.173753 0.146925
O O11 0.500000 0.368812 0.500000
O O12 0.250000 0.378332 0.557486
O O13 0.445338 0.500000 0.582839
O O14 0.250000 0.099544 0.290677
O O15 0.527634 0.090645 0.261589
O O16 0.427871 0.000000 0.362615
O O17 0.250000 0.118254 0.814473
O O18 0.055571 0.000000 0.849879
#
# Coordination Sequence:
#
# PCOD8213200 Si02
#       6
#     8   8   8   8   8   8
#     4   9  18  33  51  70  93 123 159 195 233 281
#     4   9  17  29  48  74  99 123 153 191 233 273
#     4   9  18  31  48  71  97 126 158 191 231 278
#     4  10  21  36  52  69  91 122 158 194 234 281
#     4   8  14  26  44  66  94 127 158 186 222 273
#     4   9  16  25  40  65  95 124 154 191 233 273
#
# _framework density 17.131609000000001
#
# number of rings (size 3 to 8) (size 9 to 14) (size 15 to 20)
#    0.000    3.000    0.000    2.000    0.000    6.000 
#    0.000    1.667    0.000    3.000    0.000    0.000 
#    0.000    0.000    0.000    0.000    0.000    0.000 
#
# Total GULP energy -594720.856972 kJ/mol
# GULP energy per Si atom -12390.017854 kJ/mol
# Density = 1.709262 g / cm^3
# Si number density = 17.131609 Si / 1000 Ang^3
#
#
#
# Elastic Constant Matrix: (Units=GPa)
#
#
# Indices 1 2 3 4 5 6 
#
# 1 76.8311 62.3257 39.0895 0.0000 0.0000 0.0000
# 2 62.3257 126.3078 57.2448 0.0000 0.0000 0.0000
# 3 39.0895 57.2448 59.4993 0.0000 0.0000 0.0000
# 4 0.0000 0.0000 0.0000 5.1053 0.0000 0.0000
# 5 0.0000 0.0000 0.0000 0.0000 23.4803 0.0000
# 6 0.0000 0.0000 0.0000 0.0000 0.0000 30.2862
#
#
#
# Elastic Compliance Matrix: (Units=1/GPa)
#
#
# Indices 1 2 3 4 5 6 
#
# 1 0.023489 -0.008151 -0.007590 0.000000 0.000000 0.000000
# 2 -0.008151 0.016867 -0.010873 0.000000 0.000000 0.000000
# 3 -0.007590 -0.010873 0.032254 0.000000 0.000000 0.000000
# 4 0.000000 0.000000 0.000000 0.195876 0.000000 0.000000
# 5 0.000000 0.000000 0.000000 0.000000 0.042589 0.000000
# 6 0.000000 0.000000 0.000000 0.000000 0.000000 0.033018
#
#
# Mechanical properties :
#
#
# Convention : Reuss Voigt Hill
#
# Bulk Modulus (GPa) = 51.59133 64.43979 58.01556
# Shear Modulus (GPa) = 12.38294 18.70623 15.54458
#
# Velocity S-wave (km/s) = 2.69143 3.30800 3.01551
# Velocity P-wave (km/s) = 6.31177 7.23095 6.78694
#
# Compressibility (1/GPa) = 0.01938310
#
# Stress axis : x y z
#
# Youngs Moduli (GPa) = 42.57346 59.28798 31.00368
#
# Poissons Ratio (x) = 0.48323 0.23531
# Poissons Ratio (y) = 0.34700 0.33710
# Poissons Ratio (z) = 0.32313 0.64464
#
# Static dielectric constant tensor:
#      x y z
#    x 3.197100 0.000000 0.000000 
#    y 0.000000 3.717020 0.000000 
#    z 0.000000 0.000000 2.797860 
# 
# 
# High freq. dielectric constant tensor:
#      x y z
#    x 1.664960 0.000000 0.000000 
#    y 0.000000 1.682360 0.000000 
#    z 0.000000 0.000000 1.604790 
# 
# From -- ./inp_files/31563.got.cif
#   From: 2010.03.12/outbox.cif.g09.slc.cpg/sg51_16_cif.got.tgz:31563.got - 2010.04.16 13:43:02.
