data_PCOD8213183
_publ_section_title
;
Structure prediction by ZEFSAII (Michael W. Deem and Ramdas Pophale) SiO2 
 PCOD8213183
Probable space group: P M M A
;
_chemical_formula_sum "Si O2"
_cell_formula_units_Z 56
_cell_length_a 15.763809
_cell_length_b 8.825659
_cell_length_c 19.940786
_cell_angle_alpha 90.000000
_cell_angle_beta 90.000000
_cell_angle_gamma 90.000000
_cell_volume 2774.281848
_symmetry_space_group_name_H-M "P M M A"
_symmetry_group_IT_number 51
_symmetry_cell_setting 'orthorhombic'
loop_
_space_group_symop_operation_xyz
x,y,z
1/2-x,-y,z
1/2+x,-y,-z
-x,y,-z
-x,-y,-z
1/2+x,y,-z
1/2-x,y,z
x,-y,z
loop_
_atom_site_type_symbol
_atom_site_label
_atom_site_fract_x
_atom_site_fract_y
_atom_site_fract_z
Si Si1 0.154525 0.680045 0.337434
Si Si2 0.593384 0.676524 0.064867
Si Si3 0.502885 0.320644 0.423268
Si Si4 0.847978 0.664985 0.809437
Si Si5 0.846971 0.179445 0.340812
Si Si6 0.087876 0.823109 0.065640
Si Si7 0.848257 0.835302 0.193298
O O1 0.250000 0.745200 0.353112
O O2 0.159187 0.500000 0.341799
O O3 0.083371 0.743682 0.388543
O O4 0.121012 0.727155 0.262840
O O5 0.602777 0.500000 0.050604
O O6 0.496721 0.725699 0.070577
O O7 0.636829 0.714244 0.135172
O O8 0.636515 0.766270 0.001924
O O9 0.500000 0.268437 0.500000
O O10 0.506440 0.500000 0.415657
O O11 0.589248 0.255875 0.392555
O O12 0.750000 0.635650 0.800349
O O13 0.890318 0.500000 0.826992
O O14 0.860781 0.789329 0.867067
O O15 0.750000 0.236535 0.353865
O O16 0.879942 0.224579 0.265712
O O17 0.850832 0.000000 0.349310
O O18 0.068745 0.000000 0.059808
O O19 0.750000 0.863060 0.202525
O O20 0.890325 0.000000 0.175374
#
# Coordination Sequence:
#
# PCOD8213183 Si02
#       7
#     8   8   8   8   8   8   8
#     4   8  16  33  55  79 112 152 190 231 284 340
#     4  11  22  36  54  77 107 142 184 229 275 331
#     4  10  21  35  56  90 122 151 192 236 283 341
#     4   9  18  34  55  77 102 137 184 233 280 333
#     4   9  20  39  60  83 116 156 195 236 287 345
#     4  11  22  36  53  75 107 143 182 228 280 334
#     4   9  19  37  58  80 108 143 183 228 282 338
#
# _framework density 20.185403999999998
#
# number of rings (size 3 to 8) (size 9 to 14) (size 15 to 20)
#    0.000    2.429    0.000    5.143    2.000    2.857 
#    0.000    2.857    0.000    1.286    0.000    0.000 
#    0.000    0.000    0.000    0.000    0.000    0.000 
#
# Total GULP energy -693936.611369 kJ/mol
# GULP energy per Si atom -12391.725203 kJ/mol
# Density = 2.013946 g / cm^3
# Si number density = 20.185404 Si / 1000 Ang^3
#
#
#
# Elastic Constant Matrix: (Units=GPa)
#
#
# Indices 1 2 3 4 5 6 
#
# 1 78.2481 20.8238 62.6776 0.0000 0.0000 0.0000
# 2 20.8238 62.1359 45.6446 0.0000 0.0000 0.0000
# 3 62.6776 45.6446 178.3554 0.0000 0.0000 0.0000
# 4 0.0000 0.0000 0.0000 31.2186 0.0000 0.0000
# 5 0.0000 0.0000 0.0000 0.0000 23.2350 0.0000
# 6 0.0000 0.0000 0.0000 0.0000 0.0000 22.9115
#
#
#
# Elastic Compliance Matrix: (Units=1/GPa)
#
#
# Indices 1 2 3 4 5 6 
#
# 1 0.017931 -0.001700 -0.005866 0.000000 0.000000 0.000000
# 2 -0.001700 0.019981 -0.004516 0.000000 0.000000 0.000000
# 3 -0.005866 -0.004516 0.008824 0.000000 0.000000 0.000000
# 4 0.000000 0.000000 0.000000 0.032032 0.000000 0.000000
# 5 0.000000 0.000000 0.000000 0.000000 0.043039 0.000000
# 6 0.000000 0.000000 0.000000 0.000000 0.000000 0.043646
#
#
# Mechanical properties :
#
#
# Convention : Reuss Voigt Hill
#
# Bulk Modulus (GPa) = 44.30374 64.11462 54.20918
# Shear Modulus (GPa) = 25.36243 28.11257 26.73750
#
# Velocity S-wave (km/s) = 3.54852 3.73596 3.64345
# Velocity P-wave (km/s) = 6.22779 7.10223 6.67934
#
# Compressibility (1/GPa) = 0.02257146
#
# Stress axis : x y z
#
# Youngs Moduli (GPa) = 55.76847 50.04762 113.32610
#
# Poissons Ratio (x) = 0.08508 0.66481
# Poissons Ratio (y) = 0.09481 0.51179
# Poissons Ratio (z) = 0.32716 0.22602
#
# Static dielectric constant tensor:
#      x y z
#    x 3.607590 0.000000 0.000000 
#    y 0.000000 3.574270 0.000000 
#    z 0.000000 0.000000 4.320470 
# 
# 
# High freq. dielectric constant tensor:
#      x y z
#    x 1.775000 0.000000 0.000000 
#    y 0.000000 1.764220 0.000000 
#    z 0.000000 0.000000 1.799590 
# 
# From -- ./inp_files/33328.got.cif
#   From: 2010.03.12/outbox.cif.g09.slc.cpg/sg51_17_cif.got.tgz:33328.got - 2010.04.16 13:43:02.
