data_PCOD8213058
_publ_section_title
;
Structure prediction by ZEFSAII (Michael W. Deem and Ramdas Pophale) SiO2 
 PCOD8213058
Probable space group: P M M A
;
_chemical_formula_sum "Si O2"
_cell_formula_units_Z 48
_cell_length_a 29.329168
_cell_length_b 9.222754
_cell_length_c 10.010642
_cell_angle_alpha 90.000000
_cell_angle_beta 90.000000
_cell_angle_gamma 90.000000
_cell_volume 2707.835630
_symmetry_space_group_name_H-M "P M M A"
_symmetry_group_IT_number 51
_symmetry_cell_setting 'orthorhombic'
loop_
_space_group_symop_operation_xyz
x,y,z
1/2-x,-y,z
1/2+x,-y,-z
-x,y,-z
-x,-y,-z
1/2+x,y,-z
1/2-x,y,z
x,-y,z
loop_
_atom_site_type_symbol
_atom_site_label
_atom_site_fract_x
_atom_site_fract_y
_atom_site_fract_z
Si Si1 0.697402 0.830528 0.597252
Si Si2 0.871648 0.667515 0.088553
Si Si3 0.802019 0.330980 0.861717
Si Si4 0.362838 0.664637 0.607211
Si Si5 0.537094 0.831161 0.112486
Si Si6 0.967553 0.331387 0.380832
O O1 0.750000 0.791849 0.569697
O O2 0.680283 0.754752 0.732575
O O3 0.668237 0.774533 0.473693
O O4 0.689437 0.000000 0.613449
O O5 0.885562 0.500000 0.069158
O O6 0.852741 0.692790 0.237192
O O7 0.915890 0.763312 0.060456
O O8 0.832233 0.716397 0.987494
O O9 0.750000 0.289410 0.895800
O O10 0.807122 0.500000 0.830153
O O11 0.350356 0.500000 0.567502
O O12 0.415618 0.697075 0.575260
O O13 0.519848 0.758015 0.248971
O O14 0.544662 0.000000 0.139650
O O15 0.500000 0.801388 0.000000
O O16 0.975341 0.500000 0.347605
O O17 0.000000 0.277988 0.500000
#
# Coordination Sequence:
#
# PCOD8213058 Si02
#       6
#     8   8   8   8   8   8
#     4  10  21  35  50  72 103 137 171 205 245 297
#     4   9  19  35  55  78 101 129 168 210 252 299
#     4   9  18  34  55  77 101 130 166 209 254 298
#     4   9  18  33  53  77 102 129 165 208 252 297
#     4  10  21  35  51  75 106 137 169 205 248 299
#     4   9  19  36  56  77 101 131 169 211 253 298
#
# _framework density 17.726334000000001
#
# number of rings (size 3 to 8) (size 9 to 14) (size 15 to 20)
#    0.000    2.667    0.000    2.000    0.000    8.000 
#    0.000    6.667    0.000    2.000    0.000    0.000 
#    0.000    0.000    0.000    0.000    0.000    0.000 
#
# Total GULP energy -595339.530623 kJ/mol
# GULP energy per Si atom -12402.906888 kJ/mol
# Density = 1.768599 g / cm^3
# Si number density = 17.726334 Si / 1000 Ang^3
#
#
#
# Elastic Constant Matrix: (Units=GPa)
#
#
# Indices 1 2 3 4 5 6 
#
# 1 88.5482 55.3111 81.0959 0.0000 0.0000 0.0000
# 2 55.3111 80.5037 67.3051 0.0000 0.0000 0.0000
# 3 81.0959 67.3051 127.8354 0.0000 0.0000 0.0000
# 4 0.0000 0.0000 0.0000 16.9722 0.0000 0.0000
# 5 0.0000 0.0000 0.0000 0.0000 36.4759 0.0000
# 6 0.0000 0.0000 0.0000 0.0000 0.0000 23.7002
#
#
#
# Elastic Compliance Matrix: (Units=1/GPa)
#
#
# Indices 1 2 3 4 5 6 
#
# 1 0.029787 -0.008337 -0.014506 0.000000 0.000000 0.000000
# 2 -0.008337 0.024522 -0.007622 0.000000 0.000000 0.000000
# 3 -0.014506 -0.007622 0.021038 0.000000 0.000000 0.000000
# 4 0.000000 0.000000 0.000000 0.058920 0.000000 0.000000
# 5 0.000000 0.000000 0.000000 0.000000 0.027415 0.000000
# 6 0.000000 0.000000 0.000000 0.000000 0.000000 0.042194
#
#
# Mechanical properties :
#
#
# Convention : Reuss Voigt Hill
#
# Bulk Modulus (GPa) = 69.36860 78.25681 73.81271
# Shear Modulus (GPa) = 18.54513 21.64135 20.09324
#
# Velocity S-wave (km/s) = 3.23800 3.49787 3.37044
# Velocity P-wave (km/s) = 7.29366 7.78181 7.54168
#
# Compressibility (1/GPa) = 0.01441574
#
# Stress axis : x y z
#
# Youngs Moduli (GPa) = 33.57216 40.77908 47.53272
#
# Poissons Ratio (x) = 0.33998 0.68953
# Poissons Ratio (y) = 0.27990 0.36230
# Poissons Ratio (z) = 0.48701 0.31082
#
# Static dielectric constant tensor:
#      x y z
#    x 3.298120 0.000000 0.000000 
#    y 0.000000 3.266000 0.000000 
#    z 0.000000 0.000000 3.335560 
# 
# 
# High freq. dielectric constant tensor:
#      x y z
#    x 1.683050 0.000000 0.000000 
#    y 0.000000 1.685080 0.000000 
#    z 0.000000 0.000000 1.689680 
# 
# From -- ./inp_files/12852.got.cif
#   From: 2010.03.12/outbox.cif.g09.slc.cpg/sg51_7_cif.got.tgz:12852.got - 2010.04.16 13:43:02.
