data_PCOD8213343
_publ_section_title
;
Structure prediction by ZEFSAII (Michael W. Deem and Ramdas Pophale) SiO2 
 PCOD8213343
Probable space group: P M M A
;
_chemical_formula_sum "Si O2"
_cell_formula_units_Z 40
_cell_length_a 9.031689
_cell_length_b 9.356563
_cell_length_c 25.720527
_cell_angle_alpha 90.000000
_cell_angle_beta 90.000000
_cell_angle_gamma 90.000000
_cell_volume 2173.527721
_symmetry_space_group_name_H-M "P M M A"
_symmetry_group_IT_number 51
_symmetry_cell_setting 'orthorhombic'
loop_
_space_group_symop_operation_xyz
x,y,z
1/2-x,-y,z
1/2+x,-y,-z
-x,y,-z
-x,-y,-z
1/2+x,y,-z
1/2-x,y,z
x,-y,z
loop_
_atom_site_type_symbol
_atom_site_label
_atom_site_fract_x
_atom_site_fract_y
_atom_site_fract_z
Si Si1 0.922493 0.166136 0.552672
Si Si2 0.920453 0.667541 0.356216
Si Si3 0.575877 0.335794 0.947433
Si Si4 0.426177 0.161470 0.151114
Si Si5 0.421607 0.665634 0.250647
O O1 0.750000 0.199441 0.547583
O O2 0.000000 0.219265 0.500000
O O3 0.987503 0.252053 0.600435
O O4 0.954613 0.000000 0.562387
O O5 0.750000 0.714127 0.359223
O O6 0.941023 0.500000 0.365476
O O7 0.983838 0.712420 0.300354
O O8 0.750000 0.316115 0.953957
O O9 0.533703 0.500000 0.936279
O O10 0.512982 0.241978 0.899878
O O11 0.500000 0.280144 0.000000
O O12 0.250000 0.164822 0.150374
O O13 0.482838 0.242609 0.202435
O O14 0.487238 0.000000 0.151495
O O15 0.250000 0.698469 0.262421
O O16 0.444905 0.500000 0.236691
#
# Coordination Sequence:
#
# PCOD8213343 Si02
#       5
#     8   8   8   8   8
#     4  10  21  37  57  80 106 138 175 213 255 304
#     4  10  21  36  54  78 107 138 172 211 256 304
#     4   9  17  30  48  69  93 123 159 197 239 289
#     4   9  17  29  47  71  96 123 159 202 245 291
#     4   9  17  31  51  72  95 126 164 205 248 295
#
# _framework density 18.403261000000001
#
# number of rings (size 3 to 8) (size 9 to 14) (size 15 to 20)
#    0.000    2.600    0.000    1.800    0.000    6.400 
#    0.000    3.000    0.000    6.000    0.000    0.000 
#    0.000    0.000    0.000    0.000    0.000    0.000 
#
# Total GULP energy -496097.802701 kJ/mol
# GULP energy per Si atom -12402.445068 kJ/mol
# Density = 1.836137 g / cm^3
# Si number density = 18.403261 Si / 1000 Ang^3
#
#
#
# Elastic Constant Matrix: (Units=GPa)
#
#
# Indices 1 2 3 4 5 6 
#
# 1 60.7641 34.2268 54.5477 0.0000 0.0000 0.0000
# 2 34.2268 85.2103 83.6170 0.0000 0.0000 0.0000
# 3 54.5477 83.6170 177.1581 0.0000 0.0000 0.0000
# 4 0.0000 0.0000 0.0000 9.8606 0.0000 0.0000
# 5 0.0000 0.0000 0.0000 0.0000 33.8546 0.0000
# 6 0.0000 0.0000 0.0000 0.0000 0.0000 20.4503
#
#
#
# Elastic Compliance Matrix: (Units=1/GPa)
#
#
# Indices 1 2 3 4 5 6 
#
# 1 0.023587 -0.004373 -0.005199 0.000000 0.000000 0.000000
# 2 -0.004373 0.022672 -0.009354 0.000000 0.000000 0.000000
# 3 -0.005199 -0.009354 0.011660 0.000000 0.000000 0.000000
# 4 0.000000 0.000000 0.000000 0.101414 0.000000 0.000000
# 5 0.000000 0.000000 0.000000 0.000000 0.029538 0.000000
# 6 0.000000 0.000000 0.000000 0.000000 0.000000 0.048899
#
#
# Mechanical properties :
#
#
# Convention : Reuss Voigt Hill
#
# Bulk Modulus (GPa) = 49.83205 74.21283 62.02244
# Shear Modulus (GPa) = 17.71099 22.88250 20.29674
#
# Velocity S-wave (km/s) = 3.10560 3.53000 3.32458
# Velocity P-wave (km/s) = 6.32426 7.55169 6.96507
#
# Compressibility (1/GPa) = 0.02006741
#
# Stress axis : x y z
#
# Youngs Moduli (GPa) = 42.39632 44.10813 85.75976
#
# Poissons Ratio (x) = 0.19288 0.44583
# Poissons Ratio (y) = 0.18540 0.80222
# Poissons Ratio (z) = 0.22040 0.41260
#
# Static dielectric constant tensor:
#      x y z
#    x 3.145820 0.000000 0.000000 
#    y 0.000000 3.408370 0.000000 
#    z 0.000000 0.000000 3.575680 
# 
# 
# High freq. dielectric constant tensor:
#      x y z
#    x 1.693580 0.000000 0.000000 
#    y 0.000000 1.708840 0.000000 
#    z 0.000000 0.000000 1.728200 
# 
# From -- ./inp_files/31359.got.cif
#   From: 2010.03.12/outbox.cif.g09.slc.cpg/sg51_16_cif.got.tgz:31359.got - 2010.04.16 13:43:02.
