data_PCOD8213911
_publ_section_title
;
Structure prediction by ZEFSAII (Michael W. Deem and Ramdas Pophale) SiO2 
 PCOD8213911
Probable space group: P M M A
;
_chemical_formula_sum "Si O2"
_cell_formula_units_Z 48
_cell_length_a 15.112507
_cell_length_b 17.962489
_cell_length_c 8.866881
_cell_angle_alpha 90.000000
_cell_angle_beta 90.000000
_cell_angle_gamma 90.000000
_cell_volume 2406.987917
_symmetry_space_group_name_H-M "P M M A"
_symmetry_group_IT_number 51
_symmetry_cell_setting 'orthorhombic'
loop_
_space_group_symop_operation_xyz
x,y,z
1/2-x,-y,z
1/2+x,-y,-z
-x,y,-z
-x,-y,-z
1/2+x,y,-z
1/2-x,y,z
x,-y,z
loop_
_atom_site_type_symbol
_atom_site_label
_atom_site_fract_x
_atom_site_fract_y
_atom_site_fract_z
Si Si1 0.591280 0.917928 0.415116
Si Si2 0.250000 0.583041 0.385083
Si Si3 0.581237 0.659840 0.099296
Si Si4 0.514112 0.179252 0.161288
Si Si5 0.850817 0.794358 0.615985
Si Si6 0.093614 0.350083 0.557050
Si Si7 0.750000 0.409423 0.945920
O O1 0.500000 0.926958 0.500000
O O2 0.575026 0.875198 0.258726
O O3 0.655521 0.872127 0.526029
O O4 0.631998 0.000000 0.383068
O O5 0.250000 0.500000 0.330929
O O6 0.335097 0.597335 0.483738
O O7 0.250000 0.623718 0.224252
O O8 0.571692 0.748663 0.116218
O O9 0.589441 0.630585 0.267990
O O10 0.666827 0.630443 0.017593
O O11 0.500000 0.627528 0.000000
O O12 0.421280 0.202130 0.245455
O O13 0.500000 0.138043 0.000000
O O14 0.750000 0.774981 0.670847
O O15 0.885543 0.735070 0.491726
O O16 0.000000 0.375971 0.500000
O O17 0.750000 0.500000 0.966693
#
# Coordination Sequence:
#
# PCOD8213911 Si02
#       7
#     8   4   8   8   8   8   4
#     4   9  18  36  60  88 127 168 207 254 312 372
#     4  11  27  45  65  97 127 162 212 261 318 389
#     4  11  23  40  65  95 129 167 209 265 318 387
#     4  10  21  38  59  95 130 167 217 259 321 388
#     4  11  21  37  63  92 123 166 216 270 315 376
#     4  12  21  39  67  91 123 164 215 262 311 375
#     4  11  27  47  65  93 131 168 208 259 336 397
#
# _framework density 19.941936999999999
#
# number of rings (size 3 to 8) (size 9 to 14) (size 15 to 20)
#    0.000    1.333    4.167    2.000    2.333    2.667 
#    0.000    0.000    0.000    0.000    0.000    0.000 
#    0.000    0.000    0.000    0.000    0.000    0.000 
#
# Total GULP energy -594692.745644 kJ/mol
# GULP energy per Si atom -12389.432201 kJ/mol
# Density = 1.989655 g / cm^3
# Si number density = 19.941937 Si / 1000 Ang^3
#
#
#
# Elastic Constant Matrix: (Units=GPa)
#
#
# Indices 1 2 3 4 5 6 
#
# 1 139.1496 45.4357 63.8215 0.0000 0.0000 0.0000
# 2 45.4357 80.9640 43.4324 0.0000 0.0000 0.0000
# 3 63.8215 43.4324 179.9675 0.0000 0.0000 0.0000
# 4 0.0000 0.0000 0.0000 24.3682 0.0000 0.0000
# 5 0.0000 0.0000 0.0000 0.0000 55.4592 0.0000
# 6 0.0000 0.0000 0.0000 0.0000 0.0000 23.9026
#
#
#
# Elastic Compliance Matrix: (Units=1/GPa)
#
#
# Indices 1 2 3 4 5 6 
#
# 1 0.009641 -0.004108 -0.002428 0.000000 0.000000 0.000000
# 2 -0.004108 0.015939 -0.002390 0.000000 0.000000 0.000000
# 3 -0.002428 -0.002390 0.006994 0.000000 0.000000 0.000000
# 4 0.000000 0.000000 0.000000 0.041037 0.000000 0.000000
# 5 0.000000 0.000000 0.000000 0.000000 0.018031 0.000000
# 6 0.000000 0.000000 0.000000 0.000000 0.000000 0.041837
#
#
# Mechanical properties :
#
#
# Convention : Reuss Voigt Hill
#
# Bulk Modulus (GPa) = 67.92085 78.38449 73.15267
# Shear Modulus (GPa) = 32.00250 37.23877 34.62064
#
# Velocity S-wave (km/s) = 4.01032 4.32598 4.17114
# Velocity P-wave (km/s) = 7.45499 8.02146 7.74341
#
# Compressibility (1/GPa) = 0.01472302
#
# Stress axis : x y z
#
# Youngs Moduli (GPa) = 103.71909 62.74086 142.97641
#
# Poissons Ratio (x) = 0.25776 0.34709
# Poissons Ratio (y) = 0.42611 0.34166
# Poissons Ratio (z) = 0.25179 0.14993
#
# Static dielectric constant tensor:
#      x y z
#    x 3.547120 0.000000 0.000000 
#    y 0.000000 3.748470 0.000000 
#    z 0.000000 0.000000 4.267260 
# 
# 
# High freq. dielectric constant tensor:
#      x y z
#    x 1.774550 0.000000 0.000000 
#    y 0.000000 1.766930 0.000000 
#    z 0.000000 0.000000 1.793840 
# 
# From -- ./inp_files/8323.got.cif
#   From: 2010.03.12/outbox.cif.g09.slc.cpg/sg51_5_cif.got.tgz:8323.got - 2010.04.16 13:43:02.
