data_PCOD8213179
_publ_section_title
;
Structure prediction by ZEFSAII (Michael W. Deem and Ramdas Pophale) SiO2 
 PCOD8213179
Probable space group: P M M A
;
_chemical_formula_sum "Si O2"
_cell_formula_units_Z 40
_cell_length_a 15.773459
_cell_length_b 14.227574
_cell_length_c 9.284104
_cell_angle_alpha 90.000000
_cell_angle_beta 90.000000
_cell_angle_gamma 90.000000
_cell_volume 2083.520564
_symmetry_space_group_name_H-M "P M M A"
_symmetry_group_IT_number 51
_symmetry_cell_setting 'orthorhombic'
loop_
_space_group_symop_operation_xyz
x,y,z
1/2-x,-y,z
1/2+x,-y,-z
-x,y,-z
-x,-y,-z
1/2+x,y,-z
1/2-x,y,z
x,-y,z
loop_
_atom_site_type_symbol
_atom_site_label
_atom_site_fract_x
_atom_site_fract_y
_atom_site_fract_z
Si Si1 0.849945 0.389962 0.926754
Si Si2 0.577390 0.244619 0.412102
Si Si3 0.848752 0.108302 0.646244
Si Si4 0.847118 0.399770 0.246515
Si Si5 0.961296 0.220907 0.845940
O O1 0.750000 0.365317 0.901772
O O2 0.865737 0.500000 0.888511
O O3 0.911816 0.321920 0.834268
O O4 0.882041 0.367513 0.090165
O O5 0.500000 0.289688 0.500000
O O6 0.620434 0.161596 0.501988
O O7 0.643009 0.327285 0.377198
O O8 0.541552 0.211233 0.259265
O O9 0.750000 0.125706 0.666975
O O10 0.893606 0.143438 0.792377
O O11 0.871034 0.000000 0.621288
O O12 0.750000 0.416864 0.216312
O O13 0.888850 0.500000 0.290333
O O14 0.000000 0.194910 0.000000
#
# Coordination Sequence:
#
# PCOD8213179 Si02
#       5
#     8   8   8   8   8
#     4   9  18  33  55  83 118 159 193 225 274 334
#     4  10  21  35  56  82 113 150 187 228 284 341
#     4  10  23  44  64  80 107 150 193 234 286 349
#     4   9  17  31  52  78 111 151 192 231 271 324
#     4  11  21  35  59  91 119 145 183 238 291 335
#
# _framework density 19.198276
#
# number of rings (size 3 to 8) (size 9 to 14) (size 15 to 20)
#    0.000    2.200    2.000    2.400    0.000    5.600 
#    0.000    3.000    0.000   13.200    0.000    0.000 
#    0.000    0.000    0.000    0.000    0.000    0.000 
#
# Total GULP energy -495575.076830 kJ/mol
# GULP energy per Si atom -12389.376921 kJ/mol
# Density = 1.915458 g / cm^3
# Si number density = 19.198276 Si / 1000 Ang^3
#
#
#
# Elastic Constant Matrix: (Units=GPa)
#
#
# Indices 1 2 3 4 5 6 
#
# 1 71.1167 53.0251 43.1849 0.0000 0.0000 0.0000
# 2 53.0251 120.1243 55.6391 0.0000 0.0000 0.0000
# 3 43.1849 55.6391 110.8413 0.0000 0.0000 0.0000
# 4 0.0000 0.0000 0.0000 33.0148 0.0000 0.0000
# 5 0.0000 0.0000 0.0000 0.0000 32.8447 0.0000
# 6 0.0000 0.0000 0.0000 0.0000 0.0000 11.9621
#
#
#
# Elastic Compliance Matrix: (Units=1/GPa)
#
#
# Indices 1 2 3 4 5 6 
#
# 1 0.022919 -0.007793 -0.005018 0.000000 0.000000 0.000000
# 2 -0.007793 0.013496 -0.003739 0.000000 0.000000 0.000000
# 3 -0.005018 -0.003739 0.012853 0.000000 0.000000 0.000000
# 4 0.000000 0.000000 0.000000 0.030289 0.000000 0.000000
# 5 0.000000 0.000000 0.000000 0.000000 0.030446 0.000000
# 6 0.000000 0.000000 0.000000 0.000000 0.000000 0.083597
#
#
# Mechanical properties :
#
#
# Convention : Reuss Voigt Hill
#
# Bulk Modulus (GPa) = 61.84096 67.30894 64.57495
# Shear Modulus (GPa) = 21.54348 25.57989 23.56169
#
# Velocity S-wave (km/s) = 3.35350 3.65417 3.50706
# Velocity P-wave (km/s) = 6.87577 7.27599 7.07871
#
# Compressibility (1/GPa) = 0.01617051
#
# Stress axis : x y z
#
# Youngs Moduli (GPa) = 43.63284 74.09525 77.79989
#
# Poissons Ratio (x) = 0.57739 0.39037
# Poissons Ratio (y) = 0.34001 0.29086
# Poissons Ratio (z) = 0.21893 0.27701
#
# Static dielectric constant tensor:
#      x y z
#    x 3.600720 0.000000 0.000000 
#    y 0.000000 3.463050 0.000000 
#    z 0.000000 0.000000 3.589120 
# 
# 
# High freq. dielectric constant tensor:
#      x y z
#    x 1.755650 0.000000 0.000000 
#    y 0.000000 1.735290 0.000000 
#    z 0.000000 0.000000 1.738730 
# 
# From -- ./inp_files/7935.got.cif
#   From: 2010.03.12/outbox.cif.g09.slc.cpg/sg51_4_cif.got.tgz:7935.got - 2010.04.16 13:43:02.
