data_PCOD8213576
_publ_section_title
;
Structure prediction by ZEFSAII (Michael W. Deem and Ramdas Pophale) SiO2 
 PCOD8213576
Probable space group: P M M A
;
_chemical_formula_sum "Si O2"
_cell_formula_units_Z 56
_cell_length_a 8.833870
_cell_length_b 14.583111
_cell_length_c 23.261810
_cell_angle_alpha 90.000000
_cell_angle_beta 90.000000
_cell_angle_gamma 90.000000
_cell_volume 2996.709809
_symmetry_space_group_name_H-M "P M M A"
_symmetry_group_IT_number 51
_symmetry_cell_setting 'orthorhombic'
loop_
_space_group_symop_operation_xyz
x,y,z
1/2-x,-y,z
1/2+x,-y,-z
-x,y,-z
-x,-y,-z
1/2+x,y,-z
1/2-x,y,z
x,-y,z
loop_
_atom_site_type_symbol
_atom_site_label
_atom_site_fract_x
_atom_site_fract_y
_atom_site_fract_z
Si Si1 0.071563 0.727339 0.941590
Si Si2 0.429701 0.100999 0.237894
Si Si3 0.929459 0.225361 0.659314
Si Si4 0.573850 0.894412 0.890748
Si Si5 0.429894 0.398198 0.839072
Si Si6 0.428059 0.104289 0.561373
Si Si7 0.572544 0.394330 0.289895
O O1 0.250000 0.718601 0.946129
O O2 0.005523 0.670491 0.887280
O O3 0.023142 0.833010 0.934190
O O4 0.000000 0.687420 0.000000
O O5 0.250000 0.097827 0.238349
O O6 0.491613 0.173088 0.284052
O O7 0.483655 0.127722 0.173937
O O8 0.492647 0.000000 0.254037
O O9 0.750000 0.220700 0.653548
O O10 0.001668 0.177471 0.604484
O O11 0.983274 0.330549 0.664887
O O12 0.750000 0.870364 0.897893
O O13 0.543075 0.000000 0.906022
O O14 0.250000 0.397739 0.839486
O O15 0.489523 0.500000 0.853936
O O16 0.484392 0.370768 0.774935
O O17 0.500000 0.124744 0.500000
O O18 0.250000 0.119808 0.557334
O O19 0.466443 0.000000 0.580999
O O20 0.750000 0.375193 0.296095
O O21 0.535563 0.500000 0.304594
#
# Coordination Sequence:
#
# PCOD8213576 Si02
#       7
#     8   8   8   8   8   8   8
#     4  11  22  34  50  71  95 124 161 206 252 302
#     4   8  15  28  47  73 103 132 161 197 248 306
#     4  11  20  30  51  81 112 143 174 212 257 308
#     4   9  18  34  53  70  93 127 164 203 248 298
#     4   8  16  33  55  76  99 129 164 204 254 308
#     4  10  21  37  56  79 110 148 188 225 258 297
#     4   9  18  34  55  77 103 136 173 214 260 309
#
# _framework density 18.687163000000002
#
# number of rings (size 3 to 8) (size 9 to 14) (size 15 to 20)
#    0.000    2.571    0.000    4.286    0.000    2.571 
#    0.000    1.429    0.000    5.143    0.000    0.000 
#    0.000    0.000    0.000    0.000    0.000    0.000 
#
# Total GULP energy -694308.743839 kJ/mol
# GULP energy per Si atom -12398.370426 kJ/mol
# Density = 1.864463 g / cm^3
# Si number density = 18.687163 Si / 1000 Ang^3
#
#
#
# Elastic Constant Matrix: (Units=GPa)
#
#
# Indices 1 2 3 4 5 6 
#
# 1 59.2563 40.6901 39.7935 0.0000 0.0000 0.0000
# 2 40.6901 110.3476 67.9041 0.0000 0.0000 0.0000
# 3 39.7935 67.9041 100.9906 0.0000 0.0000 0.0000
# 4 0.0000 0.0000 0.0000 30.8347 0.0000 0.0000
# 5 0.0000 0.0000 0.0000 0.0000 25.6255 0.0000
# 6 0.0000 0.0000 0.0000 0.0000 0.0000 24.1658
#
#
#
# Elastic Compliance Matrix: (Units=1/GPa)
#
#
# Indices 1 2 3 4 5 6 
#
# 1 0.024646 -0.005308 -0.006142 0.000000 0.000000 0.000000
# 2 -0.005308 0.016602 -0.009071 0.000000 0.000000 0.000000
# 3 -0.006142 -0.009071 0.018421 0.000000 0.000000 0.000000
# 4 0.000000 0.000000 0.000000 0.032431 0.000000 0.000000
# 5 0.000000 0.000000 0.000000 0.000000 0.039024 0.000000
# 6 0.000000 0.000000 0.000000 0.000000 0.000000 0.041381
#
#
# Mechanical properties :
#
#
# Convention : Reuss Voigt Hill
#
# Bulk Modulus (GPa) = 53.68865 63.04108 58.36486
# Shear Modulus (GPa) = 22.75262 24.27232 23.51247
#
# Velocity S-wave (km/s) = 3.49313 3.60790 3.55098
# Velocity P-wave (km/s) = 6.71282 7.15291 6.93636
#
# Compressibility (1/GPa) = 0.01862591
#
# Stress axis : x y z
#
# Youngs Moduli (GPa) = 40.57520 60.23489 54.28550
#
# Poissons Ratio (x) = 0.31975 0.33341
# Poissons Ratio (y) = 0.21539 0.49242
# Poissons Ratio (z) = 0.24921 0.54639
#
# Static dielectric constant tensor:
#      x y z
#    x 3.098320 0.000000 0.000000 
#    y 0.000000 3.517270 0.000000 
#    z 0.000000 0.000000 3.586340 
# 
# 
# High freq. dielectric constant tensor:
#      x y z
#    x 1.702270 0.000000 0.000000 
#    y 0.000000 1.726820 0.000000 
#    z 0.000000 0.000000 1.716380 
# 
# From -- ./inp_files/31869.got.cif
#   From: 2010.03.12/outbox.cif.g09.slc.cpg/sg51_16_cif.got.tgz:31869.got - 2010.04.16 13:43:02.
