data_PCOD8213996
_publ_section_title
;
Structure prediction by ZEFSAII (Michael W. Deem and Ramdas Pophale) SiO2 
 PCOD8213996
Probable space group: P M M A
;
_chemical_formula_sum "Si O2"
_cell_formula_units_Z 48
_cell_length_a 9.094730
_cell_length_b 8.534942
_cell_length_c 30.739478
_cell_angle_alpha 90.000000
_cell_angle_beta 90.000000
_cell_angle_gamma 90.000000
_cell_volume 2386.090287
_symmetry_space_group_name_H-M "P M M A"
_symmetry_group_IT_number 51
_symmetry_cell_setting 'orthorhombic'
loop_
_space_group_symop_operation_xyz
x,y,z
1/2-x,-y,z
1/2+x,-y,-z
-x,y,-z
-x,-y,-z
1/2+x,y,-z
1/2-x,y,z
x,-y,z
loop_
_atom_site_type_symbol
_atom_site_label
_atom_site_fract_x
_atom_site_fract_y
_atom_site_fract_z
Si Si1 0.576952 0.181472 0.363364
Si Si2 0.085661 0.815335 0.958504
Si Si3 0.580076 0.318609 0.716435
Si Si4 0.918825 0.681972 0.877597
Si Si5 0.911521 0.185730 0.459728
Si Si6 0.579740 0.181705 0.203210
O O1 0.750000 0.216266 0.358335
O O2 0.483494 0.289692 0.331431
O O3 0.521928 0.225070 0.412175
O O4 0.544988 0.000000 0.352981
O O5 0.250000 0.742802 0.956830
O O6 0.000109 0.778431 0.914661
O O7 0.096689 0.000000 0.963582
O O8 0.000000 0.743096 0.000000
O O9 0.750000 0.267952 0.718092
O O10 0.561551 0.500000 0.728789
O O11 0.488176 0.213195 0.749699
O O12 0.750000 0.736860 0.875283
O O13 0.931238 0.500000 0.888721
O O14 0.994104 0.714341 0.831631
O O15 0.750000 0.259150 0.462607
O O16 0.000000 0.260781 0.500000
O O17 0.903068 0.000000 0.464791
O O18 0.750000 0.231142 0.203451
O O19 0.561570 0.000000 0.191225
#
# Coordination Sequence:
#
# PCOD8213996 Si02
#       6
#     8   8   8   8   8   8
#     4   9  18  33  53  78 107 139 178 222 267 320
#     4  10  21  38  61  88 117 152 195 239 283 331
#     4  11  24  39  55  79 110 142 179 223 270 322
#     4  11  24  40  59  86 119 153 189 229 275 328
#     4   8  14  25  43  70 103 135 169 213 263 314
#     4  11  24  41  62  87 112 141 181 226 272 326
#
# _framework density 20.116589999999999
#
# number of rings (size 3 to 8) (size 9 to 14) (size 15 to 20)
#    0.000    2.000    0.000    4.500    0.000   12.333 
#    0.000    1.667    0.000    0.500    0.000    0.000 
#    0.000    0.000    0.000    0.000    0.000    0.000 
#
# Total GULP energy -595273.096721 kJ/mol
# GULP energy per Si atom -12401.522848 kJ/mol
# Density = 2.007080 g / cm^3
# Si number density = 20.116590 Si / 1000 Ang^3
#
#
#
# Elastic Constant Matrix: (Units=GPa)
#
#
# Indices 1 2 3 4 5 6 
#
# 1 142.7106 25.4391 62.8294 0.0000 0.0000 0.0000
# 2 25.4391 28.3505 7.7685 0.0000 0.0000 0.0000
# 3 62.8294 7.7685 133.1318 0.0000 0.0000 0.0000
# 4 0.0000 0.0000 0.0000 7.5530 0.0000 0.0000
# 5 0.0000 0.0000 0.0000 0.0000 44.9450 0.0000
# 6 0.0000 0.0000 0.0000 0.0000 0.0000 20.5252
#
#
#
# Elastic Compliance Matrix: (Units=1/GPa)
#
#
# Indices 1 2 3 4 5 6 
#
# 1 0.010409 -0.008124 -0.004439 0.000000 0.000000 0.000000
# 2 -0.008124 0.042187 0.001372 0.000000 0.000000 0.000000
# 3 -0.004439 0.001372 0.009526 0.000000 0.000000 0.000000
# 4 0.000000 0.000000 0.000000 0.132398 0.000000 0.000000
# 5 0.000000 0.000000 0.000000 0.000000 0.022249 0.000000
# 6 0.000000 0.000000 0.000000 0.000000 0.000000 0.048721
#
#
# Mechanical properties :
#
#
# Convention : Reuss Voigt Hill
#
# Bulk Modulus (GPa) = 25.16267 55.14077 40.15172
# Shear Modulus (GPa) = 16.60481 28.48171 22.54326
#
# Velocity S-wave (km/s) = 2.87614 3.76684 3.35121
# Velocity P-wave (km/s) = 4.85440 6.81094 5.91414
#
# Compressibility (1/GPa) = 0.03974142
#
# Stress axis : x y z
#
# Youngs Moduli (GPa) = 96.06614 23.70416 104.97631
#
# Poissons Ratio (x) = 0.19258 0.46594
# Poissons Ratio (y) = 0.78047 -0.14408
# Poissons Ratio (z) = 0.42639 -0.03253
#
# Static dielectric constant tensor:
#      x y z
#    x 4.030960 0.000000 0.000000 
#    y 0.000000 3.315230 0.000000 
#    z 0.000000 0.000000 3.789160 
# 
# 
# High freq. dielectric constant tensor:
#      x y z
#    x 1.792650 0.000000 0.000000 
#    y 0.000000 1.758670 0.000000 
#    z 0.000000 0.000000 1.801740 
# 
# From -- ./inp_files/36979.got.cif
#   From: 2010.03.12/outbox.cif.g09.slc.cpg/sg51_19_cif.got.tgz:36979.got - 2010.04.16 13:43:02.
