data_PCOD8213977
_publ_section_title
;
Structure prediction by ZEFSAII (Michael W. Deem and Ramdas Pophale) SiO2 
 PCOD8213977
Probable space group: P M M A
;
_chemical_formula_sum "Si O2"
_cell_formula_units_Z 40
_cell_length_a 8.901942
_cell_length_b 9.427115
_cell_length_c 25.668265
_cell_angle_alpha 90.000000
_cell_angle_beta 90.000000
_cell_angle_gamma 90.000000
_cell_volume 2154.071326
_symmetry_space_group_name_H-M "P M M A"
_symmetry_group_IT_number 51
_symmetry_cell_setting 'orthorhombic'
loop_
_space_group_symop_operation_xyz
x,y,z
1/2-x,-y,z
1/2+x,-y,-z
-x,y,-z
-x,-y,-z
1/2+x,y,-z
1/2-x,y,z
x,-y,z
loop_
_atom_site_type_symbol
_atom_site_label
_atom_site_fract_x
_atom_site_fract_y
_atom_site_fract_z
Si Si1 0.928213 0.843476 0.147634
Si Si2 0.073360 0.837917 0.554201
Si Si3 0.075722 0.166420 0.735742
Si Si4 0.072743 0.337734 0.947688
Si Si5 0.574564 0.665120 0.645571
O O1 0.750000 0.849351 0.144126
O O2 0.971901 0.790865 0.205446
O O3 0.993631 0.741120 0.103065
O O4 0.994975 0.000000 0.137879
O O5 0.250000 0.820153 0.548799
O O6 0.000000 0.791353 0.500000
O O7 0.015301 0.734079 0.598410
O O8 0.029642 0.000000 0.568340
O O9 0.250000 0.202038 0.725032
O O10 0.971834 0.259791 0.698966
O O11 0.046944 0.000000 0.725869
O O12 0.250000 0.319187 0.951899
O O13 0.023851 0.500000 0.941467
O O14 0.000000 0.272624 0.000000
O O15 0.750000 0.688475 0.636004
O O16 0.532615 0.500000 0.649002
#
# Coordination Sequence:
#
# PCOD8213977 Si02
#       5
#     8   8   8   8   8
#     4   8  15  29  49  72  96 122 157 203 250 296
#     4  10  21  38  61  86 109 137 175 215 256 304
#     4   9  18  34  56  79 101 129 169 215 261 309
#     4   9  17  29  45  66  93 126 162 198 240 292
#     4  11  24  38  52  76 110 144 176 211 254 303
#
# _framework density 18.569489000000001
#
# number of rings (size 3 to 8) (size 9 to 14) (size 15 to 20)
#    0.000    2.600    0.000    3.000    0.000    7.200 
#    0.000    3.000    0.000    3.600    0.000    0.000 
#    0.000    0.000    0.000    0.000    0.000    0.000 
#
# Total GULP energy -495977.863563 kJ/mol
# GULP energy per Si atom -12399.446589 kJ/mol
# Density = 1.852722 g / cm^3
# Si number density = 18.569489 Si / 1000 Ang^3
#
#
#
# Elastic Constant Matrix: (Units=GPa)
#
#
# Indices 1 2 3 4 5 6 
#
# 1 43.2292 31.1065 37.4287 0.0000 0.0000 0.0000
# 2 31.1065 85.3031 74.3886 0.0000 0.0000 0.0000
# 3 37.4287 74.3886 161.2316 0.0000 0.0000 0.0000
# 4 0.0000 0.0000 0.0000 2.5352 0.0000 0.0000
# 5 0.0000 0.0000 0.0000 0.0000 33.4568 0.0000
# 6 0.0000 0.0000 0.0000 0.0000 0.0000 24.6120
#
#
#
# Elastic Compliance Matrix: (Units=1/GPa)
#
#
# Indices 1 2 3 4 5 6 
#
# 1 0.032484 -0.008817 -0.003473 0.000000 0.000000 0.000000
# 2 -0.008817 0.022008 -0.008107 0.000000 0.000000 0.000000
# 3 -0.003473 -0.008107 0.010749 0.000000 0.000000 0.000000
# 4 0.000000 0.000000 0.000000 0.394446 0.000000 0.000000
# 5 0.000000 0.000000 0.000000 0.000000 0.029889 0.000000
# 6 0.000000 0.000000 0.000000 0.000000 0.000000 0.040631
#
#
# Mechanical properties :
#
#
# Convention : Reuss Voigt Hill
#
# Bulk Modulus (GPa) = 40.90541 63.95684 52.43112
# Shear Modulus (GPa) = 8.63334 21.91015 15.27175
#
# Velocity S-wave (km/s) = 2.15854 3.43869 2.87088
# Velocity P-wave (km/s) = 5.31869 7.09104 6.26783
#
# Compressibility (1/GPa) = 0.02444664
#
# Stress axis : x y z
#
# Youngs Moduli (GPa) = 30.78451 45.43820 93.03233
#
# Poissons Ratio (x) = 0.40062 0.32310
# Poissons Ratio (y) = 0.27142 0.75423
# Poissons Ratio (z) = 0.10691 0.36838
#
# Static dielectric constant tensor:
#      x y z
#    x 3.155030 0.000000 0.000000 
#    y 0.000000 3.519530 0.000000 
#    z 0.000000 0.000000 3.777790 
# 
# 
# High freq. dielectric constant tensor:
#      x y z
#    x 1.699210 0.000000 0.000000 
#    y 0.000000 1.714990 0.000000 
#    z 0.000000 0.000000 1.737210 
# 
# From -- ./inp_files/34323.got.cif
#   From: 2010.03.12/outbox.cif.g09.slc.cpg/sg51_18_cif.got.tgz:34323.got - 2010.04.16 13:43:02.
