data_PCOD8213538
_publ_section_title
;
Structure prediction by ZEFSAII (Michael W. Deem and Ramdas Pophale) SiO2 
 PCOD8213538
Probable space group: P M M A
;
_chemical_formula_sum "Si O2"
_cell_formula_units_Z 36
_cell_length_a 8.855575
_cell_length_b 10.609765
_cell_length_c 19.321636
_cell_angle_alpha 90.000000
_cell_angle_beta 90.000000
_cell_angle_gamma 90.000000
_cell_volume 1815.375318
_symmetry_space_group_name_H-M "P M M A"
_symmetry_group_IT_number 51
_symmetry_cell_setting 'orthorhombic'
loop_
_space_group_symop_operation_xyz
x,y,z
1/2-x,-y,z
1/2+x,-y,-z
-x,y,-z
-x,-y,-z
1/2+x,y,-z
1/2-x,y,z
x,-y,z
loop_
_atom_site_type_symbol
_atom_site_label
_atom_site_fract_x
_atom_site_fract_y
_atom_site_fract_z
Si Si1 0.072394 0.000000 0.425817
Si Si2 0.928462 0.357492 0.073792
Si Si3 0.570681 0.142645 0.177746
Si Si4 0.571729 0.207076 0.331339
Si Si5 0.082724 0.354583 0.432980
O O1 0.000000 0.000000 0.500000
O O2 0.016722 0.880120 0.384142
O O3 0.250000 0.000000 0.432835
O O4 0.750000 0.345821 0.066874
O O5 0.971753 0.500000 0.099141
O O6 0.992496 0.249466 0.125370
O O7 0.000000 0.329065 0.000000
O O8 0.750000 0.143810 0.175638
O O9 0.513732 0.182345 0.253700
O O10 0.512799 0.000000 0.159647
O O11 0.750000 0.186464 0.335263
O O12 0.517821 0.341272 0.361992
O O13 0.250000 0.293065 0.425274
O O14 0.102920 0.500000 0.447505
O O15 0.000000 0.292534 0.500000
#
# Coordination Sequence:
#
# PCOD8213538 Si02
#       5
#     4   8   8   8   8
#     4  12  24  38  56  78 107 144 187 232 281 336
#     4   9  18  34  57  84 113 146 185 228 274 330
#     4   9  18  34  56  80 110 147 186 229 278 334
#     4  11  21  36  57  80 107 141 184 232 282 335
#     4  10  21  37  55  77 107 142 182 230 283 339
#
# _framework density 19.830608999999999
#
# number of rings (size 3 to 8) (size 9 to 14) (size 15 to 20)
#    0.000    2.000    1.111    3.000    0.000    2.667 
#    0.000    4.444    0.000    2.667    0.000    0.000 
#    0.000    0.000    0.000    0.000    0.000    0.000 
#
# Total GULP energy -446105.968857 kJ/mol
# GULP energy per Si atom -12391.832468 kJ/mol
# Density = 1.978547 g / cm^3
# Si number density = 19.830609 Si / 1000 Ang^3
#
#
#
# Elastic Constant Matrix: (Units=GPa)
#
#
# Indices 1 2 3 4 5 6 
#
# 1 81.4045 30.7332 46.0599 0.0000 0.0000 0.0000
# 2 30.7332 113.3726 88.5421 0.0000 0.0000 0.0000
# 3 46.0599 88.5421 166.4655 0.0000 0.0000 0.0000
# 4 0.0000 0.0000 0.0000 -244.3310 0.0000 0.0000
# 5 0.0000 0.0000 0.0000 0.0000 29.3124 0.0000
# 6 0.0000 0.0000 0.0000 0.0000 0.0000 0.3648
#
#
#
# Elastic Compliance Matrix: (Units=1/GPa)
#
#
# Indices 1 2 3 4 5 6 
#
# 1 0.014690 -0.001382 -0.003330 0.000000 0.000000 0.000000
# 2 -0.001382 0.015218 -0.007712 0.000000 0.000000 0.000000
# 3 -0.003330 -0.007712 0.011031 0.000000 0.000000 0.000000
# 4 0.000000 0.000000 0.000000 -0.004093 0.000000 0.000000
# 5 0.000000 0.000000 0.000000 0.000000 0.034115 0.000000
# 6 0.000000 0.000000 0.000000 0.000000 0.000000 2.741518
#
#
# Mechanical properties :
#
#
# Convention : Reuss Voigt Hill
#
# Bulk Modulus (GPa) = 62.14435 76.87922 69.51178
# Shear Modulus (GPa) = 1.75890 -29.87027 -14.05569
#
# Velocity S-wave (km/s) = 0.94281 -3.88528 -2.66519
# Velocity P-wave (km/s) = 5.70884 4.32723 5.06536
#
# Compressibility (1/GPa) = 0.01609157
#
# Stress axis : x y z
#
# Youngs Moduli (GPa) = 68.07368 65.71146 90.65733
#
# Poissons Ratio (x) = 0.09080 0.30186
# Poissons Ratio (y) = 0.09406 0.69916
# Poissons Ratio (z) = 0.22666 0.50677
#
# Static dielectric constant tensor:
#      x y z
#    x 3.540000 0.000000 0.000000 
#    y 0.000000 4.573500 0.000000 
#    z 0.000000 0.000000 3.681430 
# 
# 
# High freq. dielectric constant tensor:
#      x y z
#    x 1.756300 0.000000 0.000000 
#    y 0.000000 1.786840 0.000000 
#    z 0.000000 0.000000 1.768340 
# 
# From -- ./inp_files/27034.got.cif
#   From: 2010.03.12/outbox.cif.g09.slc.cpg/sg51_14_cif.got.tgz:27034.got - 2010.04.16 13:43:02.
