data_PCOD8213442
_publ_section_title
;
Structure prediction by ZEFSAII (Michael W. Deem and Ramdas Pophale) SiO2 
 PCOD8213442
Probable space group: P M M A
;
_chemical_formula_sum "Si O2"
_cell_formula_units_Z 36
_cell_length_a 8.956519
_cell_length_b 22.710784
_cell_length_c 9.058846
_cell_angle_alpha 90.000000
_cell_angle_beta 90.000000
_cell_angle_gamma 90.000000
_cell_volume 1842.655955
_symmetry_space_group_name_H-M "P M M A"
_symmetry_group_IT_number 51
_symmetry_cell_setting 'orthorhombic'
loop_
_space_group_symop_operation_xyz
x,y,z
1/2-x,-y,z
1/2+x,-y,-z
-x,y,-z
-x,-y,-z
1/2+x,y,-z
1/2-x,y,z
x,-y,z
loop_
_atom_site_type_symbol
_atom_site_label
_atom_site_fract_x
_atom_site_fract_y
_atom_site_fract_z
Si Si1 0.926391 0.113097 0.658191
Si Si2 0.426098 0.662175 0.345534
Si Si3 0.425868 0.000000 0.158126
Si Si4 0.923084 0.431218 0.152349
Si Si5 0.575343 0.224571 0.842792
O O1 0.750000 0.113802 0.636385
O O2 0.983684 0.171784 0.740034
O O3 0.000000 0.109343 0.500000
O O4 0.979468 0.057308 0.753111
O O5 0.500000 0.678795 0.500000
O O6 0.250000 0.654083 0.366311
O O7 0.496981 0.601810 0.286426
O O8 0.466618 0.713849 0.232298
O O9 0.250000 0.000000 0.135244
O O10 0.500000 0.000000 0.000000
O O11 0.750000 0.413451 0.143707
O O12 0.944557 0.500000 0.182782
O O13 0.000000 0.412067 0.000000
O O14 0.750000 0.218152 0.867689
O O15 0.500000 0.220670 0.000000
#
# Coordination Sequence:
#
# PCOD8213442 Si02
#       5
#     8   8   4   8   8
#     4  10  21  37  56  82 113 145 184 228 275 327
#     4  11  23  38  57  82 112 147 186 229 278 331
#     4  10  21  36  56  82 112 146 187 230 272 324
#     4  10  21  38  60  85 113 146 184 227 275 328
#     4  10  22  38  57  82 111 144 184 228 275 329
#
# _framework density 19.537016000000001
#
# number of rings (size 3 to 8) (size 9 to 14) (size 15 to 20)
#    0.000    1.778    0.000    3.667    0.000    7.111 
#    0.000    0.000    0.000    0.000    0.000    0.000 
#    0.000    0.000    0.000    0.000    0.000    0.000 
#
# Total GULP energy -446619.526291 kJ/mol
# GULP energy per Si atom -12406.097953 kJ/mol
# Density = 1.949255 g / cm^3
# Si number density = 19.537016 Si / 1000 Ang^3
#
#
#
# Elastic Constant Matrix: (Units=GPa)
#
#
# Indices 1 2 3 4 5 6 
#
# 1 78.0657 51.4100 64.7809 0.0000 0.0000 0.0000
# 2 51.4100 108.5677 65.8355 0.0000 0.0000 0.0000
# 3 64.7809 65.8355 172.3813 0.0000 0.0000 0.0000
# 4 0.0000 0.0000 0.0000 47.7930 0.0000 0.0000
# 5 0.0000 0.0000 0.0000 0.0000 45.1339 0.0000
# 6 0.0000 0.0000 0.0000 0.0000 0.0000 15.6033
#
#
#
# Elastic Compliance Matrix: (Units=1/GPa)
#
#
# Indices 1 2 3 4 5 6 
#
# 1 0.022126 -0.007073 -0.005614 0.000000 0.000000 0.000000
# 2 -0.007073 0.014248 -0.002783 0.000000 0.000000 0.000000
# 3 -0.005614 -0.002783 0.008974 0.000000 0.000000 0.000000
# 4 0.000000 0.000000 0.000000 0.020924 0.000000 0.000000
# 5 0.000000 0.000000 0.000000 0.000000 0.022156 0.000000
# 6 0.000000 0.000000 0.000000 0.000000 0.000000 0.064089
#
#
# Mechanical properties :
#
#
# Convention : Reuss Voigt Hill
#
# Bulk Modulus (GPa) = 69.40921 80.34081 74.87501
# Shear Modulus (GPa) = 26.55902 33.50525 30.03214
#
# Velocity S-wave (km/s) = 3.69103 4.14570 3.92496
# Velocity P-wave (km/s) = 7.33274 8.00796 7.67778
#
# Compressibility (1/GPa) = 0.01440731
#
# Stress axis : x y z
#
# Youngs Moduli (GPa) = 45.19549 70.18451 111.43626
#
# Poissons Ratio (x) = 0.49643 0.62556
# Poissons Ratio (y) = 0.31968 0.31018
# Poissons Ratio (z) = 0.25371 0.19536
#
# Static dielectric constant tensor:
#      x y z
#    x 3.532130 0.000000 0.000000 
#    y 0.000000 3.827860 0.000000 
#    z 0.000000 0.000000 3.192360 
# 
# 
# High freq. dielectric constant tensor:
#      x y z
#    x 1.760680 0.000000 0.000000 
#    y 0.000000 1.776960 0.000000 
#    z 0.000000 0.000000 1.771340 
# 
# From -- ./inp_files/5011.got.cif
#   From: 2010.03.12/outbox.cif.g09.slc.cpg/sg51_3_cif.got.tgz:5011.got - 2010.04.16 13:43:02.
