data_PCOD8213721
_publ_section_title
;
Structure prediction by ZEFSAII (Michael W. Deem and Ramdas Pophale) SiO2 
 PCOD8213721
Probable space group: P M M A
;
_chemical_formula_sum "Si O2"
_cell_formula_units_Z 56
_cell_length_a 8.771022
_cell_length_b 19.023259
_cell_length_c 15.909207
_cell_angle_alpha 90.000000
_cell_angle_beta 90.000000
_cell_angle_gamma 90.000000
_cell_volume 2654.505648
_symmetry_space_group_name_H-M "P M M A"
_symmetry_group_IT_number 51
_symmetry_cell_setting 'orthorhombic'
loop_
_space_group_symop_operation_xyz
x,y,z
1/2-x,-y,z
1/2+x,-y,-z
-x,y,-z
-x,-y,-z
1/2+x,y,-z
1/2-x,y,z
x,-y,z
loop_
_atom_site_type_symbol
_atom_site_label
_atom_site_fract_x
_atom_site_fract_y
_atom_site_fract_z
Si Si1 0.928290 0.212892 0.656473
Si Si2 0.930573 0.656369 0.414393
Si Si3 0.074532 0.356528 0.911584
Si Si4 0.574634 0.216057 0.175458
Si Si5 0.428020 0.922982 0.909840
Si Si6 0.427907 0.920927 0.590514
Si Si7 0.076081 0.582915 0.254307
O O1 0.750000 0.213893 0.639198
O O2 0.010703 0.263044 0.589325
O O3 0.968554 0.242732 0.748701
O O4 0.992818 0.133622 0.653137
O O5 0.750000 0.653956 0.419320
O O6 0.000000 0.622756 0.500000
O O7 0.984073 0.614641 0.332369
O O8 0.250000 0.379824 0.913552
O O9 0.058837 0.272323 0.899402
O O10 0.994765 0.396315 0.835018
O O11 0.000000 0.378185 0.000000
O O12 0.750000 0.211231 0.206454
O O13 0.510038 0.139902 0.147843
O O14 0.250000 0.912269 0.922143
O O15 0.465012 0.000000 0.869948
O O16 0.500000 0.916498 0.000000
O O17 0.500000 0.910290 0.500000
O O18 0.250000 0.904546 0.584836
O O19 0.457502 0.000000 0.624097
O O20 0.250000 0.610135 0.258688
O O21 0.067634 0.500000 0.263050
#
# Coordination Sequence:
#
# PCOD8213721 Si02
#       7
#     8   8   8   8   8   8   8
#     4  12  24  38  60  89 124 164 210 266 321 378
#     4  12  25  44  70  99 133 173 218 264 317 382
#     4  11  23  40  66  96 131 174 220 271 322 384
#     4  10  21  37  57  85 120 162 211 263 319 376
#     4   9  18  33  53  78 112 154 202 255 311 370
#     4  10  21  38  59  83 116 158 206 262 321 382
#     4  11  25  46  71 101 136 170 211 264 321 384
#
# _framework density 21.096207
#
# number of rings (size 3 to 8) (size 9 to 14) (size 15 to 20)
#    0.000    1.286    1.429    4.714    0.000    4.286 
#    0.000    1.429    0.000    0.000    0.000    0.000 
#    0.000    0.000    0.000    0.000    0.000    0.000 
#
# Total GULP energy -694497.476035 kJ/mol
# GULP energy per Si atom -12401.740643 kJ/mol
# Density = 2.104819 g / cm^3
# Si number density = 21.096207 Si / 1000 Ang^3
#
#
#
# Elastic Constant Matrix: (Units=GPa)
#
#
# Indices 1 2 3 4 5 6 
#
# 1 155.3264 46.8629 60.5964 0.0000 0.0000 0.0000
# 2 46.8629 81.2653 32.0736 0.0000 0.0000 0.0000
# 3 60.5964 32.0736 127.5146 0.0000 0.0000 0.0000
# 4 0.0000 0.0000 0.0000 25.0245 0.0000 0.0000
# 5 0.0000 0.0000 0.0000 0.0000 39.6154 0.0000
# 6 0.0000 0.0000 0.0000 0.0000 0.0000 28.2224
#
#
#
# Elastic Compliance Matrix: (Units=1/GPa)
#
#
# Indices 1 2 3 4 5 6 
#
# 1 0.008860 -0.003827 -0.003248 0.000000 0.000000 0.000000
# 2 -0.003827 0.015315 -0.002033 0.000000 0.000000 0.000000
# 3 -0.003248 -0.002033 0.009897 0.000000 0.000000 0.000000
# 4 0.000000 0.000000 0.000000 0.039961 0.000000 0.000000
# 5 0.000000 0.000000 0.000000 0.000000 0.025243 0.000000
# 6 0.000000 0.000000 0.000000 0.000000 0.000000 0.035433
#
#
# Mechanical properties :
#
#
# Convention : Reuss Voigt Hill
#
# Bulk Modulus (GPa) = 63.07099 71.46356 67.26727
# Shear Modulus (GPa) = 31.60362 33.54402 32.57382
#
# Velocity S-wave (km/s) = 3.87469 3.99187 3.93372
# Velocity P-wave (km/s) = 7.06961 7.42935 7.25171
#
# Compressibility (1/GPa) = 0.01585515
#
# Stress axis : x y z
#
# Youngs Moduli (GPa) = 112.87007 65.29539 101.04117
#
# Poissons Ratio (x) = 0.24991 0.32814
# Poissons Ratio (y) = 0.43200 0.20545
# Poissons Ratio (z) = 0.36655 0.13277
#
# Static dielectric constant tensor:
#      x y z
#    x 3.832170 0.000000 0.000000 
#    y 0.000000 4.034920 0.000000 
#    z 0.000000 0.000000 3.717230 
# 
# 
# High freq. dielectric constant tensor:
#      x y z
#    x 1.831580 0.000000 0.000000 
#    y 0.000000 1.834650 0.000000 
#    z 0.000000 0.000000 1.825150 
# 
# From -- ./inp_files/21693.got.cif
#   From: 2010.03.12/outbox.cif.g09.slc.cpg/sg51_11_cif.got.tgz:21693.got - 2010.04.16 13:43:02.
