data_PCOD8213225
_publ_section_title
;
Structure prediction by ZEFSAII (Michael W. Deem and Ramdas Pophale) SiO2 
 PCOD8213225
Probable space group: P M M A
;
_chemical_formula_sum "Si O2"
_cell_formula_units_Z 40
_cell_length_a 9.268724
_cell_length_b 9.858857
_cell_length_c 25.641126
_cell_angle_alpha 90.000000
_cell_angle_beta 90.000000
_cell_angle_gamma 90.000000
_cell_volume 2343.061081
_symmetry_space_group_name_H-M "P M M A"
_symmetry_group_IT_number 51
_symmetry_cell_setting 'orthorhombic'
loop_
_space_group_symop_operation_xyz
x,y,z
1/2-x,-y,z
1/2+x,-y,-z
-x,y,-z
-x,-y,-z
1/2+x,y,-z
1/2-x,y,z
x,-y,z
loop_
_atom_site_type_symbol
_atom_site_label
_atom_site_fract_x
_atom_site_fract_y
_atom_site_fract_z
Si Si1 0.581317 0.656317 0.552930
Si Si2 0.916698 0.158910 0.366955
Si Si3 0.422643 0.348751 0.838121
Si Si4 0.909610 0.661623 0.047806
Si Si5 0.579104 0.149520 0.249113
O O1 0.500000 0.694564 0.500000
O O2 0.750000 0.685273 0.545061
O O3 0.552610 0.500000 0.568224
O O4 0.520929 0.752003 0.597850
O O5 0.750000 0.196592 0.377910
O O6 0.959790 0.195574 0.307613
O O7 0.942324 0.000000 0.378001
O O8 0.250000 0.349213 0.837819
O O9 0.480569 0.500000 0.826786
O O10 0.475175 0.298127 0.895454
O O11 0.487929 0.252259 0.793257
O O12 0.750000 0.722559 0.042114
O O13 0.904658 0.500000 0.044395
O O14 0.000000 0.724167 0.000000
O O15 0.750000 0.144721 0.243366
O O16 0.515201 0.000000 0.238148
#
# Coordination Sequence:
#
# PCOD8213225 Si02
#       5
#     8   8   8   8   8
#     4  10  21  36  53  73  97 125 156 189 227 271
#     4   9  18  32  50  73  98 123 154 190 227 271
#     4   8  13  21  35  57  81 105 139 180 216 253
#     4   8  13  21  34  53  77 104 135 172 212 253
#     4   8  14  25  41  62  88 115 143 177 216 258
#
# _framework density 17.071684000000001
#
# number of rings (size 3 to 8) (size 9 to 14) (size 15 to 20)
#    0.000    3.400    0.000    3.000    0.000    2.800 
#    0.000    2.000    0.000    1.800    0.000    2.800 
#    0.000    0.000    0.000    0.000    0.000    0.000 
#
# Total GULP energy -495714.411999 kJ/mol
# GULP energy per Si atom -12392.860300 kJ/mol
# Density = 1.703283 g / cm^3
# Si number density = 17.071684 Si / 1000 Ang^3
#
#
#
# Elastic Constant Matrix: (Units=GPa)
#
#
# Indices 1 2 3 4 5 6 
#
# 1 55.6867 34.3286 54.0316 0.0000 0.0000 0.0000
# 2 34.3286 72.1824 79.5730 0.0000 0.0000 0.0000
# 3 54.0316 79.5730 164.2903 0.0000 0.0000 0.0000
# 4 0.0000 0.0000 0.0000 8.3996 0.0000 0.0000
# 5 0.0000 0.0000 0.0000 0.0000 24.7075 0.0000
# 6 0.0000 0.0000 0.0000 0.0000 0.0000 17.5749
#
#
#
# Elastic Compliance Matrix: (Units=1/GPa)
#
#
# Indices 1 2 3 4 5 6 
#
# 1 0.027826 -0.006748 -0.005883 0.000000 0.000000 0.000000
# 2 -0.006748 0.031362 -0.012970 0.000000 0.000000 0.000000
# 3 -0.005883 -0.012970 0.014304 0.000000 0.000000 0.000000
# 4 0.000000 0.000000 0.000000 0.119054 0.000000 0.000000
# 5 0.000000 0.000000 0.000000 0.000000 0.040474 0.000000
# 6 0.000000 0.000000 0.000000 0.000000 0.000000 0.056899
#
#
# Mechanical properties :
#
#
# Convention : Reuss Voigt Hill
#
# Bulk Modulus (GPa) = 44.86732 69.78063 57.32397
# Shear Modulus (GPa) = 14.34515 18.41813 16.38164
#
# Velocity S-wave (km/s) = 2.90192 3.28818 3.10107
# Velocity P-wave (km/s) = 6.12919 7.44177 6.81714
#
# Compressibility (1/GPa) = 0.02228794
#
# Stress axis : x y z
#
# Youngs Moduli (GPa) = 35.93817 31.88616 69.91219
#
# Poissons Ratio (x) = 0.21517 0.41128
# Poissons Ratio (y) = 0.24252 0.90679
# Poissons Ratio (z) = 0.21142 0.41358
#
# Static dielectric constant tensor:
#      x y z
#    x 2.887850 0.000000 0.000000 
#    y 0.000000 3.184510 0.000000 
#    z 0.000000 0.000000 3.478090 
# 
# 
# High freq. dielectric constant tensor:
#      x y z
#    x 1.614910 0.000000 0.000000 
#    y 0.000000 1.635580 0.000000 
#    z 0.000000 0.000000 1.673330 
# 
# From -- ./inp_files/31365.got.cif
#   From: 2010.03.12/outbox.cif.g09.slc.cpg/sg51_16_cif.got.tgz:31365.got - 2010.04.16 13:43:02.
