data_PCOD8213943
_publ_section_title
;
Structure prediction by ZEFSAII (Michael W. Deem and Ramdas Pophale) SiO2 
 PCOD8213943
Probable space group: P M M A
;
_chemical_formula_sum "Si O2"
_cell_formula_units_Z 48
_cell_length_a 17.125530
_cell_length_b 14.990146
_cell_length_c 9.442047
_cell_angle_alpha 90.000000
_cell_angle_beta 90.000000
_cell_angle_gamma 90.000000
_cell_volume 2423.907495
_symmetry_space_group_name_H-M "P M M A"
_symmetry_group_IT_number 51
_symmetry_cell_setting 'orthorhombic'
loop_
_space_group_symop_operation_xyz
x,y,z
1/2-x,-y,z
1/2+x,-y,-z
-x,y,-z
-x,-y,-z
1/2+x,y,-z
1/2-x,y,z
x,-y,z
loop_
_atom_site_type_symbol
_atom_site_label
_atom_site_fract_x
_atom_site_fract_y
_atom_site_fract_z
Si Si1 0.841397 0.245545 0.327201
Si Si2 0.659874 0.898837 0.819975
Si Si3 0.410173 0.757332 0.979266
Si Si4 0.340305 0.603166 0.152114
Si Si5 0.589227 0.895981 0.523431
Si Si6 0.657265 0.401686 0.529253
O O1 0.750000 0.255613 0.292431
O O2 0.855423 0.155170 0.413839
O O3 0.873962 0.328672 0.419403
O O4 0.891001 0.244455 0.185423
O O5 0.750000 0.889407 0.778720
O O6 0.640806 0.834984 0.950119
O O7 0.610692 0.869115 0.683310
O O8 0.639413 0.000000 0.865018
O O9 0.391679 0.661267 0.045820
O O10 0.500000 0.781308 0.000000
O O11 0.250000 0.630910 0.135769
O O12 0.351864 0.500000 0.111666
O O13 0.370329 0.621917 0.311650
O O14 0.500000 0.868393 0.500000
O O15 0.603966 0.000000 0.495886
O O16 0.750000 0.403026 0.530164
O O17 0.625834 0.500000 0.485306
#
# Coordination Sequence:
#
# PCOD8213943 Si02
#       6
#     8   8   8   8   8   8
#     4  11  22  35  56  85 114 146 187 236 285 332
#     4  10  21  39  62  83 106 145 195 237 276 336
#     4  12  25  38  54  80 118 156 189 234 291 344
#     4   9  18  36  61  83 107 146 193 235 278 338
#     4  10  21  38  60  86 116 148 182 226 284 342
#     4   8  16  33  58  85 108 135 178 230 278 324
#
# _framework density 19.802734999999998
#
# number of rings (size 3 to 8) (size 9 to 14) (size 15 to 20)
#    0.000    2.000    0.000    5.000    0.000    4.333 
#    0.000    1.667    0.000    2.500    0.000    0.000 
#    0.000    0.000    0.000    0.000    0.000    0.000 
#
# Total GULP energy -595382.728097 kJ/mol
# GULP energy per Si atom -12403.806835 kJ/mol
# Density = 1.975766 g / cm^3
# Si number density = 19.802735 Si / 1000 Ang^3
#
#
#
# Elastic Constant Matrix: (Units=GPa)
#
#
# Indices 1 2 3 4 5 6 
#
# 1 44.6376 16.7873 3.7152 0.0000 0.0000 0.0000
# 2 16.7873 99.7136 54.9765 0.0000 0.0000 0.0000
# 3 3.7152 54.9765 98.4364 0.0000 0.0000 0.0000
# 4 0.0000 0.0000 0.0000 22.8318 0.0000 0.0000
# 5 0.0000 0.0000 0.0000 0.0000 27.4366 0.0000
# 6 0.0000 0.0000 0.0000 0.0000 0.0000 17.4275
#
#
#
# Elastic Compliance Matrix: (Units=1/GPa)
#
#
# Indices 1 2 3 4 5 6 
#
# 1 0.024177 -0.005154 0.001966 0.000000 0.000000 0.000000
# 2 -0.005154 0.015590 -0.008512 0.000000 0.000000 0.000000
# 3 0.001966 -0.008512 0.014839 0.000000 0.000000 0.000000
# 4 0.000000 0.000000 0.000000 0.043799 0.000000 0.000000
# 5 0.000000 0.000000 0.000000 0.000000 0.036448 0.000000
# 6 0.000000 0.000000 0.000000 0.000000 0.000000 0.057381
#
#
# Mechanical properties :
#
#
# Convention : Reuss Voigt Hill
#
# Bulk Modulus (GPa) = 32.04625 43.74950 37.89787
# Shear Modulus (GPa) = 22.12043 24.69308 23.40676
#
# Velocity S-wave (km/s) = 3.34584 3.53505 3.44175
# Velocity P-wave (km/s) = 5.58069 6.22919 5.91383
#
# Compressibility (1/GPa) = 0.03120490
#
# Stress axis : x y z
#
# Youngs Moduli (GPa) = 41.36083 64.14490 67.39125
#
# Poissons Ratio (x) = 0.33063 -0.13251
# Poissons Ratio (y) = 0.21319 0.57365
# Poissons Ratio (z) = -0.08133 0.54602
#
# Static dielectric constant tensor:
#      x y z
#    x 3.425610 0.000000 0.000000 
#    y 0.000000 3.827790 0.000000 
#    z 0.000000 0.000000 3.569370 
# 
# 
# High freq. dielectric constant tensor:
#      x y z
#    x 1.756220 0.000000 0.000000 
#    y 0.000000 1.784870 0.000000 
#    z 0.000000 0.000000 1.771910 
# 
# From -- ./inp_files/9562.got.cif
#   From: 2010.03.12/outbox.cif.g09.slc.cpg/sg51_5_cif.got.tgz:9562.got - 2010.04.16 13:43:02.
