data_PCOD8213192
_publ_section_title
;
Structure prediction by ZEFSAII (Michael W. Deem and Ramdas Pophale) SiO2 
 PCOD8213192
Probable space group: P M M A
;
_chemical_formula_sum "Si O2"
_cell_formula_units_Z 48
_cell_length_a 8.579533
_cell_length_b 31.229616
_cell_length_c 9.125761
_cell_angle_alpha 90.000000
_cell_angle_beta 90.000000
_cell_angle_gamma 90.000000
_cell_volume 2445.115529
_symmetry_space_group_name_H-M "P M M A"
_symmetry_group_IT_number 51
_symmetry_cell_setting 'orthorhombic'
loop_
_space_group_symop_operation_xyz
x,y,z
1/2-x,-y,z
1/2+x,-y,-z
-x,y,-z
-x,-y,-z
1/2+x,y,-z
1/2-x,y,z
x,-y,z
loop_
_atom_site_type_symbol
_atom_site_label
_atom_site_fract_x
_atom_site_fract_y
_atom_site_fract_z
Si Si1 0.567727 0.079976 0.839682
Si Si2 0.065528 0.338387 0.338465
Si Si3 0.435179 0.417296 0.838493
Si Si4 0.433771 0.740025 0.835626
Si Si5 0.433775 0.500000 0.661277
Si Si6 0.432819 0.173295 0.160529
Si Si7 0.564861 0.000000 0.660001
O O1 0.750000 0.073859 0.857093
O O2 0.532788 0.126850 0.765605
O O3 0.497926 0.042512 0.738804
O O4 0.500000 0.075308 0.000000
O O5 0.250000 0.339244 0.345615
O O6 0.000000 0.345903 0.500000
O O7 0.005897 0.375093 0.231752
O O8 0.008854 0.293576 0.274275
O O9 0.250000 0.413423 0.842412
O O10 0.493237 0.458027 0.745754
O O11 0.500000 0.423022 0.000000
O O12 0.250000 0.733471 0.840293
O O13 0.477723 0.786585 0.766157
O O14 0.500000 0.734821 0.000000
O O15 0.250000 0.500000 0.651606
O O16 0.500000 0.500000 0.500000
O O17 0.250000 0.183954 0.156065
O O18 0.500000 0.168710 0.000000
O O19 0.500000 0.000000 0.500000
O O20 0.750000 0.000000 0.657188
#
# Coordination Sequence:
#
# PCOD8213192 Si02
#       7
#     8   8   8   8   4   8   4
#     4   9  18  32  53  78 105 135 176 224 271 321
#     4  12  25  42  61  85 116 152 191 237 286 339
#     4  11  23  41  63  91 121 156 198 242 287 336
#     4  11  21  36  58  85 114 148 186 229 277 332
#     4  10  23  40  62  90 124 160 197 238 287 340
#     4   9  16  29  50  78 108 139 175 224 275 324
#     4  10  21  36  50  72 104 140 177 218 266 322
#
# _framework density 19.630976
#
# number of rings (size 3 to 8) (size 9 to 14) (size 15 to 20)
#    0.000    1.667    0.000    6.500    0.000    4.000 
#    0.000    0.833    0.000    2.000    0.000    0.000 
#    0.000    0.000    0.000    0.000    0.000    0.000 
#
# Total GULP energy -595072.885419 kJ/mol
# GULP energy per Si atom -12397.351780 kJ/mol
# Density = 1.958629 g / cm^3
# Si number density = 19.630976 Si / 1000 Ang^3
#
#
#
# Elastic Constant Matrix: (Units=GPa)
#
#
# Indices 1 2 3 4 5 6 
#
# 1 95.1003 41.5299 38.0611 0.0000 0.0000 0.0000
# 2 41.5299 167.8293 67.9584 0.0000 0.0000 0.0000
# 3 38.0611 67.9584 118.3941 0.0000 0.0000 0.0000
# 4 0.0000 0.0000 0.0000 8.8990 0.0000 0.0000
# 5 0.0000 0.0000 0.0000 0.0000 33.0855 0.0000
# 6 0.0000 0.0000 0.0000 0.0000 0.0000 27.4085
#
#
#
# Elastic Compliance Matrix: (Units=1/GPa)
#
#
# Indices 1 2 3 4 5 6 
#
# 1 0.012522 -0.001913 -0.002927 0.000000 0.000000 0.000000
# 2 -0.001913 0.008055 -0.004009 0.000000 0.000000 0.000000
# 3 -0.002927 -0.004009 0.011688 0.000000 0.000000 0.000000
# 4 0.000000 0.000000 0.000000 0.112372 0.000000 0.000000
# 5 0.000000 0.000000 0.000000 0.000000 0.030225 0.000000
# 6 0.000000 0.000000 0.000000 0.000000 0.000000 0.036485
#
#
# Mechanical properties :
#
#
# Convention : Reuss Voigt Hill
#
# Bulk Modulus (GPa) = 68.64707 75.15806 71.90257
# Shear Modulus (GPa) = 21.37652 29.46357 25.42005
#
# Velocity S-wave (km/s) = 3.30346 3.87831 3.60237
# Velocity P-wave (km/s) = 7.04238 7.64353 7.34911
#
# Compressibility (1/GPa) = 0.01456726
#
# Stress axis : x y z
#
# Youngs Moduli (GPa) = 79.85716 124.14587 85.55518
#
# Poissons Ratio (x) = 0.23753 0.25046
# Poissons Ratio (y) = 0.15279 0.34295
# Poissons Ratio (z) = 0.23378 0.49764
#
# Static dielectric constant tensor:
#      x y z
#    x 3.661090 0.000000 0.000000 
#    y 0.000000 4.476970 0.000000 
#    z 0.000000 0.000000 3.411030 
# 
# 
# High freq. dielectric constant tensor:
#      x y z
#    x 1.773190 0.000000 0.000000 
#    y 0.000000 1.795060 0.000000 
#    z 0.000000 0.000000 1.742000 
# 
# From -- ./inp_files/6218.got.cif
#   From: 2010.03.12/outbox.cif.g09.slc.cpg/sg51_4_cif.got.tgz:6218.got - 2010.04.16 13:43:02.
