data_PCOD8213912
_publ_section_title
;
Structure prediction by ZEFSAII (Michael W. Deem and Ramdas Pophale) SiO2 
 PCOD8213912
Probable space group: P M M A
;
_chemical_formula_sum "Si O2"
_cell_formula_units_Z 48
_cell_length_a 7.952233
_cell_length_b 9.442892
_cell_length_c 34.297119
_cell_angle_alpha 90.000000
_cell_angle_beta 90.000000
_cell_angle_gamma 90.000000
_cell_volume 2575.441914
_symmetry_space_group_name_H-M "P M M A"
_symmetry_group_IT_number 51
_symmetry_cell_setting 'orthorhombic'
loop_
_space_group_symop_operation_xyz
x,y,z
1/2-x,-y,z
1/2+x,-y,-z
-x,y,-z
-x,-y,-z
1/2+x,y,-z
1/2-x,y,z
x,-y,z
loop_
_atom_site_type_symbol
_atom_site_label
_atom_site_fract_x
_atom_site_fract_y
_atom_site_fract_z
Si Si1 0.557822 0.657317 0.111022
Si Si2 0.750000 0.830880 0.318132
Si Si3 0.436321 0.831639 0.268837
Si Si4 0.945794 0.839944 0.819196
Si Si5 0.559743 0.168501 0.542161
Si Si6 0.057191 0.845113 0.040968
Si Si7 0.750000 0.831289 0.406334
O O1 0.750000 0.645556 0.099427
O O2 0.478247 0.500000 0.114543
O O3 0.542741 0.736246 0.152146
O O4 0.469447 0.741315 0.076735
O O5 0.581636 0.771314 0.297149
O O6 0.750000 0.774281 0.362243
O O7 0.750000 0.000000 0.316754
O O8 0.250000 0.774753 0.281273
O O9 0.477992 0.784934 0.224716
O O10 0.432403 0.000000 0.270586
O O11 0.750000 0.836501 0.829494
O O12 0.014755 0.000000 0.824237
O O13 0.500000 0.223838 0.500000
O O14 0.750000 0.224366 0.551547
O O15 0.421399 0.225213 0.573135
O O16 0.562392 0.000000 0.542470
O O17 0.250000 0.874910 0.037611
O O18 0.968107 0.000000 0.047424
O O19 0.000000 0.775400 0.000000
O O20 0.750000 0.000000 0.407808
#
# Coordination Sequence:
#
# PCOD8213912 Si02
#       7
#     8   4   8   8   8   8   4
#     4  11  24  37  50  75 108 136 164 200 243 290
#     4   9  16  24  36  54  77 103 133 171 233 297
#     4   8  15  27  42  61  84 107 138 183 230 284
#     4   9  18  33  53  75  95 121 161 202 242 291
#     4   9  14  20  29  38  53  81 120 166 213 266
#     4  10  21  38  60  82 103 131 168 205 241 286
#     4   9  16  22  28  44  64  87 123 167 217 279
#
# _framework density 18.637577
#
# number of rings (size 3 to 8) (size 9 to 14) (size 15 to 20)
#    0.000    2.667    0.833    2.500    1.167    5.667 
#    0.000    3.333    0.000    0.000    0.000    0.000 
#    0.000    0.000    0.000    0.000    0.000    0.000 
#
# Total GULP energy -594875.866183 kJ/mol
# GULP energy per Si atom -12393.247212 kJ/mol
# Density = 1.859516 g / cm^3
# Si number density = 18.637577 Si / 1000 Ang^3
#
#
#
# Elastic Constant Matrix: (Units=GPa)
#
#
# Indices 1 2 3 4 5 6 
#
# 1 126.2045 20.2229 71.3050 0.0000 0.0000 0.0000
# 2 20.2229 46.3996 32.5793 0.0000 0.0000 0.0000
# 3 71.3050 32.5793 148.2032 0.0000 0.0000 0.0000
# 4 0.0000 0.0000 0.0000 -1.6876 0.0000 0.0000
# 5 0.0000 0.0000 0.0000 0.0000 36.5325 0.0000
# 6 0.0000 0.0000 0.0000 0.0000 0.0000 10.6636
#
#
#
# Elastic Compliance Matrix: (Units=1/GPa)
#
#
# Indices 1 2 3 4 5 6 
#
# 1 0.010944 -0.001269 -0.004987 0.000000 0.000000 0.000000
# 2 -0.001269 0.025633 -0.005024 0.000000 0.000000 0.000000
# 3 -0.004987 -0.005024 0.010251 0.000000 0.000000 0.000000
# 4 0.000000 0.000000 0.000000 -0.592560 0.000000 0.000000
# 5 0.000000 0.000000 0.000000 0.000000 0.027373 0.000000
# 6 0.000000 0.000000 0.000000 0.000000 0.000000 0.093777
#
#
# Mechanical properties :
#
#
# Convention : Reuss Voigt Hill
#
# Bulk Modulus (GPa) = 41.20518 63.22463 52.21491
# Shear Modulus (GPa) = -12.69252 22.21504 4.76126
#
# Velocity S-wave (km/s) = -2.61246 3.45621 1.60006
# Velocity P-wave (km/s) = 3.61341 7.06569 5.61163
#
# Compressibility (1/GPa) = 0.02426879
#
# Stress axis : x y z
#
# Youngs Moduli (GPa) = 91.37032 39.01262 97.54819
#
# Poissons Ratio (x) = 0.04949 0.48646
# Poissons Ratio (y) = 0.11591 0.49013
# Poissons Ratio (z) = 0.45565 0.19602
#
# Static dielectric constant tensor:
#      x y z
#    x 3.679360 0.000000 0.000000 
#    y 0.000000 3.041520 0.000000 
#    z 0.000000 0.000000 3.485960 
# 
# 
# High freq. dielectric constant tensor:
#      x y z
#    x 1.736800 0.000000 0.000000 
#    y 0.000000 1.652020 0.000000 
#    z 0.000000 0.000000 1.725390 
# 
# From -- ./inp_files/37115.got.cif
#   From: 2010.03.12/outbox.cif.g09.slc.cpg/sg51_19_cif.got.tgz:37115.got - 2010.04.16 13:43:02.
