data_PCOD8213972
_publ_section_title
;
Structure prediction by ZEFSAII (Michael W. Deem and Ramdas Pophale) SiO2 
 PCOD8213972
Probable space group: P M M A
;
_chemical_formula_sum "Si O2"
_cell_formula_units_Z 48
_cell_length_a 9.188743
_cell_length_b 8.702392
_cell_length_c 30.975485
_cell_angle_alpha 90.000000
_cell_angle_beta 90.000000
_cell_angle_gamma 90.000000
_cell_volume 2476.925032
_symmetry_space_group_name_H-M "P M M A"
_symmetry_group_IT_number 51
_symmetry_cell_setting 'orthorhombic'
loop_
_space_group_symop_operation_xyz
x,y,z
1/2-x,-y,z
1/2+x,-y,-z
-x,y,-z
-x,-y,-z
1/2+x,y,-z
1/2-x,y,z
x,-y,z
loop_
_atom_site_type_symbol
_atom_site_label
_atom_site_fract_x
_atom_site_fract_y
_atom_site_fract_z
Si Si1 0.417482 0.320868 0.879716
Si Si2 0.086139 0.817962 0.041274
Si Si3 0.088935 0.817600 0.294356
Si Si4 0.585654 0.183212 0.541659
Si Si5 0.086760 0.183409 0.624717
Si Si6 0.420380 0.178127 0.197708
O O1 0.250000 0.268423 0.880985
O O2 0.433596 0.500000 0.889113
O O3 0.505605 0.228376 0.915344
O O4 0.483479 0.283180 0.833157
O O5 0.250000 0.750554 0.041033
O O6 0.091415 0.000000 0.038932
O O7 0.000000 0.750505 0.000000
O O8 0.250000 0.750552 0.303280
O O9 0.036842 0.771443 0.246377
O O10 0.980213 0.751806 0.330593
O O11 0.096501 0.000000 0.297235
O O12 0.500000 0.246446 0.500000
O O13 0.750000 0.246793 0.540601
O O14 0.507021 0.245907 0.584588
O O15 0.585953 0.000000 0.541473
O O16 0.250000 0.247236 0.620369
O O17 0.086448 0.000000 0.624839
O O18 0.250000 0.207465 0.189207
O O19 0.457914 0.000000 0.189541
#
# Coordination Sequence:
#
# PCOD8213972 Si02
#       6
#     8   8   8   8   8   8
#     4  11  24  38  52  75 107 140 172 205 244 291
#     4  10  21  38  61  86 109 135 169 207 247 291
#     4   8  14  25  40  58  80 105 136 179 230 279
#     4   9  15  21  28  38  56  86 125 169 217 268
#     4   9  15  21  30  46  68  94 128 171 218 269
#     4   9  18  33  53  75  97 124 162 206 250 296
#
# _framework density 19.378867
#
# number of rings (size 3 to 8) (size 9 to 14) (size 15 to 20)
#    0.000    2.667    0.000    3.500    0.000    9.667 
#    0.000    1.667    0.000    0.000    0.000    0.000 
#    0.000    0.000    0.000    0.000    0.000    0.833 
#
# Total GULP energy -595147.492086 kJ/mol
# GULP energy per Si atom -12398.906085 kJ/mol
# Density = 1.933476 g / cm^3
# Si number density = 19.378867 Si / 1000 Ang^3
#
#
#
# Elastic Constant Matrix: (Units=GPa)
#
#
# Indices 1 2 3 4 5 6 
#
# 1 161.9665 10.0162 90.2674 0.0000 0.0000 0.0000
# 2 10.0162 7.2507 4.0980 0.0000 0.0000 0.0000
# 3 90.2674 4.0980 160.6852 0.0000 0.0000 0.0000
# 4 0.0000 0.0000 0.0000 -1.1082 0.0000 0.0000
# 5 0.0000 0.0000 0.0000 0.0000 43.6893 0.0000
# 6 0.0000 0.0000 0.0000 0.0000 0.0000 13.9718
#
#
#
# Elastic Compliance Matrix: (Units=1/GPa)
#
#
# Indices 1 2 3 4 5 6 
#
# 1 0.009715 -0.010487 -0.005190 0.000000 0.000000 0.000000
# 2 -0.010487 0.151257 0.002034 0.000000 0.000000 0.000000
# 3 -0.005190 0.002034 0.009087 0.000000 0.000000 0.000000
# 4 0.000000 0.000000 0.000000 -0.902330 0.000000 0.000000
# 5 0.000000 0.000000 0.000000 0.000000 0.022889 0.000000
# 6 0.000000 0.000000 0.000000 0.000000 0.000000 0.071573
#
#
# Mechanical properties :
#
#
# Convention : Reuss Voigt Hill
#
# Bulk Modulus (GPa) = 7.00419 59.85173 33.42796
# Shear Modulus (GPa) = -8.88208 26.34529 8.73161
#
# Velocity S-wave (km/s) = -2.14321 3.69112 2.12497
# Velocity P-wave (km/s) = 1.58185 7.00842 4.82782
#
# Compressibility (1/GPa) = 0.14277166
#
# Stress axis : x y z
#
# Youngs Moduli (GPa) = 102.93022 6.61128 110.04507
#
# Poissons Ratio (x) = 0.06934 0.57116
# Poissons Ratio (y) = 1.07948 -0.22383
# Poissons Ratio (z) = 0.53424 -0.01345
#
# Static dielectric constant tensor:
#      x y z
#    x 3.802020 0.000000 0.000000 
#    y 0.000000 2.844450 0.000000 
#    z 0.000000 0.000000 3.779060 
# 
# 
# High freq. dielectric constant tensor:
#      x y z
#    x 1.764690 0.000000 0.000000 
#    y 0.000000 1.685470 0.000000 
#    z 0.000000 0.000000 1.772930 
# 
# From -- ./inp_files/37022.got.cif
#   From: 2010.03.12/outbox.cif.g09.slc.cpg/sg51_19_cif.got.tgz:37022.got - 2010.04.16 13:43:02.
