data_PCOD8213161
_publ_section_title
;
Structure prediction by ZEFSAII (Michael W. Deem and Ramdas Pophale) SiO2 
 PCOD8213161
Probable space group: P M M A
;
_chemical_formula_sum "Si O2"
_cell_formula_units_Z 48
_cell_length_a 15.803949
_cell_length_b 9.049793
_cell_length_c 16.974623
_cell_angle_alpha 90.000000
_cell_angle_beta 90.000000
_cell_angle_gamma 90.000000
_cell_volume 2427.752458
_symmetry_space_group_name_H-M "P M M A"
_symmetry_group_IT_number 51
_symmetry_cell_setting 'orthorhombic'
loop_
_space_group_symop_operation_xyz
x,y,z
1/2-x,-y,z
1/2+x,-y,-z
-x,y,-z
-x,-y,-z
1/2+x,y,-z
1/2-x,y,z
x,-y,z
loop_
_atom_site_type_symbol
_atom_site_label
_atom_site_fract_x
_atom_site_fract_y
_atom_site_fract_z
Si Si1 0.594928 0.668723 0.815925
Si Si2 0.750000 0.670944 0.063347
Si Si3 0.108844 0.172571 0.661554
Si Si4 0.843503 0.338504 0.488329
Si Si5 0.250000 0.174827 0.100778
Si Si6 0.438263 0.330133 0.357754
Si Si7 0.100235 0.328109 0.817937
O O1 0.606210 0.500000 0.844544
O O2 0.663566 0.767277 0.860188
O O3 0.615689 0.682644 0.722641
O O4 0.497608 0.721022 0.835094
O O5 0.750000 0.500000 0.037133
O O6 0.663341 0.706128 0.110350
O O7 0.750000 0.777861 0.989558
O O8 0.159106 0.230709 0.585974
O O9 0.140350 0.245114 0.742830
O O10 0.012384 0.213609 0.648859
O O11 0.123263 0.000000 0.668354
O O12 0.750000 0.357906 0.520521
O O13 0.880438 0.500000 0.463787
O O14 0.892087 0.274581 0.563793
O O15 0.250000 0.000000 0.107446
O O16 0.469546 0.500000 0.366390
O O17 0.099342 0.500000 0.796176
#
# Coordination Sequence:
#
# PCOD8213161 Si02
#       7
#     8   4   8   8   4   8   8
#     4   9  19  38  64  89 117 152 197 248 292 340
#     4  10  22  42  68  93 116 147 192 243 294 345
#     4  11  22  35  54  81 118 156 188 229 289 353
#     4  10  21  35  54  80 110 148 197 248 288 328
#     4  12  26  40  58  89 126 159 190 229 292 363
#     4   9  19  37  61  83 106 145 199 248 287 330
#     4   9  20  40  66  92 115 150 200 248 290 341
#
# _framework density 19.771373000000001
#
# number of rings (size 3 to 8) (size 9 to 14) (size 15 to 20)
#    0.000    2.167    0.000    3.750    2.333    7.000 
#    0.000    3.333    0.000    0.000    0.000    0.000 
#    0.000    0.000    0.000    0.000    0.000    0.000 
#
# Total GULP energy -594871.622359 kJ/mol
# GULP energy per Si atom -12393.158799 kJ/mol
# Density = 1.972637 g / cm^3
# Si number density = 19.771373 Si / 1000 Ang^3
#
#
#
# Elastic Constant Matrix: (Units=GPa)
#
#
# Indices 1 2 3 4 5 6 
#
# 1 96.3532 39.7204 57.5662 0.0000 0.0000 0.0000
# 2 39.7204 91.4383 50.3172 0.0000 0.0000 0.0000
# 3 57.5662 50.3172 117.0119 0.0000 0.0000 0.0000
# 4 0.0000 0.0000 0.0000 13.9580 0.0000 0.0000
# 5 0.0000 0.0000 0.0000 0.0000 29.4545 0.0000
# 6 0.0000 0.0000 0.0000 0.0000 0.0000 74.7488
#
#
#
# Elastic Compliance Matrix: (Units=1/GPa)
#
#
# Indices 1 2 3 4 5 6 
#
# 1 0.015426 -0.003308 -0.006167 0.000000 0.000000 0.000000
# 2 -0.003308 0.015036 -0.004838 0.000000 0.000000 0.000000
# 3 -0.006167 -0.004838 0.013661 0.000000 0.000000 0.000000
# 4 0.000000 0.000000 0.000000 0.071643 0.000000 0.000000
# 5 0.000000 0.000000 0.000000 0.000000 0.033951 0.000000
# 6 0.000000 0.000000 0.000000 0.000000 0.000000 0.013378
#
#
# Mechanical properties :
#
#
# Convention : Reuss Voigt Hill
#
# Bulk Modulus (GPa) = 64.52913 66.66789 65.59851
# Shear Modulus (GPa) = 25.39534 34.11225 29.75379
#
# Velocity S-wave (km/s) = 3.58781 4.15822 3.88350
# Velocity P-wave (km/s) = 7.06199 7.53970 7.30475
#
# Compressibility (1/GPa) = 0.01549688
#
# Stress axis : x y z
#
# Youngs Moduli (GPa) = 64.82364 66.50881 73.20256
#
# Poissons Ratio (x) = 0.21998 0.45144
# Poissons Ratio (y) = 0.21441 0.35418
# Poissons Ratio (z) = 0.39977 0.32179
#
# Static dielectric constant tensor:
#      x y z
#    x 3.673790 0.000000 0.000000 
#    y 0.000000 3.363430 0.000000 
#    z 0.000000 0.000000 3.699640 
# 
# 
# High freq. dielectric constant tensor:
#      x y z
#    x 1.774070 0.000000 0.000000 
#    y 0.000000 1.749170 0.000000 
#    z 0.000000 0.000000 1.775790 
# 
# From -- ./inp_files/24911.got.cif
#   From: 2010.03.12/outbox.cif.g09.slc.cpg/sg51_13_cif.got.tgz:24911.got - 2010.04.16 13:43:02.
