data_PCOD8213152
_publ_section_title
;
Structure prediction by ZEFSAII (Michael W. Deem and Ramdas Pophale) SiO2 
 PCOD8213152
Probable space group: P M M A
;
_chemical_formula_sum "Si O2"
_cell_formula_units_Z 44
_cell_length_a 16.087796
_cell_length_b 9.913410
_cell_length_c 13.579299
_cell_angle_alpha 90.000000
_cell_angle_beta 90.000000
_cell_angle_gamma 90.000000
_cell_volume 2165.693384
_symmetry_space_group_name_H-M "P M M A"
_symmetry_group_IT_number 51
_symmetry_cell_setting 'orthorhombic'
loop_
_space_group_symop_operation_xyz
x,y,z
1/2-x,-y,z
1/2+x,-y,-z
-x,y,-z
-x,-y,-z
1/2+x,y,-z
1/2-x,y,z
x,-y,z
loop_
_atom_site_type_symbol
_atom_site_label
_atom_site_fract_x
_atom_site_fract_y
_atom_site_fract_z
Si Si1 0.847431 0.646564 0.678396
Si Si2 0.066579 0.854587 0.196208
Si Si3 0.348256 0.652528 0.540062
Si Si4 0.606981 0.154077 0.287452
Si Si5 0.000000 0.258314 0.000000
Si Si6 0.657138 0.349497 0.115605
O O1 0.750000 0.634052 0.672317
O O2 0.886115 0.500000 0.703754
O O3 0.868769 0.743919 0.768296
O O4 0.879101 0.692191 0.570236
O O5 0.990672 0.850986 0.271241
O O6 0.034045 0.834676 0.086327
O O7 0.110999 0.000000 0.200057
O O8 0.250000 0.655608 0.547697
O O9 0.379418 0.500000 0.566212
O O10 0.383250 0.767130 0.610873
O O11 0.651233 0.236864 0.200147
O O12 0.642892 0.000000 0.292432
O O13 0.080708 0.342120 0.962384
O O14 0.750000 0.331111 0.066787
O O15 0.651826 0.500000 0.162353
#
# Coordination Sequence:
#
# PCOD8213152 Si02
#       6
#     8   8   8   8   4   8
#     4   9  20  38  58  82 112 145 183 227 274 327
#     4  10  22  39  57  78 108 145 183 227 279 334
#     4   9  18  34  55  79 110 147 184 223 269 324
#     4  10  21  35  53  81 115 147 182 227 277 330
#     4  10  22  40  60  82 112 148 186 238 290 336
#     4  10  21  37  58  84 112 145 188 235 285 343
#
# _framework density 20.31682
#
# number of rings (size 3 to 8) (size 9 to 14) (size 15 to 20)
#    0.000    2.364    0.000    2.727    0.000   10.545 
#    0.000    7.273    0.000    0.000    0.000    0.000 
#    0.000    0.000    0.000    0.000    0.000    0.000 
#
# Total GULP energy -545160.846689 kJ/mol
# GULP energy per Si atom -12390.019243 kJ/mol
# Density = 2.027058 g / cm^3
# Si number density = 20.316820 Si / 1000 Ang^3
#
#
#
# Elastic Constant Matrix: (Units=GPa)
#
#
# Indices 1 2 3 4 5 6 
#
# 1 49.6900 30.6678 32.0160 0.0000 0.0000 0.0000
# 2 30.6678 165.3913 77.8956 0.0000 0.0000 0.0000
# 3 32.0160 77.8956 121.5230 0.0000 0.0000 0.0000
# 4 0.0000 0.0000 0.0000 17.6834 0.0000 0.0000
# 5 0.0000 0.0000 0.0000 0.0000 27.1547 0.0000
# 6 0.0000 0.0000 0.0000 0.0000 0.0000 62.6755
#
#
#
# Elastic Compliance Matrix: (Units=1/GPa)
#
#
# Indices 1 2 3 4 5 6 
#
# 1 0.024775 -0.002177 -0.005132 0.000000 0.000000 0.000000
# 2 -0.002177 0.008852 -0.005101 0.000000 0.000000 0.000000
# 3 -0.005132 -0.005101 0.012850 0.000000 0.000000 0.000000
# 4 0.000000 0.000000 0.000000 0.056550 0.000000 0.000000
# 5 0.000000 0.000000 0.000000 0.000000 0.036826 0.000000
# 6 0.000000 0.000000 0.000000 0.000000 0.000000 0.015955
#
#
# Mechanical properties :
#
#
# Convention : Reuss Voigt Hill
#
# Bulk Modulus (GPa) = 46.17073 68.64032 57.40553
# Shear Modulus (GPa) = 26.61739 34.57104 30.59421
#
# Velocity S-wave (km/s) = 3.62348 4.12952 3.88475
# Velocity P-wave (km/s) = 6.34672 7.52300 6.95975
#
# Compressibility (1/GPa) = 0.02165874
#
# Stress axis : x y z
#
# Youngs Moduli (GPa) = 40.36370 112.96554 77.81873
#
# Poissons Ratio (x) = 0.24593 0.39934
# Poissons Ratio (y) = 0.08787 0.39693
# Poissons Ratio (z) = 0.20713 0.57620
#
# Static dielectric constant tensor:
#      x y z
#    x 3.642600 0.000000 0.000000 
#    y 0.000000 3.953100 0.000000 
#    z 0.000000 0.000000 3.669830 
# 
# 
# High freq. dielectric constant tensor:
#      x y z
#    x 1.785640 0.000000 0.000000 
#    y 0.000000 1.800120 0.000000 
#    z 0.000000 0.000000 1.785420 
# 
# From -- ./inp_files/24570.got.cif
#   From: 2010.03.12/outbox.cif.g09.slc.cpg/sg51_13_cif.got.tgz:24570.got - 2010.04.16 13:43:02.
