data_PCOD8213609
_publ_section_title
;
Structure prediction by ZEFSAII (Michael W. Deem and Ramdas Pophale) SiO2 
 PCOD8213609
Probable space group: P M M A
;
_chemical_formula_sum "Si O2"
_cell_formula_units_Z 48
_cell_length_a 8.699545
_cell_length_b 14.489828
_cell_length_c 20.673475
_cell_angle_alpha 90.000000
_cell_angle_beta 90.000000
_cell_angle_gamma 90.000000
_cell_volume 2605.993046
_symmetry_space_group_name_H-M "P M M A"
_symmetry_group_IT_number 51
_symmetry_cell_setting 'orthorhombic'
loop_
_space_group_symop_operation_xyz
x,y,z
1/2-x,-y,z
1/2+x,-y,-z
-x,y,-z
-x,-y,-z
1/2+x,y,-z
1/2-x,y,z
x,-y,z
loop_
_atom_site_type_symbol
_atom_site_label
_atom_site_fract_x
_atom_site_fract_y
_atom_site_fract_z
Si Si1 0.071118 0.392737 0.068520
Si Si2 0.068198 0.293798 0.810486
Si Si3 0.067427 0.899417 0.620711
Si Si4 0.428255 0.607957 0.313036
Si Si5 0.067920 0.900225 0.766112
Si Si6 0.568398 0.289966 0.433131
O O1 0.250000 0.367724 0.069049
O O2 0.043569 0.500000 0.083569
O O3 0.982875 0.334037 0.121544
O O4 0.000000 0.365084 0.000000
O O5 0.250000 0.304074 0.801811
O O6 0.014888 0.186130 0.809720
O O7 0.987343 0.346841 0.752522
O O8 0.250000 0.895656 0.622012
O O9 0.004052 0.885933 0.693467
O O10 0.004639 0.814718 0.577756
O O11 0.012303 0.000000 0.593764
O O12 0.250000 0.631126 0.321878
O O13 0.459119 0.500000 0.307304
O O14 0.518930 0.644945 0.374761
O O15 0.250000 0.902575 0.762935
O O16 0.008383 0.000000 0.793402
O O17 0.500000 0.328336 0.500000
O O18 0.750000 0.291996 0.437669
#
# Coordination Sequence:
#
# PCOD8213609 Si02
#       6
#     8   8   8   8   8   8
#     4  10  21  37  56  81 115 152 186 223 268 317
#     4  11  20  33  58  88 113 143 180 220 267 317
#     4   8  14  28  51  77 105 136 171 213 263 319
#     4  11  24  40  56  76 104 139 180 226 272 319
#     4   8  14  27  50  80 110 139 174 215 261 315
#     4  11  22  37  56  78 104 138 177 221 273 327
#
# _framework density 18.419082
#
# number of rings (size 3 to 8) (size 9 to 14) (size 15 to 20)
#    0.000    2.167    1.667    3.500    0.000    5.000 
#    0.000    0.000    0.000    5.000    0.000    0.000 
#    0.000    0.000    0.000    0.000    0.000    0.000 
#
# Total GULP energy -595003.317921 kJ/mol
# GULP energy per Si atom -12395.902457 kJ/mol
# Density = 1.837716 g / cm^3
# Si number density = 18.419082 Si / 1000 Ang^3
#
#
#
# Elastic Constant Matrix: (Units=GPa)
#
#
# Indices 1 2 3 4 5 6 
#
# 1 42.2916 39.8008 10.3428 0.0000 0.0000 0.0000
# 2 39.8008 114.2801 55.6693 0.0000 0.0000 0.0000
# 3 10.3428 55.6693 90.5582 0.0000 0.0000 0.0000
# 4 0.0000 0.0000 0.0000 32.7539 0.0000 0.0000
# 5 0.0000 0.0000 0.0000 0.0000 29.3368 0.0000
# 6 0.0000 0.0000 0.0000 0.0000 0.0000 95.3970
#
#
#
# Elastic Compliance Matrix: (Units=1/GPa)
#
#
# Indices 1 2 3 4 5 6 
#
# 1 0.036846 -0.015391 0.005253 0.000000 0.000000 0.000000
# 2 -0.015391 0.018920 -0.009873 0.000000 0.000000 0.000000
# 3 0.005253 -0.009873 0.016512 0.000000 0.000000 0.000000
# 4 0.000000 0.000000 0.000000 0.030531 0.000000 0.000000
# 5 0.000000 0.000000 0.000000 0.000000 0.034087 0.000000
# 6 0.000000 0.000000 0.000000 0.000000 0.000000 0.010483
#
#
# Mechanical properties :
#
#
# Convention : Reuss Voigt Hill
#
# Bulk Modulus (GPa) = 31.00232 50.97284 40.98758
# Shear Modulus (GPa) = 25.23316 40.91869 33.07593
#
# Velocity S-wave (km/s) = 3.70529 4.71843 4.24222
# Velocity P-wave (km/s) = 5.93075 7.57752 6.80414
#
# Compressibility (1/GPa) = 0.03225565
#
# Stress axis : x y z
#
# Youngs Moduli (GPa) = 27.14035 52.85307 60.56208
#
# Poissons Ratio (x) = 0.81349 -0.31816
# Poissons Ratio (y) = 0.41773 0.59794
# Poissons Ratio (z) = -0.14258 0.52183
#
# Static dielectric constant tensor:
#      x y z
#    x 3.210340 0.000000 0.000000 
#    y 0.000000 3.884100 0.000000 
#    z 0.000000 0.000000 3.303980 
# 
# 
# High freq. dielectric constant tensor:
#      x y z
#    x 1.696940 0.000000 0.000000 
#    y 0.000000 1.726310 0.000000 
#    z 0.000000 0.000000 1.700290 
# 
# From -- ./inp_files/27525.got.cif
#   From: 2010.03.12/outbox.cif.g09.slc.cpg/sg51_14_cif.got.tgz:27525.got - 2010.04.16 13:43:02.
