data_PCOD8213114
_publ_section_title
;
Structure prediction by ZEFSAII (Michael W. Deem and Ramdas Pophale) SiO2 
 PCOD8213114
Probable space group: P M M A
;
_chemical_formula_sum "Si O2"
_cell_formula_units_Z 56
_cell_length_a 18.932597
_cell_length_b 9.492783
_cell_length_c 17.506439
_cell_angle_alpha 90.000000
_cell_angle_beta 90.000000
_cell_angle_gamma 90.000000
_cell_volume 3146.310348
_symmetry_space_group_name_H-M "P M M A"
_symmetry_group_IT_number 51
_symmetry_cell_setting 'orthorhombic'
loop_
_space_group_symop_operation_xyz
x,y,z
1/2-x,-y,z
1/2+x,-y,-z
-x,y,-z
-x,-y,-z
1/2+x,y,-z
1/2-x,y,z
x,-y,z
loop_
_atom_site_type_symbol
_atom_site_label
_atom_site_fract_x
_atom_site_fract_y
_atom_site_fract_z
Si Si1 0.333119 0.838268 0.206199
Si Si2 0.170839 0.163805 0.796722
Si Si3 0.668291 0.336727 0.646467
Si Si4 0.913234 0.661131 0.916617
Si Si5 0.577583 0.339983 0.090861
Si Si6 0.418343 0.664893 0.502382
Si Si7 0.330868 0.162863 0.621367
O O1 0.250000 0.826337 0.195080
O O2 0.357043 0.756135 0.282155
O O3 0.367961 0.768463 0.132683
O O4 0.357733 0.000000 0.213177
O O5 0.250000 0.218491 0.813107
O O6 0.116525 0.241442 0.850297
O O7 0.150695 0.193174 0.709220
O O8 0.165859 0.000000 0.815080
O O9 0.750000 0.307158 0.625590
O O10 0.656504 0.500000 0.667483
O O11 0.620075 0.289816 0.575687
O O12 0.890220 0.500000 0.900004
O O13 0.994808 0.681909 0.896727
O O14 0.899827 0.699190 0.004933
O O15 0.598850 0.500000 0.108336
O O16 0.500000 0.709126 0.500000
O O17 0.409143 0.500000 0.516944
O O18 0.383086 0.743427 0.572524
O O19 0.250000 0.204814 0.603887
O O20 0.343162 0.000000 0.601215
#
# Coordination Sequence:
#
# PCOD8213114 Si02
#       7
#     8   8   8   8   8   8   8
#     4  10  21  35  52  77 104 130 168 214 254 298
#     4   9  19  35  53  76 107 138 167 205 255 304
#     4   9  18  34  54  73  98 135 172 205 249 302
#     4   9  19  36  54  73 102 137 170 208 256 304
#     4   9  19  35  54  76 101 133 174 213 249 297
#     4  10  21  35  52  78 108 134 165 208 255 301
#     4   9  19  36  55  74 100 136 173 207 249 301
#
# _framework density 17.798625000000001
#
# number of rings (size 3 to 8) (size 9 to 14) (size 15 to 20)
#    0.000    2.714    0.000    2.571    0.000    6.286 
#    0.000   11.429    0.000    0.000    0.000    0.000 
#    0.000    0.000    0.000    0.000    0.000    0.000 
#
# Total GULP energy -694479.029918 kJ/mol
# GULP energy per Si atom -12401.411249 kJ/mol
# Density = 1.775811 g / cm^3
# Si number density = 17.798625 Si / 1000 Ang^3
#
#
#
# Elastic Constant Matrix: (Units=GPa)
#
#
# Indices 1 2 3 4 5 6 
#
# 1 75.0940 47.7723 61.2726 0.0000 0.0000 0.0000
# 2 47.7723 81.9640 66.8724 0.0000 0.0000 0.0000
# 3 61.2726 66.8724 109.4912 0.0000 0.0000 0.0000
# 4 0.0000 0.0000 0.0000 28.7065 0.0000 0.0000
# 5 0.0000 0.0000 0.0000 0.0000 72.0187 0.0000
# 6 0.0000 0.0000 0.0000 0.0000 0.0000 31.9661
#
#
#
# Elastic Compliance Matrix: (Units=1/GPa)
#
#
# Indices 1 2 3 4 5 6 
#
# 1 0.026178 -0.006589 -0.010625 0.000000 0.000000 0.000000
# 2 -0.006589 0.025977 -0.012178 0.000000 0.000000 0.000000
# 3 -0.010625 -0.012178 0.022517 0.000000 0.000000 0.000000
# 4 0.000000 0.000000 0.000000 0.034835 0.000000 0.000000
# 5 0.000000 0.000000 0.000000 0.000000 0.013885 0.000000
# 6 0.000000 0.000000 0.000000 0.000000 0.000000 0.031283
#
#
# Mechanical properties :
#
#
# Convention : Reuss Voigt Hill
#
# Bulk Modulus (GPa) = 62.94437 68.70931 65.82684
# Shear Modulus (GPa) = 22.85653 32.58038 27.71846
#
# Velocity S-wave (km/s) = 3.58742 4.28308 3.95059
# Velocity P-wave (km/s) = 7.25265 7.94652 7.60750
#
# Compressibility (1/GPa) = 0.01588705
#
# Stress axis : x y z
#
# Youngs Moduli (GPa) = 38.20020 38.49615 44.41039
#
# Poissons Ratio (x) = 0.25364 0.47188
# Poissons Ratio (y) = 0.25169 0.54084
# Poissons Ratio (z) = 0.40589 0.46882
#
# Static dielectric constant tensor:
#      x y z
#    x 3.261160 0.000000 0.000000 
#    y 0.000000 3.256530 0.000000 
#    z 0.000000 0.000000 3.263750 
# 
# 
# High freq. dielectric constant tensor:
#      x y z
#    x 1.686380 0.000000 0.000000 
#    y 0.000000 1.687390 0.000000 
#    z 0.000000 0.000000 1.695100 
# 
# From -- ./inp_files/25700.got.cif
#   From: 2010.03.12/outbox.cif.g09.slc.cpg/sg51_13_cif.got.tgz:25700.got - 2010.04.16 13:43:02.
