data_PCOD8213587
_publ_section_title
;
Structure prediction by ZEFSAII (Michael W. Deem and Ramdas Pophale) SiO2 
 PCOD8213587
Probable space group: P M M A
;
_chemical_formula_sum "Si O2"
_cell_formula_units_Z 52
_cell_length_a 9.140947
_cell_length_b 9.731207
_cell_length_c 29.887609
_cell_angle_alpha 90.000000
_cell_angle_beta 90.000000
_cell_angle_gamma 90.000000
_cell_volume 2658.575968
_symmetry_space_group_name_H-M "P M M A"
_symmetry_group_IT_number 51
_symmetry_cell_setting 'orthorhombic'
loop_
_space_group_symop_operation_xyz
x,y,z
1/2-x,-y,z
1/2+x,-y,-z
-x,y,-z
-x,-y,-z
1/2+x,y,-z
1/2-x,y,z
x,-y,z
loop_
_atom_site_type_symbol
_atom_site_label
_atom_site_fract_x
_atom_site_fract_y
_atom_site_fract_z
Si Si1 0.921466 0.260565 0.113487
Si Si2 0.590340 0.153162 0.959484
Si Si3 0.077635 0.161674 0.721020
Si Si4 0.415717 0.500000 0.954745
Si Si5 0.922330 0.340937 0.795497
Si Si6 0.423676 0.346878 0.639024
Si Si7 0.911110 0.337145 0.458656
O O1 0.750000 0.231866 0.121825
O O2 0.956116 0.372799 0.076135
O O3 0.004873 0.136979 0.088535
O O4 0.994558 0.303991 0.159414
O O5 0.750000 0.226264 0.953870
O O6 0.619527 0.000000 0.976346
O O7 0.500000 0.228587 0.000000
O O8 0.250000 0.183875 0.729931
O O9 0.027761 0.231729 0.674495
O O10 0.985324 0.237704 0.758778
O O11 0.038707 0.000000 0.719940
O O12 0.250000 0.500000 0.968568
O O13 0.500000 0.500000 0.000000
O O14 0.750000 0.315341 0.801088
O O15 0.954468 0.500000 0.782614
O O16 0.250000 0.354461 0.635375
O O17 0.481856 0.500000 0.652714
O O18 0.484430 0.303769 0.589830
O O19 0.750000 0.271626 0.461132
O O20 0.901606 0.500000 0.464024
O O21 0.000000 0.271695 0.500000
#
# Coordination Sequence:
#
# PCOD8213587 Si02
#       7
#     8   8   8   4   8   8   8
#     4  11  22  38  59  83 109 139 176 217 264 315
#     4  10  21  37  56  80 111 146 183 220 259 308
#     4  10  21  37  59  85 110 142 186 235 287 341
#     4  10  22  36  54  82 112 140 168 204 249 300
#     4  11  24  41  61  84 111 145 183 226 280 339
#     4   8  14  27  49  76 106 142 184 230 281 334
#     4   8  13  22  39  66 100 137 178 225 276 327
#
# _framework density 19.559343999999999
#
# number of rings (size 3 to 8) (size 9 to 14) (size 15 to 20)
#    0.000    2.308    0.769    3.231    0.000    5.846 
#    0.000    0.769    0.000    3.231    0.000    0.000 
#    0.000    0.000    0.000    0.000    0.000    0.000 
#
# Total GULP energy -644258.473497 kJ/mol
# GULP energy per Si atom -12389.586029 kJ/mol
# Density = 1.951483 g / cm^3
# Si number density = 19.559344 Si / 1000 Ang^3
#
#
#
# Elastic Constant Matrix: (Units=GPa)
#
#
# Indices 1 2 3 4 5 6 
#
# 1 111.3772 42.0029 76.3192 0.0000 0.0000 0.0000
# 2 42.0029 81.4547 61.8761 0.0000 0.0000 0.0000
# 3 76.3192 61.8761 173.9400 0.0000 0.0000 0.0000
# 4 0.0000 0.0000 0.0000 23.1482 0.0000 0.0000
# 5 0.0000 0.0000 0.0000 0.0000 34.5029 0.0000
# 6 0.0000 0.0000 0.0000 0.0000 0.0000 4.9275
#
#
#
# Elastic Compliance Matrix: (Units=1/GPa)
#
#
# Indices 1 2 3 4 5 6 
#
# 1 0.013481 -0.003369 -0.004717 0.000000 0.000000 0.000000
# 2 -0.003369 0.017664 -0.004806 0.000000 0.000000 0.000000
# 3 -0.004717 -0.004806 0.009528 0.000000 0.000000 0.000000
# 4 0.000000 0.000000 0.000000 0.043200 0.000000 0.000000
# 5 0.000000 0.000000 0.000000 0.000000 0.028983 0.000000
# 6 0.000000 0.000000 0.000000 0.000000 0.000000 0.202944
#
#
# Mechanical properties :
#
#
# Convention : Reuss Voigt Hill
#
# Bulk Modulus (GPa) = 67.15257 80.79647 73.97452
# Shear Modulus (GPa) = 14.42810 24.95397 19.69104
#
# Velocity S-wave (km/s) = 2.71893 3.57572 3.17635
# Velocity P-wave (km/s) = 6.65312 7.64498 7.16623
#
# Compressibility (1/GPa) = 0.01489146
#
# Stress axis : x y z
#
# Youngs Moduli (GPa) = 74.17922 56.61082 104.95170
#
# Poissons Ratio (x) = 0.19070 0.49502
# Poissons Ratio (y) = 0.24988 0.50438
# Poissons Ratio (z) = 0.34988 0.27206
#
# Static dielectric constant tensor:
#      x y z
#    x 3.650880 0.000000 0.000000 
#    y 0.000000 3.416730 0.000000 
#    z 0.000000 0.000000 4.004280 
# 
# 
# High freq. dielectric constant tensor:
#      x y z
#    x 1.749410 0.000000 0.000000 
#    y 0.000000 1.741770 0.000000 
#    z 0.000000 0.000000 1.771400 
# 
# From -- ./inp_files/36210.got.cif
#   From: 2010.03.12/outbox.cif.g09.slc.cpg/sg51_19_cif.got.tgz:36210.got - 2010.04.16 13:43:02.
