data_PCOD8213914
_publ_section_title
;
Structure prediction by ZEFSAII (Michael W. Deem and Ramdas Pophale) SiO2 
 PCOD8213914
Probable space group: P M M A
;
_chemical_formula_sum "Si O2"
_cell_formula_units_Z 64
_cell_length_a 15.211202
_cell_length_b 9.296422
_cell_length_c 23.916236
_cell_angle_alpha 90.000000
_cell_angle_beta 90.000000
_cell_angle_gamma 90.000000
_cell_volume 3381.989024
_symmetry_space_group_name_H-M "P M M A"
_symmetry_group_IT_number 51
_symmetry_cell_setting 'orthorhombic'
loop_
_space_group_symop_operation_xyz
x,y,z
1/2-x,-y,z
1/2+x,-y,-z
-x,y,-z
-x,-y,-z
1/2+x,y,-z
1/2-x,y,z
x,-y,z
loop_
_atom_site_type_symbol
_atom_site_label
_atom_site_fract_x
_atom_site_fract_y
_atom_site_fract_z
Si Si1 0.151546 0.836253 0.391872
Si Si2 0.648936 0.332874 0.892218
Si Si3 0.499805 0.168787 0.309386
Si Si4 0.354189 0.161500 0.999837
Si Si5 0.397444 0.331953 0.500106
Si Si6 0.651520 0.836257 0.391607
Si Si7 0.500195 0.666897 0.805807
Si Si8 0.851047 0.332876 0.108115
O O1 0.250000 0.826471 0.367463
O O2 0.145852 0.736807 0.445840
O O3 0.085754 0.781350 0.344005
O O4 0.127751 0.000000 0.409147
O O5 0.750000 0.294080 0.877249
O O6 0.639558 0.500000 0.907803
O O7 0.587912 0.291879 0.839981
O O8 0.612957 0.243719 0.945048
O O9 0.585825 0.218259 0.343619
O O10 0.499504 0.245053 0.250527
O O11 0.499552 0.000000 0.298229
O O12 0.250000 0.160155 0.999847
O O13 0.387010 0.243716 0.944714
O O14 0.392713 0.000000 0.999832
O O15 0.500000 0.298304 0.500000
O O16 0.376394 0.500000 0.500082
O O17 0.354431 0.263424 0.554507
O O18 0.750000 0.826329 0.367262
O O19 0.627832 0.000000 0.408961
O O20 0.500303 0.500000 0.790399
O O21 0.412136 0.708006 0.839659
O O22 0.750000 0.294025 0.123125
O O23 0.860363 0.500000 0.092505
#
# Coordination Sequence:
#
# PCOD8213914 Si02
#       8
#     8   8   8   8   8   8   8   8
#     4  10  21  38  60  83 108 144 185 220 264 325
#     4   9  18  34  54  75 103 139 174 211 260 316
#     4  10  22  39  56  77 107 140 178 226 271 312
#     4   9  17  30  51  80 109 135 168 213 263 314
#     4  11  22  35  56  87 119 146 175 218 271 321
#     4  10  21  38  60  83 108 144 185 220 264 325
#     4  10  22  37  54  77 103 136 182 224 259 312
#     4   9  18  34  54  75 103 139 174 211 260 316
#
# _framework density 18.923774999999999
#
# number of rings (size 3 to 8) (size 9 to 14) (size 15 to 20)
#    0.000    2.250    1.250    1.125    0.000    7.500 
#    0.000    2.500    0.000    0.000    0.000    0.000 
#    0.000    0.000    0.000    0.000    0.000    0.000 
#
# Total GULP energy -793748.229906 kJ/mol
# GULP energy per Si atom -12402.316092 kJ/mol
# Density = 1.888070 g / cm^3
# Si number density = 18.923775 Si / 1000 Ang^3
#
#
#
# Elastic Constant Matrix: (Units=GPa)
#
#
# Indices 1 2 3 4 5 6 
#
# 1 120.5691 43.0237 71.4008 0.0000 0.0000 0.0000
# 2 43.0237 78.0314 71.5155 0.0000 0.0000 0.0000
# 3 71.4008 71.5155 167.4292 0.0000 0.0000 0.0000
# 4 0.0000 0.0000 0.0000 42.2768 0.0000 0.0000
# 5 0.0000 0.0000 0.0000 0.0000 -43.8561 0.0000
# 6 0.0000 0.0000 0.0000 0.0000 0.0000 18.5950
#
#
#
# Elastic Compliance Matrix: (Units=1/GPa)
#
#
# Indices 1 2 3 4 5 6 
#
# 1 0.011519 -0.003038 -0.003614 0.000000 0.000000 0.000000
# 2 -0.003038 0.021861 -0.008042 0.000000 0.000000 0.000000
# 3 -0.003614 -0.008042 0.010949 0.000000 0.000000 0.000000
# 4 0.000000 0.000000 0.000000 0.023654 0.000000 0.000000
# 5 0.000000 0.000000 0.000000 0.000000 -0.022802 0.000000
# 6 0.000000 0.000000 0.000000 0.000000 0.000000 0.053778
#
#
# Mechanical properties :
#
#
# Convention : Reuss Voigt Hill
#
# Bulk Modulus (GPa) = 66.93751 81.98996 74.46373
# Shear Modulus (GPa) = 37.50163 15.40913 26.45538
#
# Velocity S-wave (km/s) = 4.45648 2.85664 3.74304
# Velocity P-wave (km/s) = 7.86952 7.36892 7.62333
#
# Compressibility (1/GPa) = 0.01493931
#
# Stress axis : x y z
#
# Youngs Moduli (GPa) = 86.81594 45.74341 91.33208
#
# Poissons Ratio (x) = 0.13899 0.33010
# Poissons Ratio (y) = 0.26378 0.73449
# Poissons Ratio (z) = 0.31378 0.36787
#
# Static dielectric constant tensor:
#      x y z
#    x 3.688370 0.000000 0.000000 
#    y 0.000000 3.485860 0.000000 
#    z 0.000000 0.000000 3.299920 
# 
# 
# High freq. dielectric constant tensor:
#      x y z
#    x 1.747000 0.000000 0.000000 
#    y 0.000000 1.731210 0.000000 
#    z 0.000000 0.000000 1.724240 
# 
# From -- ./inp_files/35607.got.cif
#   From: 2010.03.12/outbox.cif.g09.slc.cpg/sg51_18_cif.got.tgz:35607.got - 2010.04.16 13:43:02.
