data_PCOD8213360
_publ_section_title
;
Structure prediction by ZEFSAII (Michael W. Deem and Ramdas Pophale) SiO2 
 PCOD8213360
Probable space group: P M M A
;
_chemical_formula_sum "Si O2"
_cell_formula_units_Z 48
_cell_length_a 8.897609
_cell_length_b 9.187731
_cell_length_c 30.659112
_cell_angle_alpha 90.000000
_cell_angle_beta 90.000000
_cell_angle_gamma 90.000000
_cell_volume 2506.346781
_symmetry_space_group_name_H-M "P M M A"
_symmetry_group_IT_number 51
_symmetry_cell_setting 'orthorhombic'
loop_
_space_group_symop_operation_xyz
x,y,z
1/2-x,-y,z
1/2+x,-y,-z
-x,y,-z
-x,-y,-z
1/2+x,y,-z
1/2-x,y,z
x,-y,z
loop_
_atom_site_type_symbol
_atom_site_label
_atom_site_fract_x
_atom_site_fract_y
_atom_site_fract_z
Si Si1 0.926484 0.666015 0.044016
Si Si2 0.076912 0.171224 0.870038
Si Si3 0.426643 0.666607 0.544819
Si Si4 0.923524 0.170920 0.623567
Si Si5 0.924340 0.666947 0.792377
Si Si6 0.424228 0.330518 0.702122
O O1 0.750000 0.678790 0.038208
O O2 0.978058 0.500000 0.052003
O O3 0.982370 0.760643 0.084833
O O4 0.000000 0.728846 0.000000
O O5 0.250000 0.215793 0.861561
O O6 0.974561 0.230795 0.831503
O O7 0.056663 0.000000 0.872991
O O8 0.500000 0.721728 0.500000
O O9 0.250000 0.683981 0.540293
O O10 0.472979 0.500000 0.554491
O O11 0.482668 0.766185 0.583713
O O12 0.750000 0.211309 0.616925
O O13 0.979899 0.238132 0.668479
O O14 0.950267 0.000000 0.625535
O O15 0.750000 0.693253 0.781919
O O16 0.955769 0.500000 0.805458
O O17 0.020191 0.710857 0.750191
O O18 0.250000 0.288914 0.697799
O O19 0.451267 0.500000 0.692231
#
# Coordination Sequence:
#
# PCOD8213360 Si02
#       6
#     8   8   8   8   8   8
#     4   9  18  33  53  76 103 137 178 223 268 316
#     4  10  21  36  54  78 109 145 182 220 267 323
#     4  10  21  38  61  87 113 145 187 232 278 328
#     4  11  24  39  56  82 116 152 187 225 273 327
#     4  10  21  37  58  83 109 140 180 225 272 322
#     4  10  21  38  61  86 110 141 183 228 274 325
#
# _framework density 19.15138
#
# number of rings (size 3 to 8) (size 9 to 14) (size 15 to 20)
#    0.000    2.000    0.000    3.000    0.000    9.333 
#    0.000    1.667    0.000    0.000    0.000    0.000 
#    0.000    0.000    0.000    0.000    0.000    0.000 
#
# Total GULP energy -595456.437462 kJ/mol
# GULP energy per Si atom -12405.342447 kJ/mol
# Density = 1.910779 g / cm^3
# Si number density = 19.151380 Si / 1000 Ang^3
#
#
#
# Elastic Constant Matrix: (Units=GPa)
#
#
# Indices 1 2 3 4 5 6 
#
# 1 55.3548 33.3597 31.1876 0.0000 0.0000 0.0000
# 2 33.3597 71.1875 53.3171 0.0000 0.0000 0.0000
# 3 31.1876 53.3171 121.1033 0.0000 0.0000 0.0000
# 4 0.0000 0.0000 0.0000 -38.3717 0.0000 0.0000
# 5 0.0000 0.0000 0.0000 0.0000 40.8411 0.0000
# 6 0.0000 0.0000 0.0000 0.0000 0.0000 28.3936
#
#
#
# Elastic Compliance Matrix: (Units=1/GPa)
#
#
# Indices 1 2 3 4 5 6 
#
# 1 0.025479 -0.010482 -0.001947 0.000000 0.000000 0.000000
# 2 -0.010482 0.025270 -0.008426 0.000000 0.000000 0.000000
# 3 -0.001947 -0.008426 0.012469 0.000000 0.000000 0.000000
# 4 0.000000 0.000000 0.000000 -0.026061 0.000000 0.000000
# 5 0.000000 0.000000 0.000000 0.000000 0.024485 0.000000
# 6 0.000000 0.000000 0.000000 0.000000 0.000000 0.035219
#
#
# Mechanical properties :
#
#
# Convention : Reuss Voigt Hill
#
# Bulk Modulus (GPa) = 46.49392 53.70827 50.10110
# Shear Modulus (GPa) = 34.30758 14.82467 24.56613
#
# Velocity S-wave (km/s) = 4.23707 2.78524 3.58541
# Velocity P-wave (km/s) = 6.94743 6.20068 6.58465
#
# Compressibility (1/GPa) = 0.02150819
#
# Stress axis : x y z
#
# Youngs Moduli (GPa) = 39.24798 39.57215 80.20206
#
# Poissons Ratio (x) = 0.41479 0.15614
# Poissons Ratio (y) = 0.41139 0.67580
# Poissons Ratio (z) = 0.07641 0.33344
#
# Static dielectric constant tensor:
#      x y z
#    x 3.573840 0.000000 0.000000 
#    y 0.000000 3.475590 0.000000 
#    z 0.000000 0.000000 3.659580 
# 
# 
# High freq. dielectric constant tensor:
#      x y z
#    x 1.751690 0.000000 0.000000 
#    y 0.000000 1.738550 0.000000 
#    z 0.000000 0.000000 1.758510 
# 
# From -- ./inp_files/36896.got.cif
#   From: 2010.03.12/outbox.cif.g09.slc.cpg/sg51_19_cif.got.tgz:36896.got - 2010.04.16 13:43:02.
