data_PCOD8213462
_publ_section_title
;
Structure prediction by ZEFSAII (Michael W. Deem and Ramdas Pophale) SiO2 
 PCOD8213462
Probable space group: P M M A
;
_chemical_formula_sum "Si O2"
_cell_formula_units_Z 48
_cell_length_a 27.911687
_cell_length_b 8.625987
_cell_length_c 10.249187
_cell_angle_alpha 90.000000
_cell_angle_beta 90.000000
_cell_angle_gamma 90.000000
_cell_volume 2467.654212
_symmetry_space_group_name_H-M "P M M A"
_symmetry_group_IT_number 51
_symmetry_cell_setting 'orthorhombic'
loop_
_space_group_symop_operation_xyz
x,y,z
1/2-x,-y,z
1/2+x,-y,-z
-x,y,-z
-x,-y,-z
1/2+x,y,-z
1/2-x,y,z
x,-y,z
loop_
_atom_site_type_symbol
_atom_site_label
_atom_site_fract_x
_atom_site_fract_y
_atom_site_fract_z
Si Si1 0.693931 0.822395 0.495430
Si Si2 0.451025 0.818913 0.642910
Si Si3 0.694716 0.681872 0.996194
Si Si4 0.551194 0.681225 0.636359
Si Si5 0.641336 0.320360 0.258610
Si Si6 0.360381 0.819578 0.243954
O O1 0.750000 0.794932 0.503167
O O2 0.672653 0.711371 0.386137
O O3 0.672940 0.773748 0.634733
O O4 0.680921 0.000000 0.460997
O O5 0.498628 0.728096 0.687005
O O6 0.435819 0.772643 0.496176
O O7 0.408068 0.775915 0.740376
O O8 0.461790 0.000000 0.648707
O O9 0.750000 0.733334 0.996831
O O10 0.689494 0.500000 0.969817
O O11 0.666894 0.775060 0.886503
O O12 0.672052 0.730554 0.133975
O O13 0.552493 0.500000 0.606157
O O14 0.589739 0.725941 0.746412
O O15 0.627913 0.500000 0.254051
O O16 0.372545 0.000000 0.241658
#
# Coordination Sequence:
#
# PCOD8213462 Si02
#       6
#     8   8   8   8   8   8
#     4  10  21  36  56  84 117 151 193 247 300 353
#     4  11  21  36  59  89 123 157 194 243 298 355
#     4  10  23  42  61  84 119 162 204 246 297 356
#     4  11  21  36  60  90 121 156 196 242 296 355
#     4  11  22  38  60  87 118 157 202 248 297 353
#     4  11  22  38  60  88 120 157 199 246 298 354
#
# _framework density 19.451671999999999
#
# number of rings (size 3 to 8) (size 9 to 14) (size 15 to 20)
#    0.000    1.333    1.667    6.000    0.000    4.000 
#    0.000    0.833    0.000    5.000    0.000    0.000 
#    0.000    0.000    0.000    0.000    0.000    0.000 
#
# Total GULP energy -595498.176306 kJ/mol
# GULP energy per Si atom -12406.212006 kJ/mol
# Density = 1.940740 g / cm^3
# Si number density = 19.451672 Si / 1000 Ang^3
#
#
#
# Elastic Constant Matrix: (Units=GPa)
#
#
# Indices 1 2 3 4 5 6 
#
# 1 171.7830 35.5379 59.2780 0.0000 0.0000 0.0000
# 2 35.5379 78.9749 28.0131 0.0000 0.0000 0.0000
# 3 59.2780 28.0131 90.8436 0.0000 0.0000 0.0000
# 4 0.0000 0.0000 0.0000 28.4661 0.0000 0.0000
# 5 0.0000 0.0000 0.0000 0.0000 35.9789 0.0000
# 6 0.0000 0.0000 0.0000 0.0000 0.0000 34.5936
#
#
#
# Elastic Compliance Matrix: (Units=1/GPa)
#
#
# Indices 1 2 3 4 5 6 
#
# 1 0.007760 -0.001904 -0.004476 0.000000 0.000000 0.000000
# 2 -0.001904 0.014685 -0.003286 0.000000 0.000000 0.000000
# 3 -0.004476 -0.003286 0.014942 0.000000 0.000000 0.000000
# 4 0.000000 0.000000 0.000000 0.035129 0.000000 0.000000
# 5 0.000000 0.000000 0.000000 0.000000 0.027794 0.000000
# 6 0.000000 0.000000 0.000000 0.000000 0.000000 0.028907
#
#
# Mechanical properties :
#
#
# Convention : Reuss Voigt Hill
#
# Bulk Modulus (GPa) = 55.38901 65.25105 60.32003
# Shear Modulus (GPa) = 32.34830 34.39257 33.37044
#
# Velocity S-wave (km/s) = 4.08242 4.20944 4.14642
# Velocity P-wave (km/s) = 7.12451 7.56597 7.34856
#
# Compressibility (1/GPa) = 0.01805412
#
# Stress axis : x y z
#
# Youngs Moduli (GPa) = 128.86775 68.09881 66.92488
#
# Poissons Ratio (x) = 0.12966 0.29958
# Poissons Ratio (y) = 0.24537 0.21990
# Poissons Ratio (z) = 0.57686 0.22376
#
# Static dielectric constant tensor:
#      x y z
#    x 3.788380 0.000000 0.000000 
#    y 0.000000 3.570610 0.000000 
#    z 0.000000 0.000000 3.394300 
# 
# 
# High freq. dielectric constant tensor:
#      x y z
#    x 1.777320 0.000000 0.000000 
#    y 0.000000 1.764290 0.000000 
#    z 0.000000 0.000000 1.736100 
# 
# From -- ./inp_files/12725.got.cif
#   From: 2010.03.12/outbox.cif.g09.slc.cpg/sg51_7_cif.got.tgz:12725.got - 2010.04.16 13:43:02.
