data_PCOD8213000
_publ_section_title
;
Structure prediction by ZEFSAII (Michael W. Deem and Ramdas Pophale) SiO2 
 PCOD8213000
Probable space group: P M M A
;
_chemical_formula_sum "Si O2"
_cell_formula_units_Z 48
_cell_length_a 9.474036
_cell_length_b 9.615068
_cell_length_c 30.893848
_cell_angle_alpha 90.000000
_cell_angle_beta 90.000000
_cell_angle_gamma 90.000000
_cell_volume 2814.228754
_symmetry_space_group_name_H-M "P M M A"
_symmetry_group_IT_number 51
_symmetry_cell_setting 'orthorhombic'
loop_
_space_group_symop_operation_xyz
x,y,z
1/2-x,-y,z
1/2+x,-y,-z
-x,y,-z
-x,-y,-z
1/2+x,y,-z
1/2-x,y,z
x,-y,z
loop_
_atom_site_type_symbol
_atom_site_label
_atom_site_fract_x
_atom_site_fract_y
_atom_site_fract_z
Si Si1 0.085376 0.337372 0.703263
Si Si2 0.587041 0.338395 0.787560
Si Si3 0.404923 0.164459 0.462140
Si Si4 0.418081 0.845261 0.133301
Si Si5 0.085263 0.161912 0.365013
Si Si6 0.406700 0.834296 0.038711
O O1 0.250000 0.299248 0.706786
O O2 0.062590 0.500000 0.694226
O O3 0.008231 0.292124 0.747323
O O4 0.014915 0.253365 0.664622
O O5 0.750000 0.300189 0.777381
O O6 0.569998 0.500000 0.797802
O O7 0.528092 0.257536 0.829394
O O8 0.500000 0.231604 0.500000
O O9 0.250000 0.229756 0.467679
O O10 0.461852 0.197956 0.414115
O O11 0.396295 0.000000 0.468010
O O12 0.250000 0.848483 0.131708
O O13 0.470836 0.793254 0.085907
O O14 0.476169 0.000000 0.143373
O O15 0.250000 0.199141 0.357782
O O16 0.059940 0.000000 0.354756
O O17 0.250000 0.772277 0.033173
O O18 0.401362 0.000000 0.035819
O O19 0.500000 0.770483 0.000000
#
# Coordination Sequence:
#
# PCOD8213000 Si02
#       6
#     8   8   8   8   8   8
#     4  10  21  35  49  67  93 124 156 191 233 280
#     4   9  17  30  48  66  83 110 149 186 221 267
#     4   8  14  25  42  66  95 123 150 182 222 268
#     4   8  14  25  42  64  87 110 139 177 218 257
#     4   9  18  32  50  73  98 123 155 194 231 269
#     4   8  13  22  37  57  81 108 137 169 206 250
#
# _framework density 17.056183999999998
#
# number of rings (size 3 to 8) (size 9 to 14) (size 15 to 20)
#    0.000    3.333    0.000    2.500    0.000    2.667 
#    0.000    4.167    0.000    2.000    0.000    0.000 
#    0.000    0.000    0.000    0.000    0.000    0.000 
#
# Total GULP energy -594895.219454 kJ/mol
# GULP energy per Si atom -12393.650405 kJ/mol
# Density = 1.701736 g / cm^3
# Si number density = 17.056184 Si / 1000 Ang^3
#
#
#
# Elastic Constant Matrix: (Units=GPa)
#
#
# Indices 1 2 3 4 5 6 
#
# 1 82.6864 33.3211 79.0604 0.0000 0.0000 0.0000
# 2 33.3211 38.5509 55.5569 0.0000 0.0000 0.0000
# 3 79.0604 55.5569 175.7798 0.0000 0.0000 0.0000
# 4 0.0000 0.0000 0.0000 -0.3998 0.0000 0.0000
# 5 0.0000 0.0000 0.0000 0.0000 31.1330 0.0000
# 6 0.0000 0.0000 0.0000 0.0000 0.0000 17.6679
#
#
#
# Elastic Compliance Matrix: (Units=1/GPa)
#
#
# Indices 1 2 3 4 5 6 
#
# 1 0.022821 -0.009060 -0.007401 0.000000 0.000000 0.000000
# 2 -0.009060 0.051235 -0.012118 0.000000 0.000000 0.000000
# 3 -0.007401 -0.012118 0.012848 0.000000 0.000000 0.000000
# 4 0.000000 0.000000 0.000000 -2.501042 0.000000 0.000000
# 5 0.000000 0.000000 0.000000 0.000000 0.032120 0.000000
# 6 0.000000 0.000000 0.000000 0.000000 0.000000 0.056600
#
#
# Mechanical properties :
#
#
# Convention : Reuss Voigt Hill
#
# Bulk Modulus (GPa) = 33.61840 70.32156 51.96998
# Shear Modulus (GPa) = -2.21401 18.28546 8.03573
#
# Velocity S-wave (km/s) = -1.14056 3.27780 2.17291
# Velocity P-wave (km/s) = 4.24484 7.45950 6.06889
#
# Compressibility (1/GPa) = 0.02974562
#
# Stress axis : x y z
#
# Youngs Moduli (GPa) = 43.81922 19.51807 77.83460
#
# Poissons Ratio (x) = 0.17683 0.57604
# Poissons Ratio (y) = 0.39698 0.94323
# Poissons Ratio (z) = 0.32430 0.23653
#
# Static dielectric constant tensor:
#      x y z
#    x 3.246810 0.000000 0.000000 
#    y 0.000000 2.864460 0.000000 
#    z 0.000000 0.000000 3.492450 
# 
# 
# High freq. dielectric constant tensor:
#      x y z
#    x 1.638550 0.000000 0.000000 
#    y 0.000000 1.616280 0.000000 
#    z 0.000000 0.000000 1.673900 
# 
# From -- ./inp_files/37304.got.cif
#   From: 2010.03.12/outbox.cif.g09.slc.cpg/sg51_19_cif.got.tgz:37304.got - 2010.04.16 13:43:02.
