data_PCOD8213247
_publ_section_title
;
Structure prediction by ZEFSAII (Michael W. Deem and Ramdas Pophale) SiO2 
 PCOD8213247
Probable space group: P M M A
;
_chemical_formula_sum "Si O2"
_cell_formula_units_Z 40
_cell_length_a 9.101043
_cell_length_b 9.680266
_cell_length_c 25.765066
_cell_angle_alpha 90.000000
_cell_angle_beta 90.000000
_cell_angle_gamma 90.000000
_cell_volume 2269.915638
_symmetry_space_group_name_H-M "P M M A"
_symmetry_group_IT_number 51
_symmetry_cell_setting 'orthorhombic'
loop_
_space_group_symop_operation_xyz
x,y,z
1/2-x,-y,z
1/2+x,-y,-z
-x,y,-z
-x,-y,-z
1/2+x,y,-z
1/2-x,y,z
x,-y,z
loop_
_atom_site_type_symbol
_atom_site_label
_atom_site_fract_x
_atom_site_fract_y
_atom_site_fract_z
Si Si1 0.412309 0.164481 0.951492
Si Si2 0.080438 0.659809 0.744817
Si Si3 0.920879 0.661203 0.639555
Si Si4 0.578509 0.159870 0.446642
Si Si5 0.925263 0.154086 0.161467
O O1 0.250000 0.227838 0.955339
O O2 0.483826 0.203259 0.895360
O O3 0.406121 0.000000 0.955538
O O4 0.500000 0.228704 0.000000
O O5 0.250000 0.697265 0.732784
O O6 0.062808 0.500000 0.758657
O O7 0.017819 0.743830 0.793911
O O8 0.982813 0.701741 0.695737
O O9 0.750000 0.700429 0.637090
O O10 0.946940 0.500000 0.628115
O O11 0.009914 0.747743 0.597928
O O12 0.500000 0.200091 0.500000
O O13 0.750000 0.193616 0.452183
O O14 0.551442 0.000000 0.432729
O O15 0.750000 0.153897 0.158771
O O16 0.982763 0.000000 0.174358
#
# Coordination Sequence:
#
# PCOD8213247 Si02
#       5
#     8   8   8   8   8
#     4   8  13  22  37  57  81 109 141 179 223 270
#     4   9  17  30  48  68  90 119 156 196 236 279
#     4  10  21  36  53  74 101 133 167 202 241 286
#     4  10  21  37  57  80 105 133 164 199 241 287
#     4   8  14  25  42  64  88 114 147 187 230 277
#
# _framework density 17.621801000000001
#
# number of rings (size 3 to 8) (size 9 to 14) (size 15 to 20)
#    0.000    3.000    0.000    2.400    0.000    3.600 
#    0.000    3.000    0.000    1.800    0.000    0.000 
#    0.000    0.000    0.000    0.000    0.000    0.000 
#
# Total GULP energy -495847.072071 kJ/mol
# GULP energy per Si atom -12396.176802 kJ/mol
# Density = 1.758169 g / cm^3
# Si number density = 17.621801 Si / 1000 Ang^3
#
#
#
# Elastic Constant Matrix: (Units=GPa)
#
#
# Indices 1 2 3 4 5 6 
#
# 1 83.4179 37.5192 70.0482 0.0000 0.0000 0.0000
# 2 37.5192 57.7417 74.7995 0.0000 0.0000 0.0000
# 3 70.0482 74.7995 176.9538 0.0000 0.0000 0.0000
# 4 0.0000 0.0000 0.0000 -16.8154 0.0000 0.0000
# 5 0.0000 0.0000 0.0000 0.0000 31.8258 0.0000
# 6 0.0000 0.0000 0.0000 0.0000 0.0000 19.0059
#
#
#
# Elastic Compliance Matrix: (Units=1/GPa)
#
#
# Indices 1 2 3 4 5 6 
#
# 1 0.018764 -0.005681 -0.005026 0.000000 0.000000 0.000000
# 2 -0.005681 0.040000 -0.014659 0.000000 0.000000 0.000000
# 3 -0.005026 -0.014659 0.013837 0.000000 0.000000 0.000000
# 4 0.000000 0.000000 0.000000 -0.059469 0.000000 0.000000
# 5 0.000000 0.000000 0.000000 0.000000 0.031421 0.000000
# 6 0.000000 0.000000 0.000000 0.000000 0.000000 0.052615
#
#
# Mechanical properties :
#
#
# Convention : Reuss Voigt Hill
#
# Bulk Modulus (GPa) = 45.72961 75.87191 60.80076
# Shear Modulus (GPa) = 32.21841 15.85302 24.03572
#
# Velocity S-wave (km/s) = 4.28053 3.00263 3.69721
# Velocity P-wave (km/s) = 7.10194 7.42767 7.26663
#
# Compressibility (1/GPa) = 0.02186767
#
# Stress axis : x y z
#
# Youngs Moduli (GPa) = 53.29416 25.00007 72.26756
#
# Poissons Ratio (x) = 0.14203 0.36324
# Poissons Ratio (y) = 0.30277 1.05939
# Poissons Ratio (z) = 0.26787 0.36648
#
# Static dielectric constant tensor:
#      x y z
#    x 3.141380 0.000000 0.000000 
#    y 0.000000 3.100210 0.000000 
#    z 0.000000 0.000000 3.599380 
# 
# 
# High freq. dielectric constant tensor:
#      x y z
#    x 1.663400 0.000000 0.000000 
#    y 0.000000 1.653810 0.000000 
#    z 0.000000 0.000000 1.697350 
# 
# From -- ./inp_files/31348.got.cif
#   From: 2010.03.12/outbox.cif.g09.slc.cpg/sg51_16_cif.got.tgz:31348.got - 2010.04.16 13:43:02.
