data_PCOD8213945
_publ_section_title
;
Structure prediction by ZEFSAII (Michael W. Deem and Ramdas Pophale) SiO2 
 PCOD8213945
Probable space group: P M M A
;
_chemical_formula_sum "Si O2"
_cell_formula_units_Z 64
_cell_length_a 15.819729
_cell_length_b 9.132615
_cell_length_c 21.987065
_cell_angle_alpha 90.000000
_cell_angle_beta 90.000000
_cell_angle_gamma 90.000000
_cell_volume 3176.592085
_symmetry_space_group_name_H-M "P M M A"
_symmetry_group_IT_number 51
_symmetry_cell_setting 'orthorhombic'
loop_
_space_group_symop_operation_xyz
x,y,z
1/2-x,-y,z
1/2+x,-y,-z
-x,y,-z
-x,-y,-z
1/2+x,y,-z
1/2-x,y,z
x,-y,z
loop_
_atom_site_type_symbol
_atom_site_label
_atom_site_fract_x
_atom_site_fract_y
_atom_site_fract_z
Si Si1 0.651376 0.833799 0.762796
Si Si2 0.110414 0.338201 0.120893
Si Si3 0.994292 0.168539 0.571417
Si Si4 0.653551 0.172525 0.348511
Si Si5 0.656228 0.162129 0.992328
Si Si6 0.418624 0.338612 0.899716
Si Si7 0.650914 0.666508 0.226479
Si Si8 0.152854 0.327225 0.361408
O O1 0.750000 0.830865 0.777077
O O2 0.604926 0.751693 0.816997
O O3 0.629317 0.748359 0.701747
O O4 0.617971 0.000000 0.757192
O O5 0.150667 0.500000 0.131733
O O6 0.162369 0.251762 0.070195
O O7 0.017520 0.357313 0.095847
O O8 0.913998 0.265828 0.590374
O O9 0.000000 0.189916 0.500000
O O10 0.083989 0.220112 0.601047
O O11 0.976311 0.000000 0.588968
O O12 0.750000 0.225973 0.365761
O O13 0.622495 0.240617 0.284867
O O14 0.654596 0.000000 0.340572
O O15 0.750000 0.151110 0.018899
O O16 0.619375 0.000000 0.978906
O O17 0.601753 0.235932 0.044297
O O18 0.375546 0.500000 0.906803
O O19 0.391193 0.269161 0.834882
O O20 0.750000 0.677114 0.217359
O O21 0.620507 0.500000 0.237190
O O22 0.250000 0.289257 0.380663
O O23 0.141244 0.500000 0.354673
#
# Coordination Sequence:
#
# PCOD8213945 Si02
#       8
#     8   8   8   8   8   8   8   8
#     4  10  21  38  60  86 116 151 193 240 291 348
#     4  11  23  37  56  84 115 148 187 233 287 347
#     4  10  22  39  61  91 124 161 205 249 299 358
#     4   9  19  36  57  84 119 156 196 244 296 352
#     4  11  24  40  57  78 106 144 191 239 287 341
#     4  10  22  38  56  81 111 143 183 232 287 345
#     4   9  18  34  56  81 109 144 185 230 284 344
#     4  10  22  40  62  89 123 162 205 254 305 357
#
# _framework density 20.147379000000001
#
# number of rings (size 3 to 8) (size 9 to 14) (size 15 to 20)
#    0.000    2.000    0.000    2.625    1.750    8.750 
#    0.000    2.500    0.000    1.500    0.000    0.000 
#    0.000    0.000    0.000    0.000    0.000    0.000 
#
# Total GULP energy -793532.601745 kJ/mol
# GULP energy per Si atom -12398.946902 kJ/mol
# Density = 2.010152 g / cm^3
# Si number density = 20.147379 Si / 1000 Ang^3
#
#
#
# Elastic Constant Matrix: (Units=GPa)
#
#
# Indices 1 2 3 4 5 6 
#
# 1 73.2345 42.5169 42.2263 0.0000 0.0000 0.0000
# 2 42.5169 115.7652 56.6106 0.0000 0.0000 0.0000
# 3 42.2263 56.6106 112.7595 0.0000 0.0000 0.0000
# 4 0.0000 0.0000 0.0000 153.0162 0.0000 0.0000
# 5 0.0000 0.0000 0.0000 0.0000 34.4996 0.0000
# 6 0.0000 0.0000 0.0000 0.0000 0.0000 24.3210
#
#
#
# Elastic Compliance Matrix: (Units=1/GPa)
#
#
# Indices 1 2 3 4 5 6 
#
# 1 0.019150 -0.004674 -0.004825 0.000000 0.000000 0.000000
# 2 -0.004674 0.012590 -0.004570 0.000000 0.000000 0.000000
# 3 -0.004825 -0.004570 0.012970 0.000000 0.000000 0.000000
# 4 0.000000 0.000000 0.000000 0.006535 0.000000 0.000000
# 5 0.000000 0.000000 0.000000 0.000000 0.028986 0.000000
# 6 0.000000 0.000000 0.000000 0.000000 0.000000 0.041117
#
#
# Mechanical properties :
#
#
# Convention : Reuss Voigt Hill
#
# Bulk Modulus (GPa) = 60.34455 64.94075 62.64265
# Shear Modulus (GPa) = 32.25611 53.06107 42.65859
#
# Velocity S-wave (km/s) = 4.00560 5.13747 4.60643
# Velocity P-wave (km/s) = 7.17006 8.21549 7.71051
#
# Compressibility (1/GPa) = 0.01657151
#
# Stress axis : x y z
#
# Youngs Moduli (GPa) = 52.21887 79.43018 77.10224
#
# Poissons Ratio (x) = 0.37124 0.37201
# Poissons Ratio (y) = 0.24406 0.35238
# Poissons Ratio (z) = 0.25195 0.36302
#
# Static dielectric constant tensor:
#      x y z
#    x 3.678060 0.000000 0.000000 
#    y 0.000000 3.907140 0.000000 
#    z 0.000000 0.000000 3.579350 
# 
# 
# High freq. dielectric constant tensor:
#      x y z
#    x 1.789610 0.000000 0.000000 
#    y 0.000000 1.787980 0.000000 
#    z 0.000000 0.000000 1.783520 
# 
# From -- ./inp_files/35781.got.cif
#   From: 2010.03.12/outbox.cif.g09.slc.cpg/sg51_18_cif.got.tgz:35781.got - 2010.04.16 13:43:02.
