data_PCOD8213784
_publ_section_title
;
Structure prediction by ZEFSAII (Michael W. Deem and Ramdas Pophale) SiO2 
 PCOD8213784
Probable space group: P M M A
;
_chemical_formula_sum "Si O2"
_cell_formula_units_Z 44
_cell_length_a 9.160188
_cell_length_b 16.593328
_cell_length_c 15.569342
_cell_angle_alpha 90.000000
_cell_angle_beta 90.000000
_cell_angle_gamma 90.000000
_cell_volume 2366.508908
_symmetry_space_group_name_H-M "P M M A"
_symmetry_group_IT_number 51
_symmetry_cell_setting 'orthorhombic'
loop_
_space_group_symop_operation_xyz
x,y,z
1/2-x,-y,z
1/2+x,-y,-z
-x,y,-z
-x,-y,-z
1/2+x,y,-z
1/2-x,y,z
x,-y,z
loop_
_atom_site_type_symbol
_atom_site_label
_atom_site_fract_x
_atom_site_fract_y
_atom_site_fract_z
Si Si1 0.580531 0.807893 0.771799
Si Si2 0.919697 0.500000 0.087815
Si Si3 0.088924 0.626404 0.187248
Si Si4 0.413794 0.413890 0.382280
Si Si5 0.575611 0.239128 0.583076
Si Si6 0.917991 0.095202 0.085712
O O1 0.750000 0.832135 0.778648
O O2 0.551676 0.720477 0.811482
O O3 0.532371 0.807659 0.670865
O O4 0.486119 0.870271 0.826586
O O5 0.750000 0.500000 0.073451
O O6 0.963831 0.581852 0.135291
O O7 0.000000 0.500000 0.000000
O O8 0.250000 0.613026 0.145873
O O9 0.090431 0.588627 0.280553
O O10 0.250000 0.415282 0.418568
O O11 0.490809 0.500000 0.409447
O O12 0.488899 0.331401 0.415272
O O13 0.500000 0.196934 0.500000
O O14 0.750000 0.239342 0.574468
O O15 0.750000 0.122112 0.078830
O O16 0.934254 0.000000 0.092260
O O17 0.000000 0.127275 0.000000
#
# Coordination Sequence:
#
# PCOD8213784 Si02
#       6
#     8   4   8   8   8   8
#     4   9  19  35  57  82 107 142 182 219 266 320
#     4  12  24  34  46  66  93 128 171 218 267 314
#     4   9  17  33  53  69  91 129 174 216 260 310
#     4   8  13  25  48  68  88 126 170 212 261 312
#     4   9  18  31  48  74 105 140 181 221 266 317
#     4  10  21  37  59  87 116 143 170 208 262 321
#
# _framework density 18.592790000000001
#
# number of rings (size 3 to 8) (size 9 to 14) (size 15 to 20)
#    0.000    2.727    0.909    3.545    0.000    3.636 
#    0.000    2.727    0.000    0.545    0.000    0.000 
#    0.000    0.000    0.000    0.000    0.000    0.000 
#
# Total GULP energy -545112.938014 kJ/mol
# GULP energy per Si atom -12388.930409 kJ/mol
# Density = 1.855047 g / cm^3
# Si number density = 18.592790 Si / 1000 Ang^3
#
#
#
# Elastic Constant Matrix: (Units=GPa)
#
#
# Indices 1 2 3 4 5 6 
#
# 1 97.7198 30.3516 63.6377 0.0000 0.0000 0.0000
# 2 30.3516 38.2295 35.5610 0.0000 0.0000 0.0000
# 3 63.6377 35.5610 129.0017 0.0000 0.0000 0.0000
# 4 0.0000 0.0000 0.0000 16.1311 0.0000 0.0000
# 5 0.0000 0.0000 0.0000 0.0000 33.9710 0.0000
# 6 0.0000 0.0000 0.0000 0.0000 0.0000 19.3422
#
#
#
# Elastic Compliance Matrix: (Units=1/GPa)
#
#
# Indices 1 2 3 4 5 6 
#
# 1 0.016514 -0.007441 -0.006095 0.000000 0.000000 0.000000
# 2 -0.007441 0.038531 -0.006951 0.000000 0.000000 0.000000
# 3 -0.006095 -0.006951 0.012675 0.000000 0.000000 0.000000
# 4 0.000000 0.000000 0.000000 0.061992 0.000000 0.000000
# 5 0.000000 0.000000 0.000000 0.000000 0.029437 0.000000
# 6 0.000000 0.000000 0.000000 0.000000 0.000000 0.051701
#
#
# Mechanical properties :
#
#
# Convention : Reuss Voigt Hill
#
# Bulk Modulus (GPa) = 37.38948 58.22796 47.80872
# Shear Modulus (GPa) = 19.17624 22.91555 21.04590
#
# Velocity S-wave (km/s) = 3.21500 3.51450 3.36808
# Velocity P-wave (km/s) = 5.82537 6.91769 6.39489
#
# Compressibility (1/GPa) = 0.02674549
#
# Stress axis : x y z
#
# Youngs Moduli (GPa) = 60.55487 25.95291 78.89694
#
# Poissons Ratio (x) = 0.19312 0.48089
# Poissons Ratio (y) = 0.45060 0.54840
# Poissons Ratio (z) = 0.36910 0.18039
#
# Static dielectric constant tensor:
#      x y z
#    x 3.230510 0.000000 0.000000 
#    y 0.000000 3.272830 0.000000 
#    z 0.000000 0.000000 3.188060 
# 
# 
# High freq. dielectric constant tensor:
#      x y z
#    x 1.699720 0.000000 0.000000 
#    y 0.000000 1.701200 0.000000 
#    z 0.000000 0.000000 1.725600 
# 
# From -- ./inp_files/20908.got.cif
#   From: 2010.03.12/outbox.cif.g09.slc.cpg/sg51_11_cif.got.tgz:20908.got - 2010.04.16 13:43:02.
