data_PCOD8213747
_publ_section_title
;
Structure prediction by ZEFSAII (Michael W. Deem and Ramdas Pophale) SiO2 
 PCOD8213747
Probable space group: P M M A
;
_chemical_formula_sum "Si O2"
_cell_formula_units_Z 48
_cell_length_a 15.317106
_cell_length_b 8.980301
_cell_length_c 16.946374
_cell_angle_alpha 90.000000
_cell_angle_beta 90.000000
_cell_angle_gamma 90.000000
_cell_volume 2331.011404
_symmetry_space_group_name_H-M "P M M A"
_symmetry_group_IT_number 51
_symmetry_cell_setting 'orthorhombic'
loop_
_space_group_symop_operation_xyz
x,y,z
1/2-x,-y,z
1/2+x,-y,-z
-x,y,-z
-x,-y,-z
1/2+x,y,-z
1/2-x,y,z
x,-y,z
loop_
_atom_site_type_symbol
_atom_site_label
_atom_site_fract_x
_atom_site_fract_y
_atom_site_fract_z
Si Si1 0.598143 0.824613 0.197367
Si Si2 0.880313 0.664274 0.657377
Si Si3 0.750000 0.323721 0.100378
Si Si4 0.396861 0.828284 0.188609
Si Si5 0.750000 0.828704 0.936607
Si Si6 0.847814 0.165881 0.500500
Si Si7 0.415408 0.665097 0.645145
O O1 0.662129 0.743797 0.137007
O O2 0.498300 0.784104 0.173313
O O3 0.622737 0.767978 0.285298
O O4 0.615135 0.000000 0.194191
O O5 0.838235 0.500000 0.650727
O O6 0.853123 0.736663 0.740302
O O7 0.845647 0.765007 0.587044
O O8 0.982979 0.651471 0.656103
O O9 0.750000 0.500000 0.112445
O O10 0.750000 0.284637 0.008507
O O11 0.338548 0.796413 0.111981
O O12 0.392394 0.000000 0.213606
O O13 0.750000 0.000000 0.965886
O O14 0.750000 0.159381 0.467378
O O15 0.903028 0.264574 0.440668
O O16 0.888320 0.000000 0.504824
O O17 0.372400 0.500000 0.648513
#
# Coordination Sequence:
#
# PCOD8213747 Si02
#       7
#     8   8   4   8   4   8   8
#     4  10  21  40  65  91 121 160 203 246 296 358
#     4  10  21  37  58  84 116 153 195 243 297 352
#     4  12  26  42  62  91 124 159 198 246 304 359
#     4   9  20  39  65  93 122 159 201 245 296 356
#     4  10  22  42  66  93 124 157 196 242 296 361
#     4  11  24  37  52  79 115 156 202 247 291 344
#     4  10  21  38  59  84 115 152 194 244 299 353
#
# _framework density 20.591919999999998
#
# number of rings (size 3 to 8) (size 9 to 14) (size 15 to 20)
#    0.000    1.833    0.000    3.250    2.333    7.333 
#    0.000    3.333    0.000    0.000    0.000    0.000 
#    0.000    0.000    0.000    0.000    0.000    0.000 
#
# Total GULP energy -595244.805028 kJ/mol
# GULP energy per Si atom -12400.933438 kJ/mol
# Density = 2.054505 g / cm^3
# Si number density = 20.591920 Si / 1000 Ang^3
#
#
#
# Elastic Constant Matrix: (Units=GPa)
#
#
# Indices 1 2 3 4 5 6 
#
# 1 74.3769 44.0774 46.4472 0.0000 0.0000 0.0000
# 2 44.0774 152.6684 63.5382 0.0000 0.0000 0.0000
# 3 46.4472 63.5382 120.0789 0.0000 0.0000 0.0000
# 4 0.0000 0.0000 0.0000 26.6441 0.0000 0.0000
# 5 0.0000 0.0000 0.0000 0.0000 27.3577 0.0000
# 6 0.0000 0.0000 0.0000 0.0000 0.0000 16.8943
#
#
#
# Elastic Compliance Matrix: (Units=1/GPa)
#
#
# Indices 1 2 3 4 5 6 
#
# 1 0.018791 -0.003078 -0.005640 0.000000 0.000000 0.000000
# 2 -0.003078 0.008904 -0.003521 0.000000 0.000000 0.000000
# 3 -0.005640 -0.003521 0.012372 0.000000 0.000000 0.000000
# 4 0.000000 0.000000 0.000000 0.037532 0.000000 0.000000
# 5 0.000000 0.000000 0.000000 0.000000 0.036553 0.000000
# 6 0.000000 0.000000 0.000000 0.000000 0.000000 0.059192
#
#
# Mechanical properties :
#
#
# Convention : Reuss Voigt Hill
#
# Bulk Modulus (GPa) = 64.14301 72.80553 68.47427
# Shear Modulus (GPa) = 24.62833 27.04997 25.83915
#
# Velocity S-wave (km/s) = 3.46210 3.62832 3.54619
# Velocity P-wave (km/s) = 6.87014 7.27915 7.07760
#
# Compressibility (1/GPa) = 0.01559016
#
# Stress axis : x y z
#
# Youngs Moduli (GPa) = 53.21661 112.30702 80.82496
#
# Poissons Ratio (x) = 0.34569 0.45584
# Poissons Ratio (y) = 0.16380 0.28458
# Poissons Ratio (z) = 0.30013 0.39542
#
# Static dielectric constant tensor:
#      x y z
#    x 3.788290 0.000000 0.000000 
#    y 0.000000 4.087260 0.000000 
#    z 0.000000 0.000000 3.642470 
# 
# 
# High freq. dielectric constant tensor:
#      x y z
#    x 1.810410 0.000000 0.000000 
#    y 0.000000 1.815400 0.000000 
#    z 0.000000 0.000000 1.799360 
# 
# From -- ./inp_files/24960.got.cif
#   From: 2010.03.12/outbox.cif.g09.slc.cpg/sg51_13_cif.got.tgz:24960.got - 2010.04.16 13:43:02.
