data_PCOD8213189
_publ_section_title
;
Structure prediction by ZEFSAII (Michael W. Deem and Ramdas Pophale) SiO2 
 PCOD8213189
Probable space group: P M M A
;
_chemical_formula_sum "Si O2"
_cell_formula_units_Z 36
_cell_length_a 8.784067
_cell_length_b 23.092227
_cell_length_c 9.595691
_cell_angle_alpha 90.000000
_cell_angle_beta 90.000000
_cell_angle_gamma 90.000000
_cell_volume 1946.425170
_symmetry_space_group_name_H-M "P M M A"
_symmetry_group_IT_number 51
_symmetry_cell_setting 'orthorhombic'
loop_
_space_group_symop_operation_xyz
x,y,z
1/2-x,-y,z
1/2+x,-y,-z
-x,y,-z
-x,-y,-z
1/2+x,y,-z
1/2-x,y,z
x,-y,z
loop_
_atom_site_type_symbol
_atom_site_label
_atom_site_fract_x
_atom_site_fract_y
_atom_site_fract_z
Si Si1 0.427549 0.397904 0.150975
Si Si2 0.073874 0.932490 0.354205
Si Si3 0.930629 0.500000 0.652557
Si Si4 0.430119 0.157076 0.846949
Si Si5 0.571902 0.270356 0.849057
O O1 0.250000 0.407107 0.126705
O O2 0.490160 0.443819 0.262976
O O3 0.459830 0.333813 0.216713
O O4 0.500000 0.407861 0.000000
O O5 0.250000 0.914711 0.356419
O O6 0.000000 0.914879 0.500000
O O7 0.985843 0.898851 0.234646
O O8 0.051852 0.000000 0.322817
O O9 0.750000 0.500000 0.638213
O O10 0.000000 0.500000 0.500000
O O11 0.250000 0.157236 0.854868
O O12 0.489207 0.216532 0.770710
O O13 0.500000 0.153632 0.000000
O O14 0.750000 0.256593 0.857906
O O15 0.500000 0.273460 0.000000
#
# Coordination Sequence:
#
# PCOD8213189 Si02
#       5
#     8   8   4   8   8
#     4   9  18  32  53  77 101 130 169 213 254 303
#     4  10  21  38  58  79 105 138 175 215 259 309
#     4  10  21  36  50  72 104 136 169 208 256 304
#     4  11  21  34  54  80 109 140 174 215 261 308
#     4   9  16  29  49  74 103 133 166 210 259 305
#
# _framework density 18.495446000000001
#
# number of rings (size 3 to 8) (size 9 to 14) (size 15 to 20)
#    0.000    2.222    0.000    5.000    0.000    3.556 
#    0.000    1.111    0.000    2.667    0.000    0.000 
#    0.000    0.000    0.000    0.000    0.000    0.000 
#
# Total GULP energy -446204.472736 kJ/mol
# GULP energy per Si atom -12394.568687 kJ/mol
# Density = 1.845335 g / cm^3
# Si number density = 18.495446 Si / 1000 Ang^3
#
#
#
# Elastic Constant Matrix: (Units=GPa)
#
#
# Indices 1 2 3 4 5 6 
#
# 1 126.5120 65.2646 47.5326 0.0000 0.0000 0.0000
# 2 65.2646 126.6914 66.2352 0.0000 0.0000 0.0000
# 3 47.5326 66.2352 89.7387 0.0000 0.0000 0.0000
# 4 0.0000 0.0000 0.0000 8.5971 0.0000 0.0000
# 5 0.0000 0.0000 0.0000 0.0000 29.7248 0.0000
# 6 0.0000 0.0000 0.0000 0.0000 0.0000 24.3254
#
#
#
# Elastic Compliance Matrix: (Units=1/GPa)
#
#
# Indices 1 2 3 4 5 6 
#
# 1 0.011157 -0.004328 -0.002715 0.000000 0.000000 0.000000
# 2 -0.004328 0.014532 -0.008433 0.000000 0.000000 0.000000
# 3 -0.002715 -0.008433 0.018806 0.000000 0.000000 0.000000
# 4 0.000000 0.000000 0.000000 0.116318 0.000000 0.000000
# 5 0.000000 0.000000 0.000000 0.000000 0.033642 0.000000
# 6 0.000000 0.000000 0.000000 0.000000 0.000000 0.041109
#
#
# Mechanical properties :
#
#
# Convention : Reuss Voigt Hill
#
# Bulk Modulus (GPa) = 73.84410 77.88965 75.86688
# Shear Modulus (GPa) = 18.44802 23.45678 20.95240
#
# Velocity S-wave (km/s) = 3.16165 3.56511 3.36942
# Velocity P-wave (km/s) = 7.30344 7.69097 7.49971
#
# Compressibility (1/GPa) = 0.01354204
#
# Stress axis : x y z
#
# Youngs Moduli (GPa) = 89.62731 68.81486 53.17408
#
# Poissons Ratio (x) = 0.29784 0.14438
# Poissons Ratio (y) = 0.38791 0.44843
# Poissons Ratio (z) = 0.24336 0.58033
#
# Static dielectric constant tensor:
#      x y z
#    x 3.485320 0.000000 0.000000 
#    y 0.000000 4.405110 0.000000 
#    z 0.000000 0.000000 3.086050 
# 
# 
# High freq. dielectric constant tensor:
#      x y z
#    x 1.728540 0.000000 0.000000 
#    y 0.000000 1.742040 0.000000 
#    z 0.000000 0.000000 1.678620 
# 
# From -- ./inp_files/5195.got.cif
#   From: 2010.03.12/outbox.cif.g09.slc.cpg/sg51_3_cif.got.tgz:5195.got - 2010.04.16 13:43:02.
