data_PCOD8213832
_publ_section_title
;
Structure prediction by ZEFSAII (Michael W. Deem and Ramdas Pophale) SiO2 
 PCOD8213832
Probable space group: P M M A
;
_chemical_formula_sum "Si O2"
_cell_formula_units_Z 64
_cell_length_a 18.661143
_cell_length_b 19.763363
_cell_length_c 9.494992
_cell_angle_alpha 90.000000
_cell_angle_beta 90.000000
_cell_angle_gamma 90.000000
_cell_volume 3501.818974
_symmetry_space_group_name_H-M "P M M A"
_symmetry_group_IT_number 51
_symmetry_cell_setting 'orthorhombic'
loop_
_space_group_symop_operation_xyz
x,y,z
1/2-x,-y,z
1/2+x,-y,-z
-x,y,-z
-x,-y,-z
1/2+x,y,-z
1/2-x,y,z
x,-y,z
loop_
_atom_site_type_symbol
_atom_site_label
_atom_site_fract_x
_atom_site_fract_y
_atom_site_fract_z
Si Si1 0.929881 0.823052 0.905487
Si Si2 0.831294 0.680705 0.568371
Si Si3 0.665850 0.076981 0.073598
Si Si4 0.831814 0.855844 0.356709
Si Si5 0.329522 0.702918 0.739374
Si Si6 0.928463 0.808501 0.586602
Si Si7 0.416847 0.324756 0.003567
Si Si8 0.333199 0.423117 0.198054
O O1 0.946814 0.838519 0.741075
O O2 0.900203 0.746663 0.920842
O O3 0.870828 0.875596 0.958293
O O4 0.000000 0.832840 0.000000
O O5 0.750000 0.706555 0.597726
O O6 0.839527 0.661109 0.404616
O O7 0.885120 0.739685 0.612842
O O8 0.848841 0.612916 0.653533
O O9 0.750000 0.089926 0.059329
O O10 0.642107 0.093286 0.234282
O O11 0.644400 0.000000 0.040714
O O12 0.750000 0.870672 0.401521
O O13 0.841096 0.781403 0.293723
O O14 0.881149 0.862348 0.496295
O O15 0.250000 0.691510 0.803454
O O16 0.390085 0.677797 0.843854
O O17 0.000000 0.791940 0.500000
O O18 0.376743 0.385949 0.077125
O O19 0.500000 0.341575 0.000000
O O20 0.250000 0.419652 0.157690
O O21 0.360038 0.500000 0.210251
#
# Coordination Sequence:
#
# PCOD8213832 Si02
#       8
#     8   8   8   8   8   8   8   8
#     4  11  23  37  55  86 117 153 191 236 288 339
#     4   9  19  34  54  80 106 141 182 230 284 332
#     4  10  21  38  61  86 117 156 191 231 285 343
#     4   9  18  34  54  80 110 142 183 231 283 334
#     4   9  17  32  55  80 107 138 181 232 279 326
#     4  11  21  33  57  83 112 145 185 242 281 333
#     4  11  22  34  55  84 113 149 188 235 281 332
#     4  10  21  38  57  80 113 150 187 230 287 345
#
# _framework density 18.276215000000001
#
# number of rings (size 3 to 8) (size 9 to 14) (size 15 to 20)
#    0.000    2.000    2.500    2.250    5.250    2.000 
#    0.000    1.250    0.000    7.875    0.000    0.000 
#    0.000    0.000    0.000    0.000    0.000    0.000 
#
# Total GULP energy -793593.244453 kJ/mol
# GULP energy per Si atom -12399.894445 kJ/mol
# Density = 1.823462 g / cm^3
# Si number density = 18.276215 Si / 1000 Ang^3
#
#
#
# Elastic Constant Matrix: (Units=GPa)
#
#
# Indices 1 2 3 4 5 6 
#
# 1 82.7290 32.0725 55.1625 0.0000 0.0000 0.0000
# 2 32.0725 82.1614 37.0931 0.0000 0.0000 0.0000
# 3 55.1625 37.0931 131.4581 0.0000 0.0000 0.0000
# 4 0.0000 0.0000 0.0000 23.6546 0.0000 0.0000
# 5 0.0000 0.0000 0.0000 0.0000 32.5244 0.0000
# 6 0.0000 0.0000 0.0000 0.0000 0.0000 12.1076
#
#
#
# Elastic Compliance Matrix: (Units=1/GPa)
#
#
# Indices 1 2 3 4 5 6 
#
# 1 0.017927 -0.004128 -0.006358 0.000000 0.000000 0.000000
# 2 -0.004128 0.014898 -0.002472 0.000000 0.000000 0.000000
# 3 -0.006358 -0.002472 0.010972 0.000000 0.000000 0.000000
# 4 0.000000 0.000000 0.000000 0.042275 0.000000 0.000000
# 5 0.000000 0.000000 0.000000 0.000000 0.030746 0.000000
# 6 0.000000 0.000000 0.000000 0.000000 0.000000 0.082593
#
#
# Mechanical properties :
#
#
# Convention : Reuss Voigt Hill
#
# Bulk Modulus (GPa) = 55.91841 60.55608 58.23724
# Shear Modulus (GPa) = 21.61808 25.12534 23.37171
#
# Velocity S-wave (km/s) = 3.44299 3.71179 3.57992
# Velocity P-wave (km/s) = 6.81677 7.18162 7.00157
#
# Compressibility (1/GPa) = 0.01788320
#
# Stress axis : x y z
#
# Youngs Moduli (GPa) = 55.78095 67.12144 91.13811
#
# Poissons Ratio (x) = 0.27706 0.57945
# Poissons Ratio (y) = 0.23025 0.22527
# Poissons Ratio (z) = 0.35465 0.16591
#
# Static dielectric constant tensor:
#      x y z
#    x 3.424810 0.000000 0.000000 
#    y 0.000000 3.182130 0.000000 
#    z 0.000000 0.000000 3.550330 
# 
# 
# High freq. dielectric constant tensor:
#      x y z
#    x 1.712600 0.000000 0.000000 
#    y 0.000000 1.675510 0.000000 
#    z 0.000000 0.000000 1.716210 
# 
# From -- ./inp_files/11258.got.cif
#   From: 2010.03.12/outbox.cif.g09.slc.cpg/sg51_6_cif.got.tgz:11258.got - 2010.04.16 13:43:02.
