data_PCOD8213288
_publ_section_title
;
Structure prediction by ZEFSAII (Michael W. Deem and Ramdas Pophale) SiO2 
 PCOD8213288
Probable space group: P M M A
;
_chemical_formula_sum "Si O2"
_cell_formula_units_Z 48
_cell_length_a 9.298858
_cell_length_b 9.198579
_cell_length_c 30.764654
_cell_angle_alpha 90.000000
_cell_angle_beta 90.000000
_cell_angle_gamma 90.000000
_cell_volume 2631.494056
_symmetry_space_group_name_H-M "P M M A"
_symmetry_group_IT_number 51
_symmetry_cell_setting 'orthorhombic'
loop_
_space_group_symop_operation_xyz
x,y,z
1/2-x,-y,z
1/2+x,-y,-z
-x,y,-z
-x,-y,-z
1/2+x,y,-z
1/2-x,y,z
x,-y,z
loop_
_atom_site_type_symbol
_atom_site_label
_atom_site_fract_x
_atom_site_fract_y
_atom_site_fract_z
Si Si1 0.915005 0.170785 0.789942
Si Si2 0.091619 0.327608 0.960785
Si Si3 0.918405 0.830840 0.295908
Si Si4 0.083686 0.329913 0.864033
Si Si5 0.915587 0.671316 0.629041
Si Si6 0.917155 0.166582 0.542331
O O1 0.750000 0.219428 0.783977
O O2 0.003756 0.221813 0.747904
O O3 0.980355 0.244805 0.832102
O O4 0.928654 0.000000 0.796575
O O5 0.250000 0.261181 0.965510
O O6 0.098034 0.500000 0.965652
O O7 0.031419 0.289157 0.912889
O O8 0.000000 0.257897 0.000000
O O9 0.750000 0.798847 0.291069
O O10 0.981524 0.738015 0.334966
O O11 0.949330 0.000000 0.305024
O O12 0.250000 0.284132 0.857313
O O13 0.065765 0.500000 0.855244
O O14 0.750000 0.713659 0.639028
O O15 0.937435 0.500000 0.627825
O O16 0.964484 0.735699 0.582896
O O17 0.750000 0.183643 0.532332
O O18 0.000000 0.223882 0.500000
O O19 0.958529 0.000000 0.552804
#
# Coordination Sequence:
#
# PCOD8213288 Si02
#       6
#     8   8   8   8   8   8
#     4  10  21  36  54  76 101 131 168 209 253 302
#     4   8  14  25  42  66  96 128 162 201 245 293
#     4  10  21  37  57  78  99 129 170 211 252 302
#     4   9  18  32  50  74 103 133 166 206 252 301
#     4  10  21  36  54  78 108 140 172 208 254 304
#     4   9  18  33  53  76 103 137 176 215 252 293
#
# _framework density 18.240587999999999
#
# number of rings (size 3 to 8) (size 9 to 14) (size 15 to 20)
#    0.000    2.667    0.000    2.500    0.000    5.667 
#    0.000    3.333    0.000    0.500    0.000    0.000 
#    0.000    0.000    0.000    0.000    0.000    0.000 
#
# Total GULP energy -595186.323815 kJ/mol
# GULP energy per Si atom -12399.715079 kJ/mol
# Density = 1.819907 g / cm^3
# Si number density = 18.240588 Si / 1000 Ang^3
#
#
#
# Elastic Constant Matrix: (Units=GPa)
#
#
# Indices 1 2 3 4 5 6 
#
# 1 108.5038 43.9734 91.6444 0.0000 0.0000 0.0000
# 2 43.9734 46.1278 55.6512 0.0000 0.0000 0.0000
# 3 91.6444 55.6512 172.7297 0.0000 0.0000 0.0000
# 4 0.0000 0.0000 0.0000 30.3274 0.0000 0.0000
# 5 0.0000 0.0000 0.0000 0.0000 42.8067 0.0000
# 6 0.0000 0.0000 0.0000 0.0000 0.0000 25.5528
#
#
#
# Elastic Compliance Matrix: (Units=1/GPa)
#
#
# Indices 1 2 3 4 5 6 
#
# 1 0.019055 -0.009763 -0.006965 0.000000 0.000000 0.000000
# 2 -0.009763 0.040466 -0.007858 0.000000 0.000000 0.000000
# 3 -0.006965 -0.007858 0.012016 0.000000 0.000000 0.000000
# 4 0.000000 0.000000 0.000000 0.032973 0.000000 0.000000
# 5 0.000000 0.000000 0.000000 0.000000 0.023361 0.000000
# 6 0.000000 0.000000 0.000000 0.000000 0.000000 0.039135
#
#
# Mechanical properties :
#
#
# Convention : Reuss Voigt Hill
#
# Bulk Modulus (GPa) = 44.70877 78.87769 61.79323
# Shear Modulus (GPa) = 22.35814 28.81022 25.58418
#
# Velocity S-wave (km/s) = 3.50485 3.97855 3.74919
# Velocity P-wave (km/s) = 6.39863 8.02758 7.25894
#
# Compressibility (1/GPa) = 0.02236698
#
# Stress axis : x y z
#
# Youngs Moduli (GPa) = 52.47878 24.71226 83.22062
#
# Poissons Ratio (x) = 0.24126 0.57960
# Poissons Ratio (y) = 0.51234 0.65393
# Poissons Ratio (z) = 0.36550 0.19418
#
# Static dielectric constant tensor:
#      x y z
#    x 3.568550 0.000000 0.000000 
#    y 0.000000 3.111320 0.000000 
#    z 0.000000 0.000000 3.533680 
# 
# 
# High freq. dielectric constant tensor:
#      x y z
#    x 1.707760 0.000000 0.000000 
#    y 0.000000 1.681220 0.000000 
#    z 0.000000 0.000000 1.720910 
# 
# From -- ./inp_files/36907.got.cif
#   From: 2010.03.12/outbox.cif.g09.slc.cpg/sg51_19_cif.got.tgz:36907.got - 2010.04.16 13:43:02.
