data_PCOD8213048
_publ_section_title
;
Structure prediction by ZEFSAII (Michael W. Deem and Ramdas Pophale) SiO2 
 PCOD8213048
Probable space group: P M M A
;
_chemical_formula_sum "Si O2"
_cell_formula_units_Z 44
_cell_length_a 9.586345
_cell_length_b 28.377922
_cell_length_c 8.997906
_cell_angle_alpha 90.000000
_cell_angle_beta 90.000000
_cell_angle_gamma 90.000000
_cell_volume 2447.795303
_symmetry_space_group_name_H-M "P M M A"
_symmetry_group_IT_number 51
_symmetry_cell_setting 'orthorhombic'
loop_
_space_group_symop_operation_xyz
x,y,z
1/2-x,-y,z
1/2+x,-y,-z
-x,y,-z
-x,-y,-z
1/2+x,y,-z
1/2-x,y,z
x,-y,z
loop_
_atom_site_type_symbol
_atom_site_label
_atom_site_fract_x
_atom_site_fract_y
_atom_site_fract_z
Si Si1 0.088517 0.223675 0.852133
Si Si2 0.589072 0.946380 0.141253
Si Si3 0.088099 0.863247 0.647042
Si Si4 0.412099 0.602122 0.849685
Si Si5 0.412466 0.687673 0.647705
Si Si6 0.907217 0.500000 0.142014
O O1 0.250000 0.222378 0.897373
O O2 0.045558 0.177105 0.762635
O O3 0.053097 0.268877 0.753798
O O4 0.000000 0.226398 0.000000
O O5 0.750000 0.940365 0.096012
O O6 0.551636 0.913745 0.281010
O O7 0.553633 0.000000 0.186977
O O8 0.500000 0.930150 0.000000
O O9 0.250000 0.859409 0.603925
O O10 0.000000 0.856424 0.500000
O O11 0.250000 0.610628 0.890360
O O12 0.461984 0.639970 0.729224
O O13 0.435198 0.549847 0.773919
O O14 0.500000 0.608001 0.000000
O O15 0.500000 0.694118 0.500000
O O16 0.250000 0.685883 0.605313
O O17 0.750000 0.500000 0.083293
O O18 0.000000 0.500000 0.000000
#
# Coordination Sequence:
#
# PCOD8213048 Si02
#       6
#     8   8   8   8   8   4
#     4  10  21  36  54  76  99 125 161 202 242 287
#     4   9  18  33  52  74 100 130 166 206 244 285
#     4  10  21  35  51  74 103 132 163 200 242 289
#     4   9  17  30  49  72  96 124 160 199 239 284
#     4  10  21  35  50  71  99 129 161 197 239 287
#     4   8  14  26  45  68  94 122 154 196 239 278
#
# _framework density 17.975359999999998
#
# number of rings (size 3 to 8) (size 9 to 14) (size 15 to 20)
#    0.000    2.545    0.000    1.636    0.000    3.273 
#    0.000    0.455    0.000    0.000    0.000    0.000 
#    0.000    0.000    0.000    0.000    0.000    0.000 
#
# Total GULP energy -545480.414267 kJ/mol
# GULP energy per Si atom -12397.282142 kJ/mol
# Density = 1.793445 g / cm^3
# Si number density = 17.975360 Si / 1000 Ang^3
#
#
#
# Elastic Constant Matrix: (Units=GPa)
#
#
# Indices 1 2 3 4 5 6 
#
# 1 64.8589 48.1865 69.8954 0.0000 0.0000 0.0000
# 2 48.1865 136.0701 70.4431 0.0000 0.0000 0.0000
# 3 69.8954 70.4431 131.8174 0.0000 0.0000 0.0000
# 4 0.0000 0.0000 0.0000 1.3172 0.0000 0.0000
# 5 0.0000 0.0000 0.0000 0.0000 37.9631 0.0000
# 6 0.0000 0.0000 0.0000 0.0000 0.0000 15.7600
#
#
#
# Elastic Compliance Matrix: (Units=1/GPa)
#
#
# Indices 1 2 3 4 5 6 
#
# 1 0.037587 -0.004138 -0.017719 0.000000 0.000000 0.000000
# 2 -0.004138 0.010615 -0.003479 0.000000 0.000000 0.000000
# 3 -0.017719 -0.003479 0.018841 0.000000 0.000000 0.000000
# 4 0.000000 0.000000 0.000000 0.759167 0.000000 0.000000
# 5 0.000000 0.000000 0.000000 0.000000 0.026341 0.000000
# 6 0.000000 0.000000 0.000000 0.000000 0.000000 0.063452
#
#
# Mechanical properties :
#
#
# Convention : Reuss Voigt Hill
#
# Bulk Modulus (GPa) = 61.07983 78.86628 69.97306
# Shear Modulus (GPa) = 5.14333 20.62284 12.88308
#
# Velocity S-wave (km/s) = 1.69338 3.39083 2.68004
# Velocity P-wave (km/s) = 6.15442 7.70066 6.97055
#
# Compressibility (1/GPa) = 0.01637202
#
# Stress axis : x y z
#
# Youngs Moduli (GPa) = 26.60470 94.20246 53.07583
#
# Poissons Ratio (x) = 0.38977 0.94047
# Poissons Ratio (y) = 0.11008 0.18465
# Poissons Ratio (z) = 0.47142 0.32773
#
# Static dielectric constant tensor:
#      x y z
#    x 3.318570 0.000000 0.000000 
#    y 0.000000 3.908800 0.000000 
#    z 0.000000 0.000000 3.841600 
# 
# 
# High freq. dielectric constant tensor:
#      x y z
#    x 1.694860 0.000000 0.000000 
#    y 0.000000 1.723970 0.000000 
#    z 0.000000 0.000000 1.671520 
# 
# From -- ./inp_files/5734.got.cif
#   From: 2010.03.12/outbox.cif.g09.slc.cpg/sg51_3_cif.got.tgz:5734.got - 2010.04.16 13:43:02.
