data_PCOD8213619
_publ_section_title
;
Structure prediction by ZEFSAII (Michael W. Deem and Ramdas Pophale) SiO2 
 PCOD8213619
Probable space group: P M M A
;
_chemical_formula_sum "Si O2"
_cell_formula_units_Z 40
_cell_length_a 10.010886
_cell_length_b 9.108920
_cell_length_c 23.865008
_cell_angle_alpha 90.000000
_cell_angle_beta 90.000000
_cell_angle_gamma 90.000000
_cell_volume 2176.210934
_symmetry_space_group_name_H-M "P M M A"
_symmetry_group_IT_number 51
_symmetry_cell_setting 'orthorhombic'
loop_
_space_group_symop_operation_xyz
x,y,z
1/2-x,-y,z
1/2+x,-y,-z
-x,y,-z
-x,-y,-z
1/2+x,y,-z
1/2-x,y,z
x,-y,z
loop_
_atom_site_type_symbol
_atom_site_label
_atom_site_fract_x
_atom_site_fract_y
_atom_site_fract_z
Si Si1 0.902126 0.672045 0.743578
Si Si2 0.403036 0.827865 0.828822
Si Si3 0.467066 0.330051 0.380962
Si Si4 0.750000 0.173964 0.546895
Si Si5 0.101837 0.174709 0.954624
Si Si6 0.750000 0.666803 0.431756
O O1 0.750000 0.714029 0.758254
O O2 0.926910 0.500000 0.747473
O O3 0.935760 0.727756 0.681208
O O4 0.999167 0.747647 0.787030
O O5 0.250000 0.786036 0.814983
O O6 0.439067 0.776577 0.891975
O O7 0.425219 0.000000 0.822245
O O8 0.425043 0.500000 0.387383
O O9 0.382977 0.236143 0.424784
O O10 0.622690 0.305265 0.392627
O O11 0.750000 0.219709 0.482334
O O12 0.750000 0.000000 0.551410
O O13 0.250000 0.233491 0.968925
O O14 0.101394 0.000000 0.957726
O O15 0.000000 0.243051 0.000000
O O16 0.750000 0.500000 0.455416
#
# Coordination Sequence:
#
# PCOD8213619 Si02
#       6
#     8   8   8   4   8   4
#     4  10  21  37  57  79 105 138 181 229 269 312
#     4   9  19  34  52  79 113 144 176 220 272 323
#     4  10  21  40  61  81 106 140 184 226 263 314
#     4  12  24  38  58  84 116 146 171 212 273 328
#     4   8  14  26  45  71 104 140 178 217 258 307
#     4  10  22  38  62  86 104 138 185 224 263 316
#
# _framework density 18.380571
#
# number of rings (size 3 to 8) (size 9 to 14) (size 15 to 20)
#    0.000    2.400    1.000    2.700    1.400    5.600 
#    0.000    2.000    0.000    0.600    0.000    0.000 
#    0.000    0.000    0.000    0.000    0.000    0.000 
#
# Total GULP energy -496017.023738 kJ/mol
# GULP energy per Si atom -12400.425593 kJ/mol
# Density = 1.833874 g / cm^3
# Si number density = 18.380571 Si / 1000 Ang^3
#
#
#
# Elastic Constant Matrix: (Units=GPa)
#
#
# Indices 1 2 3 4 5 6 
#
# 1 128.3031 42.3297 70.4906 0.0000 0.0000 0.0000
# 2 42.3297 50.2343 37.2689 0.0000 0.0000 0.0000
# 3 70.4906 37.2689 123.9881 0.0000 0.0000 0.0000
# 4 0.0000 0.0000 0.0000 31.7390 0.0000 0.0000
# 5 0.0000 0.0000 0.0000 0.0000 43.0196 0.0000
# 6 0.0000 0.0000 0.0000 0.0000 0.0000 26.9400
#
#
#
# Elastic Compliance Matrix: (Units=1/GPa)
#
#
# Indices 1 2 3 4 5 6 
#
# 1 0.013025 -0.007055 -0.005284 0.000000 0.000000 0.000000
# 2 -0.007055 0.029441 -0.004839 0.000000 0.000000 0.000000
# 3 -0.005284 -0.004839 0.012524 0.000000 0.000000 0.000000
# 4 0.000000 0.000000 0.000000 0.031507 0.000000 0.000000
# 5 0.000000 0.000000 0.000000 0.000000 0.023245 0.000000
# 6 0.000000 0.000000 0.000000 0.000000 0.000000 0.037119
#
#
# Mechanical properties :
#
#
# Convention : Reuss Voigt Hill
#
# Bulk Modulus (GPa) = 48.46303 66.96709 57.71506
# Shear Modulus (GPa) = 26.58218 30.50215 28.54217
#
# Velocity S-wave (km/s) = 3.80703 4.07809 3.94489
# Velocity P-wave (km/s) = 6.76375 7.66075 7.22618
#
# Compressibility (1/GPa) = 0.02063428
#
# Stress axis : x y z
#
# Youngs Moduli (GPa) = 76.77621 33.96590 79.84623
#
# Poissons Ratio (x) = 0.23962 0.42194
# Poissons Ratio (y) = 0.54164 0.38635
# Poissons Ratio (z) = 0.40572 0.16435
#
# Static dielectric constant tensor:
#      x y z
#    x 3.609430 0.000000 0.000000 
#    y 0.000000 3.073850 0.000000 
#    z 0.000000 0.000000 3.627540 
# 
# 
# High freq. dielectric constant tensor:
#      x y z
#    x 1.727000 0.000000 0.000000 
#    y 0.000000 1.679380 0.000000 
#    z 0.000000 0.000000 1.720010 
# 
# From -- ./inp_files/35994.got.cif
#   From: 2010.03.12/outbox.cif.g09.slc.cpg/sg51_18_cif.got.tgz:35994.got - 2010.04.16 13:43:02.
