data_PCOD8213295
_publ_section_title
;
Structure prediction by ZEFSAII (Michael W. Deem and Ramdas Pophale) SiO2 
 PCOD8213295
Probable space group: P M M A
;
_chemical_formula_sum "Si O2"
_cell_formula_units_Z 64
_cell_length_a 14.021296
_cell_length_b 9.322508
_cell_length_c 25.334819
_cell_angle_alpha 90.000000
_cell_angle_beta 90.000000
_cell_angle_gamma 90.000000
_cell_volume 3311.606515
_symmetry_space_group_name_H-M "P M M A"
_symmetry_group_IT_number 51
_symmetry_cell_setting 'orthorhombic'
loop_
_space_group_symop_operation_xyz
x,y,z
1/2-x,-y,z
1/2+x,-y,-z
-x,y,-z
-x,-y,-z
1/2+x,y,-z
1/2-x,y,z
x,-y,z
loop_
_atom_site_type_symbol
_atom_site_label
_atom_site_fract_x
_atom_site_fract_y
_atom_site_fract_z
Si Si1 0.855434 0.164888 0.872205
Si Si2 0.357530 0.338516 0.518534
Si Si3 0.970283 0.332574 0.375998
Si Si4 0.141654 0.668647 0.912632
Si Si5 0.859383 0.167578 0.586149
Si Si6 0.542175 0.834772 0.180174
Si Si7 0.861526 0.166757 0.287520
Si Si8 0.863649 0.340980 0.971514
O O1 0.750000 0.224804 0.856804
O O2 0.898474 0.239968 0.924300
O O3 0.927216 0.187368 0.822881
O O4 0.847997 0.000000 0.887557
O O5 0.250000 0.321965 0.540146
O O6 0.373776 0.500000 0.496289
O O7 0.429323 0.306800 0.565730
O O8 0.377749 0.225625 0.472620
O O9 0.982791 0.500000 0.362846
O O10 0.896545 0.263087 0.335562
O O11 0.072498 0.252370 0.373009
O O12 0.250000 0.722541 0.909587
O O13 0.135569 0.500000 0.902736
O O14 0.085098 0.747676 0.867536
O O15 0.097157 0.706580 0.970621
O O16 0.750000 0.195132 0.603276
O O17 0.884623 0.000000 0.587305
O O18 0.581049 0.779462 0.236049
O O19 0.571199 0.000000 0.172948
O O20 0.750000 0.194088 0.278043
O O21 0.882293 0.000000 0.299795
O O22 0.750000 0.340938 0.975825
O O23 0.901145 0.500000 0.957938
#
# Coordination Sequence:
#
# PCOD8213295 Si02
#       8
#     8   8   8   8   8   8   8   8
#     4   9  18  33  52  74 101 133 170 212 257 308
#     4   9  18  33  53  80 115 151 185 223 271 325
#     4  11  22  36  57  83 111 146 187 229 273 321
#     4   9  18  32  50  74 104 136 170 210 259 316
#     4  10  21  36  55  82 116 152 188 225 267 317
#     4  10  21  36  54  76 102 135 176 220 266 313
#     4  10  22  40  59  79 106 138 173 219 273 325
#     4   8  15  29  48  71 101 135 168 205 254 312
#
# _framework density 19.325968
#
# number of rings (size 3 to 8) (size 9 to 14) (size 15 to 20)
#    0.000    2.500    0.000    2.625    0.000    6.750 
#    0.000    5.625    0.000    2.250    0.000    0.000 
#    0.000    0.000    0.000    0.000    0.000    0.000 
#
# Total GULP energy -793480.564317 kJ/mol
# GULP energy per Si atom -12398.133817 kJ/mol
# Density = 1.928198 g / cm^3
# Si number density = 19.325968 Si / 1000 Ang^3
#
#
#
# Elastic Constant Matrix: (Units=GPa)
#
#
# Indices 1 2 3 4 5 6 
#
# 1 87.6598 46.9346 38.2208 0.0000 0.0000 0.0000
# 2 46.9346 79.0488 39.0624 0.0000 0.0000 0.0000
# 3 38.2208 39.0624 59.9907 0.0000 0.0000 0.0000
# 4 0.0000 0.0000 0.0000 87.3426 0.0000 0.0000
# 5 0.0000 0.0000 0.0000 0.0000 34.6219 0.0000
# 6 0.0000 0.0000 0.0000 0.0000 0.0000 25.1568
#
#
#
# Elastic Compliance Matrix: (Units=1/GPa)
#
#
# Indices 1 2 3 4 5 6 
#
# 1 0.018436 -0.007581 -0.006809 0.000000 0.000000 0.000000
# 2 -0.007581 0.021770 -0.009345 0.000000 0.000000 0.000000
# 3 -0.006809 -0.009345 0.027092 0.000000 0.000000 0.000000
# 4 0.000000 0.000000 0.000000 0.011449 0.000000 0.000000
# 5 0.000000 0.000000 0.000000 0.000000 0.028883 0.000000
# 6 0.000000 0.000000 0.000000 0.000000 0.000000 0.039751
#
#
# Mechanical properties :
#
#
# Convention : Reuss Voigt Hill
#
# Bulk Modulus (GPa) = 50.43654 52.79275 51.61465
# Shear Modulus (GPa) = 24.81873 36.25635 30.53754
#
# Velocity S-wave (km/s) = 3.58748 4.33603 3.97940
# Velocity P-wave (km/s) = 6.58138 7.24186 6.91950
#
# Compressibility (1/GPa) = 0.01982690
#
# Stress axis : x y z
#
# Youngs Moduli (GPa) = 54.24231 45.93556 36.91091
#
# Poissons Ratio (x) = 0.34825 0.25133
# Poissons Ratio (y) = 0.41123 0.34493
# Poissons Ratio (z) = 0.36934 0.42926
#
# Static dielectric constant tensor:
#      x y z
#    x 3.821630 0.000000 0.000000 
#    y 0.000000 3.510850 0.000000 
#    z 0.000000 0.000000 3.370500 
# 
# 
# High freq. dielectric constant tensor:
#      x y z
#    x 1.768290 0.000000 0.000000 
#    y 0.000000 1.746670 0.000000 
#    z 0.000000 0.000000 1.728720 
# 
# From -- ./inp_files/35878.got.cif
#   From: 2010.03.12/outbox.cif.g09.slc.cpg/sg51_18_cif.got.tgz:35878.got - 2010.04.16 13:43:02.
