data_PCOD8213952
_publ_section_title
;
Structure prediction by ZEFSAII (Michael W. Deem and Ramdas Pophale) SiO2 
 PCOD8213952
Probable space group: P M M A
;
_chemical_formula_sum "Si O2"
_cell_formula_units_Z 56
_cell_length_a 8.870659
_cell_length_b 13.492605
_cell_length_c 21.061891
_cell_angle_alpha 90.000000
_cell_angle_beta 90.000000
_cell_angle_gamma 90.000000
_cell_volume 2520.861886
_symmetry_space_group_name_H-M "P M M A"
_symmetry_group_IT_number 51
_symmetry_cell_setting 'orthorhombic'
loop_
_space_group_symop_operation_xyz
x,y,z
1/2-x,-y,z
1/2+x,-y,-z
-x,y,-z
-x,-y,-z
1/2+x,y,-z
1/2-x,y,z
x,-y,z
loop_
_atom_site_type_symbol
_atom_site_label
_atom_site_fract_x
_atom_site_fract_y
_atom_site_fract_z
Si Si1 0.576784 0.803614 0.064940
Si Si2 0.918334 0.116762 0.812063
Si Si3 0.428412 0.204031 0.436360
Si Si4 0.077221 0.610915 0.867433
Si Si5 0.579954 0.882632 0.313326
Si Si6 0.426939 0.386439 0.615034
Si Si7 0.919816 0.382246 0.742269
O O1 0.750000 0.833845 0.060689
O O2 0.507687 0.861242 0.123923
O O3 0.555504 0.684748 0.073394
O O4 0.500000 0.837889 0.000000
O O5 0.750000 0.161792 0.816168
O O6 0.000024 0.163319 0.749686
O O7 0.910446 0.000000 0.803355
O O8 0.500000 0.156223 0.500000
O O9 0.250000 0.197147 0.439980
O O10 0.486784 0.144702 0.375693
O O11 0.482555 0.318782 0.434387
O O12 0.250000 0.608510 0.844584
O O13 0.024012 0.500000 0.887117
O O14 0.979640 0.657549 0.809827
O O15 0.750000 0.840076 0.318376
O O16 0.584432 0.000000 0.307109
O O17 0.250000 0.373079 0.605207
O O18 0.477636 0.500000 0.604868
O O19 0.472590 0.346800 0.685116
O O20 0.750000 0.344646 0.729702
O O21 0.927315 0.500000 0.746401
#
# Coordination Sequence:
#
# PCOD8213952 Si02
#       7
#     8   8   8   8   8   8   8
#     4  11  24  40  60  88 123 164 208 257 311 372
#     4  10  22  42  68  96 125 159 201 251 309 372
#     4  12  26  43  64  92 128 169 212 260 311 371
#     4   9  19  36  56  80 115 160 206 252 304 363
#     4  10  22  43  71 100 129 162 203 253 310 373
#     4  10  21  38  60  86 121 165 211 260 312 368
#     4   9  17  30  51  81 113 148 196 251 304 358
#
# _framework density 22.214625000000002
#
# number of rings (size 3 to 8) (size 9 to 14) (size 15 to 20)
#    0.000    1.857    0.000    3.429    2.000    6.571 
#    0.000    0.000    0.000    0.000    0.000    0.000 
#    0.000    0.000    0.000    0.000    0.000    0.000 
#
# Total GULP energy -694540.175270 kJ/mol
# GULP energy per Si atom -12402.503130 kJ/mol
# Density = 2.216406 g / cm^3
# Si number density = 22.214625 Si / 1000 Ang^3
#
#
#
# Elastic Constant Matrix: (Units=GPa)
#
#
# Indices 1 2 3 4 5 6 
#
# 1 174.4678 12.6183 75.5804 0.0000 0.0000 0.0000
# 2 12.6183 15.5572 14.1784 0.0000 0.0000 0.0000
# 3 75.5804 14.1784 161.5213 0.0000 0.0000 0.0000
# 4 0.0000 0.0000 0.0000 18.6405 0.0000 0.0000
# 5 0.0000 0.0000 0.0000 0.0000 43.1643 0.0000
# 6 0.0000 0.0000 0.0000 0.0000 0.0000 29.1635
#
#
#
# Elastic Compliance Matrix: (Units=1/GPa)
#
#
# Indices 1 2 3 4 5 6 
#
# 1 0.007321 -0.003061 -0.003157 0.000000 0.000000 0.000000
# 2 -0.003061 0.071148 -0.004813 0.000000 0.000000 0.000000
# 3 -0.003157 -0.004813 0.008091 0.000000 0.000000 0.000000
# 4 0.000000 0.000000 0.000000 0.053647 0.000000 0.000000
# 5 0.000000 0.000000 0.000000 0.000000 0.023167 0.000000
# 6 0.000000 0.000000 0.000000 0.000000 0.000000 0.034289
#
#
# Mechanical properties :
#
#
# Convention : Reuss Voigt Hill
#
# Bulk Modulus (GPa) = 15.50440 61.81117 38.65778
# Shear Modulus (GPa) = 20.72769 34.80495 27.76632
#
# Velocity S-wave (km/s) = 3.05793 3.96252 3.53924
# Velocity P-wave (km/s) = 4.41162 6.98716 5.84306
#
# Compressibility (1/GPa) = 0.06449784
#
# Stress axis : x y z
#
# Youngs Moduli (GPa) = 136.59985 14.05526 123.59666
#
# Poissons Ratio (x) = 0.04302 0.39018
# Poissons Ratio (y) = 0.41808 0.59490
# Poissons Ratio (z) = 0.43123 0.06765
#
# Static dielectric constant tensor:
#      x y z
#    x 4.183920 0.000000 0.000000 
#    y 0.000000 4.026300 0.000000 
#    z 0.000000 0.000000 3.896150 
# 
# 
# High freq. dielectric constant tensor:
#      x y z
#    x 1.881550 0.000000 0.000000 
#    y 0.000000 1.880960 0.000000 
#    z 0.000000 0.000000 1.868500 
# 
# From -- ./inp_files/31900.got.cif
#   From: 2010.03.12/outbox.cif.g09.slc.cpg/sg51_16_cif.got.tgz:31900.got - 2010.04.16 13:43:02.
