data_PCOD8213389
_publ_section_title
;
Structure prediction by ZEFSAII (Michael W. Deem and Ramdas Pophale) SiO2 
 PCOD8213389
Probable space group: P M M A
;
_chemical_formula_sum "Si O2"
_cell_formula_units_Z 64
_cell_length_a 18.553483
_cell_length_b 9.093128
_cell_length_c 20.285010
_cell_angle_alpha 90.000000
_cell_angle_beta 90.000000
_cell_angle_gamma 90.000000
_cell_volume 3422.267723
_symmetry_space_group_name_H-M "P M M A"
_symmetry_group_IT_number 51
_symmetry_cell_setting 'orthorhombic'
loop_
_space_group_symop_operation_xyz
x,y,z
1/2-x,-y,z
1/2+x,-y,-z
-x,y,-z
-x,-y,-z
1/2+x,y,-z
1/2-x,y,z
x,-y,z
loop_
_atom_site_type_symbol
_atom_site_label
_atom_site_fract_x
_atom_site_fract_y
_atom_site_fract_z
Si Si1 0.835545 0.667281 0.721013
Si Si2 0.413908 0.170371 0.792887
Si Si3 0.923527 0.326708 0.968893
Si Si4 0.923743 0.172072 0.829761
Si Si5 0.164111 0.835268 0.407878
Si Si6 0.835556 0.663167 0.467074
Si Si7 0.668805 0.674511 0.321005
Si Si8 0.165603 0.169683 0.924123
O O1 0.750000 0.673354 0.724452
O O2 0.863664 0.500000 0.725001
O O3 0.864638 0.761273 0.781523
O O4 0.863952 0.737330 0.652830
O O5 0.497990 0.203216 0.799890
O O6 0.386741 0.258287 0.730060
O O7 0.373343 0.226801 0.858161
O O8 0.397050 0.000000 0.781482
O O9 0.915487 0.500000 0.959491
O O10 0.915091 0.249343 0.899399
O O11 0.860017 0.268925 0.015455
O O12 0.000000 0.282745 0.000000
O O13 0.909222 0.000000 0.839014
O O14 0.250000 0.836166 0.409401
O O15 0.133136 0.769277 0.476223
O O16 0.133799 0.000000 0.399571
O O17 0.750000 0.653781 0.472408
O O18 0.867862 0.500000 0.477972
O O19 0.855920 0.723895 0.394470
O O20 0.750000 0.731145 0.306179
O O21 0.666742 0.500000 0.316092
O O22 0.250000 0.191562 0.914357
O O23 0.145283 0.000000 0.938173
#
# Coordination Sequence:
#
# PCOD8213389 Si02
#       8
#     8   8   8   8   8   8   8   8
#     4  10  21  37  57  82 112 143 177 223 276 328
#     4  10  21  36  55  79 109 145 183 224 269 320
#     4  11  23  39  60  84 110 142 181 225 272 323
#     4  11  23  39  61  83 108 144 183 223 269 324
#     4   9  16  27  47  76 107 139 178 223 271 324
#     4   8  14  26  44  69 103 142 182 222 268 320
#     4   9  18  31  49  76 110 147 186 228 272 320
#     4  10  21  38  60  85 113 146 183 224 272 324
#
# _framework density 18.701049000000001
#
# number of rings (size 3 to 8) (size 9 to 14) (size 15 to 20)
#    0.000    2.250    1.250    2.625    0.000    6.250 
#    0.000    1.250    0.000    0.750    0.000    5.250 
#    0.000    0.000    0.000    0.000    0.000    0.000 
#
# Total GULP energy -793703.837457 kJ/mol
# GULP energy per Si atom -12401.622460 kJ/mol
# Density = 1.865848 g / cm^3
# Si number density = 18.701049 Si / 1000 Ang^3
#
#
#
# Elastic Constant Matrix: (Units=GPa)
#
#
# Indices 1 2 3 4 5 6 
#
# 1 30.7297 28.2672 27.2458 0.0000 0.0000 0.0000
# 2 28.2672 84.5484 62.8427 0.0000 0.0000 0.0000
# 3 27.2458 62.8427 155.5770 0.0000 0.0000 0.0000
# 4 0.0000 0.0000 0.0000 35.6951 0.0000 0.0000
# 5 0.0000 0.0000 0.0000 0.0000 10.5379 0.0000
# 6 0.0000 0.0000 0.0000 0.0000 0.0000 22.0552
#
#
#
# Elastic Compliance Matrix: (Units=1/GPa)
#
#
# Indices 1 2 3 4 5 6 
#
# 1 0.047797 -0.013945 -0.002738 0.000000 0.000000 0.000000
# 2 -0.013945 0.020971 -0.006029 0.000000 0.000000 0.000000
# 3 -0.002738 -0.006029 0.009342 0.000000 0.000000 0.000000
# 4 0.000000 0.000000 0.000000 0.028015 0.000000 0.000000
# 5 0.000000 0.000000 0.000000 0.000000 0.094895 0.000000
# 6 0.000000 0.000000 0.000000 0.000000 0.000000 0.045341
#
#
# Mechanical properties :
#
#
# Convention : Reuss Voigt Hill
#
# Bulk Modulus (GPa) = 30.59316 56.39628 43.49472
# Shear Modulus (GPa) = 16.51912 23.82425 20.17169
#
# Velocity S-wave (km/s) = 2.97530 3.57312 3.28783
# Velocity P-wave (km/s) = 5.31016 6.87351 6.14178
#
# Compressibility (1/GPa) = 0.03268704
#
# Stress axis : x y z
#
# Youngs Moduli (GPa) = 20.92191 47.68551 107.04038
#
# Poissons Ratio (x) = 0.66498 0.29304
# Poissons Ratio (y) = 0.29176 0.64530
# Poissons Ratio (z) = 0.05728 0.28748
#
# Static dielectric constant tensor:
#      x y z
#    x 3.165570 0.000000 0.000000 
#    y 0.000000 3.532350 0.000000 
#    z 0.000000 0.000000 3.638380 
# 
# 
# High freq. dielectric constant tensor:
#      x y z
#    x 1.693860 0.000000 0.000000 
#    y 0.000000 1.730020 0.000000 
#    z 0.000000 0.000000 1.741740 
# 
# From -- ./inp_files/33799.got.cif
#   From: 2010.03.12/outbox.cif.g09.slc.cpg/sg51_17_cif.got.tgz:33799.got - 2010.04.16 13:43:02.
