data_PCOD8213975
_publ_section_title
;
Structure prediction by ZEFSAII (Michael W. Deem and Ramdas Pophale) SiO2 
 PCOD8213975
Probable space group: P M M A
;
_chemical_formula_sum "Si O2"
_cell_formula_units_Z 48
_cell_length_a 9.208184
_cell_length_b 9.190198
_cell_length_c 30.925583
_cell_angle_alpha 90.000000
_cell_angle_beta 90.000000
_cell_angle_gamma 90.000000
_cell_volume 2617.078518
_symmetry_space_group_name_H-M "P M M A"
_symmetry_group_IT_number 51
_symmetry_cell_setting 'orthorhombic'
loop_
_space_group_symop_operation_xyz
x,y,z
1/2-x,-y,z
1/2+x,-y,-z
-x,y,-z
-x,-y,-z
1/2+x,y,-z
1/2-x,y,z
x,-y,z
loop_
_atom_site_type_symbol
_atom_site_label
_atom_site_fract_x
_atom_site_fract_y
_atom_site_fract_z
Si Si1 0.917932 0.171993 0.879710
Si Si2 0.920128 0.669563 0.195266
Si Si3 0.081208 0.830631 0.457683
Si Si4 0.589714 0.327238 0.291788
Si Si5 0.580821 0.668653 0.044151
Si Si6 0.918857 0.331000 0.626502
O O1 0.750000 0.217945 0.884870
O O2 0.979728 0.234531 0.835259
O O3 0.011002 0.235019 0.918786
O O4 0.936196 0.000000 0.879280
O O5 0.750000 0.700542 0.186689
O O6 0.953219 0.500000 0.187105
O O7 0.964342 0.717333 0.243979
O O8 0.250000 0.795900 0.463877
O O9 0.017711 0.749746 0.415565
O O10 0.000000 0.770437 0.500000
O O11 0.050150 0.000000 0.451193
O O12 0.750000 0.263551 0.299760
O O13 0.593842 0.500000 0.293715
O O14 0.487938 0.265102 0.329722
O O15 0.750000 0.707823 0.039213
O O16 0.559549 0.500000 0.056324
O O17 0.500000 0.707998 0.000000
O O18 0.750000 0.300093 0.630661
O O19 0.955641 0.500000 0.621210
#
# Coordination Sequence:
#
# PCOD8213975 Si02
#       6
#     8   8   8   8   8   8
#     4  11  24  38  52  76 110 144 177 213 255 303
#     4   9  18  34  56  79 102 132 172 214 255 301
#     4   9  18  32  47  63  87 120 155 191 233 281
#     4   8  15  29  49  73  99 125 156 197 243 290
#     4  10  21  38  61  86 109 136 173 215 258 305
#     4   9  17  29  46  69  95 121 152 191 235 284
#
# _framework density 18.341061
#
# number of rings (size 3 to 8) (size 9 to 14) (size 15 to 20)
#    0.000    2.667    0.000    2.500    0.000    6.667 
#    0.000    2.500    0.000    3.000    0.000    0.000 
#    0.000    0.000    0.000    0.000    0.000    0.000 
#
# Total GULP energy -595151.082932 kJ/mol
# GULP energy per Si atom -12398.980894 kJ/mol
# Density = 1.829932 g / cm^3
# Si number density = 18.341061 Si / 1000 Ang^3
#
#
#
# Elastic Constant Matrix: (Units=GPa)
#
#
# Indices 1 2 3 4 5 6 
#
# 1 97.8586 46.4647 84.3820 0.0000 0.0000 0.0000
# 2 46.4647 49.3212 58.3084 0.0000 0.0000 0.0000
# 3 84.3820 58.3084 178.5293 0.0000 0.0000 0.0000
# 4 0.0000 0.0000 0.0000 -6.7434 0.0000 0.0000
# 5 0.0000 0.0000 0.0000 0.0000 40.3471 0.0000
# 6 0.0000 0.0000 0.0000 0.0000 0.0000 23.5151
#
#
#
# Elastic Compliance Matrix: (Units=1/GPa)
#
#
# Indices 1 2 3 4 5 6 
#
# 1 0.021659 -0.013524 -0.005820 0.000000 0.000000 0.000000
# 2 -0.013524 0.041472 -0.007153 0.000000 0.000000 0.000000
# 3 -0.005820 -0.007153 0.010688 0.000000 0.000000 0.000000
# 4 0.000000 0.000000 0.000000 -0.148293 0.000000 0.000000
# 5 0.000000 0.000000 0.000000 0.000000 0.024785 0.000000
# 6 0.000000 0.000000 0.000000 0.000000 0.000000 0.042526
#
#
# Mechanical properties :
#
#
# Convention : Reuss Voigt Hill
#
# Bulk Modulus (GPa) = 48.01769 78.22436 63.12102
# Shear Modulus (GPa) = 94.74661 20.52736 57.63699
#
# Velocity S-wave (km/s) = 7.19516 3.34908 5.61189
# Velocity P-wave (km/s) = 9.76035 7.59589 8.74534
#
# Compressibility (1/GPa) = 0.02082566
#
# Stress axis : x y z
#
# Youngs Moduli (GPa) = 46.17103 24.11261 93.55942
#
# Poissons Ratio (x) = 0.32609 0.54452
# Poissons Ratio (y) = 0.62440 0.66923
# Poissons Ratio (z) = 0.26872 0.17248
#
# Static dielectric constant tensor:
#      x y z
#    x 3.463020 0.000000 0.000000 
#    y 0.000000 3.131790 0.000000 
#    z 0.000000 0.000000 3.751150 
# 
# 
# High freq. dielectric constant tensor:
#      x y z
#    x 1.709830 0.000000 0.000000 
#    y 0.000000 1.684640 0.000000 
#    z 0.000000 0.000000 1.729270 
# 
# From -- ./inp_files/36903.got.cif
#   From: 2010.03.12/outbox.cif.g09.slc.cpg/sg51_19_cif.got.tgz:36903.got - 2010.04.16 13:43:02.
