data_PCOD8213715
_publ_section_title
;
Structure prediction by ZEFSAII (Michael W. Deem and Ramdas Pophale) SiO2 
 PCOD8213715
Probable space group: P M M A
;
_chemical_formula_sum "Si O2"
_cell_formula_units_Z 56
_cell_length_a 18.473832
_cell_length_b 9.047118
_cell_length_c 16.442146
_cell_angle_alpha 90.000000
_cell_angle_beta 90.000000
_cell_angle_gamma 90.000000
_cell_volume 2748.057053
_symmetry_space_group_name_H-M "P M M A"
_symmetry_group_IT_number 51
_symmetry_cell_setting 'orthorhombic'
loop_
_space_group_symop_operation_xyz
x,y,z
1/2-x,-y,z
1/2+x,-y,-z
-x,y,-z
-x,-y,-z
1/2+x,y,-z
1/2-x,y,z
x,-y,z
loop_
_atom_site_type_symbol
_atom_site_label
_atom_site_fract_x
_atom_site_fract_y
_atom_site_fract_z
Si Si1 0.164947 0.664346 0.183885
Si Si2 0.833964 0.171887 0.361522
Si Si3 0.083263 0.674834 0.493475
Si Si4 0.096053 0.170967 0.329296
Si Si5 0.945433 0.326735 0.071985
Si Si6 0.164747 0.169169 0.025278
Si Si7 0.047515 0.831555 0.764187
O O1 0.250000 0.650898 0.175694
O O2 0.130113 0.500000 0.189968
O O3 0.147755 0.762630 0.261207
O O4 0.134009 0.743817 0.103674
O O5 0.750000 0.214754 0.350242
O O6 0.869013 0.268917 0.432032
O O7 0.875107 0.206504 0.276633
O O8 0.843511 0.000000 0.384428
O O9 0.090304 0.500000 0.488713
O O10 0.115285 0.744939 0.411839
O O11 0.000000 0.725727 0.500000
O O12 0.012492 0.194964 0.305201
O O13 0.115271 0.000000 0.340549
O O14 0.931639 0.500000 0.074090
O O15 0.972033 0.274314 0.160516
O O16 0.870213 0.242324 0.054519
O O17 0.000000 0.281254 0.000000
O O18 0.250000 0.183789 0.015726
O O19 0.140538 0.000000 0.033891
O O20 0.045640 0.000000 0.795553
#
# Coordination Sequence:
#
# PCOD8213715 Si02
#       7
#     8   8   8   8   8   8   8
#     4  10  21  37  57  84 120 156 193 244 301 357
#     4  10  22  42  66  91 122 160 202 250 304 362
#     4  11  23  39  62  90 121 158 198 245 300 356
#     4  11  22  37  62  89 118 156 199 245 293 353
#     4  11  24  39  58  87 122 159 201 250 302 359
#     4  10  21  38  60  84 113 153 200 247 297 356
#     4  10  22  39  60  88 119 155 199 249 300 355
#
# _framework density 20.378032999999999
#
# number of rings (size 3 to 8) (size 9 to 14) (size 15 to 20)
#    0.000    1.571    1.429    3.000    0.000    8.857 
#    0.000    1.429    0.000    0.000    0.000    0.000 
#    0.000    0.000    0.000    0.000    0.000    0.000 
#
# Total GULP energy -694654.698058 kJ/mol
# GULP energy per Si atom -12404.548180 kJ/mol
# Density = 2.033165 g / cm^3
# Si number density = 20.378033 Si / 1000 Ang^3
#
#
#
# Elastic Constant Matrix: (Units=GPa)
#
#
# Indices 1 2 3 4 5 6 
#
# 1 51.5009 45.2102 28.9987 0.0000 0.0000 0.0000
# 2 45.2102 100.5889 46.1986 0.0000 0.0000 0.0000
# 3 28.9987 46.1986 99.6956 0.0000 0.0000 0.0000
# 4 0.0000 0.0000 0.0000 32.8924 0.0000 0.0000
# 5 0.0000 0.0000 0.0000 0.0000 31.8760 0.0000
# 6 0.0000 0.0000 0.0000 0.0000 0.0000 26.4974
#
#
#
# Elastic Compliance Matrix: (Units=1/GPa)
#
#
# Indices 1 2 3 4 5 6 
#
# 1 0.032985 -0.013236 -0.003461 0.000000 0.000000 0.000000
# 2 -0.013236 0.017940 -0.004464 0.000000 0.000000 0.000000
# 3 -0.003461 -0.004464 0.013106 0.000000 0.000000 0.000000
# 4 0.000000 0.000000 0.000000 0.030402 0.000000 0.000000
# 5 0.000000 0.000000 0.000000 0.000000 0.031372 0.000000
# 6 0.000000 0.000000 0.000000 0.000000 0.000000 0.037740
#
#
# Mechanical properties :
#
#
# Convention : Reuss Voigt Hill
#
# Bulk Modulus (GPa) = 46.06108 54.73339 50.39723
# Shear Modulus (GPa) = 23.46302 27.01170 25.23736
#
# Velocity S-wave (km/s) = 3.39689 3.64473 3.52299
# Velocity P-wave (km/s) = 6.16746 6.68053 6.42911
#
# Compressibility (1/GPa) = 0.02171030
#
# Stress axis : x y z
#
# Youngs Moduli (GPa) = 30.31696 55.74039 76.30273
#
# Poissons Ratio (x) = 0.73776 0.26409
# Poissons Ratio (y) = 0.40126 0.34059
# Poissons Ratio (z) = 0.10493 0.24880
#
# Static dielectric constant tensor:
#      x y z
#    x 3.669750 0.000000 0.000000 
#    y 0.000000 3.828480 0.000000 
#    z 0.000000 0.000000 3.650300 
# 
# 
# High freq. dielectric constant tensor:
#      x y z
#    x 1.794350 0.000000 0.000000 
#    y 0.000000 1.804530 0.000000 
#    z 0.000000 0.000000 1.797660 
# 
# From -- ./inp_files/25634.got.cif
#   From: 2010.03.12/outbox.cif.g09.slc.cpg/sg51_13_cif.got.tgz:25634.got - 2010.04.16 13:43:02.
