data_PCOD8213303
_publ_section_title
;
Structure prediction by ZEFSAII (Michael W. Deem and Ramdas Pophale) SiO2 
 PCOD8213303
Probable space group: P M M A
;
_chemical_formula_sum "Si O2"
_cell_formula_units_Z 48
_cell_length_a 9.329572
_cell_length_b 9.731540
_cell_length_c 30.357193
_cell_angle_alpha 90.000000
_cell_angle_beta 90.000000
_cell_angle_gamma 90.000000
_cell_volume 2756.163040
_symmetry_space_group_name_H-M "P M M A"
_symmetry_group_IT_number 51
_symmetry_cell_setting 'orthorhombic'
loop_
_space_group_symop_operation_xyz
x,y,z
1/2-x,-y,z
1/2+x,-y,-z
-x,y,-z
-x,-y,-z
1/2+x,y,-z
1/2-x,y,z
x,-y,z
loop_
_atom_site_type_symbol
_atom_site_label
_atom_site_fract_x
_atom_site_fract_y
_atom_site_fract_z
Si Si1 0.088595 0.336062 0.958228
Si Si2 0.582955 0.659479 0.543917
Si Si3 0.590399 0.663559 0.876391
Si Si4 0.085870 0.159020 0.610934
Si Si5 0.086348 0.157728 0.712848
Si Si6 0.919704 0.345460 0.778998
O O1 0.250000 0.278931 0.961048
O O2 0.088483 0.500000 0.958046
O O3 0.016539 0.278370 0.913530
O O4 0.000000 0.280331 0.000000
O O5 0.500000 0.704114 0.500000
O O6 0.750000 0.691834 0.537279
O O7 0.556218 0.500000 0.554681
O O8 0.523097 0.747420 0.584104
O O9 0.750000 0.721914 0.885561
O O10 0.596873 0.500000 0.878190
O O11 0.535741 0.708044 0.827816
O O12 0.250000 0.196798 0.599174
O O13 0.055363 0.189111 0.661938
O O14 0.056630 0.000000 0.599816
O O15 0.250000 0.192752 0.724352
O O16 0.984220 0.249435 0.742075
O O17 0.052486 0.000000 0.723409
O O18 0.750000 0.342459 0.774798
O O19 0.977191 0.500000 0.771580
#
# Coordination Sequence:
#
# PCOD8213303 Si02
#       6
#     8   8   8   8   8   8
#     4   9  15  21  31  49  74 107 146 184 224 273
#     4  10  21  36  54  77 104 133 164 198 237 282
#     4   8  14  25  38  53  79 113 146 184 229 274
#     4   9  19  36  55  74  98 129 164 201 241 284
#     4   9  19  35  52  71  97 128 162 200 240 283
#     4   9  18  31  47  69  96 125 158 197 241 288
#
# _framework density 17.415514999999999
#
# number of rings (size 3 to 8) (size 9 to 14) (size 15 to 20)
#    0.000    3.000    0.000    3.000    0.000    6.333 
#    0.000    6.667    0.000    0.000    0.000    0.000 
#    0.000    0.667    0.000    2.167    0.000    4.833 
#
# Total GULP energy -595096.844001 kJ/mol
# GULP energy per Si atom -12397.850917 kJ/mol
# Density = 1.737588 g / cm^3
# Si number density = 17.415515 Si / 1000 Ang^3
#
#
#
# Elastic Constant Matrix: (Units=GPa)
#
#
# Indices 1 2 3 4 5 6 
#
# 1 100.5109 37.5587 69.1948 0.0000 0.0000 0.0000
# 2 37.5587 45.1527 50.5703 0.0000 0.0000 0.0000
# 3 69.1948 50.5703 119.9569 0.0000 0.0000 0.0000
# 4 0.0000 0.0000 0.0000 -9.7304 0.0000 0.0000
# 5 0.0000 0.0000 0.0000 0.0000 40.1124 0.0000
# 6 0.0000 0.0000 0.0000 0.0000 0.0000 25.2709
#
#
#
# Elastic Compliance Matrix: (Units=1/GPa)
#
#
# Indices 1 2 3 4 5 6 
#
# 1 0.017348 -0.006105 -0.007433 0.000000 0.000000 0.000000
# 2 -0.006105 0.044106 -0.015072 0.000000 0.000000 0.000000
# 3 -0.007433 -0.015072 0.018978 0.000000 0.000000 0.000000
# 4 0.000000 0.000000 0.000000 -0.102771 0.000000 0.000000
# 5 0.000000 0.000000 0.000000 0.000000 0.024930 0.000000
# 6 0.000000 0.000000 0.000000 0.000000 0.000000 0.039571
#
#
# Mechanical properties :
#
#
# Convention : Reuss Voigt Hill
#
# Bulk Modulus (GPa) = 43.08314 64.47424 53.77869
# Shear Modulus (GPa) = 46.67710 18.35035 32.51373
#
# Velocity S-wave (km/s) = 5.18268 3.24956 4.32550
# Velocity P-wave (km/s) = 7.78496 7.15409 7.47619
#
# Compressibility (1/GPa) = 0.02321094
#
# Stress axis : x y z
#
# Youngs Moduli (GPa) = 57.64494 22.67261 52.69349
#
# Poissons Ratio (x) = 0.13843 0.39166
# Poissons Ratio (y) = 0.35195 0.79420
# Poissons Ratio (z) = 0.42846 0.34172
#
# Static dielectric constant tensor:
#      x y z
#    x 3.293870 0.000000 0.000000 
#    y 0.000000 2.846820 0.000000 
#    z 0.000000 0.000000 3.401790 
# 
# 
# High freq. dielectric constant tensor:
#      x y z
#    x 1.676330 0.000000 0.000000 
#    y 0.000000 1.627970 0.000000 
#    z 0.000000 0.000000 1.684450 
# 
# From -- ./inp_files/37049.got.cif
#   From: 2010.03.12/outbox.cif.g09.slc.cpg/sg51_19_cif.got.tgz:37049.got - 2010.04.16 13:43:02.
