data_PCOD8213393
_publ_section_title
;
Structure prediction by ZEFSAII (Michael W. Deem and Ramdas Pophale) SiO2 
 PCOD8213393
Probable space group: P M M A
;
_chemical_formula_sum "Si O2"
_cell_formula_units_Z 48
_cell_length_a 14.831074
_cell_length_b 9.288818
_cell_length_c 18.732344
_cell_angle_alpha 90.000000
_cell_angle_beta 90.000000
_cell_angle_gamma 90.000000
_cell_volume 2580.626663
_symmetry_space_group_name_H-M "P M M A"
_symmetry_group_IT_number 51
_symmetry_cell_setting 'orthorhombic'
loop_
_space_group_symop_operation_xyz
x,y,z
1/2-x,-y,z
1/2+x,-y,-z
-x,y,-z
-x,-y,-z
1/2+x,y,-z
1/2-x,y,z
x,-y,z
loop_
_atom_site_type_symbol
_atom_site_label
_atom_site_fract_x
_atom_site_fract_y
_atom_site_fract_z
Si Si1 0.854493 0.331951 0.084672
Si Si2 0.146630 0.666672 0.590668
Si Si3 0.993516 0.832442 0.666095
Si Si4 0.645153 0.664547 0.572826
Si Si5 0.502929 0.166223 0.169695
Si Si6 0.647161 0.166348 0.942870
O O1 0.750000 0.301377 0.101327
O O2 0.875439 0.500000 0.079602
O O3 0.911887 0.262911 0.148277
O O4 0.883785 0.260073 0.010244
O O5 0.250000 0.707162 0.605177
O O6 0.129024 0.500000 0.607643
O O7 0.087203 0.762270 0.642726
O O8 0.120588 0.699929 0.508927
O O9 0.977560 0.800780 0.749081
O O10 0.909483 0.768460 0.623918
O O11 0.998888 0.000000 0.649113
O O12 0.750000 0.691535 0.586926
O O13 0.619102 0.500000 0.589851
O O14 0.415393 0.208385 0.123538
O O15 0.529566 0.000000 0.158584
O O16 0.750000 0.201298 0.920930
O O17 0.635744 0.000000 0.964423
#
# Coordination Sequence:
#
# PCOD8213393 Si02
#       6
#     8   8   8   8   8   8
#     4  10  21  36  55  80 106 132 169 219 267 306
#     4   9  19  37  59  79 102 138 182 223 263 313
#     4  11  23  35  51  80 114 143 173 217 269 314
#     4   9  19  37  59  80 103 137 181 222 261 313
#     4  10  22  37  52  75 108 144 177 208 251 311
#     4   9  18  35  58  78  99 134 176 213 253 307
#
# _framework density 18.600133
#
# number of rings (size 3 to 8) (size 9 to 14) (size 15 to 20)
#    0.000    2.333    0.000    3.000    0.000    9.667 
#    0.000    6.667    0.000    2.000    0.000    0.000 
#    0.000    0.000    0.000    0.000    0.000    0.000 
#
# Total GULP energy -595392.307618 kJ/mol
# GULP energy per Si atom -12404.006409 kJ/mol
# Density = 1.855780 g / cm^3
# Si number density = 18.600133 Si / 1000 Ang^3
#
#
#
# Elastic Constant Matrix: (Units=GPa)
#
#
# Indices 1 2 3 4 5 6 
#
# 1 69.5523 36.2501 27.1940 0.0000 0.0000 0.0000
# 2 36.2501 78.1109 38.8520 0.0000 0.0000 0.0000
# 3 27.1940 38.8520 62.4644 0.0000 0.0000 0.0000
# 4 0.0000 0.0000 0.0000 3.0905 0.0000 0.0000
# 5 0.0000 0.0000 0.0000 0.0000 10.1946 0.0000
# 6 0.0000 0.0000 0.0000 0.0000 0.0000 28.0298
#
#
#
# Elastic Compliance Matrix: (Units=1/GPa)
#
#
# Indices 1 2 3 4 5 6 
#
# 1 0.019692 -0.007058 -0.004183 0.000000 0.000000 0.000000
# 2 -0.007058 0.021067 -0.010031 0.000000 0.000000 0.000000
# 3 -0.004183 -0.010031 0.024069 0.000000 0.000000 0.000000
# 4 0.000000 0.000000 0.000000 0.323577 0.000000 0.000000
# 5 0.000000 0.000000 0.000000 0.000000 0.098091 0.000000
# 6 0.000000 0.000000 0.000000 0.000000 0.000000 0.035676
#
#
# Mechanical properties :
#
#
# Convention : Reuss Voigt Hill
#
# Bulk Modulus (GPa) = 44.87384 46.07997 45.47690
# Shear Modulus (GPa) = 8.73908 15.45176 12.09542
#
# Velocity S-wave (km/s) = 2.16993 2.88537 2.55284
# Velocity P-wave (km/s) = 5.51870 5.99402 5.76126
#
# Compressibility (1/GPa) = 0.02228470
#
# Stress axis : x y z
#
# Youngs Moduli (GPa) = 50.78274 47.46749 41.54724
#
# Poissons Ratio (x) = 0.33503 0.17378
# Poissons Ratio (y) = 0.35843 0.41674
# Poissons Ratio (z) = 0.21241 0.47613
#
# Static dielectric constant tensor:
#      x y z
#    x 3.481420 0.000000 0.000000 
#    y 0.000000 3.400650 0.000000 
#    z 0.000000 0.000000 3.343970 
# 
# 
# High freq. dielectric constant tensor:
#      x y z
#    x 1.733460 0.000000 0.000000 
#    y 0.000000 1.720840 0.000000 
#    z 0.000000 0.000000 1.716700 
# 
# From -- ./inp_files/29390.got.cif
#   From: 2010.03.12/outbox.cif.g09.slc.cpg/sg51_15_cif.got.tgz:29390.got - 2010.04.16 13:43:02.
