data_PCOD8213643
_publ_section_title
;
Structure prediction by ZEFSAII (Michael W. Deem and Ramdas Pophale) SiO2 
 PCOD8213643
Probable space group: P M M A
;
_chemical_formula_sum "Si O2"
_cell_formula_units_Z 64
_cell_length_a 21.950972
_cell_length_b 9.111010
_cell_length_c 16.631780
_cell_angle_alpha 90.000000
_cell_angle_beta 90.000000
_cell_angle_gamma 90.000000
_cell_volume 3326.281579
_symmetry_space_group_name_H-M "P M M A"
_symmetry_group_IT_number 51
_symmetry_cell_setting 'orthorhombic'
loop_
_space_group_symop_operation_xyz
x,y,z
1/2-x,-y,z
1/2+x,-y,-z
-x,y,-z
-x,-y,-z
1/2+x,y,-z
1/2-x,y,z
x,-y,z
loop_
_atom_site_type_symbol
_atom_site_label
_atom_site_fract_x
_atom_site_fract_y
_atom_site_fract_z
Si Si1 0.818687 0.172412 0.550369
Si Si2 0.818490 0.172122 0.367460
Si Si3 0.899650 0.171821 0.936993
Si Si4 0.016938 0.326253 0.181466
Si Si5 0.180362 0.671117 0.933322
Si Si6 0.611832 0.663680 0.680878
Si Si7 0.616211 0.669886 0.228232
Si Si8 0.818412 0.659783 0.828331
O O1 0.750000 0.230246 0.571068
O O2 0.834639 0.214527 0.458858
O O3 0.873751 0.237783 0.603670
O O4 0.819690 0.000000 0.562956
O O5 0.750000 0.225202 0.347298
O O6 0.866409 0.249230 0.309711
O O7 0.823899 0.000000 0.354299
O O8 0.961039 0.248017 0.901847
O O9 0.849717 0.200890 0.868540
O O10 0.911273 0.000000 0.950446
O O11 0.871673 0.242188 0.017728
O O12 0.019899 0.500000 0.167336
O O13 0.057973 0.280556 0.259309
O O14 0.948876 0.270371 0.197708
O O15 0.250000 0.724068 0.951294
O O16 0.173718 0.500000 0.954704
O O17 0.167064 0.699180 0.839524
O O18 0.596454 0.500000 0.650363
O O19 0.674309 0.668751 0.732507
O O20 0.610545 0.500000 0.249477
O O21 0.750000 0.665275 0.855990
O O22 0.846427 0.500000 0.856312
#
# Coordination Sequence:
#
# PCOD8213643 Si02
#       8
#     8   8   8   8   8   8   8   8
#     4   9  18  32  50  75 108 143 176 212 260 317
#     4   9  19  36  56  79 110 143 170 208 270 327
#     4  11  22  34  51  77 107 139 177 215 252 306
#     4   9  20  39  57  75 106 144 178 217 267 314
#     4  10  21  37  57  81 108 135 166 212 270 322
#     4   9  17  30  49  73 101 135 175 216 259 308
#     4  10  21  38  61  83 101 132 182 229 263 307
#     4   9  17  30  48  70 101 140 176 214 265 316
#
# _framework density 19.240704999999998
#
# number of rings (size 3 to 8) (size 9 to 14) (size 15 to 20)
#    0.000    2.500    0.000    3.750    0.000    7.500 
#    0.000    4.375    0.000    3.750    0.000    0.000 
#    0.000    0.000    0.000    0.000    0.000    0.000 
#
# Total GULP energy -792982.361593 kJ/mol
# GULP energy per Si atom -12390.349400 kJ/mol
# Density = 1.919691 g / cm^3
# Si number density = 19.240705 Si / 1000 Ang^3
#
#
#
# Elastic Constant Matrix: (Units=GPa)
#
#
# Indices 1 2 3 4 5 6 
#
# 1 71.6207 20.3682 26.8090 0.0000 0.0000 0.0000
# 2 20.3682 58.8844 34.0778 0.0000 0.0000 0.0000
# 3 26.8090 34.0778 87.5171 0.0000 0.0000 0.0000
# 4 0.0000 0.0000 0.0000 62.2036 0.0000 0.0000
# 5 0.0000 0.0000 0.0000 0.0000 24.5418 0.0000
# 6 0.0000 0.0000 0.0000 0.0000 0.0000 23.0884
#
#
#
# Elastic Compliance Matrix: (Units=1/GPa)
#
#
# Indices 1 2 3 4 5 6 
#
# 1 0.016327 -0.003554 -0.003618 0.000000 0.000000 0.000000
# 2 -0.003554 0.022696 -0.007749 0.000000 0.000000 0.000000
# 3 -0.003618 -0.007749 0.015552 0.000000 0.000000 0.000000
# 4 0.000000 0.000000 0.000000 0.016076 0.000000 0.000000
# 5 0.000000 0.000000 0.000000 0.000000 0.040747 0.000000
# 6 0.000000 0.000000 0.000000 0.000000 0.000000 0.043312
#
#
# Mechanical properties :
#
#
# Convention : Reuss Voigt Hill
#
# Bulk Modulus (GPa) = 40.42967 42.28134 41.35551
# Shear Modulus (GPa) = 25.93415 31.08457 28.50936
#
# Velocity S-wave (km/s) = 3.67533 4.02377 3.85349
# Velocity P-wave (km/s) = 6.25051 6.60381 6.42959
#
# Compressibility (1/GPa) = 0.02473431
#
# Stress axis : x y z
#
# Youngs Moduli (GPa) = 61.24700 44.06026 64.30123
#
# Poissons Ratio (x) = 0.15659 0.23262
# Poissons Ratio (y) = 0.21767 0.49826
# Poissons Ratio (z) = 0.22157 0.34142
#
# Static dielectric constant tensor:
#      x y z
#    x 3.626270 0.000000 0.000000 
#    y 0.000000 3.306510 0.000000 
#    z 0.000000 0.000000 3.448480 
# 
# 
# High freq. dielectric constant tensor:
#      x y z
#    x 1.742820 0.000000 0.000000 
#    y 0.000000 1.727900 0.000000 
#    z 0.000000 0.000000 1.747510 
# 
# From -- ./inp_files/26327.got.cif
#   From: 2010.03.12/outbox.cif.g09.slc.cpg/sg51_14_cif.got.tgz:26327.got - 2010.04.16 13:43:02.
