data_PCOD8213657
_publ_section_title
;
Structure prediction by ZEFSAII (Michael W. Deem and Ramdas Pophale) SiO2 
 PCOD8213657
Probable space group: P M M A
;
_chemical_formula_sum "Si O2"
_cell_formula_units_Z 48
_cell_length_a 30.140622
_cell_length_b 9.036919
_cell_length_c 9.399216
_cell_angle_alpha 90.000000
_cell_angle_beta 90.000000
_cell_angle_gamma 90.000000
_cell_volume 2560.143036
_symmetry_space_group_name_H-M "P M M A"
_symmetry_group_IT_number 51
_symmetry_cell_setting 'orthorhombic'
loop_
_space_group_symop_operation_xyz
x,y,z
1/2-x,-y,z
1/2+x,-y,-z
-x,y,-z
-x,-y,-z
1/2+x,y,-z
1/2-x,y,z
x,-y,z
loop_
_atom_site_type_symbol
_atom_site_label
_atom_site_fract_x
_atom_site_fract_y
_atom_site_fract_z
Si Si1 0.250000 0.326268 0.366325
Si Si2 0.422336 0.825292 0.156100
Si Si3 0.750000 0.174417 0.331661
Si Si4 0.995104 0.671227 0.664021
Si Si5 0.668943 0.329052 0.831458
Si Si6 0.424630 0.328965 0.864877
Si Si7 0.675892 0.669290 0.156508
O O1 0.250000 0.500000 0.398565
O O2 0.250000 0.237601 0.510921
O O3 0.293145 0.279860 0.277146
O O4 0.456666 0.772863 0.274483
O O5 0.373941 0.768663 0.200585
O O6 0.421725 0.000000 0.149550
O O7 0.437662 0.764575 0.003162
O O8 0.794013 0.225277 0.250638
O O9 0.750000 0.000000 0.340104
O O10 0.982298 0.500000 0.686446
O O11 0.000000 0.711741 0.500000
O O12 0.041697 0.708957 0.739024
O O13 0.655571 0.500000 0.811861
O O14 0.686677 0.302700 0.991031
O O15 0.426701 0.500000 0.911349
O O16 0.375252 0.290212 0.811007
O O17 0.686328 0.500000 0.198264
#
# Coordination Sequence:
#
# PCOD8213657 Si02
#       7
#     4   8   4   8   8   8   8
#     4  10  21  38  60  82 106 142 185 226 268 318
#     4  11  22  35  55  84 115 145 177 218 273 333
#     4  12  25  36  50  80 120 154 179 212 268 332
#     4  10  21  37  57  81 109 144 187 231 272 316
#     4   9  19  38  63  85 104 135 184 234 274 316
#     4   9  19  37  60  82 105 139 186 234 272 313
#     4   9  18  36  60  82 104 137 186 235 273 315
#
# _framework density 18.748951000000002
#
# number of rings (size 3 to 8) (size 9 to 14) (size 15 to 20)
#    0.000    2.167    0.000    4.250    0.000    9.000 
#    0.000    4.167    0.000    0.000    0.000    0.000 
#    0.000    0.000    0.000    0.000    0.000    0.000 
#
# Total GULP energy -595390.421655 kJ/mol
# GULP energy per Si atom -12403.967118 kJ/mol
# Density = 1.870628 g / cm^3
# Si number density = 18.748951 Si / 1000 Ang^3
#
#
#
# Elastic Constant Matrix: (Units=GPa)
#
#
# Indices 1 2 3 4 5 6 
#
# 1 127.8724 72.0935 94.1659 0.0000 0.0000 0.0000
# 2 72.0935 104.3806 72.8456 0.0000 0.0000 0.0000
# 3 94.1659 72.8456 140.2567 0.0000 0.0000 0.0000
# 4 0.0000 0.0000 0.0000 9.5127 0.0000 0.0000
# 5 0.0000 0.0000 0.0000 0.0000 6.5904 0.0000
# 6 0.0000 0.0000 0.0000 0.0000 0.0000 5.9034
#
#
#
# Elastic Compliance Matrix: (Units=1/GPa)
#
#
# Indices 1 2 3 4 5 6 
#
# 1 0.017676 -0.006159 -0.008669 0.000000 0.000000 0.000000
# 2 -0.006159 0.017173 -0.004784 0.000000 0.000000 0.000000
# 3 -0.008669 -0.004784 0.015435 0.000000 0.000000 0.000000
# 4 0.000000 0.000000 0.000000 0.105123 0.000000 0.000000
# 5 0.000000 0.000000 0.000000 0.000000 0.151735 0.000000
# 6 0.000000 0.000000 0.000000 0.000000 0.000000 0.169394
#
#
# Mechanical properties :
#
#
# Convention : Reuss Voigt Hill
#
# Bulk Modulus (GPa) = 90.41468 94.52442 92.46955
# Shear Modulus (GPa) = 9.62563 13.29495 11.46029
#
# Velocity S-wave (km/s) = 2.26828 2.66579 2.47503
# Velocity P-wave (km/s) = 7.42891 7.74600 7.58911
#
# Compressibility (1/GPa) = 0.01106015
#
# Stress axis : x y z
#
# Youngs Moduli (GPa) = 56.57238 58.23114 64.78888
#
# Poissons Ratio (x) = 0.35864 0.56165
# Poissons Ratio (y) = 0.34842 0.30996
# Poissons Ratio (z) = 0.49042 0.27859
#
# Static dielectric constant tensor:
#      x y z
#    x 3.657570 0.000000 0.000000 
#    y 0.000000 3.287260 0.000000 
#    z 0.000000 0.000000 3.408700 
# 
# 
# High freq. dielectric constant tensor:
#      x y z
#    x 1.741530 0.000000 0.000000 
#    y 0.000000 1.714290 0.000000 
#    z 0.000000 0.000000 1.726120 
# 
# From -- ./inp_files/12978.got.cif
#   From: 2010.03.12/outbox.cif.g09.slc.cpg/sg51_7_cif.got.tgz:12978.got - 2010.04.16 13:43:02.
