data_PCOD8213164
_publ_section_title
;
Structure prediction by ZEFSAII (Michael W. Deem and Ramdas Pophale) SiO2 
 PCOD8213164
Probable space group: P M M A
;
_chemical_formula_sum "Si O2"
_cell_formula_units_Z 64
_cell_length_a 22.453037
_cell_length_b 9.735319
_cell_length_c 15.057874
_cell_angle_alpha 90.000000
_cell_angle_beta 90.000000
_cell_angle_gamma 90.000000
_cell_volume 3291.462697
_symmetry_space_group_name_H-M "P M M A"
_symmetry_group_IT_number 51
_symmetry_cell_setting 'orthorhombic'
loop_
_space_group_symop_operation_xyz
x,y,z
1/2-x,-y,z
1/2+x,-y,-z
-x,y,-z
-x,-y,-z
1/2+x,y,-z
1/2-x,y,z
x,-y,z
loop_
_atom_site_type_symbol
_atom_site_label
_atom_site_fract_x
_atom_site_fract_y
_atom_site_fract_z
Si Si1 0.607530 0.835901 0.161083
Si Si2 0.681591 0.843606 0.801638
Si Si3 0.056296 0.659363 0.445120
Si Si4 0.913296 0.347091 0.745474
Si Si5 0.495302 0.656499 0.896434
Si Si6 0.314613 0.162898 0.000967
Si Si7 0.317434 0.346026 0.714340
Si Si8 0.815809 0.658253 0.494271
O O1 0.543457 0.767214 0.156453
O O2 0.643098 0.773279 0.242958
O O3 0.603409 0.000000 0.171316
O O4 0.637655 0.785946 0.069457
O O5 0.750000 0.829159 0.774020
O O6 0.642369 0.754390 0.735168
O O7 0.670164 0.784371 0.900685
O O8 0.660202 0.000000 0.794777
O O9 0.059179 0.500000 0.472527
O O10 0.043486 0.680804 0.339518
O O11 0.122632 0.724504 0.465895
O O12 0.000000 0.725670 0.500000
O O13 0.887443 0.500000 0.736301
O O14 0.943518 0.330436 0.841931
O O15 0.470604 0.500000 0.889435
O O16 0.500000 0.698689 0.000000
O O17 0.250000 0.220006 0.971783
O O18 0.312050 0.000000 0.003991
O O19 0.250000 0.328066 0.748068
O O20 0.340251 0.500000 0.739439
O O21 0.321417 0.323830 0.610380
O O22 0.750000 0.721961 0.523651
O O23 0.813909 0.500000 0.522135
#
# Coordination Sequence:
#
# PCOD8213164 Si02
#       8
#     8   8   8   8   8   8   8   8
#     4  11  21  31  50  77 103 138 182 227 272 316
#     4   9  18  34  56  78 103 138 173 206 254 317
#     4   9  18  31  51  79 107 137 176 225 277 322
#     4  10  21  35  54  81 107 135 174 221 270 313
#     4  10  22  38  53  73 107 147 183 222 270 324
#     4   8  15  29  48  71 100 134 173 216 259 306
#     4   9  18  32  51  76 105 138 173 213 268 330
#     4   8  15  29  50  75 103 136 174 217 268 328
#
# _framework density 19.444241999999999
#
# number of rings (size 3 to 8) (size 9 to 14) (size 15 to 20)
#    0.000    2.750    0.000    3.000    1.750    2.250 
#    0.000    1.875    0.000    2.625    0.000    0.000 
#    0.000    0.000    0.000    0.000    0.000    0.000 
#
# Total GULP energy -792840.958079 kJ/mol
# GULP energy per Si atom -12388.139970 kJ/mol
# Density = 1.939999 g / cm^3
# Si number density = 19.444242 Si / 1000 Ang^3
#
#
#
# Elastic Constant Matrix: (Units=GPa)
#
#
# Indices 1 2 3 4 5 6 
#
# 1 105.6219 36.3555 39.5865 0.0000 0.0000 0.0000
# 2 36.3555 65.2670 24.4871 0.0000 0.0000 0.0000
# 3 39.5865 24.4871 74.8132 0.0000 0.0000 0.0000
# 4 0.0000 0.0000 0.0000 15.2561 0.0000 0.0000
# 5 0.0000 0.0000 0.0000 0.0000 27.6855 0.0000
# 6 0.0000 0.0000 0.0000 0.0000 0.0000 21.4515
#
#
#
# Elastic Compliance Matrix: (Units=1/GPa)
#
#
# Indices 1 2 3 4 5 6 
#
# 1 0.013313 -0.005441 -0.005264 0.000000 0.000000 0.000000
# 2 -0.005441 0.019690 -0.003566 0.000000 0.000000 0.000000
# 3 -0.005264 -0.003566 0.017319 0.000000 0.000000 0.000000
# 4 0.000000 0.000000 0.000000 0.065548 0.000000 0.000000
# 5 0.000000 0.000000 0.000000 0.000000 0.036120 0.000000
# 6 0.000000 0.000000 0.000000 0.000000 0.000000 0.046617
#
#
# Mechanical properties :
#
#
# Convention : Reuss Voigt Hill
#
# Bulk Modulus (GPa) = 45.91032 49.61782 47.76407
# Shear Modulus (GPa) = 21.33026 22.56347 21.94687
#
# Velocity S-wave (km/s) = 3.31569 3.41019 3.36327
# Velocity P-wave (km/s) = 6.19039 6.40931 6.30080
#
# Compressibility (1/GPa) = 0.02178160
#
# Stress axis : x y z
#
# Youngs Moduli (GPa) = 75.11245 50.78637 57.74025
#
# Poissons Ratio (x) = 0.27633 0.30393
# Poissons Ratio (y) = 0.40869 0.20589
# Poissons Ratio (z) = 0.39537 0.18109
#
# Static dielectric constant tensor:
#      x y z
#    x 3.738410 0.000000 0.000000 
#    y 0.000000 3.131860 0.000000 
#    z 0.000000 0.000000 3.547050 
# 
# 
# High freq. dielectric constant tensor:
#      x y z
#    x 1.760050 0.000000 0.000000 
#    y 0.000000 1.709720 0.000000 
#    z 0.000000 0.000000 1.758590 
# 
# From -- ./inp_files/26227.got.cif
#   From: 2010.03.12/outbox.cif.g09.slc.cpg/sg51_14_cif.got.tgz:26227.got - 2010.04.16 13:43:02.
