data_PCOD8213038
_publ_section_title
;
Structure prediction by ZEFSAII (Michael W. Deem and Ramdas Pophale) SiO2 
 PCOD8213038
Probable space group: P M M A
;
_chemical_formula_sum "Si O2"
_cell_formula_units_Z 40
_cell_length_a 9.436578
_cell_length_b 9.240238
_cell_length_c 25.656064
_cell_angle_alpha 90.000000
_cell_angle_beta 90.000000
_cell_angle_gamma 90.000000
_cell_volume 2237.111971
_symmetry_space_group_name_H-M "P M M A"
_symmetry_group_IT_number 51
_symmetry_cell_setting 'orthorhombic'
loop_
_space_group_symop_operation_xyz
x,y,z
1/2-x,-y,z
1/2+x,-y,-z
-x,y,-z
-x,-y,-z
1/2+x,y,-z
1/2-x,y,z
x,-y,z
loop_
_atom_site_type_symbol
_atom_site_label
_atom_site_fract_x
_atom_site_fract_y
_atom_site_fract_z
Si Si1 0.914202 0.168966 0.347136
Si Si2 0.414325 0.332360 0.550033
Si Si3 0.583271 0.665291 0.739080
Si Si4 0.909841 0.327363 0.048955
Si Si5 0.407083 0.671716 0.144053
O O1 0.750000 0.204986 0.337540
O O2 0.967995 0.243911 0.400040
O O3 0.001368 0.228662 0.298840
O O4 0.942763 0.000000 0.352512
O O5 0.500000 0.276410 0.500000
O O6 0.250000 0.303546 0.538779
O O7 0.446205 0.500000 0.561127
O O8 0.750000 0.680262 0.729532
O O9 0.534761 0.500000 0.729296
O O10 0.544090 0.714973 0.797811
O O11 0.750000 0.266561 0.045480
O O12 0.907883 0.500000 0.049085
O O13 0.982018 0.266898 0.101826
O O14 0.000000 0.269469 0.000000
O O15 0.250000 0.734532 0.132195
O O16 0.399002 0.500000 0.140223
#
# Coordination Sequence:
#
# PCOD8213038 Si02
#       5
#     8   8   8   8   8
#     4  10  21  35  50  71 100 131 162 197 238 285
#     4   9  18  33  52  73  97 126 160 197 236 279
#     4   9  18  32  50  71  94 123 161 203 245 289
#     4   9  15  21  31  50  78 113 150 186 228 279
#     4   8  14  25  39  56  81 112 147 189 234 279
#
# _framework density 17.880196999999999
#
# number of rings (size 3 to 8) (size 9 to 14) (size 15 to 20)
#    0.000    3.000    0.000    2.400    0.000    6.000 
#    0.000    4.000    0.000    0.000    0.000    0.000 
#    0.000    0.800    0.000    2.600    0.000    5.800 
#
# Total GULP energy -495943.165945 kJ/mol
# GULP energy per Si atom -12398.579149 kJ/mol
# Density = 1.783950 g / cm^3
# Si number density = 17.880197 Si / 1000 Ang^3
#
#
#
# Elastic Constant Matrix: (Units=GPa)
#
#
# Indices 1 2 3 4 5 6 
#
# 1 96.1118 29.4689 86.4301 0.0000 0.0000 0.0000
# 2 29.4689 40.8733 46.2599 0.0000 0.0000 0.0000
# 3 86.4301 46.2599 174.1444 0.0000 0.0000 0.0000
# 4 0.0000 0.0000 0.0000 0.3908 0.0000 0.0000
# 5 0.0000 0.0000 0.0000 0.0000 38.0653 0.0000
# 6 0.0000 0.0000 0.0000 0.0000 0.0000 17.0992
#
#
#
# Elastic Compliance Matrix: (Units=1/GPa)
#
#
# Indices 1 2 3 4 5 6 
#
# 1 0.019330 -0.004402 -0.008424 0.000000 0.000000 0.000000
# 2 -0.004402 0.035986 -0.007375 0.000000 0.000000 0.000000
# 3 -0.008424 -0.007375 0.011882 0.000000 0.000000 0.000000
# 4 0.000000 0.000000 0.000000 2.558541 0.000000 0.000000
# 5 0.000000 0.000000 0.000000 0.000000 0.026271 0.000000
# 6 0.000000 0.000000 0.000000 0.000000 0.000000 0.058482
#
#
# Mechanical properties :
#
#
# Convention : Reuss Voigt Hill
#
# Bulk Modulus (GPa) = 37.31813 70.60527 53.96170
# Shear Modulus (GPa) = 1.81171 21.04244 11.42707
#
# Velocity S-wave (km/s) = 1.00769 3.43426 2.53077
# Velocity P-wave (km/s) = 4.71916 7.43634 6.22775
#
# Compressibility (1/GPa) = 0.02679663
#
# Stress axis : x y z
#
# Youngs Moduli (GPa) = 51.73303 27.78850 84.15739
#
# Poissons Ratio (x) = 0.12232 0.70897
# Poissons Ratio (y) = 0.22773 0.62063
# Poissons Ratio (z) = 0.43582 0.20493
#
# Static dielectric constant tensor:
#      x y z
#    x 3.473650 0.000000 0.000000 
#    y 0.000000 2.833080 0.000000 
#    z 0.000000 0.000000 3.535820 
# 
# 
# High freq. dielectric constant tensor:
#      x y z
#    x 1.691570 0.000000 0.000000 
#    y 0.000000 1.639650 0.000000 
#    z 0.000000 0.000000 1.706730 
# 
# From -- ./inp_files/35982.got.cif
#   From: 2010.03.12/outbox.cif.g09.slc.cpg/sg51_18_cif.got.tgz:35982.got - 2010.04.16 13:43:02.
