data_PCOD8213236
_publ_section_title
;
Structure prediction by ZEFSAII (Michael W. Deem and Ramdas Pophale) SiO2 
 PCOD8213236
Probable space group: P M M A
;
_chemical_formula_sum "Si O2"
_cell_formula_units_Z 48
_cell_length_a 9.302934
_cell_length_b 9.021456
_cell_length_c 31.434335
_cell_angle_alpha 90.000000
_cell_angle_beta 90.000000
_cell_angle_gamma 90.000000
_cell_volume 2638.158306
_symmetry_space_group_name_H-M "P M M A"
_symmetry_group_IT_number 51
_symmetry_cell_setting 'orthorhombic'
loop_
_space_group_symop_operation_xyz
x,y,z
1/2-x,-y,z
1/2+x,-y,-z
-x,y,-z
-x,-y,-z
1/2+x,y,-z
1/2-x,y,z
x,-y,z
loop_
_atom_site_type_symbol
_atom_site_label
_atom_site_fract_x
_atom_site_fract_y
_atom_site_fract_z
Si Si1 0.914213 0.325272 0.616717
Si Si2 0.417564 0.827864 0.542502
Si Si3 0.915311 0.172461 0.703522
Si Si4 0.412441 0.322613 0.960418
Si Si5 0.083278 0.327361 0.869495
Si Si6 0.421158 0.329490 0.777692
O O1 0.750000 0.277355 0.606441
O O2 0.929063 0.500000 0.620027
O O3 0.965431 0.256883 0.661227
O O4 0.020121 0.267361 0.580751
O O5 0.500000 0.779432 0.500000
O O6 0.250000 0.791639 0.536584
O O7 0.443964 0.000000 0.552568
O O8 0.750000 0.208099 0.713862
O O9 0.010054 0.225967 0.742571
O O10 0.942166 0.000000 0.695891
O O11 0.250000 0.265349 0.965237
O O12 0.415890 0.500000 0.961190
O O13 0.481749 0.268097 0.914692
O O14 0.500000 0.254953 0.000000
O O15 0.250000 0.292349 0.873176
O O16 0.055036 0.500000 0.866093
O O17 0.025602 0.264910 0.824149
O O18 0.250000 0.318775 0.774801
O O19 0.470038 0.500000 0.770996
#
# Coordination Sequence:
#
# PCOD8213236 Si02
#       6
#     8   8   8   8   8   8
#     4  10  21  37  57  79 103 134 171 208 247 292
#     4  10  21  37  58  83 110 141 175 209 246 288
#     4  10  21  36  53  73  99 131 164 200 246 297
#     4   8  12  18  29  46  72 107 144 180 219 267
#     4   7  11  21  36  54  79 113 149 184 227 278
#     4   9  17  30  49  71  94 123 161 202 242 287
#
# _framework density 18.194510999999999
#
# number of rings (size 3 to 8) (size 9 to 14) (size 15 to 20)
#    0.000    3.000    0.000    3.500    0.000    4.333 
#    0.000    0.833    0.000    3.000    0.000    0.000 
#    0.000    0.667    0.000    1.500    0.000    4.333 
#
# Total GULP energy -594698.798086 kJ/mol
# GULP energy per Si atom -12389.558293 kJ/mol
# Density = 1.815310 g / cm^3
# Si number density = 18.194511 Si / 1000 Ang^3
#
#
#
# Elastic Constant Matrix: (Units=GPa)
#
#
# Indices 1 2 3 4 5 6 
#
# 1 63.9509 27.3182 65.2354 0.0000 0.0000 0.0000
# 2 27.3182 45.8042 47.5606 0.0000 0.0000 0.0000
# 3 65.2354 47.5606 185.8937 0.0000 0.0000 0.0000
# 4 0.0000 0.0000 0.0000 -14.4787 0.0000 0.0000
# 5 0.0000 0.0000 0.0000 0.0000 32.4982 0.0000
# 6 0.0000 0.0000 0.0000 0.0000 0.0000 21.5059
#
#
#
# Elastic Compliance Matrix: (Units=1/GPa)
#
#
# Indices 1 2 3 4 5 6 
#
# 1 0.026525 -0.008381 -0.007164 0.000000 0.000000 0.000000
# 2 -0.008381 0.032378 -0.005343 0.000000 0.000000 0.000000
# 3 -0.007164 -0.005343 0.009260 0.000000 0.000000 0.000000
# 4 0.000000 0.000000 0.000000 -0.069067 0.000000 0.000000
# 5 0.000000 0.000000 0.000000 0.000000 0.030771 0.000000
# 6 0.000000 0.000000 0.000000 0.000000 0.000000 0.046499
#
#
# Mechanical properties :
#
#
# Convention : Reuss Voigt Hill
#
# Bulk Modulus (GPa) = 37.89609 63.98634 50.94122
# Shear Modulus (GPa) = 39.38893 18.27405 28.83149
#
# Velocity S-wave (km/s) = 4.65787 3.17262 3.98505
# Velocity P-wave (km/s) = 7.05700 6.97603 7.01663
#
# Compressibility (1/GPa) = 0.02638795
#
# Stress axis : x y z
#
# Youngs Moduli (GPa) = 37.69988 30.88484 107.98589
#
# Poissons Ratio (x) = 0.25885 0.77363
# Poissons Ratio (y) = 0.31597 0.57694
# Poissons Ratio (z) = 0.27009 0.16501
#
# Static dielectric constant tensor:
#      x y z
#    x 3.174230 0.000000 0.000000 
#    y 0.000000 2.988790 0.000000 
#    z 0.000000 0.000000 3.861800 
# 
# 
# High freq. dielectric constant tensor:
#      x y z
#    x 1.679660 0.000000 0.000000 
#    y 0.000000 1.664760 0.000000 
#    z 0.000000 0.000000 1.733380 
# 
# From -- ./inp_files/37682.got.cif
#   From: 2010.03.12/outbox.cif.g09.slc.cpg/sg51_19_cif.got.tgz:37682.got - 2010.04.16 13:43:02.
