data_PCOD8213073
_publ_section_title
;
Structure prediction by ZEFSAII (Michael W. Deem and Ramdas Pophale) SiO2 
 PCOD8213073
Probable space group: P M M A
;
_chemical_formula_sum "Si O2"
_cell_formula_units_Z 36
_cell_length_a 9.578082
_cell_length_b 22.888428
_cell_length_c 9.297280
_cell_angle_alpha 90.000000
_cell_angle_beta 90.000000
_cell_angle_gamma 90.000000
_cell_volume 2038.217036
_symmetry_space_group_name_H-M "P M M A"
_symmetry_group_IT_number 51
_symmetry_cell_setting 'orthorhombic'
loop_
_space_group_symop_operation_xyz
x,y,z
1/2-x,-y,z
1/2+x,-y,-z
-x,y,-z
-x,-y,-z
1/2+x,y,-z
1/2-x,y,z
x,-y,z
loop_
_atom_site_type_symbol
_atom_site_label
_atom_site_fract_x
_atom_site_fract_y
_atom_site_fract_z
Si Si1 0.411365 0.839415 0.862839
Si Si2 0.088811 0.293403 0.860018
Si Si3 0.587069 0.393548 0.354327
Si Si4 0.409701 0.064773 0.639942
Si Si5 0.586915 0.500000 0.147048
O O1 0.250000 0.848884 0.900700
O O2 0.440599 0.773154 0.812019
O O3 0.463721 0.884893 0.744677
O O4 0.500000 0.855339 0.000000
O O5 0.250000 0.303414 0.902103
O O6 0.047538 0.332743 0.723342
O O7 0.000000 0.310994 0.000000
O O8 0.500000 0.400379 0.500000
O O9 0.750000 0.396598 0.395491
O O10 0.546825 0.444016 0.242137
O O11 0.500000 0.070581 0.500000
O O12 0.250000 0.075970 0.597000
O O13 0.427980 0.000000 0.709240
O O14 0.750000 0.500000 0.105894
O O15 0.500000 0.500000 0.000000
#
# Coordination Sequence:
#
# PCOD8213073 Si02
#       5
#     8   8   8   8   4
#     4   9  18  32  49  70  96 124 156 196 238 280
#     4   9  18  33  51  71  96 126 160 196 235 282
#     4  10  21  35  51  74 102 129 160 198 238 281
#     4   9  18  32  48  67  93 124 157 194 236 282
#     4  10  21  36  54  76 100 128 163 200 238 282
#
# _framework density 17.662496999999998
#
# number of rings (size 3 to 8) (size 9 to 14) (size 15 to 20)
#    0.000    2.667    0.000    1.000    0.000    4.000 
#    0.000    0.000    0.000    0.000    0.000    0.000 
#    0.000    0.000    0.000    0.000    0.000    0.000 
#
# Total GULP energy -446371.747540 kJ/mol
# GULP energy per Si atom -12399.215209 kJ/mol
# Density = 1.762230 g / cm^3
# Si number density = 17.662497 Si / 1000 Ang^3
#
#
#
# Elastic Constant Matrix: (Units=GPa)
#
#
# Indices 1 2 3 4 5 6 
#
# 1 58.7845 50.2706 64.3827 0.0000 0.0000 0.0000
# 2 50.2706 126.7840 87.2684 0.0000 0.0000 0.0000
# 3 64.3827 87.2684 134.2003 0.0000 0.0000 0.0000
# 4 0.0000 0.0000 0.0000 28.2986 0.0000 0.0000
# 5 0.0000 0.0000 0.0000 0.0000 37.7745 0.0000
# 6 0.0000 0.0000 0.0000 0.0000 0.0000 23.1727
#
#
#
# Elastic Compliance Matrix: (Units=1/GPa)
#
#
# Indices 1 2 3 4 5 6 
#
# 1 0.037191 -0.004463 -0.014940 0.000000 0.000000 0.000000
# 2 -0.004463 0.014814 -0.007492 0.000000 0.000000 0.000000
# 3 -0.014940 -0.007492 0.019491 0.000000 0.000000 0.000000
# 4 0.000000 0.000000 0.000000 0.035337 0.000000 0.000000
# 5 0.000000 0.000000 0.000000 0.000000 0.026473 0.000000
# 6 0.000000 0.000000 0.000000 0.000000 0.000000 0.043154
#
#
# Mechanical properties :
#
#
# Convention : Reuss Voigt Hill
#
# Bulk Modulus (GPa) = 56.47962 80.40136 68.44049
# Shear Modulus (GPa) = 21.17268 25.70562 23.43915
#
# Velocity S-wave (km/s) = 3.46603 3.81908 3.64683
# Velocity P-wave (km/s) = 6.93285 8.06641 7.52102
#
# Compressibility (1/GPa) = 0.01770550
#
# Stress axis : x y z
#
# Youngs Moduli (GPa) = 26.88843 67.50329 51.30461
#
# Poissons Ratio (x) = 0.30124 0.76651
# Poissons Ratio (y) = 0.11999 0.38440
# Poissons Ratio (z) = 0.40172 0.50577
#
# Static dielectric constant tensor:
#      x y z
#    x 3.256210 0.000000 0.000000 
#    y 0.000000 3.632420 0.000000 
#    z 0.000000 0.000000 3.113110 
# 
# 
# High freq. dielectric constant tensor:
#      x y z
#    x 1.681310 0.000000 0.000000 
#    y 0.000000 1.702100 0.000000 
#    z 0.000000 0.000000 1.670270 
# 
# From -- ./inp_files/6936.got.cif
#   From: 2010.03.12/outbox.cif.g09.slc.cpg/sg51_4_cif.got.tgz:6936.got - 2010.04.16 13:43:02.
