data_PCOD8213857
_publ_section_title
;
Structure prediction by ZEFSAII (Michael W. Deem and Ramdas Pophale) SiO2 
 PCOD8213857
Probable space group: P M M A
;
_chemical_formula_sum "Si O2"
_cell_formula_units_Z 64
_cell_length_a 13.802698
_cell_length_b 9.073785
_cell_length_c 26.171774
_cell_angle_alpha 90.000000
_cell_angle_beta 90.000000
_cell_angle_gamma 90.000000
_cell_volume 3277.824008
_symmetry_space_group_name_H-M "P M M A"
_symmetry_group_IT_number 51
_symmetry_cell_setting 'orthorhombic'
loop_
_space_group_symop_operation_xyz
x,y,z
1/2-x,-y,z
1/2+x,-y,-z
-x,y,-z
-x,-y,-z
1/2+x,y,-z
1/2-x,y,z
x,-y,z
loop_
_atom_site_type_symbol
_atom_site_label
_atom_site_fract_x
_atom_site_fract_y
_atom_site_fract_z
Si Si1 0.635535 0.831645 0.866771
Si Si2 0.134572 0.334340 0.922724
Si Si3 0.955000 0.825587 0.579283
Si Si4 0.356541 0.174755 0.523946
Si Si5 0.360401 0.674056 0.325335
Si Si6 0.468676 0.326672 0.223018
Si Si7 0.634870 0.834515 0.980051
Si Si8 0.360481 0.173922 0.820300
O O1 0.750000 0.819807 0.862229
O O2 0.589710 0.719690 0.827030
O O3 0.601157 0.782198 0.923642
O O4 0.602345 0.000000 0.855680
O O5 0.250000 0.333245 0.926367
O O6 0.095233 0.500000 0.915432
O O7 0.101921 0.235737 0.874657
O O8 0.090093 0.267255 0.975142
O O9 0.887563 0.771933 0.532487
O O10 0.922442 0.745603 0.630072
O O11 0.065478 0.775598 0.566483
O O12 0.947692 0.000000 0.587363
O O13 0.250000 0.239542 0.537178
O O14 0.354317 0.000000 0.522836
O O15 0.250000 0.732201 0.326736
O O16 0.363488 0.500000 0.331890
O O17 0.408002 0.723873 0.272199
O O18 0.486393 0.500000 0.222545
O O19 0.572928 0.245096 0.223837
O O20 0.750000 0.829612 0.982127
O O21 0.598774 0.000000 0.990405
O O22 0.250000 0.220762 0.809333
O O23 0.372654 0.000000 0.820790
#
# Coordination Sequence:
#
# PCOD8213857 Si02
#       8
#     8   8   8   8   8   8   8   8
#     4   9  18  33  53  77 106 139 174 215 264 317
#     4   9  16  27  47  75 103 131 165 205 252 311
#     4   9  17  30  53  83 110 144 191 232 265 310
#     4   8  14  27  49  80 118 152 182 224 276 319
#     4  10  22  39  56  77 109 145 177 215 267 318
#     4  11  23  38  56  77 103 136 175 220 268 320
#     4   8  14  26  45  70 101 135 167 202 252 312
#     4  10  21  38  59  79 100 129 167 214 267 321
#
# _framework density 19.52515
#
# number of rings (size 3 to 8) (size 9 to 14) (size 15 to 20)
#    0.000    2.750    0.000    3.375    0.000    5.250 
#    0.000    3.750    0.000    7.125    0.000    0.000 
#    0.000    0.000    0.000    0.000    0.000    0.000 
#
# Total GULP energy -793458.434164 kJ/mol
# GULP energy per Si atom -12397.788034 kJ/mol
# Density = 1.948071 g / cm^3
# Si number density = 19.525150 Si / 1000 Ang^3
#
#
#
# Elastic Constant Matrix: (Units=GPa)
#
#
# Indices 1 2 3 4 5 6 
#
# 1 112.9536 27.0007 71.5114 0.0000 0.0000 0.0000
# 2 27.0007 61.8826 46.6659 0.0000 0.0000 0.0000
# 3 71.5114 46.6659 123.2536 0.0000 0.0000 0.0000
# 4 0.0000 0.0000 0.0000 9.6911 0.0000 0.0000
# 5 0.0000 0.0000 0.0000 0.0000 30.8501 0.0000
# 6 0.0000 0.0000 0.0000 0.0000 0.0000 21.7162
#
#
#
# Elastic Compliance Matrix: (Units=1/GPa)
#
#
# Indices 1 2 3 4 5 6 
#
# 1 0.013993 0.000024 -0.008128 0.000000 0.000000 0.000000
# 2 0.000024 0.022617 -0.008577 0.000000 0.000000 0.000000
# 3 -0.008128 -0.008577 0.016076 0.000000 0.000000 0.000000
# 4 0.000000 0.000000 0.000000 0.103187 0.000000 0.000000
# 5 0.000000 0.000000 0.000000 0.000000 0.032415 0.000000
# 6 0.000000 0.000000 0.000000 0.000000 0.000000 0.046049
#
#
# Mechanical properties :
#
#
# Convention : Reuss Voigt Hill
#
# Bulk Modulus (GPa) = 51.74726 65.38286 58.56506
# Shear Modulus (GPa) = 18.23876 22.64562 20.44219
#
# Velocity S-wave (km/s) = 3.05965 3.40930 3.23920
# Velocity P-wave (km/s) = 6.24839 7.00407 6.63699
#
# Compressibility (1/GPa) = 0.01932469
#
# Stress axis : x y z
#
# Youngs Moduli (GPa) = 71.46282 44.21407 62.20269
#
# Poissons Ratio (x) = -0.00105 0.50557
# Poissons Ratio (y) = -0.00169 0.53351
# Poissons Ratio (z) = 0.58084 0.37922
#
# Static dielectric constant tensor:
#      x y z
#    x 3.869130 0.000000 0.000000 
#    y 0.000000 3.382470 0.000000 
#    z 0.000000 0.000000 3.504000 
# 
# 
# High freq. dielectric constant tensor:
#      x y z
#    x 1.771920 0.000000 0.000000 
#    y 0.000000 1.741070 0.000000 
#    z 0.000000 0.000000 1.746130 
# 
# From -- ./inp_files/35737.got.cif
#   From: 2010.03.12/outbox.cif.g09.slc.cpg/sg51_18_cif.got.tgz:35737.got - 2010.04.16 13:43:02.
