data_PCOD8213782
_publ_section_title
;
Structure prediction by ZEFSAII (Michael W. Deem and Ramdas Pophale) SiO2 
 PCOD8213782
Probable space group: P M M A
;
_chemical_formula_sum "Si O2"
_cell_formula_units_Z 32
_cell_length_a 9.466081
_cell_length_b 15.040505
_cell_length_c 10.548733
_cell_angle_alpha 90.000000
_cell_angle_beta 90.000000
_cell_angle_gamma 90.000000
_cell_volume 1501.872049
_symmetry_space_group_name_H-M "P M M A"
_symmetry_group_IT_number 51
_symmetry_cell_setting 'orthorhombic'
loop_
_space_group_symop_operation_xyz
x,y,z
1/2-x,-y,z
1/2+x,-y,-z
-x,y,-z
-x,-y,-z
1/2+x,y,-z
1/2-x,y,z
x,-y,z
loop_
_atom_site_type_symbol
_atom_site_label
_atom_site_fract_x
_atom_site_fract_y
_atom_site_fract_z
Si Si1 0.000000 0.754527 0.500000
Si Si2 0.090054 0.163867 0.121510
Si Si3 0.592059 0.654369 0.746455
Si Si4 0.599091 0.097491 0.334320
Si Si5 0.921124 0.500000 0.135502
O O1 0.071214 0.691278 0.395504
O O2 0.110362 0.822954 0.563375
O O3 0.250000 0.133563 0.098727
O O4 0.079851 0.268397 0.149770
O O5 0.030585 0.109481 0.239718
O O6 0.000000 0.138980 0.000000
O O7 0.750000 0.612182 0.753181
O O8 0.470393 0.584556 0.782371
O O9 0.750000 0.101532 0.261231
O O10 0.581836 0.000000 0.399035
O O11 0.750000 0.500000 0.119402
O O12 0.000000 0.500000 0.000000
#
# Coordination Sequence:
#
# PCOD8213782 Si02
#       5
#     4   8   8   8   4
#     4  10  21  39  64  90 120 156 200 245 291 346
#     4  10  21  37  59  86 117 156 200 248 301 355
#     4  10  22  40  63  90 121 157 197 242 293 350
#     4  10  21  37  59  87 119 157 200 247 298 351
#     4  12  26  43  66  93 122 155 193 239 291 350
#
# _framework density 21.306740000000001
#
# number of rings (size 3 to 8) (size 9 to 14) (size 15 to 20)
#    0.000    1.750    0.000    3.750    0.000   10.500 
#    0.000    0.000    0.000    0.000    0.000    0.000 
#    0.000    0.000    0.000    0.000    0.000    0.000 
#
# Total GULP energy -396556.299633 kJ/mol
# GULP energy per Si atom -12392.384364 kJ/mol
# Density = 2.125824 g / cm^3
# Si number density = 21.306740 Si / 1000 Ang^3
#
#
#
# Elastic Constant Matrix: (Units=GPa)
#
#
# Indices 1 2 3 4 5 6 
#
# 1 184.6082 56.2541 58.5337 0.0000 0.0000 0.0000
# 2 56.2541 104.6367 40.5813 0.0000 0.0000 0.0000
# 3 58.5337 40.5813 119.1744 0.0000 0.0000 0.0000
# 4 0.0000 0.0000 0.0000 -3.0387 0.0000 0.0000
# 5 0.0000 0.0000 0.0000 0.0000 30.4158 0.0000
# 6 0.0000 0.0000 0.0000 0.0000 0.0000 32.2749
#
#
#
# Elastic Compliance Matrix: (Units=1/GPa)
#
#
# Indices 1 2 3 4 5 6 
#
# 1 0.007076 -0.002830 -0.002512 0.000000 0.000000 0.000000
# 2 -0.002830 0.012143 -0.002745 0.000000 0.000000 0.000000
# 3 -0.002512 -0.002745 0.010559 0.000000 0.000000 0.000000
# 4 0.000000 0.000000 0.000000 -0.329085 0.000000 0.000000
# 5 0.000000 0.000000 0.000000 0.000000 0.032878 0.000000
# 6 0.000000 0.000000 0.000000 0.000000 0.000000 0.030984
#
#
# Mechanical properties :
#
#
# Convention : Reuss Voigt Hill
#
# Bulk Modulus (GPa) = 73.50283 79.90638 76.70461
# Shear Modulus (GPa) = -23.28416 28.80041 2.75812
#
# Velocity S-wave (km/s) = -3.30935 3.68054 1.13899
# Velocity P-wave (km/s) = 4.46878 7.45963 6.14882
#
# Compressibility (1/GPa) = 0.01360492
#
# Stress axis : x y z
#
# Youngs Moduli (GPa) = 141.33194 82.35329 94.70248
#
# Poissons Ratio (x) = 0.23305 0.23786
# Poissons Ratio (y) = 0.39994 0.25996
# Poissons Ratio (z) = 0.35497 0.22606
#
# Static dielectric constant tensor:
#      x y z
#    x 4.017830 0.000000 0.000000 
#    y 0.000000 3.824550 0.000000 
#    z 0.000000 0.000000 3.754000 
# 
# 
# High freq. dielectric constant tensor:
#      x y z
#    x 1.846810 0.000000 0.000000 
#    y 0.000000 1.834400 0.000000 
#    z 0.000000 0.000000 1.827420 
# 
# From -- ./inp_files/13824.got.cif
#   From: 2010.03.12/outbox.cif.g09.slc.cpg/sg51_7_cif.got.tgz:13824.got - 2010.04.16 13:43:02.
