data_PCOD8213312
_publ_section_title
;
Structure prediction by ZEFSAII (Michael W. Deem and Ramdas Pophale) SiO2 
 PCOD8213312
Probable space group: P M M A
;
_chemical_formula_sum "Si O2"
_cell_formula_units_Z 40
_cell_length_a 9.080559
_cell_length_b 9.518028
_cell_length_c 25.636950
_cell_angle_alpha 90.000000
_cell_angle_beta 90.000000
_cell_angle_gamma 90.000000
_cell_volume 2215.776331
_symmetry_space_group_name_H-M "P M M A"
_symmetry_group_IT_number 51
_symmetry_cell_setting 'orthorhombic'
loop_
_space_group_symop_operation_xyz
x,y,z
1/2-x,-y,z
1/2+x,-y,-z
-x,y,-z
-x,-y,-z
1/2+x,y,-z
1/2-x,y,z
x,-y,z
loop_
_atom_site_type_symbol
_atom_site_label
_atom_site_fract_x
_atom_site_fract_y
_atom_site_fract_z
Si Si1 0.920406 0.335639 0.642060
Si Si2 0.078258 0.163068 0.553132
Si Si3 0.084051 0.832611 0.050436
Si Si4 0.078323 0.162204 0.846707
Si Si5 0.080415 0.662564 0.747340
O O1 0.750000 0.293091 0.638625
O O2 0.944542 0.500000 0.631804
O O3 0.012102 0.252004 0.599728
O O4 0.980854 0.292712 0.698626
O O5 0.250000 0.196364 0.547649
O O6 0.000000 0.210358 0.500000
O O7 0.048489 0.000000 0.564865
O O8 0.250000 0.775475 0.049349
O O9 0.006445 0.778213 0.102973
O O10 0.079574 0.000000 0.049111
O O11 0.000000 0.771420 0.000000
O O12 0.250000 0.184647 0.857479
O O13 0.024824 0.248441 0.796552
O O14 0.040310 0.000000 0.836353
O O15 0.250000 0.696973 0.733793
O O16 0.059379 0.500000 0.761355
#
# Coordination Sequence:
#
# PCOD8213312 Si02
#       5
#     8   8   8   8   8
#     4  10  21  36  54  77 104 135 172 211 250 295
#     4  10  21  37  57  80 106 136 169 206 251 301
#     4   9  16  26  42  65  93 123 154 191 237 286
#     4   9  17  29  46  69  95 122 156 198 241 287
#     4   9  18  33  51  70  96 131 166 201 245 294
#
# _framework density 18.052364000000001
#
# number of rings (size 3 to 8) (size 9 to 14) (size 15 to 20)
#    0.000    2.600    0.000    1.800    0.000    6.800 
#    0.000    2.000    0.000    0.600    0.000    0.000 
#    0.000    0.000    0.000    0.000    0.000    0.000 
#
# Total GULP energy -496102.396974 kJ/mol
# GULP energy per Si atom -12402.559924 kJ/mol
# Density = 1.801128 g / cm^3
# Si number density = 18.052364 Si / 1000 Ang^3
#
#
#
# Elastic Constant Matrix: (Units=GPa)
#
#
# Indices 1 2 3 4 5 6 
#
# 1 114.7686 40.1689 87.2094 0.0000 0.0000 0.0000
# 2 40.1689 44.6829 63.2838 0.0000 0.0000 0.0000
# 3 87.2094 63.2838 174.6047 0.0000 0.0000 0.0000
# 4 0.0000 0.0000 0.0000 -45.1204 0.0000 0.0000
# 5 0.0000 0.0000 0.0000 0.0000 41.1042 0.0000
# 6 0.0000 0.0000 0.0000 0.0000 0.0000 18.9546
#
#
#
# Elastic Compliance Matrix: (Units=1/GPa)
#
#
# Indices 1 2 3 4 5 6 
#
# 1 0.014741 -0.005803 -0.005259 0.000000 0.000000 0.000000
# 2 -0.005803 0.048269 -0.014596 0.000000 0.000000 0.000000
# 3 -0.005259 -0.014596 0.013644 0.000000 0.000000 0.000000
# 4 0.000000 0.000000 0.000000 -0.022163 0.000000 0.000000
# 5 0.000000 0.000000 0.000000 0.000000 0.024328 0.000000
# 6 0.000000 0.000000 0.000000 0.000000 0.000000 0.052758
#
#
# Mechanical properties :
#
#
# Convention : Reuss Voigt Hill
#
# Bulk Modulus (GPa) = 39.46768 79.48671 59.47719
# Shear Modulus (GPa) = 26.13153 12.54728 19.33941
#
# Velocity S-wave (km/s) = 3.80878 2.63924 3.27662
# Velocity P-wave (km/s) = 6.42283 7.30850 6.87993
#
# Compressibility (1/GPa) = 0.02533719
#
# Stress axis : x y z
#
# Youngs Moduli (GPa) = 67.84022 20.71716 73.29036
#
# Poissons Ratio (x) = 0.12022 0.38545
# Poissons Ratio (y) = 0.39366 1.06977
# Poissons Ratio (z) = 0.35679 0.30240
#
# Static dielectric constant tensor:
#      x y z
#    x 3.573670 0.000000 0.000000 
#    y 0.000000 3.084890 0.000000 
#    z 0.000000 0.000000 3.487630 
# 
# 
# High freq. dielectric constant tensor:
#      x y z
#    x 1.707220 0.000000 0.000000 
#    y 0.000000 1.668560 0.000000 
#    z 0.000000 0.000000 1.711880 
# 
# From -- ./inp_files/31347.got.cif
#   From: 2010.03.12/outbox.cif.g09.slc.cpg/sg51_16_cif.got.tgz:31347.got - 2010.04.16 13:43:02.
