data_PCOD8213366
_publ_section_title
;
Structure prediction by ZEFSAII (Michael W. Deem and Ramdas Pophale) SiO2 
 PCOD8213366
Probable space group: P M M A
;
_chemical_formula_sum "Si O2"
_cell_formula_units_Z 56
_cell_length_a 15.705085
_cell_length_b 9.465871
_cell_length_c 19.256396
_cell_angle_alpha 90.000000
_cell_angle_beta 90.000000
_cell_angle_gamma 90.000000
_cell_volume 2862.700286
_symmetry_space_group_name_H-M "P M M A"
_symmetry_group_IT_number 51
_symmetry_cell_setting 'orthorhombic'
loop_
_space_group_symop_operation_xyz
x,y,z
1/2-x,-y,z
1/2+x,-y,-z
-x,y,-z
-x,-y,-z
1/2+x,y,-z
1/2-x,y,z
x,-y,z
loop_
_atom_site_type_symbol
_atom_site_label
_atom_site_fract_x
_atom_site_fract_y
_atom_site_fract_z
Si Si1 0.648893 0.342121 0.077944
Si Si2 0.653759 0.164928 0.654993
Si Si3 0.846113 0.334828 0.922760
Si Si4 0.396413 0.840360 0.794558
Si Si5 0.655651 0.662345 0.331625
Si Si6 0.089600 0.842445 0.199362
Si Si7 0.993381 0.665819 0.580007
O O1 0.750000 0.340885 0.081102
O O2 0.615788 0.500000 0.096698
O O3 0.610739 0.227710 0.129592
O O4 0.619215 0.301560 0.999988
O O5 0.750000 0.197585 0.629820
O O6 0.647925 0.207312 0.736347
O O7 0.587987 0.254984 0.610447
O O8 0.631277 0.000000 0.645949
O O9 0.750000 0.278712 0.914434
O O10 0.850267 0.500000 0.908029
O O11 0.904320 0.258800 0.866470
O O12 0.343362 0.752527 0.738680
O O13 0.494101 0.838508 0.771413
O O14 0.360770 0.000000 0.797620
O O15 0.750000 0.680002 0.365922
O O16 0.639578 0.500000 0.310805
O O17 0.582140 0.714163 0.384184
O O18 0.115040 0.000000 0.175343
O O19 0.977995 0.500000 0.590179
O O20 0.000000 0.707874 0.500000
#
# Coordination Sequence:
#
# PCOD8213366 Si02
#       7
#     8   8   8   8   8   8   8
#     4   9  19  36  54  74 106 146 186 233 290 346
#     4  10  21  39  62  87 119 160 200 237 286 346
#     4   9  19  35  54  77 105 141 189 239 285 340
#     4  11  22  35  54  81 111 145 190 241 286 336
#     4  10  21  38  60  85 116 155 194 233 284 344
#     4  10  21  36  54  78 112 150 188 236 290 340
#     4  10  22  40  63  92 123 154 190 236 288 342
#
# _framework density 19.56195
#
# number of rings (size 3 to 8) (size 9 to 14) (size 15 to 20)
#    0.000    2.143    1.429    2.143    0.000    7.143 
#    0.000    5.714    0.000    0.000    0.000    0.000 
#    0.000    0.000    0.000    0.000    0.000    0.000 
#
# Total GULP energy -694408.537124 kJ/mol
# GULP energy per Si atom -12400.152449 kJ/mol
# Density = 1.951743 g / cm^3
# Si number density = 19.561950 Si / 1000 Ang^3
#
#
#
# Elastic Constant Matrix: (Units=GPa)
#
#
# Indices 1 2 3 4 5 6 
#
# 1 102.5582 40.9896 51.8351 0.0000 0.0000 0.0000
# 2 40.9896 79.9796 61.5358 0.0000 0.0000 0.0000
# 3 51.8351 61.5358 123.5467 0.0000 0.0000 0.0000
# 4 0.0000 0.0000 0.0000 20.7685 0.0000 0.0000
# 5 0.0000 0.0000 0.0000 0.0000 25.5220 0.0000
# 6 0.0000 0.0000 0.0000 0.0000 0.0000 28.0063
#
#
#
# Elastic Compliance Matrix: (Units=1/GPa)
#
#
# Indices 1 2 3 4 5 6 
#
# 1 0.013133 -0.004039 -0.003498 0.000000 0.000000 0.000000
# 2 -0.004039 0.021514 -0.009021 0.000000 0.000000 0.000000
# 3 -0.003498 -0.009021 0.014055 0.000000 0.000000 0.000000
# 4 0.000000 0.000000 0.000000 0.048150 0.000000 0.000000
# 5 0.000000 0.000000 0.000000 0.000000 0.039182 0.000000
# 6 0.000000 0.000000 0.000000 0.000000 0.000000 0.035706
#
#
# Mechanical properties :
#
#
# Convention : Reuss Voigt Hill
#
# Bulk Modulus (GPa) = 64.16349 68.31173 66.23761
# Shear Modulus (GPa) = 23.80368 24.97429 24.38898
#
# Velocity S-wave (km/s) = 3.49210 3.57694 3.53477
# Velocity P-wave (km/s) = 7.00935 7.21497 7.11291
#
# Compressibility (1/GPa) = 0.01558519
#
# Stress axis : x y z
#
# Youngs Moduli (GPa) = 76.14414 46.48163 71.14929
#
# Poissons Ratio (x) = 0.18775 0.24890
# Poissons Ratio (y) = 0.30756 0.64183
# Poissons Ratio (z) = 0.26637 0.41931
#
# Static dielectric constant tensor:
#      x y z
#    x 3.593940 0.000000 0.000000 
#    y 0.000000 3.568130 0.000000 
#    z 0.000000 0.000000 3.499180 
# 
# 
# High freq. dielectric constant tensor:
#      x y z
#    x 1.767870 0.000000 0.000000 
#    y 0.000000 1.754830 0.000000 
#    z 0.000000 0.000000 1.754620 
# 
# From -- ./inp_files/33466.got.cif
#   From: 2010.03.12/outbox.cif.g09.slc.cpg/sg51_17_cif.got.tgz:33466.got - 2010.04.16 13:43:02.
