data_PCOD8213691
_publ_section_title
;
Structure prediction by ZEFSAII (Michael W. Deem and Ramdas Pophale) SiO2 
 PCOD8213691
Probable space group: P M M A
;
_chemical_formula_sum "Si O2"
_cell_formula_units_Z 48
_cell_length_a 8.644136
_cell_length_b 9.041621
_cell_length_c 30.702043
_cell_angle_alpha 90.000000
_cell_angle_beta 90.000000
_cell_angle_gamma 90.000000
_cell_volume 2399.579623
_symmetry_space_group_name_H-M "P M M A"
_symmetry_group_IT_number 51
_symmetry_cell_setting 'orthorhombic'
loop_
_space_group_symop_operation_xyz
x,y,z
1/2-x,-y,z
1/2+x,-y,-z
-x,y,-z
-x,-y,-z
1/2+x,y,-z
1/2-x,y,z
x,-y,z
loop_
_atom_site_type_symbol
_atom_site_label
_atom_site_fract_x
_atom_site_fract_y
_atom_site_fract_z
Si Si1 0.566893 0.668225 0.955143
Si Si2 0.067037 0.165089 0.129294
Si Si3 0.570307 0.330259 0.210149
Si Si4 0.929111 0.827943 0.708869
Si Si5 0.429334 0.326914 0.627703
Si Si6 0.069906 0.170954 0.453107
O O1 0.750000 0.677237 0.956979
O O2 0.509465 0.500000 0.949023
O O3 0.499793 0.761689 0.914709
O O4 0.500000 0.734914 0.000000
O O5 0.250000 0.159165 0.126326
O O6 0.023808 0.260981 0.170764
O O7 0.998090 0.000000 0.133927
O O8 0.750000 0.314032 0.199712
O O9 0.520274 0.500000 0.215307
O O10 0.533607 0.247788 0.254767
O O11 0.750000 0.801895 0.720146
O O12 0.966118 0.758425 0.662335
O O13 0.970231 0.000000 0.707416
O O14 0.250000 0.290624 0.636041
O O15 0.462504 0.500000 0.631970
O O16 0.477511 0.273305 0.580122
O O17 0.250000 0.212684 0.452700
O O18 0.000000 0.205801 0.500000
O O19 0.044524 0.000000 0.440403
#
# Coordination Sequence:
#
# PCOD8213691 Si02
#       6
#     8   8   8   8   8   8
#     4   9  18  33  53  77 107 144 185 229 277 329
#     4  10  21  37  57  82 112 147 188 231 277 333
#     4  11  24  40  59  85 115 147 186 231 279 333
#     4  11  24  41  62  88 116 148 188 232 280 336
#     4  11  24  40  59  86 119 154 193 236 283 336
#     4  10  21  38  61  88 117 152 195 240 288 342
#
# _framework density 20.003506000000002
#
# number of rings (size 3 to 8) (size 9 to 14) (size 15 to 20)
#    0.000    1.667    0.000    4.000    0.000   13.333 
#    0.000    1.667    0.000    0.000    0.000    0.000 
#    0.000    0.000    0.000    0.000    0.000    0.000 
#
# Total GULP energy -595466.270896 kJ/mol
# GULP energy per Si atom -12405.547310 kJ/mol
# Density = 1.995798 g / cm^3
# Si number density = 20.003506 Si / 1000 Ang^3
#
#
#
# Elastic Constant Matrix: (Units=GPa)
#
#
# Indices 1 2 3 4 5 6 
#
# 1 28.7535 35.9805 12.4144 0.0000 0.0000 0.0000
# 2 35.9805 120.3455 55.6909 0.0000 0.0000 0.0000
# 3 12.4144 55.6909 120.4437 0.0000 0.0000 0.0000
# 4 0.0000 0.0000 0.0000 37.6081 0.0000 0.0000
# 5 0.0000 0.0000 0.0000 0.0000 39.1040 0.0000
# 6 0.0000 0.0000 0.0000 0.0000 0.0000 -41.2701
#
#
#
# Elastic Compliance Matrix: (Units=1/GPa)
#
#
# Indices 1 2 3 4 5 6 
#
# 1 0.056159 -0.017953 0.002513 0.000000 0.000000 0.000000
# 2 -0.017953 0.016311 -0.005691 0.000000 0.000000 0.000000
# 3 0.002513 -0.005691 0.010675 0.000000 0.000000 0.000000
# 4 0.000000 0.000000 0.000000 0.026590 0.000000 0.000000
# 5 0.000000 0.000000 0.000000 0.000000 0.025573 0.000000
# 6 0.000000 0.000000 0.000000 0.000000 0.000000 -0.024231
#
#
# Mechanical properties :
#
#
# Convention : Reuss Voigt Hill
#
# Bulk Modulus (GPa) = 24.46094 53.07935 38.77015
# Shear Modulus (GPa) = 29.94608 18.11888 24.03248
#
# Velocity S-wave (km/s) = 3.87336 3.01289 3.46990
# Velocity P-wave (km/s) = 5.67968 6.22061 5.95629
#
# Compressibility (1/GPa) = 0.04088151
#
# Stress axis : x y z
#
# Youngs Moduli (GPa) = 17.80668 61.30991 93.67531
#
# Poissons Ratio (x) = 1.10069 -0.23538
# Poissons Ratio (y) = 0.31968 0.53313
# Poissons Ratio (z) = -0.04474 0.34893
#
# Static dielectric constant tensor:
#      x y z
#    x 3.512320 0.000000 0.000000 
#    y 0.000000 3.833980 0.000000 
#    z 0.000000 0.000000 3.746820 
# 
# 
# High freq. dielectric constant tensor:
#      x y z
#    x 1.779270 0.000000 0.000000 
#    y 0.000000 1.787420 0.000000 
#    z 0.000000 0.000000 1.796440 
# 
# From -- ./inp_files/36949.got.cif
#   From: 2010.03.12/outbox.cif.g09.slc.cpg/sg51_19_cif.got.tgz:36949.got - 2010.04.16 13:43:02.
