data_PCOD8213558
_publ_section_title
;
Structure prediction by ZEFSAII (Michael W. Deem and Ramdas Pophale) SiO2 
 PCOD8213558
Probable space group: P M M A
;
_chemical_formula_sum "Si O2"
_cell_formula_units_Z 56
_cell_length_a 9.038465
_cell_length_b 14.395604
_cell_length_c 21.276371
_cell_angle_alpha 90.000000
_cell_angle_beta 90.000000
_cell_angle_gamma 90.000000
_cell_volume 2768.357202
_symmetry_space_group_name_H-M "P M M A"
_symmetry_group_IT_number 51
_symmetry_cell_setting 'orthorhombic'
loop_
_space_group_symop_operation_xyz
x,y,z
1/2-x,-y,z
1/2+x,-y,-z
-x,y,-z
-x,-y,-z
1/2+x,y,-z
1/2-x,y,z
x,-y,z
loop_
_atom_site_type_symbol
_atom_site_label
_atom_site_fract_x
_atom_site_fract_y
_atom_site_fract_z
Si Si1 0.576215 0.395899 0.696604
Si Si2 0.585894 0.109992 0.939366
Si Si3 0.074170 0.892810 0.201571
Si Si4 0.577955 0.107136 0.438978
Si Si5 0.574374 0.212818 0.316418
Si Si6 0.087448 0.606108 0.823748
Si Si7 0.414997 0.389359 0.060554
O O1 0.750000 0.377728 0.689925
O O2 0.535752 0.500000 0.671431
O O3 0.483570 0.315228 0.662542
O O4 0.529488 0.385961 0.768473
O O5 0.750000 0.151459 0.943821
O O6 0.521033 0.134441 0.869542
O O7 0.590139 0.000000 0.944988
O O8 0.500000 0.152156 0.000000
O O9 0.250000 0.880553 0.207649
O O10 0.994710 0.824258 0.251180
O O11 0.030153 0.000000 0.216208
O O12 0.500000 0.152687 0.500000
O O13 0.750000 0.125402 0.447263
O O14 0.520136 0.149535 0.373900
O O15 0.535545 0.000000 0.435124
O O16 0.750000 0.214016 0.309210
O O17 0.250000 0.650862 0.808277
O O18 0.115388 0.500000 0.841844
O O19 0.008159 0.655357 0.882401
O O20 0.250000 0.347967 0.061388
O O21 0.407893 0.500000 0.064082
O O22 0.500000 0.353549 0.000000
#
# Coordination Sequence:
#
# PCOD8213558 Si02
#       7
#     8   8   8   8   8   8   8
#     4  10  21  37  56  77 102 136 180 228 277 331
#     4   8  14  25  42  66  98 138 183 227 271 323
#     4   9  18  32  50  76 112 151 189 229 276 334
#     4   9  19  36  58  87 123 159 191 221 258 312
#     4  11  22  35  55  84 116 148 185 232 282 331
#     4   9  16  27  44  65  89 118 155 204 264 325
#     4   9  15  22  34  55  83 114 151 198 254 318
#
# _framework density 20.228604000000001
#
# number of rings (size 3 to 8) (size 9 to 14) (size 15 to 20)
#    0.000    2.714    0.000    3.000    0.000    6.857 
#    0.000    2.857    0.000    1.286    0.000    4.000 
#    0.000    0.000    0.000    0.000    0.000    0.000 
#
# Total GULP energy -693842.933469 kJ/mol
# GULP energy per Si atom -12390.052383 kJ/mol
# Density = 2.018256 g / cm^3
# Si number density = 20.228604 Si / 1000 Ang^3
#
#
#
# Elastic Constant Matrix: (Units=GPa)
#
#
# Indices 1 2 3 4 5 6 
#
# 1 79.2488 30.6504 42.1547 0.0000 0.0000 0.0000
# 2 30.6504 74.8806 34.1352 0.0000 0.0000 0.0000
# 3 42.1547 34.1352 126.8922 0.0000 0.0000 0.0000
# 4 0.0000 0.0000 0.0000 -10.9263 0.0000 0.0000
# 5 0.0000 0.0000 0.0000 0.0000 31.8571 0.0000
# 6 0.0000 0.0000 0.0000 0.0000 0.0000 17.8256
#
#
#
# Elastic Compliance Matrix: (Units=1/GPa)
#
#
# Indices 1 2 3 4 5 6 
#
# 1 0.016787 -0.004934 -0.004250 0.000000 0.000000 0.000000
# 2 -0.004934 0.016672 -0.002846 0.000000 0.000000 0.000000
# 3 -0.004250 -0.002846 0.010058 0.000000 0.000000 0.000000
# 4 0.000000 0.000000 0.000000 -0.091522 0.000000 0.000000
# 5 0.000000 0.000000 0.000000 0.000000 0.031390 0.000000
# 6 0.000000 0.000000 0.000000 0.000000 0.000000 0.056099
#
#
# Mechanical properties :
#
#
# Convention : Reuss Voigt Hill
#
# Bulk Modulus (GPa) = 51.39275 54.98912 53.19094
# Shear Modulus (GPa) = 71.39968 19.35671 45.37819
#
# Velocity S-wave (km/s) = 5.94752 3.09673 4.74145
# Velocity P-wave (km/s) = 8.52204 6.32686 7.50514
#
# Compressibility (1/GPa) = 0.01945800
#
# Stress axis : x y z
#
# Youngs Moduli (GPa) = 59.56874 59.98260 99.42406
#
# Poissons Ratio (x) = 0.29597 0.42251
# Poissons Ratio (y) = 0.29393 0.28292
# Poissons Ratio (z) = 0.25314 0.17069
#
# Static dielectric constant tensor:
#      x y z
#    x 3.951420 0.000000 0.000000 
#    y 0.000000 3.746010 0.000000 
#    z 0.000000 0.000000 3.753860 
# 
# 
# High freq. dielectric constant tensor:
#      x y z
#    x 1.790930 0.000000 0.000000 
#    y 0.000000 1.778270 0.000000 
#    z 0.000000 0.000000 1.770920 
# 
# From -- ./inp_files/32006.got.cif
#   From: 2010.03.12/outbox.cif.g09.slc.cpg/sg51_17_cif.got.tgz:32006.got - 2010.04.16 13:43:02.
