data_PCOD8213786
_publ_section_title
;
Structure prediction by ZEFSAII (Michael W. Deem and Ramdas Pophale) SiO2 
 PCOD8213786
Probable space group: P M M A
;
_chemical_formula_sum "Si O2"
_cell_formula_units_Z 56
_cell_length_a 15.194745
_cell_length_b 9.079735
_cell_length_c 21.174216
_cell_angle_alpha 90.000000
_cell_angle_beta 90.000000
_cell_angle_gamma 90.000000
_cell_volume 2921.284999
_symmetry_space_group_name_H-M "P M M A"
_symmetry_group_IT_number 51
_symmetry_cell_setting 'orthorhombic'
loop_
_space_group_symop_operation_xyz
x,y,z
1/2-x,-y,z
1/2+x,-y,-z
-x,y,-z
-x,-y,-z
1/2+x,y,-z
1/2-x,y,z
x,-y,z
loop_
_atom_site_type_symbol
_atom_site_label
_atom_site_fract_x
_atom_site_fract_y
_atom_site_fract_z
Si Si1 0.649691 0.329872 0.945956
Si Si2 0.152346 0.166934 0.382474
Si Si3 0.399776 0.673456 0.504737
Si Si4 0.499609 0.673460 0.847883
Si Si5 0.492464 0.827139 0.283426
Si Si6 0.348591 0.167242 0.629612
Si Si7 0.148430 0.827517 0.924953
O O1 0.750000 0.297895 0.924070
O O2 0.637694 0.500000 0.965078
O O3 0.584051 0.284667 0.890158
O O4 0.623795 0.233309 0.006244
O O5 0.250000 0.176225 0.352875
O O6 0.152116 0.263314 0.445367
O O7 0.083724 0.226064 0.331022
O O8 0.127571 0.000000 0.401108
O O9 0.500000 0.726400 0.500000
O O10 0.390279 0.500000 0.503771
O O11 0.358012 0.730380 0.569120
O O12 0.483881 0.500000 0.845970
O O13 0.520366 0.732531 0.778819
O O14 0.411224 0.749339 0.872909
O O15 0.585957 0.785798 0.314495
O O16 0.485220 0.000000 0.267430
O O17 0.250000 0.182932 0.656683
O O18 0.369143 0.000000 0.608531
O O19 0.250000 0.792927 0.908738
O O20 0.128891 0.000000 0.923911
#
# Coordination Sequence:
#
# PCOD8213786 Si02
#       7
#     8   8   8   8   8   8   8
#     4   9  19  37  59  84 116 151 186 227 277 333
#     4  10  21  38  60  83 108 144 188 229 276 333
#     4  11  22  35  56  85 115 143 177 226 282 334
#     4  11  23  37  57  84 115 152 192 229 276 334
#     4  10  22  39  56  78 111 148 187 233 276 321
#     4  10  21  38  60  82 105 141 186 228 278 336
#     4  10  21  37  59  87 116 147 186 233 282 330
#
# _framework density 19.169647000000001
#
# number of rings (size 3 to 8) (size 9 to 14) (size 15 to 20)
#    0.000    1.857    1.429    2.143    0.000    8.857 
#    0.000    1.429    0.000    0.000    0.000    0.000 
#    0.000    0.000    0.000    0.000    0.000    0.000 
#
# Total GULP energy -694651.098927 kJ/mol
# GULP energy per Si atom -12404.483909 kJ/mol
# Density = 1.912602 g / cm^3
# Si number density = 19.169647 Si / 1000 Ang^3
#
#
#
# Elastic Constant Matrix: (Units=GPa)
#
#
# Indices 1 2 3 4 5 6 
#
# 1 97.5627 30.2663 30.2264 0.0000 0.0000 0.0000
# 2 30.2663 66.6873 36.1818 0.0000 0.0000 0.0000
# 3 30.2264 36.1818 87.1975 0.0000 0.0000 0.0000
# 4 0.0000 0.0000 0.0000 52.1911 0.0000 0.0000
# 5 0.0000 0.0000 0.0000 0.0000 11.8424 0.0000
# 6 0.0000 0.0000 0.0000 0.0000 0.0000 25.0880
#
#
#
# Elastic Compliance Matrix: (Units=1/GPa)
#
#
# Indices 1 2 3 4 5 6 
#
# 1 0.012345 -0.004234 -0.002522 0.000000 0.000000 0.000000
# 2 -0.004234 0.020804 -0.007165 0.000000 0.000000 0.000000
# 3 -0.002522 -0.007165 0.015316 0.000000 0.000000 0.000000
# 4 0.000000 0.000000 0.000000 0.019160 0.000000 0.000000
# 5 0.000000 0.000000 0.000000 0.000000 0.084442 0.000000
# 6 0.000000 0.000000 0.000000 0.000000 0.000000 0.039860
#
#
# Mechanical properties :
#
#
# Convention : Reuss Voigt Hill
#
# Bulk Modulus (GPa) = 48.49180 49.42184 48.95682
# Shear Modulus (GPa) = 22.06104 28.14252 25.10178
#
# Velocity S-wave (km/s) = 3.39607 3.83571 3.62256
# Velocity P-wave (km/s) = 6.38191 6.74197 6.56441
#
# Compressibility (1/GPa) = 0.02062205
#
# Stress axis : x y z
#
# Youngs Moduli (GPa) = 81.00563 48.06664 65.29319
#
# Poissons Ratio (x) = 0.20353 0.16469
# Poissons Ratio (y) = 0.34300 0.46782
# Poissons Ratio (z) = 0.20432 0.34439
#
# Static dielectric constant tensor:
#      x y z
#    x 3.782800 0.000000 0.000000 
#    y 0.000000 3.476210 0.000000 
#    z 0.000000 0.000000 3.331030 
# 
# 
# High freq. dielectric constant tensor:
#      x y z
#    x 1.763650 0.000000 0.000000 
#    y 0.000000 1.744590 0.000000 
#    z 0.000000 0.000000 1.734510 
# 
# From -- ./inp_files/33312.got.cif
#   From: 2010.03.12/outbox.cif.g09.slc.cpg/sg51_17_cif.got.tgz:33312.got - 2010.04.16 13:43:02.
