data_PCOD8213963
_publ_section_title
;
Structure prediction by ZEFSAII (Michael W. Deem and Ramdas Pophale) SiO2 
 PCOD8213963
Probable space group: P M M A
;
_chemical_formula_sum "Si O2"
_cell_formula_units_Z 48
_cell_length_a 9.002160
_cell_length_b 27.608639
_cell_length_c 9.568619
_cell_angle_alpha 90.000000
_cell_angle_beta 90.000000
_cell_angle_gamma 90.000000
_cell_volume 2378.159551
_symmetry_space_group_name_H-M "P M M A"
_symmetry_group_IT_number 51
_symmetry_cell_setting 'orthorhombic'
loop_
_space_group_symop_operation_xyz
x,y,z
1/2-x,-y,z
1/2+x,-y,-z
-x,y,-z
-x,-y,-z
1/2+x,y,-z
1/2-x,y,z
x,-y,z
loop_
_atom_site_type_symbol
_atom_site_label
_atom_site_fract_x
_atom_site_fract_y
_atom_site_fract_z
Si Si1 0.571223 0.725703 0.349003
Si Si2 0.750000 0.940964 0.330635
Si Si3 0.750000 0.946697 0.642751
Si Si4 0.421597 0.556714 0.855703
Si Si5 0.428990 0.371435 0.348611
Si Si6 0.079150 0.795080 0.141729
Si Si7 0.515549 0.906667 0.840735
O O1 0.500000 0.731866 0.500000
O O2 0.750000 0.722404 0.355788
O O3 0.499780 0.677220 0.280114
O O4 0.518735 0.772253 0.263854
O O5 0.750000 0.920155 0.490861
O O6 0.630383 0.911798 0.245137
O O7 0.750000 0.000000 0.312675
O O8 0.614514 0.940121 0.744424
O O9 0.750000 0.000000 0.582314
O O10 0.250000 0.574261 0.857365
O O11 0.430334 0.500000 0.824672
O O12 0.518332 0.582450 0.737841
O O13 0.500000 0.570264 0.000000
O O14 0.500000 0.377683 0.500000
O O15 0.250000 0.368400 0.355557
O O16 0.250000 0.776926 0.144422
O O17 0.079252 0.852656 0.157278
O O18 0.000000 0.778488 0.000000
O O19 0.500000 0.926148 0.000000
#
# Coordination Sequence:
#
# PCOD8213963 Si02
#       7
#     8   4   4   8   8   8   8
#     4  11  23  41  65  93 126 163 206 255 308 371
#     4  11  25  41  63  93 127 165 207 257 312 375
#     4  11  23  43  63  91 127 163 205 257 312 369
#     4  10  21  38  60  88 123 163 210 262 316 376
#     4  11  22  39  62  89 125 164 209 261 313 372
#     4  11  24  43  65  92 124 160 203 256 313 370
#     4  11  24  41  65  91 125 163 208 257 311 376
#
# _framework density 20.183674
#
# number of rings (size 3 to 8) (size 9 to 14) (size 15 to 20)
#    0.000    1.167    0.833    6.500    4.667    6.667 
#    0.000    3.333    0.000    0.000    0.000    0.000 
#    0.000    0.000    0.000    0.000    0.000    0.000 
#
# Total GULP energy -594712.676488 kJ/mol
# GULP energy per Si atom -12389.847427 kJ/mol
# Density = 2.013774 g / cm^3
# Si number density = 20.183674 Si / 1000 Ang^3
#
#
#
# Elastic Constant Matrix: (Units=GPa)
#
#
# Indices 1 2 3 4 5 6 
#
# 1 195.2359 25.3603 58.1931 0.0000 0.0000 0.0000
# 2 25.3603 42.5054 33.7824 0.0000 0.0000 0.0000
# 3 58.1931 33.7824 131.0058 0.0000 0.0000 0.0000
# 4 0.0000 0.0000 0.0000 32.2524 0.0000 0.0000
# 5 0.0000 0.0000 0.0000 0.0000 65.2589 0.0000
# 6 0.0000 0.0000 0.0000 0.0000 0.0000 35.3836
#
#
#
# Elastic Compliance Matrix: (Units=1/GPa)
#
#
# Indices 1 2 3 4 5 6 
#
# 1 0.006016 -0.001843 -0.002197 0.000000 0.000000 0.000000
# 2 -0.001843 0.030156 -0.006957 0.000000 0.000000 0.000000
# 3 -0.002197 -0.006957 0.010403 0.000000 0.000000 0.000000
# 4 0.000000 0.000000 0.000000 0.031005 0.000000 0.000000
# 5 0.000000 0.000000 0.000000 0.000000 0.015324 0.000000
# 6 0.000000 0.000000 0.000000 0.000000 0.000000 0.028262
#
#
# Mechanical properties :
#
#
# Convention : Reuss Voigt Hill
#
# Bulk Modulus (GPa) = 40.68404 67.04653 53.86528
# Shear Modulus (GPa) = 33.03484 43.33973 38.18728
#
# Velocity S-wave (km/s) = 4.05002 4.63889 4.35442
# Velocity P-wave (km/s) = 6.48620 7.87291 7.21296
#
# Compressibility (1/GPa) = 0.02457967
#
# Stress axis : x y z
#
# Youngs Moduli (GPa) = 166.21401 33.16107 96.12299
#
# Poissons Ratio (x) = 0.06113 0.21120
# Poissons Ratio (y) = 0.30639 0.66877
# Poissons Ratio (z) = 0.36519 0.23072
#
# Static dielectric constant tensor:
#      x y z
#    x 3.835460 0.000000 0.000000 
#    y 0.000000 3.712910 0.000000 
#    z 0.000000 0.000000 3.817740 
# 
# 
# High freq. dielectric constant tensor:
#      x y z
#    x 1.815580 0.000000 0.000000 
#    y 0.000000 1.782250 0.000000 
#    z 0.000000 0.000000 1.797430 
# 
# From -- ./inp_files/6292.got.cif
#   From: 2010.03.12/outbox.cif.g09.slc.cpg/sg51_4_cif.got.tgz:6292.got - 2010.04.16 13:43:02.
