data_PCOD8213411
_publ_section_title
;
Structure prediction by ZEFSAII (Michael W. Deem and Ramdas Pophale) SiO2 
 PCOD8213411
Probable space group: P M M A
;
_chemical_formula_sum "Si O2"
_cell_formula_units_Z 48
_cell_length_a 14.388327
_cell_length_b 9.465157
_cell_length_c 17.323334
_cell_angle_alpha 90.000000
_cell_angle_beta 90.000000
_cell_angle_gamma 90.000000
_cell_volume 2359.226296
_symmetry_space_group_name_H-M "P M M A"
_symmetry_group_IT_number 51
_symmetry_cell_setting 'orthorhombic'
loop_
_space_group_symop_operation_xyz
x,y,z
1/2-x,-y,z
1/2+x,-y,-z
-x,y,-z
-x,-y,-z
1/2+x,y,-z
1/2-x,y,z
x,-y,z
loop_
_atom_site_type_symbol
_atom_site_label
_atom_site_fract_x
_atom_site_fract_y
_atom_site_fract_z
Si Si1 0.639652 0.658395 0.991498
Si Si2 0.860808 0.841107 0.851594
Si Si3 0.639558 0.342057 0.162326
Si Si4 0.355900 0.662029 0.293291
Si Si5 0.139847 0.837862 0.694899
Si Si6 0.514073 0.336714 0.412120
O O1 0.750000 0.661660 0.989172
O O2 0.604660 0.500000 0.972767
O O3 0.604347 0.703660 0.076974
O O4 0.598235 0.764876 0.927879
O O5 0.750000 0.839669 0.854361
O O6 0.895178 0.757290 0.776240
O O7 0.899769 0.000000 0.848546
O O8 0.750000 0.341067 0.162444
O O9 0.603918 0.500000 0.182710
O O10 0.601504 0.233547 0.226230
O O11 0.250000 0.702346 0.314551
O O12 0.362462 0.500000 0.266070
O O13 0.417210 0.691517 0.368553
O O14 0.250000 0.822855 0.687907
O O15 0.095878 0.758821 0.622073
O O16 0.108155 0.000000 0.695565
O O17 0.500000 0.290417 0.500000
O O18 0.544571 0.500000 0.405750
#
# Coordination Sequence:
#
# PCOD8213411 Si02
#       6
#     8   8   8   8   8   8
#     4   8  13  22  39  66 100 137 177 219 261 305
#     4   9  16  25  41  69 103 139 178 216 257 308
#     4   8  14  26  46  72 102 139 182 223 262 307
#     4   9  18  34  55  78 106 139 175 217 266 320
#     4  10  21  36  55  81 113 148 182 217 264 320
#     4  10  22  39  60  85 108 135 175 222 273 326
#
# _framework density 20.345655000000001
#
# number of rings (size 3 to 8) (size 9 to 14) (size 15 to 20)
#    0.000    3.000    0.000    2.000    0.000    5.333 
#    0.000    5.000    0.000    3.000    0.000    7.000 
#    0.000    0.000    0.000    0.000    0.000    0.000 
#
# Total GULP energy -595128.781346 kJ/mol
# GULP energy per Si atom -12398.516278 kJ/mol
# Density = 2.029935 g / cm^3
# Si number density = 20.345655 Si / 1000 Ang^3
#
#
#
# Elastic Constant Matrix: (Units=GPa)
#
#
# Indices 1 2 3 4 5 6 
#
# 1 39.7452 33.7632 32.5303 0.0000 0.0000 0.0000
# 2 33.7632 144.6278 106.6480 0.0000 0.0000 0.0000
# 3 32.5303 106.6480 194.0964 0.0000 0.0000 0.0000
# 4 0.0000 0.0000 0.0000 13.5760 0.0000 0.0000
# 5 0.0000 0.0000 0.0000 0.0000 -36.5657 0.0000
# 6 0.0000 0.0000 0.0000 0.0000 0.0000 17.6565
#
#
#
# Elastic Compliance Matrix: (Units=1/GPa)
#
#
# Indices 1 2 3 4 5 6 
#
# 1 0.031889 -0.005890 -0.002108 0.000000 0.000000 0.000000
# 2 -0.005890 0.012712 -0.005997 0.000000 0.000000 0.000000
# 3 -0.002108 -0.005997 0.008801 0.000000 0.000000 0.000000
# 4 0.000000 0.000000 0.000000 0.073660 0.000000 0.000000
# 5 0.000000 0.000000 0.000000 0.000000 -0.027348 0.000000
# 6 0.000000 0.000000 0.000000 0.000000 0.000000 0.056636
#
#
# Mechanical properties :
#
#
# Convention : Reuss Voigt Hill
#
# Bulk Modulus (GPa) = 39.35381 80.48359 59.91870
# Shear Modulus (GPa) = 25.93213 12.63523 19.28368
#
# Velocity S-wave (km/s) = 3.57400 2.49475 3.08198
# Velocity P-wave (km/s) = 6.03456 6.92404 6.49454
#
# Compressibility (1/GPa) = 0.02541050
#
# Stress axis : x y z
#
# Youngs Moduli (GPa) = 31.35857 78.66718 113.62586
#
# Poissons Ratio (x) = 0.46333 0.23957
# Poissons Ratio (y) = 0.18469 0.68147
# Poissons Ratio (z) = 0.06612 0.47181
#
# Static dielectric constant tensor:
#      x y z
#    x 3.348770 0.000000 0.000000 
#    y 0.000000 3.804100 0.000000 
#    z 0.000000 0.000000 3.828130 
# 
# 
# High freq. dielectric constant tensor:
#      x y z
#    x 1.778480 0.000000 0.000000 
#    y 0.000000 1.786960 0.000000 
#    z 0.000000 0.000000 1.793170 
# 
# From -- ./inp_files/29398.got.cif
#   From: 2010.03.12/outbox.cif.g09.slc.cpg/sg51_15_cif.got.tgz:29398.got - 2010.04.16 13:43:02.
