data_PCOD8213974
_publ_section_title
;
Structure prediction by ZEFSAII (Michael W. Deem and Ramdas Pophale) SiO2 
 PCOD8213974
Probable space group: P M M A
;
_chemical_formula_sum "Si O2"
_cell_formula_units_Z 32
_cell_length_a 9.176837
_cell_length_b 9.034517
_cell_length_c 20.602123
_cell_angle_alpha 90.000000
_cell_angle_beta 90.000000
_cell_angle_gamma 90.000000
_cell_volume 1708.086786
_symmetry_space_group_name_H-M "P M M A"
_symmetry_group_IT_number 51
_symmetry_cell_setting 'orthorhombic'
loop_
_space_group_symop_operation_xyz
x,y,z
1/2-x,-y,z
1/2+x,-y,-z
-x,y,-z
-x,-y,-z
1/2+x,y,-z
1/2-x,y,z
x,-y,z
loop_
_atom_site_type_symbol
_atom_site_label
_atom_site_fract_x
_atom_site_fract_y
_atom_site_fract_z
Si Si1 0.083210 0.825098 0.817875
Si Si2 0.080852 0.326973 0.065293
Si Si3 0.421035 0.671714 0.296287
Si Si4 0.409885 0.675174 0.440688
O O1 0.250000 0.770699 0.824179
O O2 0.988001 0.760050 0.875546
O O3 0.017762 0.771700 0.750076
O O4 0.073131 0.000000 0.820801
O O5 0.250000 0.285063 0.058830
O O6 0.059040 0.500000 0.078467
O O7 0.000000 0.276814 0.000000
O O8 0.250000 0.707689 0.287701
O O9 0.449195 0.500000 0.280175
O O10 0.474436 0.710652 0.369430
O O11 0.500000 0.746542 0.500000
O O12 0.250000 0.745238 0.445604
O O13 0.400569 0.500000 0.449098
#
# Coordination Sequence:
#
# PCOD8213974 Si02
#       4
#     8   8   8   8
#     4  11  24  38  52  75 107 141 177 216 257 303
#     4  10  21  38  61  86 109 135 169 209 254 305
#     4   9  18  33  53  77 104 135 173 216 261 310
#     4   8  14  25  43  70 102 131 162 205 256 308
#
# _framework density 18.734411000000001
#
# number of rings (size 3 to 8) (size 9 to 14) (size 15 to 20)
#    0.000    2.500    0.000    3.750    0.000    8.500 
#    0.000    2.500    0.000    0.750    0.000    0.000 
#    0.000    0.000    0.000    0.000    0.000    0.000 
#
# Total GULP energy -396738.273199 kJ/mol
# GULP energy per Si atom -12398.071037 kJ/mol
# Density = 1.869177 g / cm^3
# Si number density = 18.734411 Si / 1000 Ang^3
#
#
#
# Elastic Constant Matrix: (Units=GPa)
#
#
# Indices 1 2 3 4 5 6 
#
# 1 122.1696 40.4078 81.0572 0.0000 0.0000 0.0000
# 2 40.4078 36.4269 41.5898 0.0000 0.0000 0.0000
# 3 81.0572 41.5898 160.7161 0.0000 0.0000 0.0000
# 4 0.0000 0.0000 0.0000 -11.9750 0.0000 0.0000
# 5 0.0000 0.0000 0.0000 0.0000 40.5274 0.0000
# 6 0.0000 0.0000 0.0000 0.0000 0.0000 24.9290
#
#
#
# Elastic Compliance Matrix: (Units=1/GPa)
#
#
# Indices 1 2 3 4 5 6 
#
# 1 0.015021 -0.011373 -0.004633 0.000000 0.000000 0.000000
# 2 -0.011373 0.047576 -0.006576 0.000000 0.000000 0.000000
# 3 -0.004633 -0.006576 0.010260 0.000000 0.000000 0.000000
# 4 0.000000 0.000000 0.000000 -0.083507 0.000000 0.000000
# 5 0.000000 0.000000 0.000000 0.000000 0.024675 0.000000
# 6 0.000000 0.000000 0.000000 0.000000 0.000000 0.040114
#
#
# Mechanical properties :
#
#
# Convention : Reuss Voigt Hill
#
# Bulk Modulus (GPa) = 36.10865 71.71359 53.91112
# Shear Modulus (GPa) = 46.06963 21.11346 33.59155
#
# Velocity S-wave (km/s) = 4.96430 3.36071 4.23902
# Velocity P-wave (km/s) = 7.22322 7.30899 7.26623
#
# Compressibility (1/GPa) = 0.02769419
#
# Stress axis : x y z
#
# Youngs Moduli (GPa) = 66.57535 21.01921 97.46397
#
# Poissons Ratio (x) = 0.23905 0.45151
# Poissons Ratio (y) = 0.75716 0.64088
# Poissons Ratio (z) = 0.30841 0.13821
#
# Static dielectric constant tensor:
#      x y z
#    x 3.542740 0.000000 0.000000 
#    y 0.000000 3.077210 0.000000 
#    z 0.000000 0.000000 3.689680 
# 
# 
# High freq. dielectric constant tensor:
#      x y z
#    x 1.731980 0.000000 0.000000 
#    y 0.000000 1.690960 0.000000 
#    z 0.000000 0.000000 1.747310 
# 
# From -- ./inp_files/31076.got.cif
#   From: 2010.03.12/outbox.cif.g09.slc.cpg/sg51_16_cif.got.tgz:31076.got - 2010.04.16 13:43:02.
