data_PCOD8213719
_publ_section_title
;
Structure prediction by ZEFSAII (Michael W. Deem and Ramdas Pophale) SiO2 
 PCOD8213719
Probable space group: P M M A
;
_chemical_formula_sum "Si O2"
_cell_formula_units_Z 56
_cell_length_a 14.535391
_cell_length_b 8.778734
_cell_length_c 22.224143
_cell_angle_alpha 90.000000
_cell_angle_beta 90.000000
_cell_angle_gamma 90.000000
_cell_volume 2835.852455
_symmetry_space_group_name_H-M "P M M A"
_symmetry_group_IT_number 51
_symmetry_cell_setting 'orthorhombic'
loop_
_space_group_symop_operation_xyz
x,y,z
1/2-x,-y,z
1/2+x,-y,-z
-x,y,-z
-x,-y,-z
1/2+x,y,-z
1/2-x,y,z
x,-y,z
loop_
_atom_site_type_symbol
_atom_site_label
_atom_site_fract_x
_atom_site_fract_y
_atom_site_fract_z
Si Si1 0.750000 0.680021 0.387170
Si Si2 0.250000 0.319116 0.477237
Si Si3 0.561130 0.179622 0.556425
Si Si4 0.359130 0.671302 0.015131
Si Si5 0.444270 0.321298 0.659522
Si Si6 0.856036 0.178410 0.106129
Si Si7 0.984512 0.677539 0.203202
Si Si8 0.643571 0.177902 0.862813
O O1 0.750000 0.500000 0.389839
O O2 0.750000 0.745735 0.454750
O O3 0.840484 0.737248 0.352391
O O4 0.250000 0.500000 0.475431
O O5 0.339968 0.258898 0.443696
O O6 0.500000 0.236897 0.500000
O O7 0.512775 0.226889 0.618008
O O8 0.575103 0.000000 0.554125
O O9 0.250000 0.675286 0.012171
O O10 0.396611 0.500000 0.022908
O O11 0.392498 0.771674 0.071482
O O12 0.398197 0.740568 0.953165
O O13 0.454705 0.500000 0.645021
O O14 0.468151 0.282512 0.727712
O O15 0.750000 0.224461 0.115906
O O16 0.910850 0.230358 0.164482
O O17 0.867478 0.000000 0.096537
O O18 0.971860 0.500000 0.190090
O O19 0.087597 0.730251 0.187454
O O20 0.750000 0.219992 0.853631
O O21 0.624985 0.000000 0.855522
#
# Coordination Sequence:
#
# PCOD8213719 Si02
#       8
#     4   4   8   8   8   8   8   8
#     4   9  18  35  63  93 119 153 198 241 286 343
#     4  11  21  37  67  95 121 159 204 247 296 355
#     4  11  23  39  61  92 130 161 195 248 303 354
#     4   9  17  32  57  87 116 146 189 246 302 351
#     4  10  22  41  63  89 120 160 205 245 289 348
#     4  10  21  37  57  84 121 159 195 237 292 359
#     4  11  24  39  60  87 117 154 200 249 290 344
#     4  10  21  39  62  84 112 152 196 244 302 363
#
# _framework density 19.747149
#
# number of rings (size 3 to 8) (size 9 to 14) (size 15 to 20)
#    0.000    1.857    1.429    2.357    1.000    5.714 
#    1.286    3.214    0.000    0.000    0.000    0.000 
#    0.000    0.000    0.000    0.000    0.000    0.000 
#
# Total GULP energy -694638.575239 kJ/mol
# GULP energy per Si atom -12404.260272 kJ/mol
# Density = 1.970220 g / cm^3
# Si number density = 19.747149 Si / 1000 Ang^3
#
#
#
# Elastic Constant Matrix: (Units=GPa)
#
#
# Indices 1 2 3 4 5 6 
#
# 1 120.2093 27.8775 57.9902 0.0000 0.0000 0.0000
# 2 27.8775 56.0689 30.8174 0.0000 0.0000 0.0000
# 3 57.9902 30.8174 122.1961 0.0000 0.0000 0.0000
# 4 0.0000 0.0000 0.0000 29.5356 0.0000 0.0000
# 5 0.0000 0.0000 0.0000 0.0000 35.4676 0.0000
# 6 0.0000 0.0000 0.0000 0.0000 0.0000 29.4661
#
#
#
# Elastic Compliance Matrix: (Units=1/GPa)
#
#
# Indices 1 2 3 4 5 6 
#
# 1 0.011229 -0.003081 -0.004552 0.000000 0.000000 0.000000
# 2 -0.003081 0.021551 -0.003973 0.000000 0.000000 0.000000
# 3 -0.004552 -0.003973 0.011346 0.000000 0.000000 0.000000
# 4 0.000000 0.000000 0.000000 0.033857 0.000000 0.000000
# 5 0.000000 0.000000 0.000000 0.000000 0.028195 0.000000
# 6 0.000000 0.000000 0.000000 0.000000 0.000000 0.033937
#
#
# Mechanical properties :
#
#
# Convention : Reuss Voigt Hill
#
# Bulk Modulus (GPa) = 47.81540 59.09384 53.45462
# Shear Modulus (GPa) = 29.36020 31.01314 30.18667
#
# Velocity S-wave (km/s) = 3.86010 3.96727 3.91405
# Velocity P-wave (km/s) = 6.64331 7.13974 6.89599
#
# Compressibility (1/GPa) = 0.02091376
#
# Stress axis : x y z
#
# Youngs Moduli (GPa) = 89.05262 46.40201 88.13928
#
# Poissons Ratio (x) = 0.14298 0.40121
# Poissons Ratio (y) = 0.27440 0.35015
# Poissons Ratio (z) = 0.40536 0.18434
#
# Static dielectric constant tensor:
#      x y z
#    x 3.680310 0.000000 0.000000 
#    y 0.000000 3.567720 0.000000 
#    z 0.000000 0.000000 3.569760 
# 
# 
# High freq. dielectric constant tensor:
#      x y z
#    x 1.777930 0.000000 0.000000 
#    y 0.000000 1.770820 0.000000 
#    z 0.000000 0.000000 1.765450 
# 
# From -- ./inp_files/33520.got.cif
#   From: 2010.03.12/outbox.cif.g09.slc.cpg/sg51_17_cif.got.tgz:33520.got - 2010.04.16 13:43:02.
