data_PCOD8213678
_publ_section_title
;
Structure prediction by ZEFSAII (Michael W. Deem and Ramdas Pophale) SiO2 
 PCOD8213678
Probable space group: P M M A
;
_chemical_formula_sum "Si O2"
_cell_formula_units_Z 48
_cell_length_a 8.629770
_cell_length_b 29.808551
_cell_length_c 9.479053
_cell_angle_alpha 90.000000
_cell_angle_beta 90.000000
_cell_angle_gamma 90.000000
_cell_volume 2438.400496
_symmetry_space_group_name_H-M "P M M A"
_symmetry_group_IT_number 51
_symmetry_cell_setting 'orthorhombic'
loop_
_space_group_symop_operation_xyz
x,y,z
1/2-x,-y,z
1/2+x,-y,-z
-x,y,-z
-x,-y,-z
1/2+x,y,-z
1/2-x,y,z
x,-y,z
loop_
_atom_site_type_symbol
_atom_site_label
_atom_site_fract_x
_atom_site_fract_y
_atom_site_fract_z
Si Si1 0.565979 0.722380 0.350072
Si Si2 0.933922 0.203592 0.843984
Si Si3 0.069201 0.620605 0.644681
Si Si4 0.428132 0.549643 0.152445
Si Si5 0.569877 0.947486 0.850867
Si Si6 0.066441 0.124158 0.656167
O O1 0.500000 0.739624 0.500000
O O2 0.750000 0.728525 0.349797
O O3 0.491622 0.749991 0.222940
O O4 0.512283 0.671148 0.323619
O O5 0.750000 0.202741 0.850140
O O6 0.994164 0.163087 0.749812
O O7 0.000000 0.198630 0.000000
O O8 0.250000 0.620506 0.627618
O O9 0.000000 0.602107 0.500000
O O10 0.020840 0.587206 0.765913
O O11 0.250000 0.564041 0.144444
O O12 0.445693 0.500000 0.222028
O O13 0.500000 0.548002 0.000000
O O14 0.750000 0.934362 0.847922
O O15 0.480285 0.923316 0.724174
O O16 0.543292 0.000000 0.828115
O O17 0.500000 0.931598 0.000000
O O18 0.250000 0.129380 0.650965
O O19 0.000000 0.127241 0.500000
#
# Coordination Sequence:
#
# PCOD8213678 Si02
#       6
#     8   8   8   8   8   8
#     4  10  21  39  61  87 117 151 190 233 285 341
#     4  12  25  42  63  88 118 153 194 239 288 342
#     4  10  21  37  59  85 115 150 189 234 283 339
#     4  10  21  37  57  81 111 148 190 236 286 340
#     4  10  21  39  63  91 123 159 199 243 292 346
#     4  12  25  42  63  88 120 157 198 243 292 346
#
# _framework density 19.685034999999999
#
# number of rings (size 3 to 8) (size 9 to 14) (size 15 to 20)
#    0.000    1.333    0.000    6.000    0.000    5.333 
#    0.000    0.000    0.000    0.000    0.000    0.000 
#    0.000    0.000    0.000    0.000    0.000    0.000 
#
# Total GULP energy -595402.314327 kJ/mol
# GULP energy per Si atom -12404.214882 kJ/mol
# Density = 1.964023 g / cm^3
# Si number density = 19.685035 Si / 1000 Ang^3
#
#
#
# Elastic Constant Matrix: (Units=GPa)
#
#
# Indices 1 2 3 4 5 6 
#
# 1 117.1491 38.5642 48.8422 0.0000 0.0000 0.0000
# 2 38.5642 91.9440 63.5613 0.0000 0.0000 0.0000
# 3 48.8422 63.5613 142.8214 0.0000 0.0000 0.0000
# 4 0.0000 0.0000 0.0000 44.3224 0.0000 0.0000
# 5 0.0000 0.0000 0.0000 0.0000 42.5715 0.0000
# 6 0.0000 0.0000 0.0000 0.0000 0.0000 39.2670
#
#
#
# Elastic Compliance Matrix: (Units=1/GPa)
#
#
# Indices 1 2 3 4 5 6 
#
# 1 0.010417 -0.002754 -0.002337 0.000000 0.000000 0.000000
# 2 -0.002754 0.016437 -0.006374 0.000000 0.000000 0.000000
# 3 -0.002337 -0.006374 0.010637 0.000000 0.000000 0.000000
# 4 0.000000 0.000000 0.000000 0.022562 0.000000 0.000000
# 5 0.000000 0.000000 0.000000 0.000000 0.023490 0.000000
# 6 0.000000 0.000000 0.000000 0.000000 0.000000 0.025467
#
#
# Mechanical properties :
#
#
# Convention : Reuss Voigt Hill
#
# Bulk Modulus (GPa) = 68.66554 72.64999 70.65777
# Shear Modulus (GPa) = 36.55167 38.62862 37.59015
#
# Velocity S-wave (km/s) = 4.31376 4.43463 4.37461
# Velocity P-wave (km/s) = 7.73106 7.95032 7.84145
#
# Compressibility (1/GPa) = 0.01456335
#
# Stress axis : x y z
#
# Youngs Moduli (GPa) = 95.99766 60.83764 94.00807
#
# Poissons Ratio (x) = 0.16753 0.21969
# Poissons Ratio (y) = 0.26435 0.59916
# Poissons Ratio (z) = 0.22434 0.38775
#
# Static dielectric constant tensor:
#      x y z
#    x 3.791570 0.000000 0.000000 
#    y 0.000000 3.845860 0.000000 
#    z 0.000000 0.000000 3.660370 
# 
# 
# High freq. dielectric constant tensor:
#      x y z
#    x 1.788090 0.000000 0.000000 
#    y 0.000000 1.779130 0.000000 
#    z 0.000000 0.000000 1.769350 
# 
# From -- ./inp_files/6068.got.cif
#   From: 2010.03.12/outbox.cif.g09.slc.cpg/sg51_4_cif.got.tgz:6068.got - 2010.04.16 13:43:02.
