data_PCOD8213665
_publ_section_title
;
Structure prediction by ZEFSAII (Michael W. Deem and Ramdas Pophale) SiO2 
 PCOD8213665
Probable space group: P M M A
;
_chemical_formula_sum "Si O2"
_cell_formula_units_Z 44
_cell_length_a 8.923894
_cell_length_b 27.621062
_cell_length_c 9.272240
_cell_angle_alpha 90.000000
_cell_angle_beta 90.000000
_cell_angle_gamma 90.000000
_cell_volume 2285.490603
_symmetry_space_group_name_H-M "P M M A"
_symmetry_group_IT_number 51
_symmetry_cell_setting 'orthorhombic'
loop_
_space_group_symop_operation_xyz
x,y,z
1/2-x,-y,z
1/2+x,-y,-z
-x,y,-z
-x,-y,-z
1/2+x,y,-z
1/2-x,y,z
x,-y,z
loop_
_atom_site_type_symbol
_atom_site_label
_atom_site_fract_x
_atom_site_fract_y
_atom_site_fract_z
Si Si1 0.422185 0.053109 0.651511
Si Si2 0.427349 0.682768 0.653878
Si Si3 0.572553 0.500000 0.343291
Si Si4 0.576716 0.871582 0.852640
Si Si5 0.574348 0.409175 0.155652
Si Si6 0.425036 0.759522 0.151130
O O1 0.500000 0.048945 0.500000
O O2 0.250000 0.068207 0.633149
O O3 0.506212 0.095408 0.732235
O O4 0.435253 0.000000 0.727910
O O5 0.500000 0.671312 0.500000
O O6 0.250000 0.688547 0.635017
O O7 0.470145 0.639899 0.762981
O O8 0.496809 0.731716 0.717830
O O9 0.750000 0.500000 0.364390
O O10 0.500000 0.500000 0.500000
O O11 0.517012 0.453350 0.254215
O O12 0.750000 0.883359 0.867254
O O13 0.547709 0.815699 0.814642
O O14 0.500000 0.886433 0.000000
O O15 0.750000 0.413191 0.130717
O O16 0.500000 0.410753 0.000000
O O17 0.250000 0.746458 0.142445
O O18 0.500000 0.744378 0.000000
#
# Coordination Sequence:
#
# PCOD8213665 Si02
#       6
#     8   8   4   8   8   8
#     4  10  21  37  57  81 110 145 184 226 274 328
#     4  11  23  38  57  83 113 147 187 231 279 331
#     4  10  21  38  58  84 116 148 185 230 278 328
#     4  10  21  37  58  83 111 144 183 227 275 327
#     4  10  22  38  58  84 113 147 188 230 276 331
#     4  10  21  38  59  83 111 145 184 227 276 330
#
# _framework density 19.251882999999999
#
# number of rings (size 3 to 8) (size 9 to 14) (size 15 to 20)
#    0.000    1.818    0.000    3.545    0.000    8.000 
#    0.000    0.000    0.000    0.000    0.000    0.000 
#    0.000    0.000    0.000    0.000    0.000    0.000 
#
# Total GULP energy -545717.601049 kJ/mol
# GULP energy per Si atom -12402.672751 kJ/mol
# Density = 1.920807 g / cm^3
# Si number density = 19.251883 Si / 1000 Ang^3
#
#
#
# Elastic Constant Matrix: (Units=GPa)
#
#
# Indices 1 2 3 4 5 6 
#
# 1 102.9466 56.5459 62.4296 0.0000 0.0000 0.0000
# 2 56.5459 98.0095 65.7564 0.0000 0.0000 0.0000
# 3 62.4296 65.7564 142.2404 0.0000 0.0000 0.0000
# 4 0.0000 0.0000 0.0000 37.6274 0.0000 0.0000
# 5 0.0000 0.0000 0.0000 0.0000 43.7354 0.0000
# 6 0.0000 0.0000 0.0000 0.0000 0.0000 29.6605
#
#
#
# Elastic Compliance Matrix: (Units=1/GPa)
#
#
# Indices 1 2 3 4 5 6 
#
# 1 0.015574 -0.006377 -0.003887 0.000000 0.000000 0.000000
# 2 -0.006377 0.017402 -0.005246 0.000000 0.000000 0.000000
# 3 -0.003887 -0.005246 0.011162 0.000000 0.000000 0.000000
# 4 0.000000 0.000000 0.000000 0.026576 0.000000 0.000000
# 5 0.000000 0.000000 0.000000 0.000000 0.022865 0.000000
# 6 0.000000 0.000000 0.000000 0.000000 0.000000 0.033715
#
#
# Mechanical properties :
#
#
# Convention : Reuss Voigt Hill
#
# Bulk Modulus (GPa) = 76.23795 79.18449 77.71122
# Shear Modulus (GPa) = 30.73401 32.76899 31.75150
#
# Velocity S-wave (km/s) = 3.99985 4.13015 4.06552
# Velocity P-wave (km/s) = 7.81140 7.99777 7.90513
#
# Compressibility (1/GPa) = 0.01311683
#
# Stress axis : x y z
#
# Youngs Moduli (GPa) = 64.20953 57.46518 89.59329
#
# Poissons Ratio (x) = 0.36647 0.34828
# Poissons Ratio (y) = 0.40948 0.46998
# Poissons Ratio (z) = 0.24960 0.30145
#
# Static dielectric constant tensor:
#      x y z
#    x 3.621340 0.000000 0.000000 
#    y 0.000000 3.723020 0.000000 
#    z 0.000000 0.000000 3.444790 
# 
# 
# High freq. dielectric constant tensor:
#      x y z
#    x 1.760570 0.000000 0.000000 
#    y 0.000000 1.762770 0.000000 
#    z 0.000000 0.000000 1.750560 
# 
# From -- ./inp_files/5866.got.cif
#   From: 2010.03.12/outbox.cif.g09.slc.cpg/sg51_3_cif.got.tgz:5866.got - 2010.04.16 13:43:02.
