data_PCOD8213656
_publ_section_title
;
Structure prediction by ZEFSAII (Michael W. Deem and Ramdas Pophale) SiO2 
 PCOD8213656
Probable space group: P M M A
;
_chemical_formula_sum "Si O2"
_cell_formula_units_Z 32
_cell_length_a 9.013838
_cell_length_b 9.032818
_cell_length_c 20.496888
_cell_angle_alpha 90.000000
_cell_angle_beta 90.000000
_cell_angle_gamma 90.000000
_cell_volume 1668.863962
_symmetry_space_group_name_H-M "P M M A"
_symmetry_group_IT_number 51
_symmetry_cell_setting 'orthorhombic'
loop_
_space_group_symop_operation_xyz
x,y,z
1/2-x,-y,z
1/2+x,-y,-z
-x,y,-z
-x,-y,-z
1/2+x,y,-z
1/2-x,y,z
x,-y,z
loop_
_atom_site_type_symbol
_atom_site_label
_atom_site_fract_x
_atom_site_fract_y
_atom_site_fract_z
Si Si1 0.576339 0.830909 0.565062
Si Si2 0.078236 0.172835 0.814705
Si Si3 0.076246 0.670379 0.067240
Si Si4 0.420853 0.674379 0.303872
O O1 0.500000 0.767532 0.500000
O O2 0.750000 0.817174 0.554219
O O3 0.524042 0.734025 0.626378
O O4 0.527210 0.000000 0.577813
O O5 0.250000 0.209942 0.826442
O O6 0.985879 0.226356 0.876494
O O7 0.023943 0.255851 0.750664
O O8 0.050265 0.000000 0.804764
O O9 0.250000 0.697774 0.060063
O O10 0.040586 0.500000 0.084572
O O11 0.000000 0.717617 0.000000
O O12 0.250000 0.720209 0.290980
O O13 0.440823 0.500000 0.302502
#
# Coordination Sequence:
#
# PCOD8213656 Si02
#       4
#     8   8   8   8
#     4   9  18  33  53  77 107 143 181 222 269 322
#     4  11  24  39  56  81 112 146 185 228 274 325
#     4  10  21  38  61  87 114 146 183 223 270 324
#     4  10  21  37  57  81 109 143 184 228 275 328
#
# _framework density 19.174721000000002
#
# number of rings (size 3 to 8) (size 9 to 14) (size 15 to 20)
#    0.000    2.000    0.000    3.000    0.000   10.000 
#    0.000    2.500    0.000    0.000    0.000    0.000 
#    0.000    0.000    0.000    0.000    0.000    0.000 
#
# Total GULP energy -396960.621457 kJ/mol
# GULP energy per Si atom -12405.019421 kJ/mol
# Density = 1.913108 g / cm^3
# Si number density = 19.174721 Si / 1000 Ang^3
#
#
#
# Elastic Constant Matrix: (Units=GPa)
#
#
# Indices 1 2 3 4 5 6 
#
# 1 70.9209 37.3745 56.5667 0.0000 0.0000 0.0000
# 2 37.3745 72.5563 54.4723 0.0000 0.0000 0.0000
# 3 56.5667 54.4723 148.1125 0.0000 0.0000 0.0000
# 4 0.0000 0.0000 0.0000 41.5292 0.0000 0.0000
# 5 0.0000 0.0000 0.0000 0.0000 43.0679 0.0000
# 6 0.0000 0.0000 0.0000 0.0000 0.0000 28.8614
#
#
#
# Elastic Compliance Matrix: (Units=1/GPa)
#
#
# Indices 1 2 3 4 5 6 
#
# 1 0.022681 -0.007156 -0.006031 0.000000 0.000000 0.000000
# 2 -0.007156 0.021297 -0.005100 0.000000 0.000000 0.000000
# 3 -0.006031 -0.005100 0.010930 0.000000 0.000000 0.000000
# 4 0.000000 0.000000 0.000000 0.024079 0.000000 0.000000
# 5 0.000000 0.000000 0.000000 0.000000 0.023219 0.000000
# 6 0.000000 0.000000 0.000000 0.000000 0.000000 0.034648
#
#
# Mechanical properties :
#
#
# Convention : Reuss Voigt Hill
#
# Bulk Modulus (GPa) = 54.53596 65.37966 59.95781
# Shear Modulus (GPa) = 27.84895 32.23678 30.04287
#
# Velocity S-wave (km/s) = 3.81514 4.10471 3.96257
# Velocity P-wave (km/s) = 6.92174 7.52567 7.23001
#
# Compressibility (1/GPa) = 0.01833653
#
# Stress axis : x y z
#
# Youngs Moduli (GPa) = 44.08916 46.95489 91.48838
#
# Poissons Ratio (x) = 0.33600 0.55173
# Poissons Ratio (y) = 0.31549 0.46656
# Poissons Ratio (z) = 0.26589 0.23945
#
# Static dielectric constant tensor:
#      x y z
#    x 3.541540 0.000000 0.000000 
#    y 0.000000 3.534060 0.000000 
#    z 0.000000 0.000000 3.794270 
# 
# 
# High freq. dielectric constant tensor:
#      x y z
#    x 1.747930 0.000000 0.000000 
#    y 0.000000 1.745680 0.000000 
#    z 0.000000 0.000000 1.760750 
# 
# From -- ./inp_files/31074.got.cif
#   From: 2010.03.12/outbox.cif.g09.slc.cpg/sg51_16_cif.got.tgz:31074.got - 2010.04.16 13:43:02.
