data_PCOD8213217
_publ_section_title
;
Structure prediction by ZEFSAII (Michael W. Deem and Ramdas Pophale) SiO2 
 PCOD8213217
Probable space group: P M M A
;
_chemical_formula_sum "Si O2"
_cell_formula_units_Z 40
_cell_length_a 9.301881
_cell_length_b 13.741339
_cell_length_c 15.405770
_cell_angle_alpha 90.000000
_cell_angle_beta 90.000000
_cell_angle_gamma 90.000000
_cell_volume 1969.170146
_symmetry_space_group_name_H-M "P M M A"
_symmetry_group_IT_number 51
_symmetry_cell_setting 'orthorhombic'
loop_
_space_group_symop_operation_xyz
x,y,z
1/2-x,-y,z
1/2+x,-y,-z
-x,y,-z
-x,-y,-z
1/2+x,y,-z
1/2-x,y,z
x,-y,z
loop_
_atom_site_type_symbol
_atom_site_label
_atom_site_fract_x
_atom_site_fract_y
_atom_site_fract_z
Si Si1 0.911558 0.188234 0.254630
Si Si2 0.087206 0.115126 0.417587
Si Si3 0.047434 0.388140 0.797094
Si Si4 0.918672 0.114473 0.911219
Si Si5 0.750000 0.612083 0.864243
Si Si6 0.250000 0.388863 0.949328
O O1 0.750000 0.142887 0.252334
O O2 0.892723 0.305981 0.268096
O O3 0.001676 0.143462 0.332061
O O4 0.996844 0.168077 0.165868
O O5 0.250000 0.157893 0.416359
O O6 0.000000 0.157403 0.500000
O O7 0.095552 0.000000 0.423185
O O8 0.082572 0.500000 0.767258
O O9 0.109415 0.366190 0.892815
O O10 0.881332 0.363042 0.802875
O O11 0.750000 0.146162 0.913380
O O12 0.930166 0.000000 0.894199
O O13 0.000000 0.143048 0.000000
O O14 0.750000 0.500000 0.887750
O O15 0.750000 0.668532 0.957994
O O16 0.250000 0.500000 0.974631
#
# Coordination Sequence:
#
# PCOD8213217 Si02
#       6
#     8   8   8   8   4   4
#     4  12  24  37  58  89 120 161 203 244 294 352
#     4  10  22  42  69  98 125 150 182 236 301 362
#     4  10  21  36  52  77 113 155 201 249 302 350
#     4  10  22  40  59  81 115 158 202 249 298 354
#     4   9  18  30  50  74 100 145 202 258 306 343
#     4   9  16  32  50  68 102 147 198 252 300 343
#
# _framework density 20.313124999999999
#
# number of rings (size 3 to 8) (size 9 to 14) (size 15 to 20)
#    0.000    1.800    1.000    3.000    2.800    8.800 
#    0.000    0.000    0.000    0.600    0.000    0.000 
#    0.000    0.000    0.000    0.000    0.000    0.000 
#
# Total GULP energy -495582.911661 kJ/mol
# GULP energy per Si atom -12389.572792 kJ/mol
# Density = 2.026689 g / cm^3
# Si number density = 20.313125 Si / 1000 Ang^3
#
#
#
# Elastic Constant Matrix: (Units=GPa)
#
#
# Indices 1 2 3 4 5 6 
#
# 1 191.6661 21.8022 56.8261 0.0000 0.0000 0.0000
# 2 21.8022 41.4413 13.8778 0.0000 0.0000 0.0000
# 3 56.8261 13.8778 96.1693 0.0000 0.0000 0.0000
# 4 0.0000 0.0000 0.0000 9.3652 0.0000 0.0000
# 5 0.0000 0.0000 0.0000 0.0000 28.4568 0.0000
# 6 0.0000 0.0000 0.0000 0.0000 0.0000 17.1411
#
#
#
# Elastic Compliance Matrix: (Units=1/GPa)
#
#
# Indices 1 2 3 4 5 6 
#
# 1 0.006519 -0.002248 -0.003528 0.000000 0.000000 0.000000
# 2 -0.002248 0.026131 -0.002442 0.000000 0.000000 0.000000
# 3 -0.003528 -0.002442 0.012835 0.000000 0.000000 0.000000
# 4 0.000000 0.000000 0.000000 0.106779 0.000000 0.000000
# 5 0.000000 0.000000 0.000000 0.000000 0.035141 0.000000
# 6 0.000000 0.000000 0.000000 0.000000 0.000000 0.058339
#
#
# Mechanical properties :
#
#
# Convention : Reuss Voigt Hill
#
# Bulk Modulus (GPa) = 34.42472 57.14321 45.78396
# Shear Modulus (GPa) = 18.39153 26.77731 22.58442
#
# Velocity S-wave (km/s) = 3.01225 3.63468 3.33801
# Velocity P-wave (km/s) = 5.39278 6.76807 6.11918
#
# Compressibility (1/GPa) = 0.02904890
#
# Stress axis : x y z
#
# Youngs Moduli (GPa) = 153.39660 38.26833 77.91043
#
# Poissons Ratio (x) = 0.08604 0.27484
# Poissons Ratio (y) = 0.34489 0.19029
# Poissons Ratio (z) = 0.54113 0.09347
#
# Static dielectric constant tensor:
#      x y z
#    x 4.013400 0.000000 0.000000 
#    y 0.000000 3.748200 0.000000 
#    z 0.000000 0.000000 3.412910 
# 
# 
# High freq. dielectric constant tensor:
#      x y z
#    x 1.822710 0.000000 0.000000 
#    y 0.000000 1.789030 0.000000 
#    z 0.000000 0.000000 1.751210 
# 
# From -- ./inp_files/20531.got.cif
#   From: 2010.03.12/outbox.cif.g09.slc.cpg/sg51_11_cif.got.tgz:20531.got - 2010.04.16 13:43:02.
