data_PCOD8213732
_publ_section_title
;
Structure prediction by ZEFSAII (Michael W. Deem and Ramdas Pophale) SiO2 
 PCOD8213732
Probable space group: P M M A
;
_chemical_formula_sum "Si O2"
_cell_formula_units_Z 48
_cell_length_a 14.698981
_cell_length_b 8.955143
_cell_length_c 18.851245
_cell_angle_alpha 90.000000
_cell_angle_beta 90.000000
_cell_angle_gamma 90.000000
_cell_volume 2481.417219
_symmetry_space_group_name_H-M "P M M A"
_symmetry_group_IT_number 51
_symmetry_cell_setting 'orthorhombic'
loop_
_space_group_symop_operation_xyz
x,y,z
1/2-x,-y,z
1/2+x,-y,-z
-x,y,-z
-x,-y,-z
1/2+x,y,-z
1/2-x,y,z
x,-y,z
loop_
_atom_site_type_symbol
_atom_site_label
_atom_site_fract_x
_atom_site_fract_y
_atom_site_fract_z
Si Si1 0.854085 0.173594 0.556157
Si Si2 0.646737 0.328497 0.079270
Si Si3 0.856735 0.828741 0.935395
Si Si4 0.855098 0.325406 0.411597
Si Si5 0.995187 0.824084 0.675676
Si Si6 0.518172 0.673897 0.823611
O O1 0.750000 0.212840 0.575132
O O2 0.887842 0.262869 0.487318
O O3 0.914812 0.223574 0.622369
O O4 0.866453 0.000000 0.538562
O O5 0.750000 0.293823 0.103117
O O6 0.635937 0.500000 0.054803
O O7 0.582309 0.292807 0.145735
O O8 0.616504 0.224931 0.014051
O O9 0.750000 0.808814 0.922782
O O10 0.906193 0.725473 0.878865
O O11 0.887357 0.000000 0.926670
O O12 0.750000 0.285873 0.398781
O O13 0.873705 0.500000 0.410050
O O14 0.910465 0.249248 0.348402
O O15 0.967462 0.765969 0.752376
O O16 0.007956 0.000000 0.678394
O O17 0.531601 0.500000 0.807466
#
# Coordination Sequence:
#
# PCOD8213732 Si02
#       6
#     8   8   8   8   8   8
#     4   9  19  37  59  81 107 141 181 225 274 328
#     4   9  19  37  59  81 107 141 181 225 274 328
#     4  10  21  37  58  83 110 142 182 228 275 324
#     4  10  21  37  58  83 110 142 182 228 275 324
#     4  11  23  37  55  81 113 149 185 224 274 329
#     4  11  23  37  55  81 113 149 185 224 274 329
#
# _framework density 19.343785
#
# number of rings (size 3 to 8) (size 9 to 14) (size 15 to 20)
#    0.000    2.000    0.000    3.000    0.000   10.000 
#    0.000    3.333    0.000    0.000    0.000    0.000 
#    0.000    0.000    0.000    0.000    0.000    0.000 
#
# Total GULP energy -595473.931978 kJ/mol
# GULP energy per Si atom -12405.706916 kJ/mol
# Density = 1.929976 g / cm^3
# Si number density = 19.343785 Si / 1000 Ang^3
#
#
#
# Elastic Constant Matrix: (Units=GPa)
#
#
# Indices 1 2 3 4 5 6 
#
# 1 52.9493 26.1120 19.8461 0.0000 0.0000 0.0000
# 2 26.1120 56.4089 16.5389 0.0000 0.0000 0.0000
# 3 19.8461 16.5389 60.1358 0.0000 0.0000 0.0000
# 4 0.0000 0.0000 0.0000 30.3119 0.0000 0.0000
# 5 0.0000 0.0000 0.0000 0.0000 20.4467 0.0000
# 6 0.0000 0.0000 0.0000 0.0000 0.0000 30.2080
#
#
#
# Elastic Compliance Matrix: (Units=1/GPa)
#
#
# Indices 1 2 3 4 5 6 
#
# 1 0.026196 -0.010433 -0.005776 0.000000 0.000000 0.000000
# 2 -0.010433 0.023437 -0.003003 0.000000 0.000000 0.000000
# 3 -0.005776 -0.003003 0.019361 0.000000 0.000000 0.000000
# 4 0.000000 0.000000 0.000000 0.032990 0.000000 0.000000
# 5 0.000000 0.000000 0.000000 0.000000 0.048908 0.000000
# 6 0.000000 0.000000 0.000000 0.000000 0.000000 0.033104
#
#
# Mechanical properties :
#
#
# Convention : Reuss Voigt Hill
#
# Bulk Modulus (GPa) = 32.71039 32.72090 32.71565
# Shear Modulus (GPa) = 21.49526 23.32646 22.41086
#
# Velocity S-wave (km/s) = 3.33712 3.47636 3.40745
# Velocity P-wave (km/s) = 5.63872 5.75027 5.69477
#
# Compressibility (1/GPa) = 0.03057132
#
# Stress axis : x y z
#
# Youngs Moduli (GPa) = 38.17416 42.66672 51.65000
#
# Poissons Ratio (x) = 0.44513 0.29833
# Poissons Ratio (y) = 0.39826 0.15510
# Poissons Ratio (z) = 0.22049 0.12812
#
# Static dielectric constant tensor:
#      x y z
#    x 3.676510 0.000000 0.000000 
#    y 0.000000 3.599240 0.000000 
#    z 0.000000 0.000000 3.446460 
# 
# 
# High freq. dielectric constant tensor:
#      x y z
#    x 1.762810 0.000000 0.000000 
#    y 0.000000 1.760280 0.000000 
#    z 0.000000 0.000000 1.746570 
# 
# From -- ./inp_files/29389.got.cif
#   From: 2010.03.12/outbox.cif.g09.slc.cpg/sg51_15_cif.got.tgz:29389.got - 2010.04.16 13:43:02.
