data_PCOD8213577
_publ_section_title
;
Structure prediction by ZEFSAII (Michael W. Deem and Ramdas Pophale) SiO2 
 PCOD8213577
Probable space group: P M M A
;
_chemical_formula_sum "Si O2"
_cell_formula_units_Z 48
_cell_length_a 9.072905
_cell_length_b 13.607702
_cell_length_c 19.169735
_cell_angle_alpha 90.000000
_cell_angle_beta 90.000000
_cell_angle_gamma 90.000000
_cell_volume 2366.722081
_symmetry_space_group_name_H-M "P M M A"
_symmetry_group_IT_number 51
_symmetry_cell_setting 'orthorhombic'
loop_
_space_group_symop_operation_xyz
x,y,z
1/2-x,-y,z
1/2+x,-y,-z
-x,y,-z
-x,-y,-z
1/2+x,y,-z
1/2-x,y,z
x,-y,z
loop_
_atom_site_type_symbol
_atom_site_label
_atom_site_fract_x
_atom_site_fract_y
_atom_site_fract_z
Si Si1 0.087862 0.108299 0.190220
Si Si2 0.420730 0.383988 0.788163
Si Si3 0.917510 0.247247 0.682962
Si Si4 0.082511 0.616640 0.069610
Si Si5 0.923830 0.111326 0.425752
Si Si6 0.412350 0.117592 0.935359
O O1 0.250000 0.103990 0.156225
O O2 0.090324 0.160215 0.262831
O O3 0.982583 0.162136 0.134800
O O4 0.025855 0.000000 0.204916
O O5 0.250000 0.351529 0.791150
O O6 0.435913 0.500000 0.779239
O O7 0.497948 0.337826 0.719415
O O8 0.499799 0.348611 0.859661
O O9 0.750000 0.278479 0.661109
O O10 0.007047 0.200174 0.619151
O O11 0.250000 0.657294 0.071505
O O12 0.083678 0.500000 0.066865
O O13 0.000000 0.656841 0.000000
O O14 0.750000 0.130659 0.432573
O O15 0.000000 0.119730 0.500000
O O16 0.952044 0.000000 0.395953
O O17 0.250000 0.159056 0.940767
O O18 0.420452 0.000000 0.934791
O O19 0.500000 0.161871 0.000000
#
# Coordination Sequence:
#
# PCOD8213577 Si02
#       6
#     8   8   8   8   8   8
#     4   9  18  32  49  71 101 135 170 211 261 316
#     4  10  21  37  56  79 110 149 193 241 292 345
#     4  11  22  36  57  84 114 147 184 227 276 333
#     4   9  16  28  49  76 105 139 182 234 293 352
#     4  10  21  38  62  92 125 158 190 225 268 323
#     4   9  16  26  42  63  89 126 171 216 261 310
#
# _framework density 20.281215
#
# number of rings (size 3 to 8) (size 9 to 14) (size 15 to 20)
#    0.000    2.333    0.000    3.000    0.000    8.000 
#    0.000    2.500    0.000    4.500    0.000    0.000 
#    0.000    0.000    0.000    0.000    0.000    0.000 
#
# Total GULP energy -594908.760423 kJ/mol
# GULP energy per Si atom -12393.932509 kJ/mol
# Density = 2.023505 g / cm^3
# Si number density = 20.281215 Si / 1000 Ang^3
#
#
#
# Elastic Constant Matrix: (Units=GPa)
#
#
# Indices 1 2 3 4 5 6 
#
# 1 173.4456 39.9683 62.6118 0.0000 0.0000 0.0000
# 2 39.9683 60.0116 27.7279 0.0000 0.0000 0.0000
# 3 62.6118 27.7279 96.8814 0.0000 0.0000 0.0000
# 4 0.0000 0.0000 0.0000 53.2880 0.0000 0.0000
# 5 0.0000 0.0000 0.0000 0.0000 41.3126 0.0000
# 6 0.0000 0.0000 0.0000 0.0000 0.0000 25.5290
#
#
#
# Elastic Compliance Matrix: (Units=1/GPa)
#
#
# Indices 1 2 3 4 5 6 
#
# 1 0.008088 -0.003424 -0.004247 0.000000 0.000000 0.000000
# 2 -0.003424 0.020653 -0.003698 0.000000 0.000000 0.000000
# 3 -0.004247 -0.003698 0.014125 0.000000 0.000000 0.000000
# 4 0.000000 0.000000 0.000000 0.018766 0.000000 0.000000
# 5 0.000000 0.000000 0.000000 0.000000 0.024206 0.000000
# 6 0.000000 0.000000 0.000000 0.000000 0.000000 0.039171
#
#
# Mechanical properties :
#
#
# Convention : Reuss Voigt Hill
#
# Bulk Modulus (GPa) = 49.68383 65.66162 57.67273
# Shear Modulus (GPa) = 32.37197 37.36129 34.86663
#
# Velocity S-wave (km/s) = 3.99953 4.29670 4.15077
# Velocity P-wave (km/s) = 6.77340 7.55390 7.17427
#
# Compressibility (1/GPa) = 0.02012727
#
# Stress axis : x y z
#
# Youngs Moduli (GPa) = 123.64599 48.42003 70.79738
#
# Poissons Ratio (x) = 0.16580 0.30066
# Poissons Ratio (y) = 0.42339 0.26180
# Poissons Ratio (z) = 0.52510 0.17905
#
# Static dielectric constant tensor:
#      x y z
#    x 4.128570 0.000000 0.000000 
#    y 0.000000 3.511320 0.000000 
#    z 0.000000 0.000000 3.540120 
# 
# 
# High freq. dielectric constant tensor:
#      x y z
#    x 1.807780 0.000000 0.000000 
#    y 0.000000 1.787250 0.000000 
#    z 0.000000 0.000000 1.771360 
# 
# From -- ./inp_files/27601.got.cif
#   From: 2010.03.12/outbox.cif.g09.slc.cpg/sg51_14_cif.got.tgz:27601.got - 2010.04.16 13:43:02.
