data_PCOD8213181
_publ_section_title
;
Structure prediction by ZEFSAII (Michael W. Deem and Ramdas Pophale) SiO2 
 PCOD8213181
Probable space group: P M M A
;
_chemical_formula_sum "Si O2"
_cell_formula_units_Z 64
_cell_length_a 17.137465
_cell_length_b 9.248833
_cell_length_c 20.347840
_cell_angle_alpha 90.000000
_cell_angle_beta 90.000000
_cell_angle_gamma 90.000000
_cell_volume 3225.164216
_symmetry_space_group_name_H-M "P M M A"
_symmetry_group_IT_number 51
_symmetry_cell_setting 'orthorhombic'
loop_
_space_group_symop_operation_xyz
x,y,z
1/2-x,-y,z
1/2+x,-y,-z
-x,y,-z
-x,-y,-z
1/2+x,y,-z
1/2-x,y,z
x,-y,z
loop_
_atom_site_type_symbol
_atom_site_label
_atom_site_fract_x
_atom_site_fract_y
_atom_site_fract_z
Si Si1 0.659973 0.659764 0.293390
Si Si2 0.338032 0.329466 0.340152
Si Si3 0.573564 0.328483 0.790019
Si Si4 0.585643 0.171143 0.184718
Si Si5 0.586585 0.330934 0.524188
Si Si6 0.660861 0.831391 0.048844
Si Si7 0.341036 0.839704 0.587369
Si Si8 0.840082 0.667160 0.921874
O O1 0.750000 0.637300 0.308702
O O2 0.620633 0.500000 0.286079
O O3 0.652857 0.756394 0.228304
O O4 0.619854 0.744139 0.354483
O O5 0.250000 0.264398 0.347941
O O6 0.330478 0.500000 0.336496
O O7 0.376655 0.273840 0.272494
O O8 0.395023 0.285698 0.400555
O O9 0.558411 0.500000 0.787212
O O10 0.493426 0.242541 0.790432
O O11 0.618007 0.281858 0.855890
O O12 0.605121 0.210130 0.109433
O O13 0.584484 0.000000 0.196013
O O14 0.500000 0.288822 0.500000
O O15 0.602556 0.500000 0.513149
O O16 0.646928 0.240190 0.481318
O O17 0.750000 0.781929 0.063693
O O18 0.658088 0.000000 0.034402
O O19 0.626476 0.752398 0.984703
O O20 0.250000 0.855402 0.600784
O O21 0.379201 0.000000 0.586623
O O22 0.750000 0.704151 0.911867
O O23 0.854658 0.500000 0.935899
#
# Coordination Sequence:
#
# PCOD8213181 Si02
#       8
#     8   8   8   8   8   8   8   8
#     4  10  21  37  59  84 110 145 189 235 281 335
#     4   9  18  35  59  83 110 149 194 237 284 338
#     4  10  21  36  56  82 111 147 190 238 289 341
#     4  11  23  37  54  80 116 153 188 230 283 344
#     4  10  21  35  56  87 118 149 188 238 288 339
#     4   9  19  36  57  79 107 147 189 227 275 342
#     4  10  21  37  57  82 113 150 189 231 283 341
#     4   9  18  34  57  83 109 140 187 244 292 336
#
# _framework density 19.84395
#
# number of rings (size 3 to 8) (size 9 to 14) (size 15 to 20)
#    0.000    2.250    0.000    2.250    1.750    6.250 
#    0.000    4.375    0.000    1.875    0.000    0.000 
#    0.000    0.000    0.000    0.000    0.000    0.000 
#
# Total GULP energy -793525.492150 kJ/mol
# GULP energy per Si atom -12398.835815 kJ/mol
# Density = 1.979878 g / cm^3
# Si number density = 19.843950 Si / 1000 Ang^3
#
#
#
# Elastic Constant Matrix: (Units=GPa)
#
#
# Indices 1 2 3 4 5 6 
#
# 1 72.0417 25.3623 47.3585 0.0000 0.0000 0.0000
# 2 25.3623 78.1676 60.3689 0.0000 0.0000 0.0000
# 3 47.3585 60.3689 166.5968 0.0000 0.0000 0.0000
# 4 0.0000 0.0000 0.0000 13.4731 0.0000 0.0000
# 5 0.0000 0.0000 0.0000 0.0000 31.0421 0.0000
# 6 0.0000 0.0000 0.0000 0.0000 0.0000 23.5937
#
#
#
# Elastic Compliance Matrix: (Units=1/GPa)
#
#
# Indices 1 2 3 4 5 6 
#
# 1 0.017426 -0.002539 -0.004034 0.000000 0.000000 0.000000
# 2 -0.002539 0.018134 -0.005850 0.000000 0.000000 0.000000
# 3 -0.004034 -0.005850 0.009269 0.000000 0.000000 0.000000
# 4 0.000000 0.000000 0.000000 0.074222 0.000000 0.000000
# 5 0.000000 0.000000 0.000000 0.000000 0.032214 0.000000
# 6 0.000000 0.000000 0.000000 0.000000 0.000000 0.042384
#
#
# Mechanical properties :
#
#
# Convention : Reuss Voigt Hill
#
# Bulk Modulus (GPa) = 50.03695 64.77615 57.40655
# Shear Modulus (GPa) = 22.20679 25.86955 24.03817
#
# Velocity S-wave (km/s) = 3.34888 3.61453 3.48424
# Velocity P-wave (km/s) = 6.34218 7.08049 6.72148
#
# Compressibility (1/GPa) = 0.01998523
#
# Stress axis : x y z
#
# Youngs Moduli (GPa) = 57.38426 55.14385 107.88787
#
# Poissons Ratio (x) = 0.14000 0.43520
# Poissons Ratio (y) = 0.14569 0.63110
# Poissons Ratio (z) = 0.23148 0.32257
#
# Static dielectric constant tensor:
#      x y z
#    x 3.486160 0.000000 0.000000 
#    y 0.000000 3.608650 0.000000 
#    z 0.000000 0.000000 3.828220 
# 
# 
# High freq. dielectric constant tensor:
#      x y z
#    x 1.760700 0.000000 0.000000 
#    y 0.000000 1.759590 0.000000 
#    z 0.000000 0.000000 1.787450 
# 
# From -- ./inp_files/33972.got.cif
#   From: 2010.03.12/outbox.cif.g09.slc.cpg/sg51_17_cif.got.tgz:33972.got - 2010.04.16 13:43:02.
