data_PCOD8213519
_publ_section_title
;
Structure prediction by ZEFSAII (Michael W. Deem and Ramdas Pophale) SiO2 
 PCOD8213519
Probable space group: P M M A
;
_chemical_formula_sum "Si O2"
_cell_formula_units_Z 36
_cell_length_a 9.151448
_cell_length_b 12.354163
_cell_length_c 19.677802
_cell_angle_alpha 90.000000
_cell_angle_beta 90.000000
_cell_angle_gamma 90.000000
_cell_volume 2224.742389
_symmetry_space_group_name_H-M "P M M A"
_symmetry_group_IT_number 51
_symmetry_cell_setting 'orthorhombic'
loop_
_space_group_symop_operation_xyz
x,y,z
1/2-x,-y,z
1/2+x,-y,-z
-x,y,-z
-x,-y,-z
1/2+x,y,-z
1/2-x,y,z
x,-y,z
loop_
_atom_site_type_symbol
_atom_site_label
_atom_site_fract_x
_atom_site_fract_y
_atom_site_fract_z
Si Si1 0.088822 0.371351 0.937226
Si Si2 0.080979 0.873188 0.568645
Si Si3 0.578884 0.373908 0.213215
Si Si4 0.577124 0.291840 0.659088
Si Si5 0.579005 0.500000 0.571606
O O1 0.250000 0.322805 0.943804
O O2 0.093471 0.500000 0.943308
O O3 0.026118 0.340584 0.862836
O O4 0.000000 0.320020 0.000000
O O5 0.250000 0.838499 0.562929
O O6 0.000000 0.837429 0.500000
O O7 0.002918 0.813784 0.630692
O O8 0.064352 0.000000 0.582017
O O9 0.750000 0.347483 0.223317
O O10 0.549723 0.500000 0.225908
O O11 0.479792 0.306246 0.264522
O O12 0.750000 0.273762 0.659865
O O13 0.531258 0.394794 0.613871
O O14 0.750000 0.500000 0.557449
O O15 0.500000 0.500000 0.500000
#
# Coordination Sequence:
#
# PCOD8213519 Si02
#       5
#     8   8   8   8   4
#     4   8  14  24  38  58  84 117 157 193 226 267
#     4  10  21  37  55  73  92 117 153 196 241 285
#     4   9  17  29  44  63  91 127 161 192 231 277
#     4  11  21  33  48  69  96 124 158 194 233 281
#     4  10  22  34  44  64  91 120 153 188 225 272
#
# _framework density 16.181649
#
# number of rings (size 3 to 8) (size 9 to 14) (size 15 to 20)
#    0.000    2.444    1.111    3.333    0.000    5.778 
#    0.000    2.222    0.000    0.000    0.000    0.000 
#    0.000    0.889    0.000    2.889    0.000    3.556 
#
# Total GULP energy -446341.217151 kJ/mol
# GULP energy per Si atom -12398.367143 kJ/mol
# Density = 1.614482 g / cm^3
# Si number density = 16.181649 Si / 1000 Ang^3
#
#
#
# Elastic Constant Matrix: (Units=GPa)
#
#
# Indices 1 2 3 4 5 6 
#
# 1 91.8568 33.5558 69.6468 0.0000 0.0000 0.0000
# 2 33.5558 37.3438 37.0066 0.0000 0.0000 0.0000
# 3 69.6468 37.0066 150.5352 0.0000 0.0000 0.0000
# 4 0.0000 0.0000 0.0000 16.5488 0.0000 0.0000
# 5 0.0000 0.0000 0.0000 0.0000 35.6496 0.0000
# 6 0.0000 0.0000 0.0000 0.0000 0.0000 19.9185
#
#
#
# Elastic Compliance Matrix: (Units=1/GPa)
#
#
# Indices 1 2 3 4 5 6 
#
# 1 0.019971 -0.011620 -0.006383 0.000000 0.000000 0.000000
# 2 -0.011620 0.042163 -0.004989 0.000000 0.000000 0.000000
# 3 -0.006383 -0.004989 0.010823 0.000000 0.000000 0.000000
# 4 0.000000 0.000000 0.000000 0.060427 0.000000 0.000000
# 5 0.000000 0.000000 0.000000 0.000000 0.028051 0.000000
# 6 0.000000 0.000000 0.000000 0.000000 0.000000 0.050204
#
#
# Mechanical properties :
#
#
# Convention : Reuss Voigt Hill
#
# Bulk Modulus (GPa) = 37.07423 62.23935 49.65679
# Shear Modulus (GPa) = 18.75359 23.72516 21.23938
#
# Velocity S-wave (km/s) = 3.40802 3.83322 3.62686
# Velocity P-wave (km/s) = 6.20057 7.62482 6.94928
#
# Compressibility (1/GPa) = 0.02697291
#
# Stress axis : x y z
#
# Youngs Moduli (GPa) = 50.07209 23.71721 92.39734
#
# Poissons Ratio (x) = 0.27559 0.58981
# Poissons Ratio (y) = 0.58182 0.46099
# Poissons Ratio (z) = 0.31963 0.11833
#
# Static dielectric constant tensor:
#      x y z
#    x 3.203740 0.000000 0.000000 
#    y 0.000000 2.708310 0.000000 
#    z 0.000000 0.000000 3.220160 
# 
# 
# High freq. dielectric constant tensor:
#      x y z
#    x 1.629520 0.000000 0.000000 
#    y 0.000000 1.573480 0.000000 
#    z 0.000000 0.000000 1.631310 
# 
# From -- ./inp_files/31285.got.cif
#   From: 2010.03.12/outbox.cif.g09.slc.cpg/sg51_16_cif.got.tgz:31285.got - 2010.04.16 13:43:02.
