data_PCOD8213042
_publ_section_title
;
Structure prediction by ZEFSAII (Michael W. Deem and Ramdas Pophale) SiO2 
 PCOD8213042
Probable space group: P M M A
;
_chemical_formula_sum "Si O2"
_cell_formula_units_Z 48
_cell_length_a 18.060816
_cell_length_b 8.972122
_cell_length_c 16.725167
_cell_angle_alpha 90.000000
_cell_angle_beta 90.000000
_cell_angle_gamma 90.000000
_cell_volume 2710.210362
_symmetry_space_group_name_H-M "P M M A"
_symmetry_group_IT_number 51
_symmetry_cell_setting 'orthorhombic'
loop_
_space_group_symop_operation_xyz
x,y,z
1/2-x,-y,z
1/2+x,-y,-z
-x,y,-z
-x,-y,-z
1/2+x,y,-z
1/2-x,y,z
x,-y,z
loop_
_atom_site_type_symbol
_atom_site_label
_atom_site_fract_x
_atom_site_fract_y
_atom_site_fract_z
Si Si1 0.453147 0.668502 0.261991
Si Si2 0.165467 0.172846 0.663512
Si Si3 0.968162 0.677859 0.415566
Si Si4 0.333075 0.678514 0.145043
Si Si5 0.917309 0.322496 0.010006
Si Si6 0.108648 0.330653 0.815288
O O1 0.431048 0.500000 0.281304
O O2 0.476494 0.742101 0.346798
O O3 0.382405 0.744101 0.218581
O O4 0.521111 0.676464 0.200852
O O5 0.250000 0.201746 0.637739
O O6 0.113677 0.257870 0.599756
O O7 0.154048 0.229327 0.754011
O O8 0.145075 0.000000 0.661151
O O9 0.961723 0.500000 0.410626
O O10 0.000000 0.732680 0.500000
O O11 0.250000 0.738630 0.155740
O O12 0.336088 0.500000 0.145166
O O13 0.365527 0.738139 0.061186
O O14 0.921830 0.500000 0.009213
O O15 0.880616 0.271475 0.094181
O O16 0.000000 0.256311 0.000000
O O17 0.137311 0.500000 0.805234
#
# Coordination Sequence:
#
# PCOD8213042 Si02
#       6
#     8   8   8   8   8   8
#     4   8  13  24  40  60  88 120 148 181 231 286
#     4  10  21  35  50  71 101 133 164 201 245 290
#     4   9  18  33  54  78  98 120 157 202 248 300
#     4   9  15  21  32  56  90 122 152 189 233 282
#     4   9  14  22  38  62  92 125 158 197 244 287
#     4   9  16  27  47  69  91 124 162 199 242 288
#
# _framework density 17.710802999999999
#
# number of rings (size 3 to 8) (size 9 to 14) (size 15 to 20)
#    0.000    3.000    1.667    1.500    0.000    2.333 
#    0.000    2.500    0.000    3.500    0.000    0.000 
#    0.000    6.000    0.000    0.000    0.000    0.000 
#
# Total GULP energy -594868.396134 kJ/mol
# GULP energy per Si atom -12393.091586 kJ/mol
# Density = 1.767049 g / cm^3
# Si number density = 17.710803 Si / 1000 Ang^3
#
#
#
# Elastic Constant Matrix: (Units=GPa)
#
#
# Indices 1 2 3 4 5 6 
#
# 1 114.9716 25.3666 71.0993 0.0000 0.0000 0.0000
# 2 25.3666 27.6893 23.6776 0.0000 0.0000 0.0000
# 3 71.0993 23.6776 148.3387 0.0000 0.0000 0.0000
# 4 0.0000 0.0000 0.0000 6.4194 0.0000 0.0000
# 5 0.0000 0.0000 0.0000 0.0000 23.9498 0.0000
# 6 0.0000 0.0000 0.0000 0.0000 0.0000 13.2504
#
#
#
# Elastic Compliance Matrix: (Units=1/GPa)
#
#
# Indices 1 2 3 4 5 6 
#
# 1 0.013760 -0.008067 -0.005308 0.000000 0.000000 0.000000
# 2 -0.008067 0.046553 -0.003564 0.000000 0.000000 0.000000
# 3 -0.005308 -0.003564 0.009854 0.000000 0.000000 0.000000
# 4 0.000000 0.000000 0.000000 0.155778 0.000000 0.000000
# 5 0.000000 0.000000 0.000000 0.000000 0.041754 0.000000
# 6 0.000000 0.000000 0.000000 0.000000 0.000000 0.075469
#
#
# Mechanical properties :
#
#
# Convention : Reuss Voigt Hill
#
# Bulk Modulus (GPa) = 27.55601 59.03184 43.29392
# Shear Modulus (GPa) = 12.84874 20.11432 16.48153
#
# Velocity S-wave (km/s) = 2.69639 3.37368 3.05387
# Velocity P-wave (km/s) = 5.02858 6.96986 6.07724
#
# Compressibility (1/GPa) = 0.03628973
#
# Stress axis : x y z
#
# Youngs Moduli (GPa) = 72.67501 21.48077 101.48021
#
# Poissons Ratio (x) = 0.17329 0.53861
# Poissons Ratio (y) = 0.58628 0.36169
# Poissons Ratio (z) = 0.38572 0.07656
#
# Static dielectric constant tensor:
#      x y z
#    x 3.299750 0.000000 0.000000 
#    y 0.000000 2.726060 0.000000 
#    z 0.000000 0.000000 3.466920 
# 
# 
# High freq. dielectric constant tensor:
#      x y z
#    x 1.679260 0.000000 0.000000 
#    y 0.000000 1.622270 0.000000 
#    z 0.000000 0.000000 1.688060 
# 
# From -- ./inp_files/30047.got.cif
#   From: 2010.03.12/outbox.cif.g09.slc.cpg/sg51_16_cif.got.tgz:30047.got - 2010.04.16 13:43:02.
