data_PCOD8213547
_publ_section_title
;
Structure prediction by ZEFSAII (Michael W. Deem and Ramdas Pophale) SiO2 
 PCOD8213547
Probable space group: P M M A
;
_chemical_formula_sum "Si O2"
_cell_formula_units_Z 48
_cell_length_a 28.159525
_cell_length_b 9.150959
_cell_length_c 10.155365
_cell_angle_alpha 90.000000
_cell_angle_beta 90.000000
_cell_angle_gamma 90.000000
_cell_volume 2616.902075
_symmetry_space_group_name_H-M "P M M A"
_symmetry_group_IT_number 51
_symmetry_cell_setting 'orthorhombic'
loop_
_space_group_symop_operation_xyz
x,y,z
1/2-x,-y,z
1/2+x,-y,-z
-x,y,-z
-x,-y,-z
1/2+x,y,-z
1/2-x,y,z
x,-y,z
loop_
_atom_site_type_symbol
_atom_site_label
_atom_site_fract_x
_atom_site_fract_y
_atom_site_fract_z
Si Si1 0.600282 0.829668 0.500393
Si Si2 0.546746 0.669694 0.269270
Si Si3 0.697898 0.171244 0.388340
Si Si4 0.601702 0.666578 0.001853
Si Si5 0.697362 0.332641 0.120814
Si Si6 0.948366 0.828888 0.771549
O O1 0.568650 0.739267 0.399505
O O2 0.656021 0.785345 0.489562
O O3 0.584319 0.790242 0.647029
O O4 0.592416 0.000000 0.468639
O O5 0.537891 0.500000 0.296785
O O6 0.497211 0.743965 0.236612
O O7 0.581428 0.695141 0.146961
O O8 0.750000 0.226071 0.439151
O O9 0.685547 0.237814 0.247709
O O10 0.699081 0.000000 0.367195
O O11 0.591090 0.500000 0.956933
O O12 0.579192 0.779510 0.901322
O O13 0.658327 0.698195 0.008004
O O14 0.750000 0.296593 0.064458
O O15 0.693753 0.500000 0.167012
O O16 0.959154 0.000000 0.781088
#
# Coordination Sequence:
#
# PCOD8213547 Si02
#       6
#     8   8   8   8   8   8
#     4  10  21  37  55  79 111 142 177 220 266 319
#     4  11  22  37  58  82 105 138 184 228 270 318
#     4   9  17  31  54  81 106 135 173 217 263 311
#     4  10  21  37  55  80 110 140 177 222 268 318
#     4   9  17  32  55  81 108 137 172 218 268 316
#     4  11  24  38  53  77 110 148 183 220 269 321
#
# _framework density 18.342298
#
# number of rings (size 3 to 8) (size 9 to 14) (size 15 to 20)
#    0.000    2.000    1.667    2.000    0.000    7.333 
#    0.000    0.833    0.000    1.000    0.000    0.000 
#    0.000    0.000    0.000    0.000    0.000    0.000 
#
# Total GULP energy -595170.627175 kJ/mol
# GULP energy per Si atom -12399.388066 kJ/mol
# Density = 1.830055 g / cm^3
# Si number density = 18.342298 Si / 1000 Ang^3
#
#
#
# Elastic Constant Matrix: (Units=GPa)
#
#
# Indices 1 2 3 4 5 6 
#
# 1 119.9123 32.4617 18.3522 0.0000 0.0000 0.0000
# 2 32.4617 36.6977 22.2285 0.0000 0.0000 0.0000
# 3 18.3522 22.2285 44.9635 0.0000 0.0000 0.0000
# 4 0.0000 0.0000 0.0000 43.5562 0.0000 0.0000
# 5 0.0000 0.0000 0.0000 0.0000 147.0548 0.0000
# 6 0.0000 0.0000 0.0000 0.0000 0.0000 27.1095
#
#
#
# Elastic Compliance Matrix: (Units=1/GPa)
#
#
# Indices 1 2 3 4 5 6 
#
# 1 0.010972 -0.009982 0.000456 0.000000 0.000000 0.000000
# 2 -0.009982 0.047979 -0.019645 0.000000 0.000000 0.000000
# 3 0.000456 -0.019645 0.031766 0.000000 0.000000 0.000000
# 4 0.000000 0.000000 0.000000 0.022959 0.000000 0.000000
# 5 0.000000 0.000000 0.000000 0.000000 0.006800 0.000000
# 6 0.000000 0.000000 0.000000 0.000000 0.000000 0.036887
#
#
# Mechanical properties :
#
#
# Convention : Reuss Voigt Hill
#
# Bulk Modulus (GPa) = 30.88744 38.62871 34.75807
# Shear Modulus (GPa) = 22.07553 52.11283 37.09418
#
# Velocity S-wave (km/s) = 3.47296 5.33601 4.50191
# Velocity P-wave (km/s) = 5.74090 7.68567 6.78334
#
# Compressibility (1/GPa) = 0.03237562
#
# Stress axis : x y z
#
# Youngs Moduli (GPa) = 91.14298 20.84258 31.48043
#
# Poissons Ratio (x) = 0.20805 -0.01437
# Poissons Ratio (y) = 0.90977 0.61843
# Poissons Ratio (z) = -0.04160 0.40945
#
# Static dielectric constant tensor:
#      x y z
#    x 4.065340 0.000000 0.000000 
#    y 0.000000 3.439800 0.000000 
#    z 0.000000 0.000000 3.189670 
# 
# 
# High freq. dielectric constant tensor:
#      x y z
#    x 1.734400 0.000000 0.000000 
#    y 0.000000 1.714390 0.000000 
#    z 0.000000 0.000000 1.686740 
# 
# From -- ./inp_files/12774.got.cif
#   From: 2010.03.12/outbox.cif.g09.slc.cpg/sg51_7_cif.got.tgz:12774.got - 2010.04.16 13:43:02.
