data_PCOD8213520
_publ_section_title
;
Structure prediction by ZEFSAII (Michael W. Deem and Ramdas Pophale) SiO2 
 PCOD8213520
Probable space group: P M M A
;
_chemical_formula_sum "Si O2"
_cell_formula_units_Z 64
_cell_length_a 8.969738
_cell_length_b 14.577201
_cell_length_c 28.774311
_cell_angle_alpha 90.000000
_cell_angle_beta 90.000000
_cell_angle_gamma 90.000000
_cell_volume 3762.346873
_symmetry_space_group_name_H-M "P M M A"
_symmetry_group_IT_number 51
_symmetry_cell_setting 'orthorhombic'
loop_
_space_group_symop_operation_xyz
x,y,z
1/2-x,-y,z
1/2+x,-y,-z
-x,y,-z
-x,-y,-z
1/2+x,y,-z
1/2-x,y,z
x,-y,z
loop_
_atom_site_type_symbol
_atom_site_label
_atom_site_fract_x
_atom_site_fract_y
_atom_site_fract_z
Si Si1 0.922273 0.104231 0.189589
Si Si2 0.425958 0.894349 0.639012
Si Si3 0.582841 0.109047 0.545195
Si Si4 0.072966 0.100174 0.912886
Si Si5 0.926287 0.288048 0.047095
Si Si6 0.079422 0.392355 0.130217
Si Si7 0.076346 0.396893 0.774186
Si Si8 0.074624 0.782202 0.726264
O O1 0.750000 0.131142 0.186026
O O2 0.994586 0.119984 0.138623
O O3 0.998008 0.167950 0.228724
O O4 0.943323 0.000000 0.205870
O O5 0.250000 0.885291 0.633000
O O6 0.499136 0.858739 0.591564
O O7 0.490588 0.827196 0.679291
O O8 0.469861 0.000000 0.650279
O O9 0.500000 0.149913 0.500000
O O10 0.750000 0.148261 0.546000
O O11 0.583344 0.000000 0.542489
O O12 0.250000 0.096793 0.908313
O O13 0.023684 0.181430 0.947160
O O14 0.015474 0.000000 0.930763
O O15 0.750000 0.299287 0.043445
O O16 0.982494 0.344858 0.090731
O O17 0.000000 0.325978 0.000000
O O18 0.250000 0.359053 0.127285
O O19 0.066030 0.500000 0.121929
O O20 0.014661 0.365991 0.180476
O O21 0.250000 0.391348 0.787482
O O22 0.032272 0.500000 0.758249
O O23 0.039625 0.326703 0.731778
O O24 0.250000 0.801651 0.725291
#
# Coordination Sequence:
#
# PCOD8213520 Si02
#       8
#     8   8   8   8   8   8   8   8
#     4   8  12  19  34  57  83 110 141 174 205 241
#     4   9  16  25  38  59  88 121 156 190 222 259
#     4   9  16  26  40  57  80 114 155 195 231 266
#     4   8  15  28  46  68  92 118 149 182 214 251
#     4  11  22  35  52  73  96 120 146 179 220 266
#     4  10  21  37  55  73  93 117 146 182 225 273
#     4   9  17  30  49  71  92 116 148 183 218 260
#     4   9  15  23  38  62  91 119 146 178 216 256
#
# _framework density 17.010660000000001
#
# number of rings (size 3 to 8) (size 9 to 14) (size 15 to 20)
#    0.000    2.875    0.000    3.000    0.000    6.250 
#    0.000    0.625    0.000    1.125    0.000    0.000 
#    0.000    0.500    0.000    0.875    0.000    1.250 
#
# Total GULP energy -793189.732840 kJ/mol
# GULP energy per Si atom -12393.589576 kJ/mol
# Density = 1.697194 g / cm^3
# Si number density = 17.010660 Si / 1000 Ang^3
#
#
#
# Elastic Constant Matrix: (Units=GPa)
#
#
# Indices 1 2 3 4 5 6 
#
# 1 53.7030 26.0316 37.1013 0.0000 0.0000 0.0000
# 2 26.0316 63.0099 53.4308 0.0000 0.0000 0.0000
# 3 37.1013 53.4308 108.1880 0.0000 0.0000 0.0000
# 4 0.0000 0.0000 0.0000 17.8407 0.0000 0.0000
# 5 0.0000 0.0000 0.0000 0.0000 21.6264 0.0000
# 6 0.0000 0.0000 0.0000 0.0000 0.0000 10.8040
#
#
#
# Elastic Compliance Matrix: (Units=1/GPa)
#
#
# Indices 1 2 3 4 5 6 
#
# 1 0.025408 -0.005348 -0.006072 0.000000 0.000000 0.000000
# 2 -0.005348 0.028432 -0.012208 0.000000 0.000000 0.000000
# 3 -0.006072 -0.012208 0.017354 0.000000 0.000000 0.000000
# 4 0.000000 0.000000 0.000000 0.056052 0.000000 0.000000
# 5 0.000000 0.000000 0.000000 0.000000 0.046240 0.000000
# 6 0.000000 0.000000 0.000000 0.000000 0.000000 0.092559
#
#
# Mechanical properties :
#
#
# Convention : Reuss Voigt Hill
#
# Bulk Modulus (GPa) = 41.77285 50.89205 46.33245
# Shear Modulus (GPa) = 15.56278 17.27669 16.41973
#
# Velocity S-wave (km/s) = 3.02799 3.19037 3.11024
# Velocity P-wave (km/s) = 6.06919 6.59954 6.33992
#
# Compressibility (1/GPa) = 0.02393899
#
# Stress axis : x y z
#
# Youngs Moduli (GPa) = 39.35720 35.17207 57.62215
#
# Poissons Ratio (x) = 0.18810 0.34989
# Poissons Ratio (y) = 0.21049 0.70342
# Poissons Ratio (z) = 0.23898 0.42936
#
# Static dielectric constant tensor:
#      x y z
#    x 2.926150 0.000000 0.000000 
#    y 0.000000 3.240770 0.000000 
#    z 0.000000 0.000000 3.260180 
# 
# 
# High freq. dielectric constant tensor:
#      x y z
#    x 1.623890 0.000000 0.000000 
#    y 0.000000 1.638440 0.000000 
#    z 0.000000 0.000000 1.647150 
# 
# From -- ./inp_files/37595.got.cif
#   From: 2010.03.12/outbox.cif.g09.slc.cpg/sg51_19_cif.got.tgz:37595.got - 2010.04.16 13:43:02.
