data_PCOD8213351
_publ_section_title
;
Structure prediction by ZEFSAII (Michael W. Deem and Ramdas Pophale) SiO2 
 PCOD8213351
Probable space group: P M M A
;
_chemical_formula_sum "Si O2"
_cell_formula_units_Z 56
_cell_length_a 14.608257
_cell_length_b 19.346302
_cell_length_c 9.556115
_cell_angle_alpha 90.000000
_cell_angle_beta 90.000000
_cell_angle_gamma 90.000000
_cell_volume 2700.708623
_symmetry_space_group_name_H-M "P M M A"
_symmetry_group_IT_number 51
_symmetry_cell_setting 'orthorhombic'
loop_
_space_group_symop_operation_xyz
x,y,z
1/2-x,-y,z
1/2+x,-y,-z
-x,y,-z
-x,-y,-z
1/2+x,y,-z
1/2-x,y,z
x,-y,z
loop_
_atom_site_type_symbol
_atom_site_label
_atom_site_fract_x
_atom_site_fract_y
_atom_site_fract_z
Si Si1 0.351692 0.080634 0.362640
Si Si2 0.858226 0.841656 0.362296
Si Si3 0.046107 0.576322 0.698920
Si Si4 0.352101 0.579109 0.972857
Si Si5 0.986686 0.080758 0.161119
Si Si6 0.146564 0.307042 0.537615
Si Si7 0.851364 0.618890 0.728129
O O1 0.250000 0.109294 0.326602
O O2 0.388786 0.112526 0.506233
O O3 0.418158 0.099724 0.235882
O O4 0.348380 0.000000 0.388797
O O5 0.750000 0.844784 0.336355
O O6 0.906813 0.871239 0.224118
O O7 0.891971 0.764349 0.400342
O O8 0.086750 0.500000 0.668733
O O9 0.074901 0.600589 0.855077
O O10 0.085288 0.629846 0.588653
O O11 0.936357 0.570777 0.684062
O O12 0.250000 0.585508 0.908777
O O13 0.370122 0.500000 0.024173
O O14 0.361631 0.631479 0.104872
O O15 0.960659 0.000000 0.180241
O O16 0.000000 0.099973 0.000000
O O17 0.250000 0.316980 0.590811
O O18 0.142792 0.310635 0.366277
O O19 0.750000 0.584633 0.701292
#
# Coordination Sequence:
#
# PCOD8213351 Si02
#       7
#     8   8   8   8   8   8   8
#     4   9  18  34  58  87 117 153 197 240 281 330
#     4  10  21  39  62  85 115 157 201 243 289 346
#     4  11  22  36  56  81 109 145 189 238 295 358
#     4   9  18  34  56  80 106 138 177 225 284 349
#     4  10  21  36  58  92 129 161 194 235 285 340
#     4  10  23  41  58  80 110 145 188 240 294 345
#     4  10  21  36  54  78 108 140 179 231 290 348
#
# _framework density 20.735298
#
# number of rings (size 3 to 8) (size 9 to 14) (size 15 to 20)
#    0.000    2.143    0.000    2.571    0.000    9.429 
#    0.000    7.143    0.000    3.429    0.000    0.000 
#    0.000    0.000    0.000    0.000    0.000    0.000 
#
# Total GULP energy -693979.780483 kJ/mol
# GULP energy per Si atom -12392.496080 kJ/mol
# Density = 2.068810 g / cm^3
# Si number density = 20.735298 Si / 1000 Ang^3
#
#
#
# Elastic Constant Matrix: (Units=GPa)
#
#
# Indices 1 2 3 4 5 6 
#
# 1 112.3217 48.8710 57.2459 0.0000 0.0000 0.0000
# 2 48.8710 60.7923 59.7607 0.0000 0.0000 0.0000
# 3 57.2459 59.7607 152.8765 0.0000 0.0000 0.0000
# 4 0.0000 0.0000 0.0000 20.2323 0.0000 0.0000
# 5 0.0000 0.0000 0.0000 0.0000 34.5322 0.0000
# 6 0.0000 0.0000 0.0000 0.0000 0.0000 22.5763
#
#
#
# Elastic Compliance Matrix: (Units=1/GPa)
#
#
# Indices 1 2 3 4 5 6 
#
# 1 0.013863 -0.009812 -0.001356 0.000000 0.000000 0.000000
# 2 -0.009812 0.033660 -0.009484 0.000000 0.000000 0.000000
# 3 -0.001356 -0.009484 0.010756 0.000000 0.000000 0.000000
# 4 0.000000 0.000000 0.000000 0.049426 0.000000 0.000000
# 5 0.000000 0.000000 0.000000 0.000000 0.028958 0.000000
# 6 0.000000 0.000000 0.000000 0.000000 0.000000 0.044294
#
#
# Mechanical properties :
#
#
# Convention : Reuss Voigt Hill
#
# Bulk Modulus (GPa) = 58.90447 73.08284 65.99365
# Shear Modulus (GPa) = 21.93754 26.14237 24.03995
#
# Velocity S-wave (km/s) = 3.25619 3.55458 3.40865
# Velocity P-wave (km/s) = 6.52737 7.22280 6.88387
#
# Compressibility (1/GPa) = 0.01697664
#
# Stress axis : x y z
#
# Youngs Moduli (GPa) = 72.13428 29.70856 92.96979
#
# Poissons Ratio (x) = 0.29150 0.12602
# Poissons Ratio (y) = 0.70778 0.88172
# Poissons Ratio (z) = 0.09778 0.28175
#
# Static dielectric constant tensor:
#      x y z
#    x 4.082590 0.000000 0.000000 
#    y 0.000000 3.480040 0.000000 
#    z 0.000000 0.000000 3.825890 
# 
# 
# High freq. dielectric constant tensor:
#      x y z
#    x 1.829030 0.000000 0.000000 
#    y 0.000000 1.773650 0.000000 
#    z 0.000000 0.000000 1.810350 
# 
# From -- ./inp_files/8493.got.cif
#   From: 2010.03.12/outbox.cif.g09.slc.cpg/sg51_5_cif.got.tgz:8493.got - 2010.04.16 13:43:02.
