data_PCOD8213957
_publ_section_title
;
Structure prediction by ZEFSAII (Michael W. Deem and Ramdas Pophale) SiO2 
 PCOD8213957
Probable space group: P M M A
;
_chemical_formula_sum "Si O2"
_cell_formula_units_Z 48
_cell_length_a 9.225635
_cell_length_b 28.542664
_cell_length_c 9.476652
_cell_angle_alpha 90.000000
_cell_angle_beta 90.000000
_cell_angle_gamma 90.000000
_cell_volume 2495.431806
_symmetry_space_group_name_H-M "P M M A"
_symmetry_group_IT_number 51
_symmetry_cell_setting 'orthorhombic'
loop_
_space_group_symop_operation_xyz
x,y,z
1/2-x,-y,z
1/2+x,-y,-z
-x,y,-z
-x,-y,-z
1/2+x,y,-z
1/2-x,y,z
x,-y,z
loop_
_atom_site_type_symbol
_atom_site_label
_atom_site_fract_x
_atom_site_fract_y
_atom_site_fract_z
Si Si1 0.420165 0.713550 0.354631
Si Si2 0.750000 0.943833 0.336403
Si Si3 0.750000 0.945125 0.658363
Si Si4 0.582225 0.555005 0.857315
Si Si5 0.426278 0.377397 0.652104
Si Si6 0.083151 0.796075 0.136399
Si Si7 0.503675 0.900496 0.834513
O O1 0.500000 0.725813 0.500000
O O2 0.250000 0.700489 0.378872
O O3 0.508156 0.670550 0.280688
O O4 0.435231 0.758878 0.259266
O O5 0.750000 0.925348 0.498163
O O6 0.627252 0.920469 0.248550
O O7 0.750000 0.000000 0.328641
O O8 0.622443 0.928270 0.752810
O O9 0.750000 0.000000 0.642067
O O10 0.750000 0.572605 0.861388
O O11 0.578395 0.500000 0.828763
O O12 0.487019 0.578381 0.735822
O O13 0.500000 0.568545 0.000000
O O14 0.500000 0.380590 0.500000
O O15 0.250000 0.377506 0.647469
O O16 0.250000 0.804419 0.095655
O O17 0.014854 0.844811 0.187061
O O18 0.000000 0.776568 0.000000
O O19 0.500000 0.913237 0.000000
#
# Coordination Sequence:
#
# PCOD8213957 Si02
#       7
#     8   4   4   8   8   8   8
#     4  10  21  39  60  88 120 154 198 245 296 357
#     4  11  25  41  61  91 121 159 199 243 302 355
#     4  11  23  41  63  87 125 157 195 249 294 357
#     4  10  21  38  60  87 120 159 204 254 307 366
#     4  11  22  38  60  87 121 161 204 253 305 359
#     4  10  23  41  62  88 118 152 192 241 294 348
#     4  11  23  41  62  90 120 157 201 245 298 357
#
# _framework density 19.235147999999999
#
# number of rings (size 3 to 8) (size 9 to 14) (size 15 to 20)
#    0.000    1.500    0.833    5.000    3.500    8.000 
#    0.000    1.667    0.000    0.000    0.000    0.000 
#    0.000    0.000    0.000    0.000    0.000    0.000 
#
# Total GULP energy -594743.952941 kJ/mol
# GULP energy per Si atom -12390.499020 kJ/mol
# Density = 1.919137 g / cm^3
# Si number density = 19.235148 Si / 1000 Ang^3
#
#
#
# Elastic Constant Matrix: (Units=GPa)
#
#
# Indices 1 2 3 4 5 6 
#
# 1 191.2853 56.4993 74.1889 0.0000 0.0000 0.0000
# 2 56.4993 72.0122 56.5608 0.0000 0.0000 0.0000
# 3 74.1889 56.5608 118.9419 0.0000 0.0000 0.0000
# 4 0.0000 0.0000 0.0000 45.4408 0.0000 0.0000
# 5 0.0000 0.0000 0.0000 0.0000 46.3449 0.0000
# 6 0.0000 0.0000 0.0000 0.0000 0.0000 37.2480
#
#
#
# Elastic Compliance Matrix: (Units=1/GPa)
#
#
# Indices 1 2 3 4 5 6 
#
# 1 0.007406 -0.003483 -0.002963 0.000000 0.000000 0.000000
# 2 -0.003483 0.023804 -0.009147 0.000000 0.000000 0.000000
# 3 -0.002963 -0.009147 0.014605 0.000000 0.000000 0.000000
# 4 0.000000 0.000000 0.000000 0.022007 0.000000 0.000000
# 5 0.000000 0.000000 0.000000 0.000000 0.021577 0.000000
# 6 0.000000 0.000000 0.000000 0.000000 0.000000 0.026847
#
#
# Mechanical properties :
#
#
# Convention : Reuss Voigt Hill
#
# Bulk Modulus (GPa) = 68.35876 84.08194 76.22035
# Shear Modulus (GPa) = 32.82833 38.80610 35.81721
#
# Velocity S-wave (km/s) = 4.13569 4.49648 4.31985
# Velocity P-wave (km/s) = 7.64335 8.41222 8.03698
#
# Compressibility (1/GPa) = 0.01462870
#
# Stress axis : x y z
#
# Youngs Moduli (GPa) = 135.02988 42.01050 68.46925
#
# Poissons Ratio (x) = 0.14633 0.20287
# Poissons Ratio (y) = 0.47035 0.62627
# Poissons Ratio (z) = 0.40008 0.38426
#
# Static dielectric constant tensor:
#      x y z
#    x 3.802160 0.000000 0.000000 
#    y 0.000000 3.731340 0.000000 
#    z 0.000000 0.000000 3.066400 
# 
# 
# High freq. dielectric constant tensor:
#      x y z
#    x 1.774890 0.000000 0.000000 
#    y 0.000000 1.754260 0.000000 
#    z 0.000000 0.000000 1.752790 
# 
# From -- ./inp_files/6290.got.cif
#   From: 2010.03.12/outbox.cif.g09.slc.cpg/sg51_4_cif.got.tgz:6290.got - 2010.04.16 13:43:02.
