data_PCOD8213103
_publ_section_title
;
Structure prediction by ZEFSAII (Michael W. Deem and Ramdas Pophale) SiO2 
 PCOD8213103
Probable space group: P M M A
;
_chemical_formula_sum "Si O2"
_cell_formula_units_Z 64
_cell_length_a 9.181393
_cell_length_b 20.042608
_cell_length_c 18.502727
_cell_angle_alpha 90.000000
_cell_angle_beta 90.000000
_cell_angle_gamma 90.000000
_cell_volume 3404.854445
_symmetry_space_group_name_H-M "P M M A"
_symmetry_group_IT_number 51
_symmetry_cell_setting 'orthorhombic'
loop_
_space_group_symop_operation_xyz
x,y,z
1/2-x,-y,z
1/2+x,-y,-z
-x,y,-z
-x,-y,-z
1/2+x,y,-z
1/2-x,y,z
x,-y,z
loop_
_atom_site_type_symbol
_atom_site_label
_atom_site_fract_x
_atom_site_fract_y
_atom_site_fract_z
Si Si1 0.580733 0.687815 0.818636
Si Si2 0.580736 0.421985 0.573349
Si Si3 0.079948 0.924412 0.174819
Si Si4 0.420472 0.075804 0.679133
Si Si5 0.080971 0.192573 0.074091
Si Si6 0.919289 0.575688 0.928915
Si Si7 0.921390 0.319927 0.329769
Si Si8 0.919763 0.808282 0.424948
O O1 0.750000 0.688543 0.794887
O O2 0.543403 0.748903 0.870638
O O3 0.539719 0.619583 0.859649
O O4 0.476875 0.694293 0.750315
O O5 0.500000 0.400620 0.500000
O O6 0.750000 0.402351 0.566269
O O7 0.561199 0.500000 0.589046
O O8 0.507200 0.383563 0.639510
O O9 0.250000 0.915161 0.190460
O O10 0.029001 0.877186 0.109432
O O11 0.998874 0.902753 0.247460
O O12 0.040418 0.000000 0.152787
O O13 0.250000 0.084392 0.693184
O O14 0.473671 0.124800 0.615699
O O15 0.460831 0.000000 0.656957
O O16 0.250000 0.190816 0.055603
O O17 0.000000 0.205624 0.000000
O O18 0.750000 0.581619 0.946456
O O19 0.966651 0.500000 0.911259
O O20 0.000000 0.602828 0.000000
O O21 0.750000 0.335264 0.328832
O O22 0.959307 0.255524 0.377120
O O23 0.750000 0.812351 0.441281
O O24 0.000000 0.801799 0.500000
#
# Coordination Sequence:
#
# PCOD8213103 Si02
#       8
#     8   8   8   8   8   8   8   8
#     4  10  21  36  53  75 104 137 174 216 262 311
#     4  10  21  38  60  84 111 143 178 218 264 314
#     4   9  18  33  52  75 103 134 170 212 259 313
#     4   9  18  34  55  78 105 137 174 216 261 311
#     4  10  21  35  52  75 103 136 174 218 266 316
#     4   9  18  33  53  76 102 132 166 205 250 301
#     4  11  23  37  55  80 109 141 179 222 266 316
#     4  10  22  37  53  77 107 138 174 217 263 311
#
# _framework density 18.796692
#
# number of rings (size 3 to 8) (size 9 to 14) (size 15 to 20)
#    0.000    2.250    0.000    2.250    0.000    5.750 
#    0.000    1.250    0.000    0.000    0.000    0.000 
#    0.000    0.000    0.000    0.000    0.000    0.000 
#
# Total GULP energy -793834.841811 kJ/mol
# GULP energy per Si atom -12403.669403 kJ/mol
# Density = 1.875391 g / cm^3
# Si number density = 18.796692 Si / 1000 Ang^3
#
#
#
# Elastic Constant Matrix: (Units=GPa)
#
#
# Indices 1 2 3 4 5 6 
#
# 1 74.1540 49.7184 66.8511 0.0000 0.0000 0.0000
# 2 49.7184 101.6324 68.5569 0.0000 0.0000 0.0000
# 3 66.8511 68.5569 141.1170 0.0000 0.0000 0.0000
# 4 0.0000 0.0000 0.0000 18.8301 0.0000 0.0000
# 5 0.0000 0.0000 0.0000 0.0000 39.6118 0.0000
# 6 0.0000 0.0000 0.0000 0.0000 0.0000 16.1619
#
#
#
# Elastic Compliance Matrix: (Units=1/GPa)
#
#
# Indices 1 2 3 4 5 6 
#
# 1 0.026223 -0.006617 -0.009208 0.000000 0.000000 0.000000
# 2 -0.006617 0.016305 -0.004787 0.000000 0.000000 0.000000
# 3 -0.009208 -0.004787 0.013774 0.000000 0.000000 0.000000
# 4 0.000000 0.000000 0.000000 0.053106 0.000000 0.000000
# 5 0.000000 0.000000 0.000000 0.000000 0.025245 0.000000
# 6 0.000000 0.000000 0.000000 0.000000 0.000000 0.061874
#
#
# Mechanical properties :
#
#
# Convention : Reuss Voigt Hill
#
# Bulk Modulus (GPa) = 66.31784 76.35069 71.33426
# Shear Modulus (GPa) = 20.59499 23.70589 22.15044
#
# Velocity S-wave (km/s) = 3.31368 3.55515 3.43654
# Velocity P-wave (km/s) = 7.07099 7.58680 7.33343
#
# Compressibility (1/GPa) = 0.01507890
#
# Stress axis : x y z
#
# Youngs Moduli (GPa) = 38.13430 61.32962 72.60116
#
# Poissons Ratio (x) = 0.40582 0.66851
# Poissons Ratio (y) = 0.25233 0.34752
# Poissons Ratio (z) = 0.35114 0.29357
#
# Static dielectric constant tensor:
#      x y z
#    x 3.396820 0.000000 0.000000 
#    y 0.000000 3.715900 0.000000 
#    z 0.000000 0.000000 3.359500 
# 
# 
# High freq. dielectric constant tensor:
#      x y z
#    x 1.726940 0.000000 0.000000 
#    y 0.000000 1.744990 0.000000 
#    z 0.000000 0.000000 1.727860 
# 
# From -- ./inp_files/28477.got.cif
#   From: 2010.03.12/outbox.cif.g09.slc.cpg/sg51_15_cif.got.tgz:28477.got - 2010.04.16 13:43:02.
