data_PCOD8213711
_publ_section_title
;
Structure prediction by ZEFSAII (Michael W. Deem and Ramdas Pophale) SiO2 
 PCOD8213711
Probable space group: P M M A
;
_chemical_formula_sum "Si O2"
_cell_formula_units_Z 64
_cell_length_a 8.798022
_cell_length_b 15.115157
_cell_length_c 23.643764
_cell_angle_alpha 90.000000
_cell_angle_beta 90.000000
_cell_angle_gamma 90.000000
_cell_volume 3144.230107
_symmetry_space_group_name_H-M "P M M A"
_symmetry_group_IT_number 51
_symmetry_cell_setting 'orthorhombic'
loop_
_space_group_symop_operation_xyz
x,y,z
1/2-x,-y,z
1/2+x,-y,-z
-x,y,-z
-x,-y,-z
1/2+x,y,-z
1/2-x,y,z
x,-y,z
loop_
_atom_site_type_symbol
_atom_site_label
_atom_site_fract_x
_atom_site_fract_y
_atom_site_fract_z
Si Si1 0.577873 0.403750 0.745857
Si Si2 0.577983 0.400601 0.940338
Si Si3 0.925236 0.680032 0.161045
Si Si4 0.429390 0.600053 0.561312
Si Si5 0.582696 0.103139 0.944877
Si Si6 0.929547 0.731771 0.650135
Si Si7 0.074122 0.099214 0.705043
Si Si8 0.928673 0.144000 0.820426
O O1 0.750000 0.388567 0.767132
O O2 0.562285 0.500000 0.716694
O O3 0.463671 0.403673 0.799521
O O4 0.526656 0.328881 0.702844
O O5 0.750000 0.364908 0.943684
O O6 0.575828 0.500000 0.915756
O O7 0.476354 0.336280 0.902719
O O8 0.500000 0.398783 0.000000
O O9 0.750000 0.706802 0.162352
O O10 0.031740 0.754222 0.189077
O O11 0.500000 0.610759 0.500000
O O12 0.250000 0.612937 0.557983
O O13 0.467999 0.500000 0.584418
O O14 0.496781 0.681510 0.597220
O O15 0.750000 0.146536 0.942746
O O16 0.504501 0.118106 0.883058
O O17 0.594804 0.000000 0.956193
O O18 0.500000 0.146434 0.000000
O O19 0.750000 0.739122 0.640378
O O20 0.993280 0.830314 0.663056
O O21 0.250000 0.126168 0.709565
O O22 0.006033 0.093129 0.768553
O O23 0.055095 0.000000 0.679260
O O24 0.750000 0.124122 0.817750
#
# Coordination Sequence:
#
# PCOD8213711 Si02
#       8
#     8   8   8   8   8   8   8   8
#     4  10  21  37  57  83 117 157 197 241 296 356
#     4  10  21  38  58  77 100 134 181 235 291 355
#     4  12  24  36  53  78 110 145 186 236 293 356
#     4  10  21  38  63  97 139 183 224 264 307 358
#     4   9  19  35  55  78 102 131 172 225 288 360
#     4  11  22  38  63  93 127 168 213 259 307 362
#     4  11  24  41  62  90 123 160 206 261 318 376
#     4  11  22  38  58  80 110 148 193 245 303 367
#
# _framework density 20.354744
#
# number of rings (size 3 to 8) (size 9 to 14) (size 15 to 20)
#    0.000    1.500    1.250    4.125    0.000    7.250 
#    0.000    2.500    0.000    0.375    0.000    0.000 
#    0.000    0.000    0.000    0.000    0.000    0.000 
#
# Total GULP energy -793209.315196 kJ/mol
# GULP energy per Si atom -12393.895550 kJ/mol
# Density = 2.030842 g / cm^3
# Si number density = 20.354744 Si / 1000 Ang^3
#
#
#
# Elastic Constant Matrix: (Units=GPa)
#
#
# Indices 1 2 3 4 5 6 
#
# 1 106.1838 42.4391 50.6310 0.0000 0.0000 0.0000
# 2 42.4391 104.9309 42.9685 0.0000 0.0000 0.0000
# 3 50.6310 42.9685 101.0767 0.0000 0.0000 0.0000
# 4 0.0000 0.0000 0.0000 34.1005 0.0000 0.0000
# 5 0.0000 0.0000 0.0000 0.0000 34.4142 0.0000
# 6 0.0000 0.0000 0.0000 0.0000 0.0000 21.6978
#
#
#
# Elastic Compliance Matrix: (Units=1/GPa)
#
#
# Indices 1 2 3 4 5 6 
#
# 1 0.013197 -0.003185 -0.005257 0.000000 0.000000 0.000000
# 2 -0.003185 0.012307 -0.003637 0.000000 0.000000 0.000000
# 3 -0.005257 -0.003637 0.014073 0.000000 0.000000 0.000000
# 4 0.000000 0.000000 0.000000 0.029325 0.000000 0.000000
# 5 0.000000 0.000000 0.000000 0.000000 0.029058 0.000000
# 6 0.000000 0.000000 0.000000 0.000000 0.000000 0.046088
#
#
# Mechanical properties :
#
#
# Convention : Reuss Voigt Hill
#
# Bulk Modulus (GPa) = 64.84825 64.91873 64.88349
# Shear Modulus (GPa) = 28.84436 29.78603 29.31520
#
# Velocity S-wave (km/s) = 3.76850 3.82952 3.79913
# Velocity P-wave (km/s) = 7.13188 7.17750 7.15473
#
# Compressibility (1/GPa) = 0.01542062
#
# Stress axis : x y z
#
# Youngs Moduli (GPa) = 75.77421 81.25205 71.06014
#
# Poissons Ratio (x) = 0.25878 0.37354
# Poissons Ratio (y) = 0.24134 0.25842
# Poissons Ratio (z) = 0.39832 0.29548
#
# Static dielectric constant tensor:
#      x y z
#    x 3.791450 0.000000 0.000000 
#    y 0.000000 3.794980 0.000000 
#    z 0.000000 0.000000 3.515250 
# 
# 
# High freq. dielectric constant tensor:
#      x y z
#    x 1.797470 0.000000 0.000000 
#    y 0.000000 1.797010 0.000000 
#    z 0.000000 0.000000 1.778810 
# 
# From -- ./inp_files/35021.got.cif
#   From: 2010.03.12/outbox.cif.g09.slc.cpg/sg51_18_cif.got.tgz:35021.got - 2010.04.16 13:43:02.
