data_PCOD8213813
_publ_section_title
;
Structure prediction by ZEFSAII (Michael W. Deem and Ramdas Pophale) SiO2 
 PCOD8213813
Probable space group: P M M A
;
_chemical_formula_sum "Si O2"
_cell_formula_units_Z 40
_cell_length_a 9.616889
_cell_length_b 15.215562
_cell_length_c 13.544823
_cell_angle_alpha 90.000000
_cell_angle_beta 90.000000
_cell_angle_gamma 90.000000
_cell_volume 1981.964793
_symmetry_space_group_name_H-M "P M M A"
_symmetry_group_IT_number 51
_symmetry_cell_setting 'orthorhombic'
loop_
_space_group_symop_operation_xyz
x,y,z
1/2-x,-y,z
1/2+x,-y,-z
-x,y,-z
-x,-y,-z
1/2+x,y,-z
1/2-x,y,z
x,-y,z
loop_
_atom_site_type_symbol
_atom_site_label
_atom_site_fract_x
_atom_site_fract_y
_atom_site_fract_z
Si Si1 0.750000 0.099705 0.609888
Si Si2 0.916082 0.000000 0.101664
Si Si3 0.501399 0.851100 0.251684
Si Si4 0.087300 0.334774 0.231531
Si Si5 0.408307 0.600538 0.595564
Si Si6 0.250000 0.892749 0.613641
Si Si7 0.589711 0.500000 0.903569
O O1 0.878956 0.120275 0.677428
O O2 0.750000 0.143017 0.499969
O O3 0.750000 0.000000 0.578927
O O4 0.962415 0.915552 0.162905
O O5 0.750000 0.000000 0.082597
O O6 0.000000 0.000000 0.000000
O O7 0.457766 0.761508 0.193658
O O8 0.624093 0.846706 0.330180
O O9 0.250000 0.339181 0.261320
O O10 0.051749 0.411472 0.154864
O O11 0.988172 0.343099 0.324648
O O12 0.500000 0.612701 0.500000
O O13 0.250000 0.634092 0.579319
O O14 0.406393 0.500000 0.630422
O O15 0.250000 0.000000 0.625868
O O16 0.750000 0.500000 0.933823
O O17 0.500000 0.500000 0.000000
#
# Coordination Sequence:
#
# PCOD8213813 Si02
#       7
#     4   4   8   8   8   4   4
#     4  11  22  38  70  99 134 187 223 274 331 407
#     4  12  28  48  73  99 132 176 223 281 347 408
#     4  12  23  44  65  99 140 176 225 276 334 404
#     4  11  24  42  67  94 132 178 219 273 335 395
#     4  10  21  37  60  91 127 172 219 265 318 383
#     4  11  22  42  66  99 142 185 231 272 335 395
#     4  10  24  48  71  94 125 162 221 290 348 406
#
# _framework density 20.181992999999999
#
# number of rings (size 3 to 8) (size 9 to 14) (size 15 to 20)
#    0.000    1.000    5.000    1.200    2.800    5.600 
#    0.000    2.000    0.000    0.000    0.000    0.000 
#    0.000    0.000    0.000    0.000    0.000    0.000 
#
# Total GULP energy -495690.154324 kJ/mol
# GULP energy per Si atom -12392.253858 kJ/mol
# Density = 2.013606 g / cm^3
# Si number density = 20.181993 Si / 1000 Ang^3
#
#
#
# Elastic Constant Matrix: (Units=GPa)
#
#
# Indices 1 2 3 4 5 6 
#
# 1 163.0986 55.6961 64.6429 0.0000 0.0000 0.0000
# 2 55.6961 116.2389 64.0315 0.0000 0.0000 0.0000
# 3 64.6429 64.0315 111.5106 0.0000 0.0000 0.0000
# 4 0.0000 0.0000 0.0000 7.2626 0.0000 0.0000
# 5 0.0000 0.0000 0.0000 0.0000 47.2517 0.0000
# 6 0.0000 0.0000 0.0000 0.0000 0.0000 31.5189
#
#
#
# Elastic Compliance Matrix: (Units=1/GPa)
#
#
# Indices 1 2 3 4 5 6 
#
# 1 0.008245 -0.001927 -0.003673 0.000000 0.000000 0.000000
# 2 -0.001927 0.013034 -0.006367 0.000000 0.000000 0.000000
# 3 -0.003673 -0.006367 0.014753 0.000000 0.000000 0.000000
# 4 0.000000 0.000000 0.000000 0.137691 0.000000 0.000000
# 5 0.000000 0.000000 0.000000 0.000000 0.021163 0.000000
# 6 0.000000 0.000000 0.000000 0.000000 0.000000 0.031727
#
#
# Mechanical properties :
#
#
# Convention : Reuss Voigt Hill
#
# Bulk Modulus (GPa) = 82.66283 84.39880 83.53081
# Shear Modulus (GPa) = 19.64013 30.97182 25.30597
#
# Velocity S-wave (km/s) = 3.12292 3.92168 3.54487
# Velocity P-wave (km/s) = 7.35195 7.90036 7.63108
#
# Compressibility (1/GPa) = 0.01209734
#
# Stress axis : x y z
#
# Youngs Moduli (GPa) = 121.28245 76.72377 67.78270
#
# Poissons Ratio (x) = 0.14788 0.24897
# Poissons Ratio (y) = 0.23376 0.43157
# Poissons Ratio (z) = 0.44547 0.48849
#
# Static dielectric constant tensor:
#      x y z
#    x 3.800570 0.000000 0.000000 
#    y 0.000000 3.998820 0.000000 
#    z 0.000000 0.000000 3.856760 
# 
# 
# High freq. dielectric constant tensor:
#      x y z
#    x 1.809920 0.000000 0.000000 
#    y 0.000000 1.797750 0.000000 
#    z 0.000000 0.000000 1.776640 
# 
# From -- ./inp_files/20605.got.cif
#   From: 2010.03.12/outbox.cif.g09.slc.cpg/sg51_11_cif.got.tgz:20605.got - 2010.04.16 13:43:02.
