data_PCOD8213927
_publ_section_title
;
Structure prediction by ZEFSAII (Michael W. Deem and Ramdas Pophale) SiO2 
 PCOD8213927
Probable space group: P M M A
;
_chemical_formula_sum "Si O2"
_cell_formula_units_Z 48
_cell_length_a 8.756888
_cell_length_b 14.837448
_cell_length_c 18.840198
_cell_angle_alpha 90.000000
_cell_angle_beta 90.000000
_cell_angle_gamma 90.000000
_cell_volume 2447.904483
_symmetry_space_group_name_H-M "P M M A"
_symmetry_group_IT_number 51
_symmetry_cell_setting 'orthorhombic'
loop_
_space_group_symop_operation_xyz
x,y,z
1/2-x,-y,z
1/2+x,-y,-z
-x,y,-z
-x,-y,-z
1/2+x,y,-z
1/2-x,y,z
x,-y,z
loop_
_atom_site_type_symbol
_atom_site_label
_atom_site_fract_x
_atom_site_fract_y
_atom_site_fract_z
Si Si1 0.568239 0.755773 0.424866
Si Si2 0.068790 0.900468 0.688261
Si Si3 0.929513 0.265466 0.924673
Si Si4 0.427804 0.395655 0.338649
Si Si5 0.927889 0.103936 0.152061
Si Si6 0.927449 0.395014 0.189614
O O1 0.500000 0.784715 0.500000
O O2 0.750000 0.752770 0.428792
O O3 0.506072 0.828425 0.367878
O O4 0.503696 0.658388 0.403234
O O5 0.250000 0.903270 0.686480
O O6 0.016810 0.874081 0.767778
O O7 0.005093 0.000000 0.668693
O O8 0.750000 0.270233 0.931215
O O9 0.977564 0.165150 0.901752
O O10 0.984883 0.339697 0.869430
O O11 0.000000 0.290374 0.000000
O O12 0.250000 0.372802 0.332505
O O13 0.456406 0.500000 0.355326
O O14 0.509255 0.366352 0.266086
O O15 0.750000 0.126758 0.143299
O O16 0.960386 0.000000 0.133397
O O17 0.750000 0.369898 0.187460
O O18 0.957085 0.500000 0.175072
#
# Coordination Sequence:
#
# PCOD8213927 Si02
#       6
#     8   8   8   8   8   8
#     4  11  22  35  54  80 113 151 188 230 280 334
#     4   8  16  33  57  82 107 140 182 226 274 328
#     4  12  25  39  57  82 116 154 191 234 282 335
#     4  10  21  38  60  85 112 143 183 231 280 332
#     4   9  18  36  62  87 111 143 187 238 288 339
#     4  10  21  39  63  88 114 146 185 229 279 337
#
# _framework density 19.608609000000001
#
# number of rings (size 3 to 8) (size 9 to 14) (size 15 to 20)
#    0.000    2.000    0.000    5.000    0.000    5.000 
#    0.000    0.833    0.000    3.500    0.000    0.000 
#    0.000    0.000    0.000    0.000    0.000    0.000 
#
# Total GULP energy -595367.748102 kJ/mol
# GULP energy per Si atom -12403.494752 kJ/mol
# Density = 1.956398 g / cm^3
# Si number density = 19.608609 Si / 1000 Ang^3
#
#
#
# Elastic Constant Matrix: (Units=GPa)
#
#
# Indices 1 2 3 4 5 6 
#
# 1 99.2505 29.5960 24.6024 0.0000 0.0000 0.0000
# 2 29.5960 63.3075 20.5600 0.0000 0.0000 0.0000
# 3 24.6024 20.5600 62.6148 0.0000 0.0000 0.0000
# 4 0.0000 0.0000 0.0000 24.0377 0.0000 0.0000
# 5 0.0000 0.0000 0.0000 0.0000 36.0406 0.0000
# 6 0.0000 0.0000 0.0000 0.0000 0.0000 29.1004
#
#
#
# Elastic Compliance Matrix: (Units=1/GPa)
#
#
# Indices 1 2 3 4 5 6 
#
# 1 0.012285 -0.004674 -0.003292 0.000000 0.000000 0.000000
# 2 -0.004674 0.019460 -0.004553 0.000000 0.000000 0.000000
# 3 -0.003292 -0.004553 0.018759 0.000000 0.000000 0.000000
# 4 0.000000 0.000000 0.000000 0.041601 0.000000 0.000000
# 5 0.000000 0.000000 0.000000 0.000000 0.027746 0.000000
# 6 0.000000 0.000000 0.000000 0.000000 0.000000 0.034364
#
#
# Mechanical properties :
#
#
# Convention : Reuss Voigt Hill
#
# Bulk Modulus (GPa) = 39.26936 41.63218 40.45077
# Shear Modulus (GPa) = 26.63202 27.86338 27.24770
#
# Velocity S-wave (km/s) = 3.68935 3.77367 3.73175
# Velocity P-wave (km/s) = 6.18211 6.34548 6.26433
#
# Compressibility (1/GPa) = 0.02546515
#
# Stress axis : x y z
#
# Youngs Moduli (GPa) = 81.39714 51.38810 53.30675
#
# Poissons Ratio (x) = 0.24020 0.17551
# Poissons Ratio (y) = 0.38046 0.24272
# Poissons Ratio (z) = 0.26799 0.23398
#
# Static dielectric constant tensor:
#      x y z
#    x 3.451520 0.000000 0.000000 
#    y 0.000000 3.764590 0.000000 
#    z 0.000000 0.000000 3.606700 
# 
# 
# High freq. dielectric constant tensor:
#      x y z
#    x 1.755230 0.000000 0.000000 
#    y 0.000000 1.775110 0.000000 
#    z 0.000000 0.000000 1.764310 
# 
# From -- ./inp_files/27548.got.cif
#   From: 2010.03.12/outbox.cif.g09.slc.cpg/sg51_14_cif.got.tgz:27548.got - 2010.04.16 13:43:02.
