data_PCOD8213464
_publ_section_title
;
Structure prediction by ZEFSAII (Michael W. Deem and Ramdas Pophale) SiO2 
 PCOD8213464
Probable space group: P M M A
;
_chemical_formula_sum "Si O2"
_cell_formula_units_Z 48
_cell_length_a 19.001730
_cell_length_b 9.053137
_cell_length_c 14.895961
_cell_angle_alpha 90.000000
_cell_angle_beta 90.000000
_cell_angle_gamma 90.000000
_cell_volume 2562.481637
_symmetry_space_group_name_H-M "P M M A"
_symmetry_group_IT_number 51
_symmetry_cell_setting 'orthorhombic'
loop_
_space_group_symop_operation_xyz
x,y,z
1/2-x,-y,z
1/2+x,-y,-z
-x,y,-z
-x,-y,-z
1/2+x,y,-z
1/2-x,y,z
x,-y,z
loop_
_atom_site_type_symbol
_atom_site_label
_atom_site_fract_x
_atom_site_fract_y
_atom_site_fract_z
Si Si1 0.667513 0.171105 0.102239
Si Si2 0.068527 0.173694 0.228633
Si Si3 0.574540 0.674812 0.959688
Si Si4 0.587794 0.173122 0.279496
Si Si5 0.328883 0.327208 0.568556
Si Si6 0.167990 0.331612 0.362860
O O1 0.750000 0.198545 0.107566
O O2 0.634052 0.226771 0.195314
O O3 0.648710 0.000000 0.085011
O O4 0.637120 0.268032 0.022020
O O5 0.086262 0.257010 0.137438
O O6 0.125449 0.217795 0.302409
O O7 0.992116 0.222622 0.263511
O O8 0.072012 0.000000 0.210441
O O9 0.578835 0.500000 0.952311
O O10 0.500000 0.727597 0.000000
O O11 0.614414 0.248069 0.369823
O O12 0.594914 0.000000 0.293231
O O13 0.250000 0.268931 0.589660
O O14 0.332363 0.500000 0.587185
O O15 0.348437 0.292377 0.465909
O O16 0.250000 0.310838 0.342114
O O17 0.145205 0.500000 0.341931
#
# Coordination Sequence:
#
# PCOD8213464 Si02
#       6
#     8   8   8   8   8   8
#     4  10  21  38  60  85 115 152 191 232 282 338
#     4  11  23  38  60  86 114 150 190 234 284 339
#     4  11  23  39  60  84 112 149 190 233 284 338
#     4  10  21  36  56  84 118 152 186 231 283 336
#     4   9  19  36  58  83 113 152 193 234 283 335
#     4   9  20  40  61  82 113 151 192 239 286 334
#
# _framework density 18.731840999999999
#
# number of rings (size 3 to 8) (size 9 to 14) (size 15 to 20)
#    0.000    2.000    1.667    2.500    0.000    6.333 
#    0.000    5.000    0.000    0.000    0.000    0.000 
#    0.000    0.000    0.000    0.000    0.000    0.000 
#
# Total GULP energy -595421.710902 kJ/mol
# GULP energy per Si atom -12404.618977 kJ/mol
# Density = 1.868921 g / cm^3
# Si number density = 18.731841 Si / 1000 Ang^3
#
#
#
# Elastic Constant Matrix: (Units=GPa)
#
#
# Indices 1 2 3 4 5 6 
#
# 1 101.0676 42.0075 67.2841 0.0000 0.0000 0.0000
# 2 42.0075 56.9612 47.8466 0.0000 0.0000 0.0000
# 3 67.2841 47.8466 126.1733 0.0000 0.0000 0.0000
# 4 0.0000 0.0000 0.0000 35.9668 0.0000 0.0000
# 5 0.0000 0.0000 0.0000 0.0000 35.1741 0.0000
# 6 0.0000 0.0000 0.0000 0.0000 0.0000 31.7085
#
#
#
# Elastic Compliance Matrix: (Units=1/GPa)
#
#
# Indices 1 2 3 4 5 6 
#
# 1 0.017188 -0.007303 -0.006397 0.000000 0.000000 0.000000
# 2 -0.007303 0.028865 -0.007052 0.000000 0.000000 0.000000
# 3 -0.006397 -0.007052 0.014011 0.000000 0.000000 0.000000
# 4 0.000000 0.000000 0.000000 0.027803 0.000000 0.000000
# 5 0.000000 0.000000 0.000000 0.000000 0.028430 0.000000
# 6 0.000000 0.000000 0.000000 0.000000 0.000000 0.031537
#
#
# Mechanical properties :
#
#
# Convention : Reuss Voigt Hill
#
# Bulk Modulus (GPa) = 53.87428 66.49761 60.18594
# Shear Modulus (GPa) = 25.57244 29.04080 27.30662
#
# Velocity S-wave (km/s) = 3.69885 3.94171 3.82221
# Velocity P-wave (km/s) = 6.86041 7.50286 7.18882
#
# Compressibility (1/GPa) = 0.01856173
#
# Stress axis : x y z
#
# Youngs Moduli (GPa) = 58.17988 34.64451 71.37404
#
# Poissons Ratio (x) = 0.25300 0.45655
# Poissons Ratio (y) = 0.42488 0.50329
# Poissons Ratio (z) = 0.37215 0.24430
#
# Static dielectric constant tensor:
#      x y z
#    x 3.472370 0.000000 0.000000 
#    y 0.000000 3.334970 0.000000 
#    z 0.000000 0.000000 3.480020 
# 
# 
# High freq. dielectric constant tensor:
#      x y z
#    x 1.732110 0.000000 0.000000 
#    y 0.000000 1.723990 0.000000 
#    z 0.000000 0.000000 1.736830 
# 
# From -- ./inp_files/24697.got.cif
#   From: 2010.03.12/outbox.cif.g09.slc.cpg/sg51_13_cif.got.tgz:24697.got - 2010.04.16 13:43:02.
