data_PCOD8213983
_publ_section_title
;
Structure prediction by ZEFSAII (Michael W. Deem and Ramdas Pophale) SiO2 
 PCOD8213983
Probable space group: P M M A
;
_chemical_formula_sum "Si O2"
_cell_formula_units_Z 40
_cell_length_a 29.879898
_cell_length_b 9.070638
_cell_length_c 7.340056
_cell_angle_alpha 90.000000
_cell_angle_beta 90.000000
_cell_angle_gamma 90.000000
_cell_volume 1989.373456
_symmetry_space_group_name_H-M "P M M A"
_symmetry_group_IT_number 51
_symmetry_cell_setting 'orthorhombic'
loop_
_space_group_symop_operation_xyz
x,y,z
1/2-x,-y,z
1/2+x,-y,-z
-x,y,-z
-x,-y,-z
1/2+x,y,-z
1/2-x,y,z
x,-y,z
loop_
_atom_site_type_symbol
_atom_site_label
_atom_site_fract_x
_atom_site_fract_y
_atom_site_fract_z
Si Si1 0.448026 0.671910 0.503286
Si Si2 0.106218 0.832534 0.209890
Si Si3 0.299088 0.328716 0.802684
Si Si4 0.613491 0.828790 0.217840
Si Si5 0.797674 0.833346 0.827578
O O1 0.500000 0.710890 0.500000
O O2 0.439156 0.500000 0.526691
O O3 0.427017 0.723676 0.312195
O O4 0.426960 0.755136 0.674333
O O5 0.157067 0.806999 0.289222
O O6 0.090590 0.000000 0.245534
O O7 0.106013 0.796129 0.995369
O O8 0.250000 0.296267 0.712908
O O9 0.311037 0.500000 0.786567
O O10 0.339196 0.236927 0.709897
O O11 0.296487 0.285463 0.013441
O O12 0.613533 0.000000 0.263847
O O13 0.750000 0.819375 0.717583
O O14 0.801676 0.000000 0.911206
#
# Coordination Sequence:
#
# PCOD8213983 Si02
#       5
#     8   8   8   8   8
#     4  11  25  42  59  81 110 145 186 236 292 344
#     4   9  19  36  59  86 113 146 187 229 277 330
#     4   9  16  27  48  80 116 151 185 222 267 321
#     4  10  21  38  61  86 113 148 188 230 277 332
#     4   8  14  27  49  78 112 148 185 222 263 319
#
# _framework density 20.106833000000002
#
# number of rings (size 3 to 8) (size 9 to 14) (size 15 to 20)
#    0.000    2.600    0.000    3.000    0.000    7.600 
#    0.000    5.000    0.000    3.600    0.000    0.000 
#    0.000    0.000    0.000    0.000    0.000    0.000 
#
# Total GULP energy -495609.398905 kJ/mol
# GULP energy per Si atom -12390.234973 kJ/mol
# Density = 2.006107 g / cm^3
# Si number density = 20.106833 Si / 1000 Ang^3
#
#
#
# Elastic Constant Matrix: (Units=GPa)
#
#
# Indices 1 2 3 4 5 6 
#
# 1 183.1164 98.6358 56.0115 0.0000 0.0000 0.0000
# 2 98.6358 109.5685 41.3268 0.0000 0.0000 0.0000
# 3 56.0115 41.3268 65.0687 0.0000 0.0000 0.0000
# 4 0.0000 0.0000 0.0000 23.9089 0.0000 0.0000
# 5 0.0000 0.0000 0.0000 0.0000 224.9526 0.0000
# 6 0.0000 0.0000 0.0000 0.0000 0.0000 33.6350
#
#
#
# Elastic Compliance Matrix: (Units=1/GPa)
#
#
# Indices 1 2 3 4 5 6 
#
# 1 0.011471 -0.008682 -0.004360 0.000000 0.000000 0.000000
# 2 -0.008682 0.018573 -0.004322 0.000000 0.000000 0.000000
# 3 -0.004360 -0.004322 0.021867 0.000000 0.000000 0.000000
# 4 0.000000 0.000000 0.000000 0.041825 0.000000 0.000000
# 5 0.000000 0.000000 0.000000 0.000000 0.004445 0.000000
# 6 0.000000 0.000000 0.000000 0.000000 0.000000 0.029731
#
#
# Mechanical properties :
#
#
# Convention : Reuss Voigt Hill
#
# Bulk Modulus (GPa) = 58.20250 83.30020 70.75135
# Shear Modulus (GPa) = 29.69644 67.28461 48.49052
#
# Velocity S-wave (km/s) = 3.84726 5.79104 4.91618
# Velocity P-wave (km/s) = 6.98174 9.28621 8.21518
#
# Compressibility (1/GPa) = 0.01718139
#
# Stress axis : x y z
#
# Youngs Moduli (GPa) = 87.17327 53.84196 45.73073
#
# Poissons Ratio (x) = 0.46746 0.19940
# Poissons Ratio (y) = 0.75685 0.19767
# Poissons Ratio (z) = 0.38011 0.23273
#
# Static dielectric constant tensor:
#      x y z
#    x 4.061860 0.000000 0.000000 
#    y 0.000000 3.638020 0.000000 
#    z 0.000000 0.000000 3.155180 
# 
# 
# High freq. dielectric constant tensor:
#      x y z
#    x 1.802360 0.000000 0.000000 
#    y 0.000000 1.789550 0.000000 
#    z 0.000000 0.000000 1.743380 
# 
# From -- ./inp_files/12089.got.cif
#   From: 2010.03.12/outbox.cif.g09.slc.cpg/sg51_7_cif.got.tgz:12089.got - 2010.04.16 13:43:02.
