data_PCOD8213935
_publ_section_title
;
Structure prediction by ZEFSAII (Michael W. Deem and Ramdas Pophale) SiO2 
 PCOD8213935
Probable space group: P M M A
;
_chemical_formula_sum "Si O2"
_cell_formula_units_Z 48
_cell_length_a 16.991838
_cell_length_b 15.328035
_cell_length_c 10.297029
_cell_angle_alpha 90.000000
_cell_angle_beta 90.000000
_cell_angle_gamma 90.000000
_cell_volume 2681.876521
_symmetry_space_group_name_H-M "P M M A"
_symmetry_group_IT_number 51
_symmetry_cell_setting 'orthorhombic'
loop_
_space_group_symop_operation_xyz
x,y,z
1/2-x,-y,z
1/2+x,-y,-z
-x,y,-z
-x,-y,-z
1/2+x,y,-z
1/2-x,y,z
x,-y,z
loop_
_atom_site_type_symbol
_atom_site_label
_atom_site_fract_x
_atom_site_fract_y
_atom_site_fract_z
Si Si1 0.447614 0.739773 0.873023
Si Si2 0.840322 0.598694 0.236326
Si Si3 0.841997 0.099639 0.728562
Si Si4 0.945027 0.753652 0.623615
Si Si5 0.840784 0.399637 0.536034
Si Si6 0.093188 0.905462 0.988305
O O1 0.391320 0.657556 0.858513
O O2 0.502700 0.751313 0.750592
O O3 0.500000 0.725072 0.000000
O O4 0.391684 0.826226 0.887858
O O5 0.750000 0.609995 0.197091
O O6 0.868047 0.500000 0.214814
O O7 0.853157 0.625325 0.385762
O O8 0.750000 0.117852 0.714591
O O9 0.886755 0.163559 0.629494
O O10 0.867783 0.119630 0.875387
O O11 0.863112 0.000000 0.691643
O O12 0.895600 0.663754 0.619859
O O13 0.000000 0.765246 0.500000
O O14 0.750000 0.386285 0.575893
O O15 0.865772 0.500000 0.561488
O O16 0.126394 0.000000 0.939617
O O17 0.000000 0.913125 0.000000
#
# Coordination Sequence:
#
# PCOD8213935 Si02
#       6
#     8   8   8   8   8   8
#     4  11  21  36  55  85 115 145 184 231 284 332
#     4   9  19  37  58  79 109 150 188 226 281 342
#     4  10  21  38  60  85 114 152 194 235 281 336
#     4  12  22  35  58  88 118 147 187 234 286 337
#     4   9  19  37  59  81 110 151 194 234 279 338
#     4   9  17  34  58  79 109 148 186 224 270 336
#
# _framework density 17.897915999999999
#
# number of rings (size 3 to 8) (size 9 to 14) (size 15 to 20)
#    0.000    2.000    5.000    1.500    0.000    2.333 
#    0.000    0.000    0.000    2.000    0.000    0.000 
#    0.000    0.000    0.000    0.000    0.000    0.000 
#
# Total GULP energy -595037.058935 kJ/mol
# GULP energy per Si atom -12396.605394 kJ/mol
# Density = 1.785718 g / cm^3
# Si number density = 17.897916 Si / 1000 Ang^3
#
#
#
# Elastic Constant Matrix: (Units=GPa)
#
#
# Indices 1 2 3 4 5 6 
#
# 1 70.6877 58.1080 38.7277 0.0000 0.0000 0.0000
# 2 58.1080 140.1990 49.0213 0.0000 0.0000 0.0000
# 3 38.7277 49.0213 79.5542 0.0000 0.0000 0.0000
# 4 0.0000 0.0000 0.0000 35.4781 0.0000 0.0000
# 5 0.0000 0.0000 0.0000 0.0000 20.4786 0.0000
# 6 0.0000 0.0000 0.0000 0.0000 0.0000 35.7686
#
#
#
# Elastic Compliance Matrix: (Units=1/GPa)
#
#
# Indices 1 2 3 4 5 6 
#
# 1 0.024287 -0.007561 -0.007164 0.000000 0.000000 0.000000
# 2 -0.007561 0.011446 -0.003372 0.000000 0.000000 0.000000
# 3 -0.007164 -0.003372 0.018135 0.000000 0.000000 0.000000
# 4 0.000000 0.000000 0.000000 0.028186 0.000000 0.000000
# 5 0.000000 0.000000 0.000000 0.000000 0.048831 0.000000
# 6 0.000000 0.000000 0.000000 0.000000 0.000000 0.027957
#
#
# Mechanical properties :
#
#
# Convention : Reuss Voigt Hill
#
# Bulk Modulus (GPa) = 56.58078 64.68388 60.63233
# Shear Modulus (GPa) = 24.88434 27.98399 26.43417
#
# Velocity S-wave (km/s) = 3.73278 3.95844 3.84727
# Velocity P-wave (km/s) = 7.08942 7.55720 7.32705
#
# Compressibility (1/GPa) = 0.01767385
#
# Stress axis : x y z
#
# Youngs Moduli (GPa) = 41.17352 87.36923 55.14114
#
# Poissons Ratio (x) = 0.66064 0.39503
# Poissons Ratio (y) = 0.31133 0.18593
# Poissons Ratio (z) = 0.29497 0.29460
#
# Static dielectric constant tensor:
#      x y z
#    x 3.333150 0.000000 0.000000 
#    y 0.000000 3.853140 0.000000 
#    z 0.000000 0.000000 2.986480 
# 
# 
# High freq. dielectric constant tensor:
#      x y z
#    x 1.692220 0.000000 0.000000 
#    y 0.000000 1.710440 0.000000 
#    z 0.000000 0.000000 1.667430 
# 
# From -- ./inp_files/9570.got.cif
#   From: 2010.03.12/outbox.cif.g09.slc.cpg/sg51_5_cif.got.tgz:9570.got - 2010.04.16 13:43:02.
