data_PCOD8213910
_publ_section_title
;
Structure prediction by ZEFSAII (Michael W. Deem and Ramdas Pophale) SiO2 
 PCOD8213910
Probable space group: P M M A
;
_chemical_formula_sum "Si O2"
_cell_formula_units_Z 64
_cell_length_a 18.318568
_cell_length_b 13.933760
_cell_length_c 11.824054
_cell_angle_alpha 90.000000
_cell_angle_beta 90.000000
_cell_angle_gamma 90.000000
_cell_volume 3018.048755
_symmetry_space_group_name_H-M "P M M A"
_symmetry_group_IT_number 51
_symmetry_cell_setting 'orthorhombic'
loop_
_space_group_symop_operation_xyz
x,y,z
1/2-x,-y,z
1/2+x,-y,-z
-x,y,-z
-x,-y,-z
1/2+x,y,-z
1/2-x,y,z
x,-y,z
loop_
_atom_site_type_symbol
_atom_site_label
_atom_site_fract_x
_atom_site_fract_y
_atom_site_fract_z
Si Si1 0.668478 0.109435 0.479411
Si Si2 0.830728 0.388249 0.446259
Si Si3 0.110737 0.809564 0.302453
Si Si4 0.914097 0.393625 0.672296
Si Si5 0.075367 0.391775 0.757390
Si Si6 0.457182 0.112588 0.689061
Si Si7 0.567521 0.216039 0.083972
Si Si8 0.665874 0.109020 0.922292
O O1 0.750000 0.119235 0.428515
O O2 0.665361 0.171734 0.593849
O O3 0.611121 0.147760 0.386806
O O4 0.650599 0.000000 0.511748
O O5 0.750000 0.341209 0.468088
O O6 0.819882 0.500000 0.432928
O O7 0.889161 0.368710 0.544940
O O8 0.863345 0.350201 0.327689
O O9 0.117217 0.698131 0.258226
O O10 0.125823 0.877992 0.197212
O O11 0.029605 0.831394 0.350580
O O12 0.883635 0.500000 0.709518
O O13 0.000792 0.392933 0.685467
O O14 0.092338 0.500000 0.799988
O O15 0.073705 0.323642 0.866859
O O16 0.442096 0.137956 0.818539
O O17 0.469780 0.000000 0.675799
O O18 0.500000 0.211257 0.000000
O O19 0.639157 0.185100 0.015257
O O20 0.750000 0.129936 0.901700
O O21 0.651424 0.000000 0.963370
#
# Coordination Sequence:
#
# PCOD8213910 Si02
#       8
#     8   8   8   8   8   8   8   8
#     4  10  23  41  61  92 133 169 203 255 326 393
#     4   9  19  35  57  88 125 165 207 254 311 372
#     4  12  22  39  66  95 125 167 215 259 315 382
#     4  10  21  38  59  90 129 167 209 255 304 369
#     4  10  21  39  63  89 124 168 216 265 314 372
#     4  11  23  39  64  93 123 161 212 268 318 379
#     4  12  24  42  64  92 122 165 216 269 321 371
#     4  11  25  44  67  94 125 164 212 266 322 382
#
# _framework density 21.205755
#
# number of rings (size 3 to 8) (size 9 to 14) (size 15 to 20)
#    0.000    1.375    2.500    2.625    1.750    7.250 
#    0.000    1.875    0.000    0.750    0.000    0.000 
#    0.000    0.000    0.000    0.000    0.000    0.000 
#
# Total GULP energy -793279.211728 kJ/mol
# GULP energy per Si atom -12394.987683 kJ/mol
# Density = 2.115749 g / cm^3
# Si number density = 21.205755 Si / 1000 Ang^3
#
#
#
# Elastic Constant Matrix: (Units=GPa)
#
#
# Indices 1 2 3 4 5 6 
#
# 1 113.2985 31.3790 51.6897 0.0000 0.0000 0.0000
# 2 31.3790 127.6625 31.3023 0.0000 0.0000 0.0000
# 3 51.6897 31.3023 102.8859 0.0000 0.0000 0.0000
# 4 0.0000 0.0000 0.0000 34.7863 0.0000 0.0000
# 5 0.0000 0.0000 0.0000 0.0000 25.9213 0.0000
# 6 0.0000 0.0000 0.0000 0.0000 0.0000 13.0153
#
#
#
# Elastic Compliance Matrix: (Units=1/GPa)
#
#
# Indices 1 2 3 4 5 6 
#
# 1 0.011729 -0.001554 -0.005420 0.000000 0.000000 0.000000
# 2 -0.001554 0.008671 -0.001857 0.000000 0.000000 0.000000
# 3 -0.005420 -0.001857 0.013008 0.000000 0.000000 0.000000
# 4 0.000000 0.000000 0.000000 0.028747 0.000000 0.000000
# 5 0.000000 0.000000 0.000000 0.000000 0.038578 0.000000
# 6 0.000000 0.000000 0.000000 0.000000 0.000000 0.076833
#
#
# Mechanical properties :
#
#
# Convention : Reuss Voigt Hill
#
# Bulk Modulus (GPa) = 63.51253 63.62098 63.56675
# Shear Modulus (GPa) = 24.94060 30.04298 27.49179
#
# Velocity S-wave (km/s) = 3.43319 3.76804 3.60450
# Velocity P-wave (km/s) = 6.76249 6.99984 6.88219
#
# Compressibility (1/GPa) = 0.01574492
#
# Stress axis : x y z
#
# Youngs Moduli (GPa) = 85.25578 115.33345 76.87855
#
# Poissons Ratio (x) = 0.17924 0.41668
# Poissons Ratio (y) = 0.13250 0.14278
# Poissons Ratio (z) = 0.46209 0.21419
#
# Static dielectric constant tensor:
#      x y z
#    x 4.085260 0.000000 0.000000 
#    y 0.000000 4.147210 0.000000 
#    z 0.000000 0.000000 3.657880 
# 
# 
# High freq. dielectric constant tensor:
#      x y z
#    x 1.831700 0.000000 0.000000 
#    y 0.000000 1.849020 0.000000 
#    z 0.000000 0.000000 1.807840 
# 
# From -- ./inp_files/17558.got.cif
#   From: 2010.03.12/outbox.cif.g09.slc.cpg/sg51_9_cif.got.tgz:17558.got - 2010.04.16 13:43:02.
