data_PCOD8213319
_publ_section_title
;
Structure prediction by ZEFSAII (Michael W. Deem and Ramdas Pophale) SiO2 
 PCOD8213319
Probable space group: P M M A
;
_chemical_formula_sum "Si O2"
_cell_formula_units_Z 40
_cell_length_a 8.956171
_cell_length_b 7.615345
_cell_length_c 29.396097
_cell_angle_alpha 90.000000
_cell_angle_beta 90.000000
_cell_angle_gamma 90.000000
_cell_volume 2004.941161
_symmetry_space_group_name_H-M "P M M A"
_symmetry_group_IT_number 51
_symmetry_cell_setting 'orthorhombic'
loop_
_space_group_symop_operation_xyz
x,y,z
1/2-x,-y,z
1/2+x,-y,-z
-x,y,-z
-x,-y,-z
1/2+x,y,-z
1/2-x,y,z
x,-y,z
loop_
_atom_site_type_symbol
_atom_site_label
_atom_site_fract_x
_atom_site_fract_y
_atom_site_fract_z
Si Si1 0.073332 0.000000 0.709813
Si Si2 0.428675 0.000000 0.606600
Si Si3 0.587116 0.798983 0.042126
Si Si4 0.924844 0.702568 0.548058
Si Si5 0.418866 0.706828 0.131760
Si Si6 0.926313 0.300534 0.223998
O O1 0.014119 0.000000 0.658482
O O2 0.016121 0.824612 0.735399
O O3 0.250000 0.000000 0.709341
O O4 0.494983 0.176044 0.584834
O O5 0.250000 0.000000 0.602016
O O6 0.750000 0.708099 0.047676
O O7 0.497103 0.790845 0.088648
O O8 0.611493 0.000000 0.029135
O O9 0.500000 0.706458 0.000000
O O10 0.750000 0.748280 0.544907
O O11 0.950336 0.500000 0.562102
O O12 0.000000 0.743956 0.500000
O O13 0.250000 0.775436 0.133835
O O14 0.427553 0.500000 0.126662
O O15 0.500913 0.768356 0.177508
O O16 0.750000 0.287420 0.217596
O O17 0.975886 0.500000 0.235472
#
# Coordination Sequence:
#
# PCOD8213319 Si02
#       6
#     4   4   8   8   8   8
#     4   9  20  36  56  83 110 145 192 232 281 342
#     4  11  22  36  57  87 122 157 195 244 295 350
#     4  10  21  36  54  77 105 137 172 212 259 316
#     4  10  21  38  60  86 118 158 202 246 292 344
#     4  10  21  36  54  78 106 136 172 215 266 324
#     4   9  18  35  57  79 106 140 182 233 279 325
#
# _framework density 19.950707999999999
#
# number of rings (size 3 to 8) (size 9 to 14) (size 15 to 20)
#    0.000    2.200    0.000    2.400    1.400    4.800 
#    0.000    4.000    0.000    2.400    0.000    0.000 
#    0.000    0.000    0.000    0.000    0.000    0.000 
#
# Total GULP energy -495991.072511 kJ/mol
# GULP energy per Si atom -12399.776813 kJ/mol
# Density = 1.990530 g / cm^3
# Si number density = 19.950708 Si / 1000 Ang^3
#
#
#
# Elastic Constant Matrix: (Units=GPa)
#
#
# Indices 1 2 3 4 5 6 
#
# 1 109.4339 42.6377 67.2872 0.0000 0.0000 0.0000
# 2 42.6377 87.9459 73.6675 0.0000 0.0000 0.0000
# 3 67.2872 73.6675 185.2452 0.0000 0.0000 0.0000
# 4 0.0000 0.0000 0.0000 33.9983 0.0000 0.0000
# 5 0.0000 0.0000 0.0000 0.0000 31.9225 0.0000
# 6 0.0000 0.0000 0.0000 0.0000 0.0000 17.9337
#
#
#
# Elastic Compliance Matrix: (Units=1/GPa)
#
#
# Indices 1 2 3 4 5 6 
#
# 1 0.012393 -0.003355 -0.003167 0.000000 0.000000 0.000000
# 2 -0.003355 0.017959 -0.005923 0.000000 0.000000 0.000000
# 3 -0.003167 -0.005923 0.008904 0.000000 0.000000 0.000000
# 4 0.000000 0.000000 0.000000 0.029413 0.000000 0.000000
# 5 0.000000 0.000000 0.000000 0.000000 0.031326 0.000000
# 6 0.000000 0.000000 0.000000 0.000000 0.000000 0.055761
#
#
# Mechanical properties :
#
#
# Convention : Reuss Voigt Hill
#
# Bulk Modulus (GPa) = 69.61526 83.31219 76.46372
# Shear Modulus (GPa) = 26.96373 30.03973 28.50173
#
# Velocity S-wave (km/s) = 3.68029 3.88454 3.78379
# Velocity P-wave (km/s) = 7.28208 7.87205 7.58281
#
# Compressibility (1/GPa) = 0.01436467
#
# Stress axis : x y z
#
# Youngs Moduli (GPa) = 80.69370 55.68342 112.30816
#
# Poissons Ratio (x) = 0.18683 0.35569
# Poissons Ratio (y) = 0.27075 0.66520
# Poissons Ratio (z) = 0.25556 0.32981
#
# Static dielectric constant tensor:
#      x y z
#    x 3.472100 0.000000 0.000000 
#    y 0.000000 3.635900 0.000000 
#    z 0.000000 0.000000 3.710270 
# 
# 
# High freq. dielectric constant tensor:
#      x y z
#    x 1.779270 0.000000 0.000000 
#    y 0.000000 1.779710 0.000000 
#    z 0.000000 0.000000 1.776300 
# 
# From -- ./inp_files/36012.got.cif
#   From: 2010.03.12/outbox.cif.g09.slc.cpg/sg51_19_cif.got.tgz:36012.got - 2010.04.16 13:43:02.
