data_PCOD8213425
_publ_section_title
;
Structure prediction by ZEFSAII (Michael W. Deem and Ramdas Pophale) SiO2 
 PCOD8213425
Probable space group: P M M A
;
_chemical_formula_sum "Si O2"
_cell_formula_units_Z 40
_cell_length_a 25.237313
_cell_length_b 8.937922
_cell_length_c 9.506928
_cell_angle_alpha 90.000000
_cell_angle_beta 90.000000
_cell_angle_gamma 90.000000
_cell_volume 2144.469526
_symmetry_space_group_name_H-M "P M M A"
_symmetry_group_IT_number 51
_symmetry_cell_setting 'orthorhombic'
loop_
_space_group_symop_operation_xyz
x,y,z
1/2-x,-y,z
1/2+x,-y,-z
-x,y,-z
-x,-y,-z
1/2+x,y,-z
1/2-x,y,z
x,-y,z
loop_
_atom_site_type_symbol
_atom_site_label
_atom_site_fract_x
_atom_site_fract_y
_atom_site_fract_z
Si Si1 0.950859 0.174023 0.402282
Si Si2 0.750000 0.824152 0.915894
Si Si3 0.750000 0.177625 0.595103
Si Si4 0.162508 0.670698 0.904455
Si Si5 0.957447 0.328012 0.116124
Si Si6 0.341840 0.676131 0.580698
O O1 0.967680 0.219059 0.245710
O O2 0.900840 0.269272 0.455546
O O3 0.000000 0.213650 0.500000
O O4 0.935916 0.000000 0.407207
O O5 0.750000 0.765367 0.755951
O O6 0.750000 0.000000 0.917298
O O7 0.802665 0.771530 0.994377
O O8 0.802030 0.239966 0.521094
O O9 0.750000 0.000000 0.584303
O O10 0.179789 0.500000 0.927479
O O11 0.101325 0.696155 0.946086
O O12 0.172039 0.716143 0.742082
O O13 0.963755 0.500000 0.165902
O O14 0.000000 0.283370 0.000000
O O15 0.338150 0.500000 0.554183
#
# Coordination Sequence:
#
# PCOD8213425 Si02
#       6
#     8   4   4   8   8   8
#     4  10  21  36  55  82 114 146 181 223 273 327
#     4  11  24  37  52  78 110 143 178 217 266 322
#     4  11  24  39  54  80 116 145 176 223 274 324
#     4   9  19  36  57  80 106 137 178 224 265 315
#     4   9  19  36  57  82 110 141 181 226 270 320
#     4  10  21  38  60  83 106 141 188 228 268 323
#
# _framework density 18.652631
#
# number of rings (size 3 to 8) (size 9 to 14) (size 15 to 20)
#    0.000    2.200    0.000    3.600    0.000   11.600 
#    0.000    4.000    0.000    0.000    0.000    0.000 
#    0.000    0.000    0.000    0.000    0.000    0.000 
#
# Total GULP energy -496125.254110 kJ/mol
# GULP energy per Si atom -12403.131353 kJ/mol
# Density = 1.861018 g / cm^3
# Si number density = 18.652631 Si / 1000 Ang^3
#
#
#
# Elastic Constant Matrix: (Units=GPa)
#
#
# Indices 1 2 3 4 5 6 
#
# 1 129.0916 49.8407 85.7928 0.0000 0.0000 0.0000
# 2 49.8407 66.3583 50.3796 0.0000 0.0000 0.0000
# 3 85.7928 50.3796 113.1426 0.0000 0.0000 0.0000
# 4 0.0000 0.0000 0.0000 30.3899 0.0000 0.0000
# 5 0.0000 0.0000 0.0000 0.0000 37.1295 0.0000
# 6 0.0000 0.0000 0.0000 0.0000 0.0000 34.1540
#
#
#
# Elastic Compliance Matrix: (Units=1/GPa)
#
#
# Indices 1 2 3 4 5 6 
#
# 1 0.016406 -0.004347 -0.010505 0.000000 0.000000 0.000000
# 2 -0.004347 0.023918 -0.007354 0.000000 0.000000 0.000000
# 3 -0.010505 -0.007354 0.020078 0.000000 0.000000 0.000000
# 4 0.000000 0.000000 0.000000 0.032906 0.000000 0.000000
# 5 0.000000 0.000000 0.000000 0.000000 0.026933 0.000000
# 6 0.000000 0.000000 0.000000 0.000000 0.000000 0.029279
#
#
# Mechanical properties :
#
#
# Convention : Reuss Voigt Hill
#
# Bulk Modulus (GPa) = 62.53463 75.62429 69.07946
# Shear Modulus (GPa) = 25.09280 28.50665 26.79973
#
# Velocity S-wave (km/s) = 3.67177 3.91358 3.79460
# Velocity P-wave (km/s) = 7.18154 7.81364 7.50425
#
# Compressibility (1/GPa) = 0.01599114
#
# Stress axis : x y z
#
# Youngs Moduli (GPa) = 60.95319 41.81006 49.80566
#
# Poissons Ratio (x) = 0.18176 0.52318
# Poissons Ratio (y) = 0.26498 0.36625
# Poissons Ratio (z) = 0.64028 0.30745
#
# Static dielectric constant tensor:
#      x y z
#    x 3.519460 0.000000 0.000000 
#    y 0.000000 3.444020 0.000000 
#    z 0.000000 0.000000 3.432150 
# 
# 
# High freq. dielectric constant tensor:
#      x y z
#    x 1.737500 0.000000 0.000000 
#    y 0.000000 1.729350 0.000000 
#    z 0.000000 0.000000 1.717780 
# 
# From -- ./inp_files/12177.got.cif
#   From: 2010.03.12/outbox.cif.g09.slc.cpg/sg51_7_cif.got.tgz:12177.got - 2010.04.16 13:43:02.
