data_PCOD8213206
_publ_section_title
;
Structure prediction by ZEFSAII (Michael W. Deem and Ramdas Pophale) SiO2 
 PCOD8213206
Probable space group: P M M A
;
_chemical_formula_sum "Si O2"
_cell_formula_units_Z 48
_cell_length_a 14.345362
_cell_length_b 9.104612
_cell_length_c 19.116628
_cell_angle_alpha 90.000000
_cell_angle_beta 90.000000
_cell_angle_gamma 90.000000
_cell_volume 2496.802806
_symmetry_space_group_name_H-M "P M M A"
_symmetry_group_IT_number 51
_symmetry_cell_setting 'orthorhombic'
loop_
_space_group_symop_operation_xyz
x,y,z
1/2-x,-y,z
1/2+x,-y,-z
-x,y,-z
-x,-y,-z
1/2+x,y,-z
1/2-x,y,z
x,-y,z
loop_
_atom_site_type_symbol
_atom_site_label
_atom_site_fract_x
_atom_site_fract_y
_atom_site_fract_z
Si Si1 0.353657 0.325771 0.625119
Si Si2 0.007997 0.674499 0.744828
Si Si3 0.520412 0.173796 0.111480
Si Si4 0.853673 0.173741 0.983706
Si Si5 0.859421 0.831150 0.663484
Si Si6 0.639219 0.663116 0.527888
O O1 0.250000 0.258394 0.635877
O O2 0.346984 0.500000 0.628402
O O3 0.419980 0.266473 0.686281
O O4 0.395867 0.281791 0.548589
O O5 0.002931 0.500000 0.748243
O O6 0.041307 0.737126 0.818605
O O7 0.907017 0.739575 0.725615
O O8 0.601041 0.221303 0.057320
O O9 0.522074 0.000000 0.126163
O O10 0.419973 0.223421 0.080250
O O11 0.750000 0.243320 0.975823
O O12 0.847288 0.000000 0.982501
O O13 0.750000 0.807277 0.672355
O O14 0.894657 0.772867 0.588198
O O15 0.888092 0.000000 0.670036
O O16 0.750000 0.655994 0.523840
O O17 0.599804 0.500000 0.545243
#
# Coordination Sequence:
#
# PCOD8213206 Si02
#       6
#     8   8   8   8   8   8
#     4   8  16  32  52  73  99 135 176 212 252 306
#     4  11  22  34  51  76 107 140 171 207 251 301
#     4   9  18  33  52  76 104 130 164 207 245 293
#     4   8  15  31  56  79  98 128 167 203 244 296
#     4  10  21  36  52  71  99 135 173 215 263 310
#     4   8  14  29  53  74  93 124 171 222 261 299
#
# _framework density 19.224585000000001
#
# number of rings (size 3 to 8) (size 9 to 14) (size 15 to 20)
#    0.000    3.000    0.000    3.000    0.000    3.000 
#    0.000    8.333    0.000    4.500    0.000    0.000 
#    0.000    0.000    0.000    0.000    0.000    0.000 
#
# Total GULP energy -595019.689950 kJ/mol
# GULP energy per Si atom -12396.243541 kJ/mol
# Density = 1.918083 g / cm^3
# Si number density = 19.224585 Si / 1000 Ang^3
#
#
#
# Elastic Constant Matrix: (Units=GPa)
#
#
# Indices 1 2 3 4 5 6 
#
# 1 56.2039 11.0927 4.3393 0.0000 0.0000 0.0000
# 2 11.0927 54.5642 22.4527 0.0000 0.0000 0.0000
# 3 4.3393 22.4527 85.0246 0.0000 0.0000 0.0000
# 4 0.0000 0.0000 0.0000 34.9708 0.0000 0.0000
# 5 0.0000 0.0000 0.0000 0.0000 23.8824 0.0000
# 6 0.0000 0.0000 0.0000 0.0000 0.0000 14.5298
#
#
#
# Elastic Compliance Matrix: (Units=1/GPa)
#
#
# Indices 1 2 3 4 5 6 
#
# 1 0.018536 -0.003791 0.000055 0.000000 0.000000 0.000000
# 2 -0.003791 0.021337 -0.005441 0.000000 0.000000 0.000000
# 3 0.000055 -0.005441 0.013195 0.000000 0.000000 0.000000
# 4 0.000000 0.000000 0.000000 0.028595 0.000000 0.000000
# 5 0.000000 0.000000 0.000000 0.000000 0.041872 0.000000
# 6 0.000000 0.000000 0.000000 0.000000 0.000000 0.068824
#
#
# Mechanical properties :
#
#
# Convention : Reuss Voigt Hill
#
# Bulk Modulus (GPa) = 28.80645 30.17360 29.49002
# Shear Modulus (GPa) = 22.49368 25.20382 23.84875
#
# Velocity S-wave (km/s) = 3.42431 3.62473 3.52594
# Velocity P-wave (km/s) = 5.53635 5.76607 5.65238
#
# Compressibility (1/GPa) = 0.03471444
#
# Stress axis : x y z
#
# Youngs Moduli (GPa) = 53.94815 46.86775 75.78460
#
# Poissons Ratio (x) = 0.17768 -0.00417
# Poissons Ratio (y) = 0.20452 0.41234
# Poissons Ratio (z) = -0.00297 0.25501
#
# Static dielectric constant tensor:
#      x y z
#    x 3.831320 0.000000 0.000000 
#    y 0.000000 3.139050 0.000000 
#    z 0.000000 0.000000 3.597780 
# 
# 
# High freq. dielectric constant tensor:
#      x y z
#    x 1.749840 0.000000 0.000000 
#    y 0.000000 1.706580 0.000000 
#    z 0.000000 0.000000 1.750320 
# 
# From -- ./inp_files/29488.got.cif
#   From: 2010.03.12/outbox.cif.g09.slc.cpg/sg51_15_cif.got.tgz:29488.got - 2010.04.16 13:43:02.
