data_PCOD8213970
_publ_section_title
;
Structure prediction by ZEFSAII (Michael W. Deem and Ramdas Pophale) SiO2 
 PCOD8213970
Probable space group: P M M A
;
_chemical_formula_sum "Si O2"
_cell_formula_units_Z 48
_cell_length_a 9.639128
_cell_length_b 9.222506
_cell_length_c 28.720953
_cell_angle_alpha 90.000000
_cell_angle_beta 90.000000
_cell_angle_gamma 90.000000
_cell_volume 2553.204141
_symmetry_space_group_name_H-M "P M M A"
_symmetry_group_IT_number 51
_symmetry_cell_setting 'orthorhombic'
loop_
_space_group_symop_operation_xyz
x,y,z
1/2-x,-y,z
1/2+x,-y,-z
-x,y,-z
-x,-y,-z
1/2+x,y,-z
1/2-x,y,z
x,-y,z
loop_
_atom_site_type_symbol
_atom_site_label
_atom_site_fract_x
_atom_site_fract_y
_atom_site_fract_z
Si Si1 0.089952 0.828763 0.276991
Si Si2 0.541425 0.334050 0.098769
Si Si3 0.250000 0.337386 0.057958
Si Si4 0.406542 0.331193 0.796276
Si Si5 0.908929 0.830119 0.364091
Si Si6 0.250000 0.828054 0.963842
Si Si7 0.909682 0.331120 0.456867
O O1 0.250000 0.779305 0.280495
O O2 0.018742 0.757871 0.232465
O O3 0.008481 0.775498 0.322859
O O4 0.077338 0.000000 0.271358
O O5 0.589564 0.500000 0.090908
O O6 0.378526 0.314871 0.092153
O O7 0.581912 0.282214 0.150211
O O8 0.613882 0.232526 0.061085
O O9 0.250000 0.500000 0.036183
O O10 0.250000 0.220739 0.017182
O O11 0.250000 0.297901 0.778784
O O12 0.442301 0.500000 0.791061
O O13 0.750000 0.788508 0.351766
O O14 0.959033 0.751463 0.410795
O O15 0.924744 0.000000 0.372464
O O16 0.250000 0.000000 0.961812
O O17 0.750000 0.297089 0.468244
O O18 0.935828 0.500000 0.448138
O O19 0.000000 0.273501 0.500000
#
# Coordination Sequence:
#
# PCOD8213970 Si02
#       7
#     8   8   4   8   8   4   8
#     4  10  22  38  56  82 115 148 181 223 279 337
#     4  10  21  40  62  84 111 146 188 229 272 327
#     4  10  22  38  62  86 110 150 188 226 277 326
#     4  10  21  38  61  85 109 140 184 233 273 321
#     4   9  18  34  54  75 104 145 188 226 266 322
#     4  12  24  38  58  86 118 150 184 226 273 326
#     4   9  18  32  50  74 105 140 178 224 276 327
#
# _framework density 18.799907000000001
#
# number of rings (size 3 to 8) (size 9 to 14) (size 15 to 20)
#    0.000    2.167    0.833    1.750    1.167    6.333 
#    0.000    1.667    0.000    0.000    0.000    0.000 
#    0.000    0.000    0.000    0.000    0.000    0.000 
#
# Total GULP energy -595359.002809 kJ/mol
# GULP energy per Si atom -12403.312559 kJ/mol
# Density = 1.875712 g / cm^3
# Si number density = 18.799907 Si / 1000 Ang^3
#
#
#
# Elastic Constant Matrix: (Units=GPa)
#
#
# Indices 1 2 3 4 5 6 
#
# 1 120.3504 34.3135 54.8519 0.0000 0.0000 0.0000
# 2 34.3135 54.4653 39.2440 0.0000 0.0000 0.0000
# 3 54.8519 39.2440 110.8004 0.0000 0.0000 0.0000
# 4 0.0000 0.0000 0.0000 3.0117 0.0000 0.0000
# 5 0.0000 0.0000 0.0000 0.0000 36.2739 0.0000
# 6 0.0000 0.0000 0.0000 0.0000 0.0000 25.4754
#
#
#
# Elastic Compliance Matrix: (Units=1/GPa)
#
#
# Indices 1 2 3 4 5 6 
#
# 1 0.011398 -0.004183 -0.004161 0.000000 0.000000 0.000000
# 2 -0.004183 0.026186 -0.007204 0.000000 0.000000 0.000000
# 3 -0.004161 -0.007204 0.013637 0.000000 0.000000 0.000000
# 4 0.000000 0.000000 0.000000 0.332042 0.000000 0.000000
# 5 0.000000 0.000000 0.000000 0.000000 0.027568 0.000000
# 6 0.000000 0.000000 0.000000 0.000000 0.000000 0.039253
#
#
# Mechanical properties :
#
#
# Convention : Reuss Voigt Hill
#
# Bulk Modulus (GPa) = 49.68900 60.27053 54.97976
# Shear Modulus (GPa) = 10.24823 23.43265 16.84044
#
# Velocity S-wave (km/s) = 2.33732 3.53430 2.99619
# Velocity P-wave (km/s) = 5.81136 6.98453 6.42478
#
# Compressibility (1/GPa) = 0.02012518
#
# Stress axis : x y z
#
# Youngs Moduli (GPa) = 87.73348 38.18804 73.33043
#
# Poissons Ratio (x) = 0.15973 0.30515
# Poissons Ratio (y) = 0.36695 0.52829
# Poissons Ratio (z) = 0.36508 0.27511
#
# Static dielectric constant tensor:
#      x y z
#    x 3.591300 0.000000 0.000000 
#    y 0.000000 3.308950 0.000000 
#    z 0.000000 0.000000 3.457490 
# 
# 
# High freq. dielectric constant tensor:
#      x y z
#    x 1.740210 0.000000 0.000000 
#    y 0.000000 1.716420 0.000000 
#    z 0.000000 0.000000 1.733500 
# 
# From -- ./inp_files/37145.got.cif
#   From: 2010.03.12/outbox.cif.g09.slc.cpg/sg51_19_cif.got.tgz:37145.got - 2010.04.16 13:43:02.
