data_PCOD8213730
_publ_section_title
;
Structure prediction by ZEFSAII (Michael W. Deem and Ramdas Pophale) SiO2 
 PCOD8213730
Probable space group: P M M A
;
_chemical_formula_sum "Si O2"
_cell_formula_units_Z 64
_cell_length_a 24.862065
_cell_length_b 13.253615
_cell_length_c 9.978963
_cell_angle_alpha 90.000000
_cell_angle_beta 90.000000
_cell_angle_gamma 90.000000
_cell_volume 3288.190427
_symmetry_space_group_name_H-M "P M M A"
_symmetry_group_IT_number 51
_symmetry_cell_setting 'orthorhombic'
loop_
_space_group_symop_operation_xyz
x,y,z
1/2-x,-y,z
1/2+x,-y,-z
-x,y,-z
-x,-y,-z
1/2+x,y,-z
1/2-x,y,z
x,-y,z
loop_
_atom_site_type_symbol
_atom_site_label
_atom_site_fract_x
_atom_site_fract_y
_atom_site_fract_z
Si Si1 0.364152 0.114727 0.174832
Si Si2 0.811168 0.610844 0.200032
Si Si3 0.988405 0.117175 0.848226
Si Si4 0.614018 0.614899 0.455443
Si Si5 0.840577 0.886257 0.383919
Si Si6 0.190101 0.745500 0.390229
Si Si7 0.688202 0.181909 0.089045
Si Si8 0.545454 0.798358 0.397234
O O1 0.426948 0.137065 0.191036
O O2 0.330037 0.190418 0.264370
O O3 0.351008 0.000000 0.217044
O O4 0.349138 0.130044 0.020104
O O5 0.750000 0.620265 0.252585
O O6 0.821385 0.500000 0.135515
O O7 0.848699 0.627596 0.326606
O O8 0.822432 0.697010 0.089812
O O9 0.024599 0.188480 0.754298
O O10 0.004188 0.000000 0.827128
O O11 0.000000 0.150445 0.000000
O O12 0.596136 0.500000 0.481113
O O13 0.648393 0.653842 0.583443
O O14 0.560917 0.681897 0.428687
O O15 0.805308 0.814901 0.478034
O O16 0.827945 0.864012 0.230655
O O17 0.902999 0.868762 0.419173
O O18 0.825116 0.000000 0.417948
O O19 0.250000 0.703917 0.358226
O O20 0.750000 0.157113 0.056372
O O21 0.500000 0.835482 0.500000
#
# Coordination Sequence:
#
# PCOD8213730 Si02
#       8
#     8   8   8   8   8   8   8   8
#     4  11  24  39  55  81 122 165 197 232 288 351
#     4   9  17  33  59  86 110 139 181 236 292 341
#     4  10  21  37  58  82 111 154 204 246 287 340
#     4  10  21  38  62  88 113 144 189 244 300 349
#     4  11  22  35  55  83 114 149 196 246 285 335
#     4  11  22  37  56  84 118 155 193 229 284 355
#     4  11  21  36  58  87 117 151 195 238 287 344
#     4  11  22  37  58  83 112 149 191 246 299 345
#
# _framework density 19.463592999999999
#
# number of rings (size 3 to 8) (size 9 to 14) (size 15 to 20)
#    0.000    1.500    2.500    4.500    0.000    7.000 
#    0.000    0.625    0.000    2.625    0.000    0.000 
#    0.000    0.000    0.000    0.000    0.000    0.000 
#
# Total GULP energy -793685.363493 kJ/mol
# GULP energy per Si atom -12401.333805 kJ/mol
# Density = 1.941929 g / cm^3
# Si number density = 19.463593 Si / 1000 Ang^3
#
#
#
# Elastic Constant Matrix: (Units=GPa)
#
#
# Indices 1 2 3 4 5 6 
#
# 1 72.4735 16.2410 14.1129 0.0000 0.0000 0.0000
# 2 16.2410 82.8891 12.5002 0.0000 0.0000 0.0000
# 3 14.1129 12.5002 76.4600 0.0000 0.0000 0.0000
# 4 0.0000 0.0000 0.0000 24.8125 0.0000 0.0000
# 5 0.0000 0.0000 0.0000 0.0000 35.9702 0.0000
# 6 0.0000 0.0000 0.0000 0.0000 0.0000 14.3127
#
#
#
# Elastic Compliance Matrix: (Units=1/GPa)
#
#
# Indices 1 2 3 4 5 6 
#
# 1 0.014822 -0.002555 -0.002318 0.000000 0.000000 0.000000
# 2 -0.002555 0.012810 -0.001623 0.000000 0.000000 0.000000
# 3 -0.002318 -0.001623 0.013772 0.000000 0.000000 0.000000
# 4 0.000000 0.000000 0.000000 0.040302 0.000000 0.000000
# 5 0.000000 0.000000 0.000000 0.000000 0.027801 0.000000
# 6 0.000000 0.000000 0.000000 0.000000 0.000000 0.069868
#
#
# Mechanical properties :
#
#
# Convention : Reuss Voigt Hill
#
# Bulk Modulus (GPa) = 35.19563 35.28120 35.23842
# Shear Modulus (GPa) = 24.77254 27.61699 26.19477
#
# Velocity S-wave (km/s) = 3.57145 3.77092 3.67254
# Velocity P-wave (km/s) = 5.92698 6.09310 6.01062
#
# Compressibility (1/GPa) = 0.02841262
#
# Stress axis : x y z
#
# Youngs Moduli (GPa) = 67.46705 78.06672 72.61162
#
# Poissons Ratio (x) = 0.19943 0.16833
# Poissons Ratio (y) = 0.17235 0.11782
# Poissons Ratio (z) = 0.15640 0.12668
#
# Static dielectric constant tensor:
#      x y z
#    x 3.697800 0.000000 0.000000 
#    y 0.000000 3.736840 0.000000 
#    z 0.000000 0.000000 3.408470 
# 
# 
# High freq. dielectric constant tensor:
#      x y z
#    x 1.764880 0.000000 0.000000 
#    y 0.000000 1.751490 0.000000 
#    z 0.000000 0.000000 1.745960 
# 
# From -- ./inp_files/11893.got.cif
#   From: 2010.03.12/outbox.cif.g09.slc.cpg/sg51_6_cif.got.tgz:11893.got - 2010.04.16 13:43:02.
