data_PCOD8213849
_publ_section_title
;
Structure prediction by ZEFSAII (Michael W. Deem and Ramdas Pophale) SiO2 
 PCOD8213849
Probable space group: P M M A
;
_chemical_formula_sum "Si O2"
_cell_formula_units_Z 56
_cell_length_a 16.124881
_cell_length_b 8.844602
_cell_length_c 19.111219
_cell_angle_alpha 90.000000
_cell_angle_beta 90.000000
_cell_angle_gamma 90.000000
_cell_volume 2725.606789
_symmetry_space_group_name_H-M "P M M A"
_symmetry_group_IT_number 51
_symmetry_cell_setting 'orthorhombic'
loop_
_space_group_symop_operation_xyz
x,y,z
1/2-x,-y,z
1/2+x,-y,-z
-x,y,-z
-x,-y,-z
1/2+x,y,-z
1/2-x,y,z
x,-y,z
loop_
_atom_site_type_symbol
_atom_site_label
_atom_site_fract_x
_atom_site_fract_y
_atom_site_fract_z
Si Si1 0.508217 0.821837 0.422470
Si Si2 0.499246 0.169543 0.162245
Si Si3 0.099965 0.172621 0.296313
Si Si4 0.750000 0.677899 0.780318
Si Si5 0.157012 0.671349 0.647937
Si Si6 0.418497 0.322575 0.042410
Si Si7 0.250000 0.180136 0.065001
Si Si8 0.341563 0.326165 0.810350
O O1 0.500000 0.750448 0.500000
O O2 0.434863 0.763932 0.370521
O O3 0.598729 0.782185 0.394663
O O4 0.500685 0.000000 0.425782
O O5 0.478683 0.178007 0.244165
O O6 0.435681 0.280923 0.123079
O O7 0.593333 0.222914 0.148340
O O8 0.488530 0.000000 0.132800
O O9 0.171477 0.279468 0.267282
O O10 0.132991 0.000000 0.302574
O O11 0.750000 0.500000 0.796093
O O12 0.750000 0.764308 0.854329
O O13 0.250000 0.691022 0.618595
O O14 0.126013 0.500000 0.637579
O O15 0.155881 0.714195 0.729083
O O16 0.405845 0.500000 0.031688
O O17 0.331575 0.240715 0.023246
O O18 0.500000 0.263852 0.000000
O O19 0.250000 0.000000 0.065270
O O20 0.250000 0.292508 0.840396
O O21 0.365741 0.500000 0.823329
#
# Coordination Sequence:
#
# PCOD8213849 Si02
#       8
#     8   8   8   4   8   8   4   8
#     4  10  21  38  58  81 112 153 198 243 300 365
#     4  11  21  35  61  91 120 155 197 252 308 361
#     4  10  21  38  59  86 120 155 195 252 312 363
#     4  12  24  38  64  96 122 157 206 255 308 371
#     4   9  18  33  54  79 108 143 183 229 282 340
#     4  11  25  45  68  94 126 167 212 258 308 373
#     4  12  24  42  70 100 132 169 208 259 318 375
#     4   9  18  33  54  81 114 152 191 236 291 350
#
# _framework density 20.545883
#
# number of rings (size 3 to 8) (size 9 to 14) (size 15 to 20)
#    0.000    1.714    2.857    3.000    0.000    3.143 
#    2.571    1.429    0.000    0.000    0.000    0.000 
#    0.000    0.000    0.000    0.000    0.000    0.000 
#
# Total GULP energy -694285.732176 kJ/mol
# GULP energy per Si atom -12397.959503 kJ/mol
# Density = 2.049912 g / cm^3
# Si number density = 20.545883 Si / 1000 Ang^3
#
#
#
# Elastic Constant Matrix: (Units=GPa)
#
#
# Indices 1 2 3 4 5 6 
#
# 1 141.1034 48.1662 29.4882 0.0000 0.0000 0.0000
# 2 48.1662 73.7711 21.7811 0.0000 0.0000 0.0000
# 3 29.4882 21.7811 53.5499 0.0000 0.0000 0.0000
# 4 0.0000 0.0000 0.0000 21.8219 0.0000 0.0000
# 5 0.0000 0.0000 0.0000 0.0000 20.9462 0.0000
# 6 0.0000 0.0000 0.0000 0.0000 0.0000 38.1719
#
#
#
# Elastic Compliance Matrix: (Units=1/GPa)
#
#
# Indices 1 2 3 4 5 6 
#
# 1 0.009550 -0.005322 -0.003094 0.000000 0.000000 0.000000
# 2 -0.005322 0.018371 -0.004542 0.000000 0.000000 0.000000
# 3 -0.003094 -0.004542 0.022225 0.000000 0.000000 0.000000
# 4 0.000000 0.000000 0.000000 0.045825 0.000000 0.000000
# 5 0.000000 0.000000 0.000000 0.000000 0.047741 0.000000
# 6 0.000000 0.000000 0.000000 0.000000 0.000000 0.026197
#
#
# Mechanical properties :
#
#
# Convention : Reuss Voigt Hill
#
# Bulk Modulus (GPa) = 41.26974 51.92173 46.59573
# Shear Modulus (GPa) = 24.52133 27.45394 25.98763
#
# Velocity S-wave (km/s) = 3.45844 3.65941 3.56034
# Velocity P-wave (km/s) = 6.00650 6.57122 6.29520
#
# Compressibility (1/GPa) = 0.02423083
#
# Stress axis : x y z
#
# Youngs Moduli (GPa) = 104.70838 54.43315 44.99340
#
# Poissons Ratio (x) = 0.28969 0.13923
# Poissons Ratio (y) = 0.55725 0.20435
# Poissons Ratio (z) = 0.32401 0.24722
#
# Static dielectric constant tensor:
#      x y z
#    x 3.928810 0.000000 0.000000 
#    y 0.000000 3.559190 0.000000 
#    z 0.000000 0.000000 3.727280 
# 
# 
# High freq. dielectric constant tensor:
#      x y z
#    x 1.815330 0.000000 0.000000 
#    y 0.000000 1.792230 0.000000 
#    z 0.000000 0.000000 1.784910 
# 
# From -- ./inp_files/33537.got.cif
#   From: 2010.03.12/outbox.cif.g09.slc.cpg/sg51_17_cif.got.tgz:33537.got - 2010.04.16 13:43:02.
