data_PCOD8213474
_publ_section_title
;
Structure prediction by ZEFSAII (Michael W. Deem and Ramdas Pophale) SiO2 
 PCOD8213474
Probable space group: P M M A
;
_chemical_formula_sum "Si O2"
_cell_formula_units_Z 48
_cell_length_a 17.040151
_cell_length_b 15.148521
_cell_length_c 9.315447
_cell_angle_alpha 90.000000
_cell_angle_beta 90.000000
_cell_angle_gamma 90.000000
_cell_volume 2404.625075
_symmetry_space_group_name_H-M "P M M A"
_symmetry_group_IT_number 51
_symmetry_cell_setting 'orthorhombic'
loop_
_space_group_symop_operation_xyz
x,y,z
1/2-x,-y,z
1/2+x,-y,-z
-x,y,-z
-x,-y,-z
1/2+x,y,-z
1/2-x,y,z
x,-y,z
loop_
_atom_site_type_symbol
_atom_site_label
_atom_site_fract_x
_atom_site_fract_y
_atom_site_fract_z
Si Si1 0.159324 0.352185 0.274541
Si Si2 0.591068 0.650667 0.032068
Si Si3 0.657893 0.500000 0.222817
Si Si4 0.839537 0.149754 0.725456
Si Si5 0.910666 0.000000 0.542285
Si Si6 0.409186 0.500000 0.467086
Si Si7 0.158578 0.163476 0.945141
Si Si8 0.658526 0.000000 0.234193
O O1 0.250000 0.373853 0.301065
O O2 0.139486 0.250794 0.310734
O O3 0.107557 0.412451 0.376416
O O4 0.140816 0.372472 0.109072
O O5 0.617180 0.586374 0.158482
O O6 0.607652 0.749716 0.085885
O O7 0.500000 0.637695 0.000000
O O8 0.750000 0.500000 0.189661
O O9 0.644334 0.500000 0.392458
O O10 0.750000 0.128675 0.683491
O O11 0.895333 0.087438 0.633899
O O12 0.853246 0.130114 0.892745
O O13 0.856863 0.000000 0.402180
O O14 0.000000 0.000000 0.500000
O O15 0.500000 0.500000 0.500000
O O16 0.250000 0.185814 0.916798
O O17 0.124232 0.088265 0.839803
O O18 0.750000 0.000000 0.201137
#
# Coordination Sequence:
#
# PCOD8213474 Si02
#       8
#     8   8   4   8   4   4   8   4
#     4  10  21  40  63  84 110 155 203 235 273 343
#     4  11  22  38  61  90 120 150 187 240 294 338
#     4  12  24  38  58  86 118 154 194 238 286 342
#     4   9  19  38  62  81 105 147 197 236 272 331
#     4  12  25  36  52  82 120 154 187 230 286 344
#     4  12  25  40  59  88 122 152 186 238 297 346
#     4   9  19  38  63  88 110 144 193 240 284 339
#     4  10  21  36  57  84 115 148 187 236 288 336
#
# _framework density 19.961531999999998
#
# number of rings (size 3 to 8) (size 9 to 14) (size 15 to 20)
#    0.000    1.667    0.000    6.250    0.000    6.000 
#    0.000    2.917    0.000    0.000    0.000    0.000 
#    0.000    0.000    0.000    0.000    0.000    0.000 
#
# Total GULP energy -595449.480154 kJ/mol
# GULP energy per Si atom -12405.197503 kJ/mol
# Density = 1.991610 g / cm^3
# Si number density = 19.961532 Si / 1000 Ang^3
#
#
#
# Elastic Constant Matrix: (Units=GPa)
#
#
# Indices 1 2 3 4 5 6 
#
# 1 57.2921 19.3251 -4.5297 0.0000 0.0000 0.0000
# 2 19.3251 110.7595 52.6658 0.0000 0.0000 0.0000
# 3 -4.5297 52.6658 77.9275 0.0000 0.0000 0.0000
# 4 0.0000 0.0000 0.0000 -23.6497 0.0000 0.0000
# 5 0.0000 0.0000 0.0000 0.0000 27.1645 0.0000
# 6 0.0000 0.0000 0.0000 0.0000 0.0000 23.0798
#
#
#
# Elastic Compliance Matrix: (Units=1/GPa)
#
#
# Indices 1 2 3 4 5 6 
#
# 1 0.019856 -0.005914 0.005151 0.000000 0.000000 0.000000
# 2 -0.005914 0.015065 -0.010525 0.000000 0.000000 0.000000
# 3 0.005151 -0.010525 0.020245 0.000000 0.000000 0.000000
# 4 0.000000 0.000000 0.000000 -0.042284 0.000000 0.000000
# 5 0.000000 0.000000 0.000000 0.000000 0.036813 0.000000
# 6 0.000000 0.000000 0.000000 0.000000 0.000000 0.043328
#
#
# Mechanical properties :
#
#
# Convention : Reuss Voigt Hill
#
# Bulk Modulus (GPa) = 30.68377 42.32237 36.50307
# Shear Modulus (GPa) = 39.53723 17.22012 28.37867
#
# Velocity S-wave (km/s) = 4.45530 2.94030 3.77459
# Velocity P-wave (km/s) = 6.47079 5.72496 6.10927
#
# Compressibility (1/GPa) = 0.03259051
#
# Stress axis : x y z
#
# Youngs Moduli (GPa) = 50.36154 66.37857 49.39464
#
# Poissons Ratio (x) = 0.39255 -0.25443
# Poissons Ratio (y) = 0.29783 0.51989
# Poissons Ratio (z) = -0.25941 0.69865
#
# Static dielectric constant tensor:
#      x y z
#    x 3.521830 0.000000 0.000000 
#    y 0.000000 3.779970 0.000000 
#    z 0.000000 0.000000 3.737360 
# 
# 
# High freq. dielectric constant tensor:
#      x y z
#    x 1.775070 0.000000 0.000000 
#    y 0.000000 1.793420 0.000000 
#    z 0.000000 0.000000 1.777430 
# 
# From -- ./inp_files/9780.got.cif
#   From: 2010.03.12/outbox.cif.g09.slc.cpg/sg51_5_cif.got.tgz:9780.got - 2010.04.16 13:43:02.
