data_PCOD8213375
_publ_section_title
;
Structure prediction by ZEFSAII (Michael W. Deem and Ramdas Pophale) SiO2 
 PCOD8213375
Probable space group: P M M A
;
_chemical_formula_sum "Si O2"
_cell_formula_units_Z 64
_cell_length_a 16.985651
_cell_length_b 20.385641
_cell_length_c 9.884493
_cell_angle_alpha 90.000000
_cell_angle_beta 90.000000
_cell_angle_gamma 90.000000
_cell_volume 3422.637990
_symmetry_space_group_name_H-M "P M M A"
_symmetry_group_IT_number 51
_symmetry_cell_setting 'orthorhombic'
loop_
_space_group_symop_operation_xyz
x,y,z
1/2-x,-y,z
1/2+x,-y,-z
-x,y,-z
-x,-y,-z
1/2+x,y,-z
1/2-x,y,z
x,-y,z
loop_
_atom_site_type_symbol
_atom_site_label
_atom_site_fract_x
_atom_site_fract_y
_atom_site_fract_z
Si Si1 0.842567 0.315883 0.291054
Si Si2 0.157215 0.689403 0.020448
Si Si3 0.343512 0.427634 0.513111
Si Si4 0.658537 0.924830 0.748986
Si Si5 0.939256 0.185489 0.885210
Si Si6 0.910316 0.070710 0.462296
Si Si7 0.048289 0.799476 0.637878
Si Si8 0.843544 0.426618 0.789743
O O1 0.750000 0.307130 0.312128
O O2 0.876290 0.377829 0.374623
O O3 0.882581 0.252603 0.354691
O O4 0.864068 0.325916 0.134580
O O5 0.250000 0.698516 0.042220
O O6 0.116476 0.756243 0.065182
O O7 0.123544 0.628042 0.106938
O O8 0.250000 0.428347 0.516988
O O9 0.375986 0.500000 0.549002
O O10 0.371562 0.407663 0.362028
O O11 0.750000 0.912646 0.773854
O O12 0.611664 0.878381 0.850979
O O13 0.638620 0.907206 0.594030
O O14 0.634521 0.000000 0.779229
O O15 0.986986 0.211467 0.757149
O O16 0.000000 0.163918 0.000000
O O17 0.907435 0.129387 0.352605
O O18 0.000000 0.060007 0.500000
O O19 0.878051 0.000000 0.406196
O O20 0.000000 0.793110 0.500000
O O21 0.750000 0.426990 0.796932
O O22 0.874201 0.500000 0.828081
#
# Coordination Sequence:
#
# PCOD8213375 Si02
#       8
#     8   8   8   8   8   8   8   8
#     4  10  21  36  54  80 113 146 183 233 285 331
#     4  10  21  36  55  80 112 150 190 233 281 339
#     4   8  15  29  51  80 110 140 182 235 285 335
#     4  10  21  38  62  91 117 146 192 244 285 333
#     4  12  23  39  58  81 118 156 191 230 284 339
#     4   9  17  34  59  83 111 142 180 229 280 334
#     4  11  22  38  56  83 110 147 190 230 275 338
#     4   8  15  29  51  80 109 139 182 233 282 335
#
# _framework density 18.699027999999998
#
# number of rings (size 3 to 8) (size 9 to 14) (size 15 to 20)
#    0.000    2.250    3.750    1.125    1.750    1.250 
#    0.000    2.500    0.000    1.500    0.000    0.000 
#    0.000    0.000    0.000    0.000    0.000    0.000 
#
# Total GULP energy -793307.258613 kJ/mol
# GULP energy per Si atom -12395.425916 kJ/mol
# Density = 1.865647 g / cm^3
# Si number density = 18.699028 Si / 1000 Ang^3
#
#
#
# Elastic Constant Matrix: (Units=GPa)
#
#
# Indices 1 2 3 4 5 6 
#
# 1 44.1156 42.1687 34.2694 0.0000 0.0000 0.0000
# 2 42.1687 152.4643 69.5690 0.0000 0.0000 0.0000
# 3 34.2694 69.5690 109.4358 0.0000 0.0000 0.0000
# 4 0.0000 0.0000 0.0000 35.2927 0.0000 0.0000
# 5 0.0000 0.0000 0.0000 0.0000 24.7291 0.0000
# 6 0.0000 0.0000 0.0000 0.0000 0.0000 22.1626
#
#
#
# Elastic Compliance Matrix: (Units=1/GPa)
#
#
# Indices 1 2 3 4 5 6 
#
# 1 0.033846 -0.006374 -0.006547 0.000000 0.000000 0.000000
# 2 -0.006374 0.010439 -0.004640 0.000000 0.000000 0.000000
# 3 -0.006547 -0.004640 0.014138 0.000000 0.000000 0.000000
# 4 0.000000 0.000000 0.000000 0.028334 0.000000 0.000000
# 5 0.000000 0.000000 0.000000 0.000000 0.040438 0.000000
# 6 0.000000 0.000000 0.000000 0.000000 0.000000 0.045121
#
#
# Mechanical properties :
#
#
# Convention : Reuss Voigt Hill
#
# Bulk Modulus (GPa) = 42.91678 66.44778 54.68228
# Shear Modulus (GPa) = 23.23362 27.10413 25.16887
#
# Velocity S-wave (km/s) = 3.52874 3.81135 3.67277
# Velocity P-wave (km/s) = 6.29316 7.41492 6.87695
#
# Compressibility (1/GPa) = 0.02330091
#
# Stress axis : x y z
#
# Youngs Moduli (GPa) = 29.54563 95.79330 70.73250
#
# Poissons Ratio (x) = 0.61057 0.46308
# Poissons Ratio (y) = 0.18832 0.32822
# Poissons Ratio (z) = 0.19343 0.44451
#
# Static dielectric constant tensor:
#      x y z
#    x 3.403640 0.000000 0.000000 
#    y 0.000000 3.956790 0.000000 
#    z 0.000000 0.000000 3.401030 
# 
# 
# High freq. dielectric constant tensor:
#      x y z
#    x 1.701000 0.000000 0.000000 
#    y 0.000000 1.740420 0.000000 
#    z 0.000000 0.000000 1.718200 
# 
# From -- ./inp_files/9993.got.cif
#   From: 2010.03.12/outbox.cif.g09.slc.cpg/sg51_5_cif.got.tgz:9993.got - 2010.04.16 13:43:02.
