data_PCOD8213280
_publ_section_title
;
Structure prediction by ZEFSAII (Michael W. Deem and Ramdas Pophale) SiO2 
 PCOD8213280
Probable space group: P M M A
;
_chemical_formula_sum "Si O2"
_cell_formula_units_Z 48
_cell_length_a 10.017010
_cell_length_b 9.091766
_cell_length_c 28.829766
_cell_angle_alpha 90.000000
_cell_angle_beta 90.000000
_cell_angle_gamma 90.000000
_cell_volume 2625.593413
_symmetry_space_group_name_H-M "P M M A"
_symmetry_group_IT_number 51
_symmetry_cell_setting 'orthorhombic'
loop_
_space_group_symop_operation_xyz
x,y,z
1/2-x,-y,z
1/2+x,-y,-z
-x,y,-z
-x,-y,-z
1/2+x,y,-z
1/2-x,y,z
x,-y,z
loop_
_atom_site_type_symbol
_atom_site_label
_atom_site_fract_x
_atom_site_fract_y
_atom_site_fract_z
Si Si1 0.903094 0.828532 0.294454
Si Si2 0.519451 0.330830 0.101754
Si Si3 0.250000 0.334300 0.047902
Si Si4 0.405386 0.166642 0.811602
Si Si5 0.097267 0.672746 0.364561
Si Si6 0.250000 0.825965 0.952849
Si Si7 0.097072 0.171412 0.459211
O O1 0.750000 0.792288 0.307630
O O2 0.930566 0.785179 0.241225
O O3 0.002020 0.732583 0.324799
O O4 0.932017 0.000000 0.302713
O O5 0.565232 0.500000 0.100884
O O6 0.375248 0.307746 0.080470
O O7 0.513799 0.274908 0.154758
O O8 0.619211 0.234722 0.071609
O O9 0.250000 0.500000 0.027178
O O10 0.250000 0.219283 0.006389
O O11 0.250000 0.178504 0.824195
O O12 0.454879 0.000000 0.819257
O O13 0.250000 0.715133 0.352524
O O14 0.078157 0.500000 0.368546
O O15 0.054552 0.742443 0.413309
O O16 0.250000 0.000000 0.948921
O O17 0.250000 0.205600 0.473385
O O18 0.000000 0.226211 0.500000
O O19 0.075822 0.000000 0.449091
#
# Coordination Sequence:
#
# PCOD8213280 Si02
#       7
#     8   8   4   8   8   4   8
#     4   9  19  36  58  82 108 140 181 229 276 324
#     4  11  22  38  60  83 111 147 181 220 273 328
#     4  10  24  42  56  80 116 146 180 224 269 326
#     4   9  18  35  58  83 110 139 178 226 272 323
#     4  10  21  36  53  78 113 150 186 226 273 326
#     4  12  24  38  60  86 110 142 186 228 267 320
#     4   9  18  33  53  76 104 141 184 228 273 325
#
# _framework density 18.281580999999999
#
# number of rings (size 3 to 8) (size 9 to 14) (size 15 to 20)
#    0.000    2.167    0.833    3.250    0.000    6.333 
#    1.500    3.333    0.000    0.000    0.000    0.000 
#    0.000    0.000    0.000    0.000    0.000    0.000 
#
# Total GULP energy -595333.232962 kJ/mol
# GULP energy per Si atom -12402.775687 kJ/mol
# Density = 1.823997 g / cm^3
# Si number density = 18.281581 Si / 1000 Ang^3
#
#
#
# Elastic Constant Matrix: (Units=GPa)
#
#
# Indices 1 2 3 4 5 6 
#
# 1 99.3601 58.5122 68.6864 0.0000 0.0000 0.0000
# 2 58.5122 106.4504 71.1972 0.0000 0.0000 0.0000
# 3 68.6864 71.1972 133.0839 0.0000 0.0000 0.0000
# 4 0.0000 0.0000 0.0000 4.2070 0.0000 0.0000
# 5 0.0000 0.0000 0.0000 0.0000 20.4489 0.0000
# 6 0.0000 0.0000 0.0000 0.0000 0.0000 24.6292
#
#
#
# Elastic Compliance Matrix: (Units=1/GPa)
#
#
# Indices 1 2 3 4 5 6 
#
# 1 0.017550 -0.005588 -0.006068 0.000000 0.000000 0.000000
# 2 -0.005588 0.016407 -0.005894 0.000000 0.000000 0.000000
# 3 -0.006068 -0.005894 0.013799 0.000000 0.000000 0.000000
# 4 0.000000 0.000000 0.000000 0.237698 0.000000 0.000000
# 5 0.000000 0.000000 0.000000 0.000000 0.048902 0.000000
# 6 0.000000 0.000000 0.000000 0.000000 0.000000 0.040602
#
#
# Mechanical properties :
#
#
# Convention : Reuss Voigt Hill
#
# Bulk Modulus (GPa) = 79.01041 81.74288 80.37664
# Shear Modulus (GPa) = 12.06920 19.22359 15.64639
#
# Velocity S-wave (km/s) = 2.57219 3.24624 2.92867
# Velocity P-wave (km/s) = 7.22039 7.67210 7.44967
#
# Compressibility (1/GPa) = 0.01265656
#
# Stress axis : x y z
#
# Youngs Moduli (GPa) = 56.97970 60.94817 72.46907
#
# Poissons Ratio (x) = 0.34058 0.43977
# Poissons Ratio (y) = 0.31840 0.42710
# Poissons Ratio (z) = 0.34577 0.35920
#
# Static dielectric constant tensor:
#      x y z
#    x 3.305860 0.000000 0.000000 
#    y 0.000000 3.392590 0.000000 
#    z 0.000000 0.000000 3.451580 
# 
# 
# High freq. dielectric constant tensor:
#      x y z
#    x 1.704160 0.000000 0.000000 
#    y 0.000000 1.709930 0.000000 
#    z 0.000000 0.000000 1.716450 
# 
# From -- ./inp_files/37143.got.cif
#   From: 2010.03.12/outbox.cif.g09.slc.cpg/sg51_19_cif.got.tgz:37143.got - 2010.04.16 13:43:02.
