data_PCOD8213959
_publ_section_title
;
Structure prediction by ZEFSAII (Michael W. Deem and Ramdas Pophale) SiO2 
 PCOD8213959
Probable space group: P M M A
;
_chemical_formula_sum "Si O2"
_cell_formula_units_Z 64
_cell_length_a 15.303365
_cell_length_b 8.897749
_cell_length_c 23.754756
_cell_angle_alpha 90.000000
_cell_angle_beta 90.000000
_cell_angle_gamma 90.000000
_cell_volume 3234.578243
_symmetry_space_group_name_H-M "P M M A"
_symmetry_group_IT_number 51
_symmetry_cell_setting 'orthorhombic'
loop_
_space_group_symop_operation_xyz
x,y,z
1/2-x,-y,z
1/2+x,-y,-z
-x,y,-z
-x,-y,-z
1/2+x,y,-z
1/2-x,y,z
x,-y,z
loop_
_atom_site_type_symbol
_atom_site_label
_atom_site_fract_x
_atom_site_fract_y
_atom_site_fract_z
Si Si1 0.651201 0.672528 0.360711
Si Si2 0.992197 0.176157 0.435849
Si Si3 0.651855 0.828217 0.864140
Si Si4 0.651368 0.171825 0.127980
Si Si5 0.089095 0.826350 0.748878
Si Si6 0.347536 0.171731 0.358492
Si Si7 0.597115 0.677027 0.752931
Si Si8 0.996409 0.676083 0.935343
O O1 0.750000 0.687776 0.383323
O O2 0.626549 0.500000 0.348398
O O3 0.587416 0.735786 0.408113
O O4 0.644369 0.765536 0.303217
O O5 0.000000 0.229126 0.500000
O O6 0.082916 0.219591 0.405659
O O7 0.972160 0.000000 0.431414
O O8 0.750000 0.816230 0.888596
O O9 0.650163 0.745967 0.804506
O O10 0.586488 0.756453 0.908525
O O11 0.623455 0.000000 0.854629
O O12 0.750000 0.211648 0.109528
O O13 0.644857 0.196534 0.194829
O O14 0.586185 0.279343 0.094806
O O15 0.628258 0.000000 0.112794
O O16 0.001232 0.733324 0.754526
O O17 0.065934 0.000000 0.738022
O O18 0.250000 0.191561 0.383693
O O19 0.356485 0.277240 0.304647
O O20 0.364006 0.000000 0.339587
O O21 0.598309 0.500000 0.759103
O O22 0.982853 0.500000 0.928169
O O23 0.000000 0.725464 0.000000
#
# Coordination Sequence:
#
# PCOD8213959 Si02
#       8
#     8   8   8   8   8   8   8   8
#     4  11  24  40  60  90 126 163 201 246 303 363
#     4  10  22  40  63  89 117 157 208 257 303 355
#     4  11  24  42  65  92 122 161 206 251 301 358
#     4  10  22  40  64  93 123 158 201 247 299 361
#     4  11  21  37  63  92 123 160 200 245 301 361
#     4  10  21  38  60  87 121 160 200 246 300 360
#     4  12  23  36  60  93 126 159 196 244 305 366
#     4  11  25  43  63  89 122 162 206 253 306 360
#
# _framework density 19.786197000000001
#
# number of rings (size 3 to 8) (size 9 to 14) (size 15 to 20)
#    0.000    1.250    2.500    3.375    0.000    7.250 
#    0.000    3.750    0.000    0.000    0.000    0.000 
#    0.000    0.000    0.000    0.000    0.000    0.000 
#
# Total GULP energy -793917.361180 kJ/mol
# GULP energy per Si atom -12404.958768 kJ/mol
# Density = 1.974116 g / cm^3
# Si number density = 19.786197 Si / 1000 Ang^3
#
#
#
# Elastic Constant Matrix: (Units=GPa)
#
#
# Indices 1 2 3 4 5 6 
#
# 1 135.6677 51.5346 61.4106 0.0000 0.0000 0.0000
# 2 51.5346 104.4716 73.5895 0.0000 0.0000 0.0000
# 3 61.4106 73.5895 139.3859 0.0000 0.0000 0.0000
# 4 0.0000 0.0000 0.0000 51.1034 0.0000 0.0000
# 5 0.0000 0.0000 0.0000 0.0000 3.7111 0.0000
# 6 0.0000 0.0000 0.0000 0.0000 0.0000 25.7030
#
#
#
# Elastic Compliance Matrix: (Units=1/GPa)
#
#
# Indices 1 2 3 4 5 6 
#
# 1 0.009705 -0.002827 -0.002783 0.000000 0.000000 0.000000
# 2 -0.002827 0.016063 -0.007235 0.000000 0.000000 0.000000
# 3 -0.002783 -0.007235 0.012220 0.000000 0.000000 0.000000
# 4 0.000000 0.000000 0.000000 0.019568 0.000000 0.000000
# 5 0.000000 0.000000 0.000000 0.000000 0.269462 0.000000
# 6 0.000000 0.000000 0.000000 0.000000 0.000000 0.038906
#
#
# Mechanical properties :
#
#
# Convention : Reuss Voigt Hill
#
# Bulk Modulus (GPa) = 81.31595 83.62163 82.46879
# Shear Modulus (GPa) = 12.63543 28.96953 20.80248
#
# Velocity S-wave (km/s) = 2.52979 3.83054 3.24599
# Velocity P-wave (km/s) = 7.05122 7.86883 7.47121
#
# Compressibility (1/GPa) = 0.01229771
#
# Stress axis : x y z
#
# Youngs Moduli (GPa) = 103.04466 62.25641 81.83062
#
# Poissons Ratio (x) = 0.17597 0.22776
# Poissons Ratio (y) = 0.29126 0.59205
# Poissons Ratio (z) = 0.28681 0.45043
#
# Static dielectric constant tensor:
#      x y z
#    x 3.685080 0.000000 0.000000 
#    y 0.000000 3.680750 0.000000 
#    z 0.000000 0.000000 3.627660 
# 
# 
# High freq. dielectric constant tensor:
#      x y z
#    x 1.786500 0.000000 0.000000 
#    y 0.000000 1.776180 0.000000 
#    z 0.000000 0.000000 1.765940 
# 
# From -- ./inp_files/35719.got.cif
#   From: 2010.03.12/outbox.cif.g09.slc.cpg/sg51_18_cif.got.tgz:35719.got - 2010.04.16 13:43:02.
