data_PCOD8213896
_publ_section_title
;
Structure prediction by ZEFSAII (Michael W. Deem and Ramdas Pophale) SiO2 
 PCOD8213896
Probable space group: P M M A
;
_chemical_formula_sum "Si O2"
_cell_formula_units_Z 40
_cell_length_a 8.547813
_cell_length_b 24.836518
_cell_length_c 9.650659
_cell_angle_alpha 90.000000
_cell_angle_beta 90.000000
_cell_angle_gamma 90.000000
_cell_volume 2048.814750
_symmetry_space_group_name_H-M "P M M A"
_symmetry_group_IT_number 51
_symmetry_cell_setting 'orthorhombic'
loop_
_space_group_symop_operation_xyz
x,y,z
1/2-x,-y,z
1/2+x,-y,-z
-x,y,-z
-x,-y,-z
1/2+x,y,-z
1/2-x,y,z
x,-y,z
loop_
_atom_site_type_symbol
_atom_site_label
_atom_site_fract_x
_atom_site_fract_y
_atom_site_fract_z
Si Si1 0.933008 0.353871 0.146792
Si Si2 0.930068 0.438553 0.650802
Si Si3 0.932155 0.937202 0.852845
Si Si4 0.434509 0.239473 0.151047
Si Si5 0.434256 0.148385 0.653808
O O1 0.750000 0.342835 0.133861
O O2 0.966031 0.401757 0.251443
O O3 0.014787 0.299096 0.197382
O O4 0.000000 0.372435 0.000000
O O5 0.750000 0.419825 0.652405
O O6 0.945640 0.500000 0.701721
O O7 0.000000 0.431690 0.500000
O O8 0.750000 0.922774 0.849522
O O9 0.019246 0.906745 0.729700
O O10 0.964079 0.000000 0.829725
O O11 0.000000 0.917913 0.000000
O O12 0.250000 0.235555 0.144377
O O13 0.496843 0.198932 0.265309
O O14 0.500000 0.224424 0.000000
O O15 0.500000 0.147324 0.500000
O O16 0.250000 0.153812 0.647610
#
# Coordination Sequence:
#
# PCOD8213896 Si02
#       5
#     8   8   8   8   8
#     4  11  22  38  60  87 117 150 191 238 289 340
#     4  10  21  38  59  84 115 152 193 236 285 342
#     4  10  21  39  63  90 119 154 196 239 285 339
#     4  11  22  40  63  87 116 151 192 236 286 342
#     4  12  25  41  60  86 119 154 194 239 290 343
#
# _framework density 19.523485000000001
#
# number of rings (size 3 to 8) (size 9 to 14) (size 15 to 20)
#    0.000    1.200    0.000    8.400    0.000    4.000 
#    0.000    4.000    0.000    0.000    0.000    0.000 
#    0.000    0.000    0.000    0.000    0.000    0.000 
#
# Total GULP energy -496230.499261 kJ/mol
# GULP energy per Si atom -12405.762482 kJ/mol
# Density = 1.947905 g / cm^3
# Si number density = 19.523485 Si / 1000 Ang^3
#
#
#
# Elastic Constant Matrix: (Units=GPa)
#
#
# Indices 1 2 3 4 5 6 
#
# 1 175.7553 51.8078 66.3717 0.0000 0.0000 0.0000
# 2 51.8078 101.4063 75.7560 0.0000 0.0000 0.0000
# 3 66.3717 75.7560 132.5349 0.0000 0.0000 0.0000
# 4 0.0000 0.0000 0.0000 4.6651 0.0000 0.0000
# 5 0.0000 0.0000 0.0000 0.0000 37.8794 0.0000
# 6 0.0000 0.0000 0.0000 0.0000 0.0000 37.1776
#
#
#
# Elastic Compliance Matrix: (Units=1/GPa)
#
#
# Indices 1 2 3 4 5 6 
#
# 1 0.007184 -0.001715 -0.002617 0.000000 0.000000 0.000000
# 2 -0.001715 0.017620 -0.009212 0.000000 0.000000 0.000000
# 3 -0.002617 -0.009212 0.014122 0.000000 0.000000 0.000000
# 4 0.000000 0.000000 0.000000 0.214357 0.000000 0.000000
# 5 0.000000 0.000000 0.000000 0.000000 0.026400 0.000000
# 6 0.000000 0.000000 0.000000 0.000000 0.000000 0.026898
#
#
# Mechanical properties :
#
#
# Convention : Reuss Voigt Hill
#
# Bulk Modulus (GPa) = 84.48989 88.61863 86.55426
# Shear Modulus (GPa) = 14.80984 30.32849 22.56916
#
# Velocity S-wave (km/s) = 2.75719 3.94564 3.40369
# Velocity P-wave (km/s) = 7.31479 8.13921 7.73799
#
# Compressibility (1/GPa) = 0.01183574
#
# Stress axis : x y z
#
# Youngs Moduli (GPa) = 139.20623 56.75488 70.81315
#
# Poissons Ratio (x) = 0.09732 0.18534
# Poissons Ratio (y) = 0.23871 0.65237
# Poissons Ratio (z) = 0.36434 0.52285
#
# Static dielectric constant tensor:
#      x y z
#    x 3.788510 0.000000 0.000000 
#    y 0.000000 3.656450 0.000000 
#    z 0.000000 0.000000 3.491380 
# 
# 
# High freq. dielectric constant tensor:
#      x y z
#    x 1.785450 0.000000 0.000000 
#    y 0.000000 1.770970 0.000000 
#    z 0.000000 0.000000 1.760760 
# 
# From -- ./inp_files/5219.got.cif
#   From: 2010.03.12/outbox.cif.g09.slc.cpg/sg51_3_cif.got.tgz:5219.got - 2010.04.16 13:43:02.
