data_PCOD8213774
_publ_section_title
;
Structure prediction by ZEFSAII (Michael W. Deem and Ramdas Pophale) SiO2 
 PCOD8213774
Probable space group: P M M A
;
_chemical_formula_sum "Si O2"
_cell_formula_units_Z 40
_cell_length_a 15.759494
_cell_length_b 8.852615
_cell_length_c 14.548801
_cell_angle_alpha 90.000000
_cell_angle_beta 90.000000
_cell_angle_gamma 90.000000
_cell_volume 2029.742989
_symmetry_space_group_name_H-M "P M M A"
_symmetry_group_IT_number 51
_symmetry_cell_setting 'orthorhombic'
loop_
_space_group_symop_operation_xyz
x,y,z
1/2-x,-y,z
1/2+x,-y,-z
-x,y,-z
-x,-y,-z
1/2+x,y,-z
1/2-x,y,z
x,-y,z
loop_
_atom_site_type_symbol
_atom_site_label
_atom_site_fract_x
_atom_site_fract_y
_atom_site_fract_z
Si Si1 0.250000 0.178649 0.719364
Si Si2 0.915673 0.677010 0.605666
Si Si3 0.250000 0.679714 0.919759
Si Si4 0.107085 0.679247 0.597374
Si Si5 0.846768 0.831848 0.777376
Si Si6 0.905702 0.821494 0.971724
O O1 0.250000 0.260048 0.816706
O O2 0.332765 0.227230 0.663549
O O3 0.250000 0.000000 0.734468
O O4 0.917769 0.500000 0.600742
O O5 0.876604 0.731143 0.508311
O O6 0.857327 0.728023 0.688981
O O7 0.011820 0.731295 0.622175
O O8 0.250000 0.500000 0.919357
O O9 0.164532 0.735584 0.969066
O O10 0.122176 0.500000 0.610816
O O11 0.750000 0.828907 0.809328
O O12 0.875976 0.000000 0.749826
O O13 0.899429 0.773328 0.864864
O O14 0.890335 0.000000 0.984165
O O15 0.000000 0.772011 0.000000
#
# Coordination Sequence:
#
# PCOD8213774 Si02
#       6
#     4   8   4   8   8   8
#     4  12  26  40  61  88 119 160 203 246 300 358
#     4   9  20  38  62  87 119 157 197 244 298 355
#     4  12  26  44  65  92 125 160 205 260 308 368
#     4   9  20  41  61  85 119 157 198 248 299 346
#     4  10  21  37  58  88 125 157 193 245 299 354
#     4  10  22  43  68  91 122 163 206 254 310 367
#
# _framework density 19.70693
#
# number of rings (size 3 to 8) (size 9 to 14) (size 15 to 20)
#    0.000    2.000    1.000    3.000    4.200    3.200 
#    0.000    2.000    0.000    0.000    0.000    0.000 
#    0.000    0.000    0.000    0.000    0.000    0.000 
#
# Total GULP energy -495965.169337 kJ/mol
# GULP energy per Si atom -12399.129233 kJ/mol
# Density = 1.966208 g / cm^3
# Si number density = 19.706930 Si / 1000 Ang^3
#
#
#
# Elastic Constant Matrix: (Units=GPa)
#
#
# Indices 1 2 3 4 5 6 
#
# 1 103.0821 41.8539 59.7171 0.0000 0.0000 0.0000
# 2 41.8539 63.4273 39.1376 0.0000 0.0000 0.0000
# 3 59.7171 39.1376 137.3393 0.0000 0.0000 0.0000
# 4 0.0000 0.0000 0.0000 28.5344 0.0000 0.0000
# 5 0.0000 0.0000 0.0000 0.0000 34.1566 0.0000
# 6 0.0000 0.0000 0.0000 0.0000 0.0000 18.9753
#
#
#
# Elastic Compliance Matrix: (Units=1/GPa)
#
#
# Indices 1 2 3 4 5 6 
#
# 1 0.015310 -0.007274 -0.004584 0.000000 0.000000 0.000000
# 2 -0.007274 0.022586 -0.003273 0.000000 0.000000 0.000000
# 3 -0.004584 -0.003273 0.010207 0.000000 0.000000 0.000000
# 4 0.000000 0.000000 0.000000 0.035045 0.000000 0.000000
# 5 0.000000 0.000000 0.000000 0.000000 0.029277 0.000000
# 6 0.000000 0.000000 0.000000 0.000000 0.000000 0.052700
#
#
# Mechanical properties :
#
#
# Convention : Reuss Voigt Hill
#
# Bulk Modulus (GPa) = 56.05383 65.02955 60.54169
# Shear Modulus (GPa) = 24.83414 27.20927 26.02170
#
# Velocity S-wave (km/s) = 3.55374 3.71980 3.63772
# Velocity P-wave (km/s) = 6.73381 7.17769 6.95929
#
# Compressibility (1/GPa) = 0.01783999
#
# Stress axis : x y z
#
# Youngs Moduli (GPa) = 65.31613 44.27545 97.96876
#
# Poissons Ratio (x) = 0.32206 0.44911
# Poissons Ratio (y) = 0.47512 0.32069
# Poissons Ratio (z) = 0.29942 0.14493
#
# Static dielectric constant tensor:
#      x y z
#    x 3.997870 0.000000 0.000000 
#    y 0.000000 3.435970 0.000000 
#    z 0.000000 0.000000 3.790790 
# 
# 
# High freq. dielectric constant tensor:
#      x y z
#    x 1.775640 0.000000 0.000000 
#    y 0.000000 1.752770 0.000000 
#    z 0.000000 0.000000 1.782500 
# 
# From -- ./inp_files/23792.got.cif
#   From: 2010.03.12/outbox.cif.g09.slc.cpg/sg51_12_cif.got.tgz:23792.got - 2010.04.16 13:43:02.
