data_PCOD8213461
_publ_section_title
;
Structure prediction by ZEFSAII (Michael W. Deem and Ramdas Pophale) SiO2 
 PCOD8213461
Probable space group: P M M A
;
_chemical_formula_sum "Si O2"
_cell_formula_units_Z 64
_cell_length_a 8.711173
_cell_length_b 14.677646
_cell_length_c 24.841483
_cell_angle_alpha 90.000000
_cell_angle_beta 90.000000
_cell_angle_gamma 90.000000
_cell_volume 3176.219932
_symmetry_space_group_name_H-M "P M M A"
_symmetry_group_IT_number 51
_symmetry_cell_setting 'orthorhombic'
loop_
_space_group_symop_operation_xyz
x,y,z
1/2-x,-y,z
1/2+x,-y,-z
-x,y,-z
-x,-y,-z
1/2+x,y,-z
1/2-x,y,z
x,-y,z
loop_
_atom_site_type_symbol
_atom_site_label
_atom_site_fract_x
_atom_site_fract_y
_atom_site_fract_z
Si Si1 0.075167 0.099852 0.909066
Si Si2 0.570476 0.254371 0.369269
Si Si3 0.429917 0.902198 0.203281
Si Si4 0.930819 0.894724 0.556991
Si Si5 0.432594 0.721239 0.254935
Si Si6 0.069392 0.605755 0.838899
Si Si7 0.572559 0.705994 0.054157
Si Si8 0.075178 0.600996 0.442425
O O1 0.250000 0.107360 0.887971
O O2 0.039607 0.184961 0.947749
O O3 0.962126 0.110081 0.859351
O O4 0.049298 0.000000 0.937186
O O5 0.750000 0.239411 0.360690
O O6 0.498797 0.161155 0.392752
O O7 0.493218 0.289988 0.314778
O O8 0.538152 0.335351 0.409840
O O9 0.250000 0.901461 0.212156
O O10 0.502004 0.818493 0.235729
O O11 0.497399 0.000000 0.223460
O O12 0.750000 0.879642 0.554705
O O13 0.000000 0.860335 0.500000
O O14 0.974491 0.000000 0.566604
O O15 0.250000 0.718457 0.254782
O O16 0.491018 0.642292 0.215346
O O17 0.250000 0.621302 0.832989
O O18 0.027125 0.500000 0.845635
O O19 0.004914 0.659649 0.891552
O O20 0.750000 0.682300 0.051796
O O21 0.500000 0.663695 0.000000
O O22 0.250000 0.639846 0.444472
O O23 0.077173 0.500000 0.416659
O O24 0.000000 0.595899 0.500000
#
# Coordination Sequence:
#
# PCOD8213461 Si02
#       8
#     8   8   8   8   8   8   8   8
#     4   9  17  31  53  80 111 147 185 225 271 328
#     4  12  25  39  59  87 122 160 201 247 296 355
#     4   9  18  33  55  82 110 142 180 223 273 330
#     4  10  21  39  63  90 124 166 211 258 305 354
#     4  11  23  39  60  86 116 150 192 240 293 351
#     4  10  22  42  64  84 111 149 192 241 299 359
#     4  10  21  36  56  84 117 150 189 235 287 346
#     4  10  21  39  63  89 118 152 192 240 295 354
#
# _framework density 20.149739
#
# number of rings (size 3 to 8) (size 9 to 14) (size 15 to 20)
#    0.000    1.875    1.250    2.625    0.000    4.750 
#    0.000    1.250    0.000    0.000    0.000    0.000 
#    0.000    0.000    0.000    0.000    0.000    0.000 
#
# Total GULP energy -793353.270464 kJ/mol
# GULP energy per Si atom -12396.144851 kJ/mol
# Density = 2.010388 g / cm^3
# Si number density = 20.149739 Si / 1000 Ang^3
#
#
#
# Elastic Constant Matrix: (Units=GPa)
#
#
# Indices 1 2 3 4 5 6 
#
# 1 57.1370 39.5099 28.5110 0.0000 0.0000 0.0000
# 2 39.5099 112.4351 53.1856 0.0000 0.0000 0.0000
# 3 28.5110 53.1856 110.3934 0.0000 0.0000 0.0000
# 4 0.0000 0.0000 0.0000 10.0919 0.0000 0.0000
# 5 0.0000 0.0000 0.0000 0.0000 30.9273 0.0000
# 6 0.0000 0.0000 0.0000 0.0000 0.0000 25.1504
#
#
#
# Elastic Compliance Matrix: (Units=1/GPa)
#
#
# Indices 1 2 3 4 5 6 
#
# 1 0.023741 -0.007049 -0.002736 0.000000 0.000000 0.000000
# 2 -0.007049 0.013612 -0.004738 0.000000 0.000000 0.000000
# 3 -0.002736 -0.004738 0.012048 0.000000 0.000000 0.000000
# 4 0.000000 0.000000 0.000000 0.099089 0.000000 0.000000
# 5 0.000000 0.000000 0.000000 0.000000 0.032334 0.000000
# 6 0.000000 0.000000 0.000000 0.000000 0.000000 0.039761
#
#
# Mechanical properties :
#
#
# Convention : Reuss Voigt Hill
#
# Bulk Modulus (GPa) = 49.12359 58.04207 53.58283
# Shear Modulus (GPa) = 19.49975 23.81784 21.65880
#
# Velocity S-wave (km/s) = 3.11423 3.44181 3.28211
# Velocity P-wave (km/s) = 6.11256 6.68301 6.40414
#
# Compressibility (1/GPa) = 0.02035682
#
# Stress axis : x y z
#
# Youngs Moduli (GPa) = 42.12146 73.46497 83.00463
#
# Poissons Ratio (x) = 0.51782 0.22707
# Poissons Ratio (y) = 0.29690 0.39324
# Poissons Ratio (z) = 0.11523 0.34805
#
# Static dielectric constant tensor:
#      x y z
#    x 3.583210 0.000000 0.000000 
#    y 0.000000 4.035920 0.000000 
#    z 0.000000 0.000000 3.607280 
# 
# 
# High freq. dielectric constant tensor:
#      x y z
#    x 1.782200 0.000000 0.000000 
#    y 0.000000 1.798730 0.000000 
#    z 0.000000 0.000000 1.775440 
# 
# From -- ./inp_files/35012.got.cif
#   From: 2010.03.12/outbox.cif.g09.slc.cpg/sg51_18_cif.got.tgz:35012.got - 2010.04.16 13:43:02.
