data_PCOD8213597
_publ_section_title
;
Structure prediction by ZEFSAII (Michael W. Deem and Ramdas Pophale) SiO2 
 PCOD8213597
Probable space group: P M M A
;
_chemical_formula_sum "Si O2"
_cell_formula_units_Z 48
_cell_length_a 8.892003
_cell_length_b 14.286084
_cell_length_c 20.688584
_cell_angle_alpha 90.000000
_cell_angle_beta 90.000000
_cell_angle_gamma 90.000000
_cell_volume 2628.110171
_symmetry_space_group_name_H-M "P M M A"
_symmetry_group_IT_number 51
_symmetry_cell_setting 'orthorhombic'
loop_
_space_group_symop_operation_xyz
x,y,z
1/2-x,-y,z
1/2+x,-y,-z
-x,y,-z
-x,-y,-z
1/2+x,y,-z
1/2-x,y,z
x,-y,z
loop_
_atom_site_type_symbol
_atom_site_label
_atom_site_fract_x
_atom_site_fract_y
_atom_site_fract_z
Si Si1 0.573474 0.607711 0.933138
Si Si2 0.575390 0.893968 0.386991
Si Si3 0.928241 0.101391 0.240882
Si Si4 0.928123 0.295018 0.187447
Si Si5 0.576010 0.609449 0.692016
Si Si6 0.073385 0.717076 0.435744
O O1 0.750000 0.623532 0.937887
O O2 0.533079 0.500000 0.918438
O O3 0.507471 0.670485 0.876789
O O4 0.500000 0.640623 0.000000
O O5 0.750000 0.865626 0.391813
O O6 0.514420 0.883297 0.313797
O O7 0.478273 0.824887 0.430974
O O8 0.550328 0.000000 0.411308
O O9 0.750000 0.098964 0.243327
O O10 0.982874 0.187378 0.196681
O O11 0.987447 0.000000 0.214562
O O12 0.750000 0.302913 0.179410
O O13 0.976469 0.356829 0.248275
O O14 0.750000 0.633169 0.706456
O O15 0.551162 0.500000 0.682321
O O16 0.518637 0.659876 0.627014
O O17 0.250000 0.711227 0.443523
O O18 0.000000 0.672181 0.500000
#
# Coordination Sequence:
#
# PCOD8213597 Si02
#       6
#     8   8   8   8   8   8
#     4  10  21  37  56  80 114 151 184 220 263 311
#     4   9  17  33  56  78 103 135 171 214 265 319
#     4   8  15  29  51  79 109 139 171 211 260 311
#     4  11  20  32  57  87 112 140 177 218 262 313
#     4  10  22  39  55  74 103 138 176 220 269 318
#     4  11  23  37  54  74 101 136 176 222 272 323
#
# _framework density 18.264074000000001
#
# number of rings (size 3 to 8) (size 9 to 14) (size 15 to 20)
#    0.000    2.167    1.667    3.000    0.000    5.000 
#    0.000    0.000    0.000    2.500    0.000    0.000 
#    0.000    0.000    0.000    0.000    0.000    0.000 
#
# Total GULP energy -595186.989684 kJ/mol
# GULP energy per Si atom -12399.728952 kJ/mol
# Density = 1.822250 g / cm^3
# Si number density = 18.264074 Si / 1000 Ang^3
#
#
#
# Elastic Constant Matrix: (Units=GPa)
#
#
# Indices 1 2 3 4 5 6 
#
# 1 51.3927 25.0801 37.8246 0.0000 0.0000 0.0000
# 2 25.0801 93.3536 51.9527 0.0000 0.0000 0.0000
# 3 37.8246 51.9527 125.4541 0.0000 0.0000 0.0000
# 4 0.0000 0.0000 0.0000 27.8468 0.0000 0.0000
# 5 0.0000 0.0000 0.0000 0.0000 32.8760 0.0000
# 6 0.0000 0.0000 0.0000 0.0000 0.0000 17.3668
#
#
#
# Elastic Compliance Matrix: (Units=1/GPa)
#
#
# Indices 1 2 3 4 5 6 
#
# 1 0.025804 -0.003382 -0.006379 0.000000 0.000000 0.000000
# 2 -0.003382 0.014363 -0.004928 0.000000 0.000000 0.000000
# 3 -0.006379 -0.004928 0.011935 0.000000 0.000000 0.000000
# 4 0.000000 0.000000 0.000000 0.035911 0.000000 0.000000
# 5 0.000000 0.000000 0.000000 0.000000 0.030417 0.000000
# 6 0.000000 0.000000 0.000000 0.000000 0.000000 0.057581
#
#
# Mechanical properties :
#
#
# Convention : Reuss Voigt Hill
#
# Bulk Modulus (GPa) = 44.00885 55.54614 49.77749
# Shear Modulus (GPa) = 23.47800 25.97411 24.72606
#
# Velocity S-wave (km/s) = 3.58924 3.77522 3.68341
# Velocity P-wave (km/s) = 6.42845 7.03434 6.73821
#
# Compressibility (1/GPa) = 0.02272270
#
# Stress axis : x y z
#
# Youngs Moduli (GPa) = 38.75428 69.62181 83.78512
#
# Poissons Ratio (x) = 0.23548 0.53448
# Poissons Ratio (y) = 0.13107 0.41292
# Poissons Ratio (z) = 0.24722 0.34312
#
# Static dielectric constant tensor:
#      x y z
#    x 3.228600 0.000000 0.000000 
#    y 0.000000 3.707870 0.000000 
#    z 0.000000 0.000000 3.494220 
# 
# 
# High freq. dielectric constant tensor:
#      x y z
#    x 1.697500 0.000000 0.000000 
#    y 0.000000 1.711080 0.000000 
#    z 0.000000 0.000000 1.698920 
# 
# From -- ./inp_files/27566.got.cif
#   From: 2010.03.12/outbox.cif.g09.slc.cpg/sg51_14_cif.got.tgz:27566.got - 2010.04.16 13:43:02.
