data_PCOD8213839
_publ_section_title
;
Structure prediction by ZEFSAII (Michael W. Deem and Ramdas Pophale) SiO2 
 PCOD8213839
Probable space group: P M M A
;
_chemical_formula_sum "Si O2"
_cell_formula_units_Z 48
_cell_length_a 8.908118
_cell_length_b 19.176821
_cell_length_c 15.522389
_cell_angle_alpha 90.000000
_cell_angle_beta 90.000000
_cell_angle_gamma 90.000000
_cell_volume 2651.680156
_symmetry_space_group_name_H-M "P M M A"
_symmetry_group_IT_number 51
_symmetry_cell_setting 'orthorhombic'
loop_
_space_group_symop_operation_xyz
x,y,z
1/2-x,-y,z
1/2+x,-y,-z
-x,y,-z
-x,-y,-z
1/2+x,y,-z
1/2-x,y,z
x,-y,z
loop_
_atom_site_type_symbol
_atom_site_label
_atom_site_fract_x
_atom_site_fract_y
_atom_site_fract_z
Si Si1 0.921798 0.582691 0.587503
Si Si2 0.917921 0.340726 0.916058
Si Si3 0.429456 0.813779 0.267750
Si Si4 0.086203 0.824318 0.080776
Si Si5 0.926675 0.921142 0.587921
Si Si6 0.428721 0.333948 0.737494
O O1 0.750000 0.609797 0.589905
O O2 0.927308 0.500000 0.592461
O O3 0.000000 0.609656 0.500000
O O4 0.015204 0.611020 0.667782
O O5 0.750000 0.372370 0.908274
O O6 0.906267 0.258416 0.928468
O O7 0.011172 0.358761 0.830447
O O8 0.000000 0.373364 0.000000
O O9 0.250000 0.801739 0.266146
O O10 0.485887 0.841442 0.174102
O O11 0.482125 0.871153 0.336030
O O12 0.508375 0.741305 0.290261
O O13 0.250000 0.858073 0.076642
O O14 0.000000 0.857969 0.000000
O O15 0.750000 0.916858 0.576757
O O16 0.000000 0.894159 0.500000
O O17 0.978833 0.000000 0.608979
O O18 0.250000 0.331755 0.740271
#
# Coordination Sequence:
#
# PCOD8213839 Si02
#       6
#     8   8   8   8   8   8
#     4  10  21  38  58  77  99 130 167 206 250 301
#     4   9  16  28  46  70 101 134 168 205 247 294
#     4   9  18  32  48  69  99 130 162 203 249 294
#     4   8  14  24  40  62  89 122 155 191 234 280
#     4   9  18  33  52  71  92 123 162 202 247 299
#     4  11  21  32  50  77 106 135 168 206 249 294
#
# _framework density 18.101731999999998
#
# number of rings (size 3 to 8) (size 9 to 14) (size 15 to 20)
#    0.000    2.667    0.000    3.500    0.000    6.333 
#    0.000    1.667    0.000    1.000    0.000    0.000 
#    0.000    0.000    0.000    0.000    0.000    1.833 
#
# Total GULP energy -595035.300057 kJ/mol
# GULP energy per Si atom -12396.568751 kJ/mol
# Density = 1.806053 g / cm^3
# Si number density = 18.101732 Si / 1000 Ang^3
#
#
#
# Elastic Constant Matrix: (Units=GPa)
#
#
# Indices 1 2 3 4 5 6 
#
# 1 100.2801 22.6886 54.0884 0.0000 0.0000 0.0000
# 2 22.6886 25.9992 36.4234 0.0000 0.0000 0.0000
# 3 54.0884 36.4234 148.4467 0.0000 0.0000 0.0000
# 4 0.0000 0.0000 0.0000 2.2779 0.0000 0.0000
# 5 0.0000 0.0000 0.0000 0.0000 36.4686 0.0000
# 6 0.0000 0.0000 0.0000 0.0000 0.0000 16.9808
#
#
#
# Elastic Compliance Matrix: (Units=1/GPa)
#
#
# Indices 1 2 3 4 5 6 
#
# 1 0.013267 -0.007323 -0.003037 0.000000 0.000000 0.000000
# 2 -0.007323 0.062651 -0.012704 0.000000 0.000000 0.000000
# 3 -0.003037 -0.012704 0.010960 0.000000 0.000000 0.000000
# 4 0.000000 0.000000 0.000000 0.439002 0.000000 0.000000
# 5 0.000000 0.000000 0.000000 0.000000 0.027421 0.000000
# 6 0.000000 0.000000 0.000000 0.000000 0.000000 0.058890
#
#
# Mechanical properties :
#
#
# Convention : Reuss Voigt Hill
#
# Bulk Modulus (GPa) = 24.53994 55.68074 40.11034
# Shear Modulus (GPa) = 7.44156 21.91384 14.67770
#
# Velocity S-wave (km/s) = 2.02975 3.48313 2.85062
# Velocity P-wave (km/s) = 4.36799 6.85587 5.74814
#
# Compressibility (1/GPa) = 0.04074989
#
# Stress axis : x y z
#
# Youngs Moduli (GPa) = 75.37462 15.96154 91.23904
#
# Poissons Ratio (x) = 0.11688 0.27712
# Poissons Ratio (y) = 0.55194 1.15911
# Poissons Ratio (z) = 0.22894 0.20278
#
# Static dielectric constant tensor:
#      x y z
#    x 3.497210 0.000000 0.000000 
#    y 0.000000 2.955630 0.000000 
#    z 0.000000 0.000000 3.668750 
# 
# 
# High freq. dielectric constant tensor:
#      x y z
#    x 1.704650 0.000000 0.000000 
#    y 0.000000 1.651610 0.000000 
#    z 0.000000 0.000000 1.719800 
# 
# From -- ./inp_files/21429.got.cif
#   From: 2010.03.12/outbox.cif.g09.slc.cpg/sg51_11_cif.got.tgz:21429.got - 2010.04.16 13:43:02.
