data_PCOD8213430
_publ_section_title
;
Structure prediction by ZEFSAII (Michael W. Deem and Ramdas Pophale) SiO2 
 PCOD8213430
Probable space group: P M M A
;
_chemical_formula_sum "Si O2"
_cell_formula_units_Z 56
_cell_length_a 9.198502
_cell_length_b 18.965189
_cell_length_c 15.842072
_cell_angle_alpha 90.000000
_cell_angle_beta 90.000000
_cell_angle_gamma 90.000000
_cell_volume 2763.670514
_symmetry_space_group_name_H-M "P M M A"
_symmetry_group_IT_number 51
_symmetry_cell_setting 'orthorhombic'
loop_
_space_group_symop_operation_xyz
x,y,z
1/2-x,-y,z
1/2+x,-y,-z
-x,y,-z
-x,-y,-z
1/2+x,y,-z
1/2-x,y,z
x,-y,z
loop_
_atom_site_type_symbol
_atom_site_label
_atom_site_fract_x
_atom_site_fract_y
_atom_site_fract_z
Si Si1 0.917699 0.577562 0.413532
Si Si2 0.083588 0.917055 0.254713
Si Si3 0.916119 0.296999 0.833991
Si Si4 0.417968 0.579584 0.912819
Si Si5 0.583899 0.283460 0.324291
Si Si6 0.582060 0.856277 0.414245
Si Si7 0.916389 0.845292 0.916549
O O1 0.750000 0.589156 0.434890
O O2 0.945359 0.500000 0.372657
O O3 0.970314 0.638846 0.351327
O O4 0.000000 0.584952 0.500000
O O5 0.250000 0.891986 0.270269
O O6 0.022089 0.882395 0.168136
O O7 0.986097 0.895978 0.334416
O O8 0.074689 0.000000 0.242671
O O9 0.750000 0.320310 0.821961
O O10 0.931362 0.239690 0.908419
O O11 0.013248 0.366377 0.847061
O O12 0.976254 0.259103 0.749902
O O13 0.250000 0.598328 0.927367
O O14 0.436043 0.500000 0.877890
O O15 0.500000 0.589072 0.000000
O O16 0.750000 0.285400 0.291343
O O17 0.568390 0.227965 0.400581
O O18 0.500000 0.877837 0.500000
O O19 0.750000 0.879233 0.422720
O O20 0.750000 0.867789 0.928719
O O21 0.000000 0.870875 0.000000
#
# Coordination Sequence:
#
# PCOD8213430 Si02
#       7
#     8   8   8   8   8   8   8
#     4   9  18  33  52  75 106 144 188 237 290 348
#     4  10  22  43  67  91 124 161 199 246 299 360
#     4  11  22  36  57  84 116 154 198 250 300 354
#     4  10  21  37  56  79 111 151 197 249 302 359
#     4  10  21  36  55  82 115 154 198 246 299 353
#     4  11  23  39  63  92 124 162 205 253 304 362
#     4  10  22  39  61  91 123 159 200 244 298 355
#
# _framework density 20.262906999999998
#
# number of rings (size 3 to 8) (size 9 to 14) (size 15 to 20)
#    0.000    1.857    1.429    2.143    0.000    6.286 
#    0.000    1.429    0.000    0.000    0.000    0.000 
#    0.000    0.000    0.000    0.000    0.000    0.000 
#
# Total GULP energy -694425.177304 kJ/mol
# GULP energy per Si atom -12400.449595 kJ/mol
# Density = 2.021679 g / cm^3
# Si number density = 20.262907 Si / 1000 Ang^3
#
#
#
# Elastic Constant Matrix: (Units=GPa)
#
#
# Indices 1 2 3 4 5 6 
#
# 1 108.1099 39.2039 62.2254 0.0000 0.0000 0.0000
# 2 39.2039 80.0681 34.4481 0.0000 0.0000 0.0000
# 3 62.2254 34.4481 128.6251 0.0000 0.0000 0.0000
# 4 0.0000 0.0000 0.0000 19.4956 0.0000 0.0000
# 5 0.0000 0.0000 0.0000 0.0000 39.2392 0.0000
# 6 0.0000 0.0000 0.0000 0.0000 0.0000 25.8542
#
#
#
# Elastic Compliance Matrix: (Units=1/GPa)
#
#
# Indices 1 2 3 4 5 6 
#
# 1 0.014117 -0.004491 -0.005627 0.000000 0.000000 0.000000
# 2 -0.004491 0.015545 -0.001990 0.000000 0.000000 0.000000
# 3 -0.005627 -0.001990 0.011030 0.000000 0.000000 0.000000
# 4 0.000000 0.000000 0.000000 0.051294 0.000000 0.000000
# 5 0.000000 0.000000 0.000000 0.000000 0.025485 0.000000
# 6 0.000000 0.000000 0.000000 0.000000 0.000000 0.038678
#
#
# Mechanical properties :
#
#
# Convention : Reuss Voigt Hill
#
# Bulk Modulus (GPa) = 60.69887 65.39531 63.04709
# Shear Modulus (GPa) = 26.90246 28.97953 27.94100
#
# Velocity S-wave (km/s) = 3.64767 3.78587 3.71741
# Velocity P-wave (km/s) = 6.91096 7.17314 7.04327
#
# Compressibility (1/GPa) = 0.01647477
#
# Stress axis : x y z
#
# Youngs Moduli (GPa) = 70.83615 64.33010 90.66534
#
# Poissons Ratio (x) = 0.28893 0.51014
# Poissons Ratio (y) = 0.31815 0.18046
# Poissons Ratio (z) = 0.39857 0.12804
#
# Static dielectric constant tensor:
#      x y z
#    x 3.684230 0.000000 0.000000 
#    y 0.000000 3.770890 0.000000 
#    z 0.000000 0.000000 4.009180 
# 
# 
# High freq. dielectric constant tensor:
#      x y z
#    x 1.791340 0.000000 0.000000 
#    y 0.000000 1.797480 0.000000 
#    z 0.000000 0.000000 1.782770 
# 
# From -- ./inp_files/21717.got.cif
#   From: 2010.03.12/outbox.cif.g09.slc.cpg/sg51_11_cif.got.tgz:21717.got - 2010.04.16 13:43:02.
