data_PCOD8213703
_publ_section_title
;
Structure prediction by ZEFSAII (Michael W. Deem and Ramdas Pophale) SiO2 
 PCOD8213703
Probable space group: P M M A
;
_chemical_formula_sum "Si O2"
_cell_formula_units_Z 64
_cell_length_a 8.996816
_cell_length_b 14.095696
_cell_length_c 25.999936
_cell_angle_alpha 90.000000
_cell_angle_beta 90.000000
_cell_angle_gamma 90.000000
_cell_volume 3297.217850
_symmetry_space_group_name_H-M "P M M A"
_symmetry_group_IT_number 51
_symmetry_cell_setting 'orthorhombic'
loop_
_space_group_symop_operation_xyz
x,y,z
1/2-x,-y,z
1/2+x,-y,-z
-x,y,-z
-x,-y,-z
1/2+x,y,-z
1/2-x,y,z
x,-y,z
loop_
_atom_site_type_symbol
_atom_site_label
_atom_site_fract_x
_atom_site_fract_y
_atom_site_fract_z
Si Si1 0.921494 0.612427 0.257928
Si Si2 0.925523 0.891469 0.315534
Si Si3 0.922010 0.388877 0.446961
Si Si4 0.576023 0.708678 0.948554
Si Si5 0.073370 0.713897 0.352649
Si Si6 0.920141 0.611962 0.844907
Si Si7 0.576284 0.895662 0.898251
Si Si8 0.413053 0.112618 0.798695
O O1 0.750000 0.642677 0.263723
O O2 0.941576 0.500000 0.261934
O O3 0.016406 0.658964 0.302740
O O4 0.981565 0.649782 0.202804
O O5 0.750000 0.881952 0.325327
O O6 0.965681 0.854746 0.257816
O O7 0.017214 0.823001 0.353151
O O8 0.976715 0.000000 0.324719
O O9 0.750000 0.357872 0.448564
O O10 0.937183 0.500000 0.435948
O O11 0.000000 0.360430 0.500000
O O12 0.007521 0.334710 0.402639
O O13 0.750000 0.691731 0.954555
O O14 0.516470 0.653918 0.898322
O O15 0.535005 0.820548 0.942503
O O16 0.500000 0.669011 0.000000
O O17 0.250000 0.710244 0.354494
O O18 0.750000 0.644498 0.836270
O O19 0.932880 0.500000 0.849143
O O20 0.750000 0.905866 0.892912
O O21 0.522522 0.853205 0.843602
O O22 0.506066 0.000000 0.910658
O O23 0.250000 0.154113 0.810860
O O24 0.405679 0.000000 0.797099
#
# Coordination Sequence:
#
# PCOD8213703 Si02
#       8
#     8   8   8   8   8   8   8   8
#     4  10  21  37  57  83 114 147 185 229 280 341
#     4   9  19  36  55  78 113 154 196 242 288 334
#     4  10  21  39  63  90 122 159 200 246 293 342
#     4  10  22  37  52  73  98 127 169 215 265 325
#     4  12  24  35  55  87 122 160 199 238 284 339
#     4   9  19  37  57  76 102 134 168 215 274 332
#     4   9  18  32  49  70  99 131 163 206 259 317
#     4   8  15  29  49  73  99 130 171 216 264 319
#
# _framework density 19.410302999999999
#
# number of rings (size 3 to 8) (size 9 to 14) (size 15 to 20)
#    0.000    2.375    0.000    3.000    1.750    5.250 
#    0.000    1.250    0.000    0.375    0.000    0.000 
#    0.000    0.000    0.000    0.000    0.000    0.000 
#
# Total GULP energy -793485.774024 kJ/mol
# GULP energy per Si atom -12398.215219 kJ/mol
# Density = 1.936612 g / cm^3
# Si number density = 19.410303 Si / 1000 Ang^3
#
#
#
# Elastic Constant Matrix: (Units=GPa)
#
#
# Indices 1 2 3 4 5 6 
#
# 1 99.5745 41.1697 66.5707 0.0000 0.0000 0.0000
# 2 41.1697 37.1901 51.6270 0.0000 0.0000 0.0000
# 3 66.5707 51.6270 144.3196 0.0000 0.0000 0.0000
# 4 0.0000 0.0000 0.0000 24.9197 0.0000 0.0000
# 5 0.0000 0.0000 0.0000 0.0000 37.6399 0.0000
# 6 0.0000 0.0000 0.0000 0.0000 0.0000 23.9015
#
#
#
# Elastic Compliance Matrix: (Units=1/GPa)
#
#
# Indices 1 2 3 4 5 6 
#
# 1 0.018947 -0.017565 -0.002456 0.000000 0.000000 0.000000
# 2 -0.017565 0.069697 -0.016830 0.000000 0.000000 0.000000
# 3 -0.002456 -0.016830 0.014083 0.000000 0.000000 0.000000
# 4 0.000000 0.000000 0.000000 0.040129 0.000000 0.000000
# 5 0.000000 0.000000 0.000000 0.000000 0.026568 0.000000
# 6 0.000000 0.000000 0.000000 0.000000 0.000000 0.041838
#
#
# Mechanical properties :
#
#
# Convention : Reuss Voigt Hill
#
# Bulk Modulus (GPa) = 34.45427 66.64652 50.55040
# Shear Modulus (GPa) = 16.96989 25.40668 21.18829
#
# Velocity S-wave (km/s) = 2.96002 3.62184 3.30752
# Velocity P-wave (km/s) = 5.42875 7.20420 6.37855
#
# Compressibility (1/GPa) = 0.02902398
#
# Stress axis : x y z
#
# Youngs Moduli (GPa) = 52.77805 14.34783 71.00842
#
# Poissons Ratio (x) = 0.25202 0.17443
# Poissons Ratio (y) = 0.92703 1.19510
# Poissons Ratio (z) = 0.12965 0.24148
#
# Static dielectric constant tensor:
#      x y z
#    x 3.603090 0.000000 0.000000 
#    y 0.000000 3.719480 0.000000 
#    z 0.000000 0.000000 3.594970 
# 
# 
# High freq. dielectric constant tensor:
#      x y z
#    x 1.749470 0.000000 0.000000 
#    y 0.000000 1.760340 0.000000 
#    z 0.000000 0.000000 1.743840 
# 
# From -- ./inp_files/35037.got.cif
#   From: 2010.03.12/outbox.cif.g09.slc.cpg/sg51_18_cif.got.tgz:35037.got - 2010.04.16 13:43:02.
