data_PCOD8213944
_publ_section_title
;
Structure prediction by ZEFSAII (Michael W. Deem and Ramdas Pophale) SiO2 
 PCOD8213944
Probable space group: P M M A
;
_chemical_formula_sum "Si O2"
_cell_formula_units_Z 48
_cell_length_a 8.830198
_cell_length_b 30.196790
_cell_length_c 9.160239
_cell_angle_alpha 90.000000
_cell_angle_beta 90.000000
_cell_angle_gamma 90.000000
_cell_volume 2442.519421
_symmetry_space_group_name_H-M "P M M A"
_symmetry_group_IT_number 51
_symmetry_cell_setting 'orthorhombic'
loop_
_space_group_symop_operation_xyz
x,y,z
1/2-x,-y,z
1/2+x,-y,-z
-x,y,-z
-x,-y,-z
1/2+x,y,-z
1/2-x,y,z
x,-y,z
loop_
_atom_site_type_symbol
_atom_site_label
_atom_site_fract_x
_atom_site_fract_y
_atom_site_fract_z
Si Si1 0.928842 0.369302 0.157733
Si Si2 0.427674 0.206828 0.157140
Si Si3 0.929857 0.708290 0.658028
Si Si4 0.926255 0.948412 0.151843
Si Si5 0.927201 0.549558 0.350106
Si Si6 0.429472 0.123087 0.344145
O O1 0.750000 0.361526 0.148317
O O2 0.970508 0.418188 0.217044
O O3 0.000954 0.334824 0.268369
O O4 0.000000 0.362927 0.000000
O O5 0.250000 0.206540 0.136329
O O6 0.480004 0.249138 0.249337
O O7 0.482226 0.162481 0.237967
O O8 0.500000 0.209424 0.000000
O O9 0.750000 0.703449 0.646758
O O10 0.000000 0.714323 0.500000
O O11 0.750000 0.936580 0.146046
O O12 0.005796 0.922971 0.283851
O O13 0.954898 0.000000 0.180393
O O14 0.000000 0.933090 0.000000
O O15 0.750000 0.549783 0.377265
O O16 0.985618 0.500000 0.311459
O O17 0.000000 0.566974 0.500000
O O18 0.500000 0.133259 0.500000
O O19 0.250000 0.119840 0.358494
#
# Coordination Sequence:
#
# PCOD8213944 Si02
#       6
#     8   8   8   8   8   8
#     4  11  23  38  57  83 115 150 190 235 283 336
#     4  10  23  40  60  86 115 149 188 232 281 335
#     4  11  23  40  61  86 116 150 189 232 282 336
#     4  10  21  38  60  86 116 151 191 235 284 338
#     4   9  19  36  57  81 110 145 186 232 282 336
#     4  11  23  39  59  85 116 151 192 236 284 336
#
# _framework density 19.65184
#
# number of rings (size 3 to 8) (size 9 to 14) (size 15 to 20)
#    0.000    1.667    0.000    4.000    0.000    9.667 
#    0.000    0.000    0.000    0.000    0.000    0.000 
#    0.000    0.000    0.000    0.000    0.000    0.000 
#
# Total GULP energy -595442.866400 kJ/mol
# GULP energy per Si atom -12405.059717 kJ/mol
# Density = 1.960711 g / cm^3
# Si number density = 19.651840 Si / 1000 Ang^3
#
#
#
# Elastic Constant Matrix: (Units=GPa)
#
#
# Indices 1 2 3 4 5 6 
#
# 1 85.0824 53.3448 60.6261 0.0000 0.0000 0.0000
# 2 53.3448 110.3608 71.2443 0.0000 0.0000 0.0000
# 3 60.6261 71.2443 168.8955 0.0000 0.0000 0.0000
# 4 0.0000 0.0000 0.0000 34.9129 0.0000 0.0000
# 5 0.0000 0.0000 0.0000 0.0000 42.0366 0.0000
# 6 0.0000 0.0000 0.0000 0.0000 0.0000 24.5971
#
#
#
# Elastic Compliance Matrix: (Units=1/GPa)
#
#
# Indices 1 2 3 4 5 6 
#
# 1 0.018616 -0.006438 -0.003967 0.000000 0.000000 0.000000
# 2 -0.006438 0.014678 -0.003881 0.000000 0.000000 0.000000
# 3 -0.003967 -0.003881 0.008982 0.000000 0.000000 0.000000
# 4 0.000000 0.000000 0.000000 0.028643 0.000000 0.000000
# 5 0.000000 0.000000 0.000000 0.000000 0.023789 0.000000
# 6 0.000000 0.000000 0.000000 0.000000 0.000000 0.040655
#
#
# Mechanical properties :
#
#
# Convention : Reuss Voigt Hill
#
# Bulk Modulus (GPa) = 72.96289 81.64103 77.30196
# Shear Modulus (GPa) = 29.67326 32.25089 30.96207
#
# Velocity S-wave (km/s) = 3.89002 4.05546 3.97360
# Velocity P-wave (km/s) = 7.57527 7.97263 7.77649
#
# Compressibility (1/GPa) = 0.01370560
#
# Stress axis : x y z
#
# Youngs Moduli (GPa) = 53.71681 68.12817 111.33663
#
# Poissons Ratio (x) = 0.43858 0.44165
# Poissons Ratio (y) = 0.34581 0.43208
# Poissons Ratio (z) = 0.21309 0.26439
#
# Static dielectric constant tensor:
#      x y z
#    x 3.637430 0.000000 0.000000 
#    y 0.000000 3.895240 0.000000 
#    z 0.000000 0.000000 3.569100 
# 
# 
# High freq. dielectric constant tensor:
#      x y z
#    x 1.773150 0.000000 0.000000 
#    y 0.000000 1.780940 0.000000 
#    z 0.000000 0.000000 1.773420 
# 
# From -- ./inp_files/5992.got.cif
#   From: 2010.03.12/outbox.cif.g09.slc.cpg/sg51_3_cif.got.tgz:5992.got - 2010.04.16 13:43:02.
