data_PCOD8213627
_publ_section_title
;
Structure prediction by ZEFSAII (Michael W. Deem and Ramdas Pophale) SiO2 
 PCOD8213627
Probable space group: P M M A
;
_chemical_formula_sum "Si O2"
_cell_formula_units_Z 64
_cell_length_a 8.973205
_cell_length_b 15.145705
_cell_length_c 23.712037
_cell_angle_alpha 90.000000
_cell_angle_beta 90.000000
_cell_angle_gamma 90.000000
_cell_volume 3222.596620
_symmetry_space_group_name_H-M "P M M A"
_symmetry_group_IT_number 51
_symmetry_cell_setting 'orthorhombic'
loop_
_space_group_symop_operation_xyz
x,y,z
1/2-x,-y,z
1/2+x,-y,-z
-x,y,-z
-x,-y,-z
1/2+x,y,-z
1/2-x,y,z
x,-y,z
loop_
_atom_site_type_symbol
_atom_site_label
_atom_site_fract_x
_atom_site_fract_y
_atom_site_fract_z
Si Si1 0.078383 0.401661 0.553118
Si Si2 0.417154 0.897048 0.555749
Si Si3 0.574784 0.731329 0.156917
Si Si4 0.075185 0.845205 0.328384
Si Si5 0.423549 0.666408 0.671260
Si Si6 0.426005 0.399609 0.940743
Si Si7 0.922246 0.901908 0.795048
Si Si8 0.419393 0.597159 0.233694
O O1 0.250000 0.408273 0.539545
O O2 0.014000 0.500000 0.564422
O O3 0.044667 0.338811 0.605120
O O4 0.000000 0.356296 0.500000
O O5 0.500000 0.856882 0.500000
O O6 0.250000 0.854765 0.560930
O O7 0.507584 0.884032 0.613974
O O8 0.399451 0.000000 0.545692
O O9 0.750000 0.743486 0.154455
O O10 0.516555 0.677279 0.101759
O O11 0.507098 0.828488 0.167203
O O12 0.531714 0.667221 0.207554
O O13 0.250000 0.827555 0.338657
O O14 0.048459 0.904463 0.272654
O O15 0.986048 0.759391 0.309007
O O16 0.250000 0.653997 0.685477
O O17 0.521312 0.591006 0.702123
O O18 0.250000 0.393773 0.947515
O O19 0.470399 0.500000 0.920932
O O20 0.500000 0.377474 0.000000
O O21 0.750000 0.882398 0.806260
O O22 0.967496 0.000000 0.817012
O O23 0.250000 0.631941 0.230342
O O24 0.431229 0.500000 0.206053
#
# Coordination Sequence:
#
# PCOD8213627 Si02
#       8
#     8   8   8   8   8   8   8   8
#     4   9  19  35  53  72  95 128 173 223 276 336
#     4  10  21  37  57  80 105 135 177 230 292 363
#     4  11  22  37  60  90 124 160 201 250 297 347
#     4  11  22  37  57  80 110 145 186 236 295 361
#     4  11  22  36  54  77 107 141 181 232 289 347
#     4   9  19  36  59  91 130 170 209 246 291 345
#     4  10  22  40  61  85 117 158 202 250 305 362
#     4  11  23  37  55  82 116 155 196 237 287 348
#
# _framework density 19.859760999999999
#
# number of rings (size 3 to 8) (size 9 to 14) (size 15 to 20)
#    0.000    1.750    1.250    3.000    0.000    6.500 
#    0.000    3.750    0.000    0.375    0.000    0.000 
#    0.000    0.000    0.000    0.000    0.000    0.000 
#
# Total GULP energy -793075.794338 kJ/mol
# GULP energy per Si atom -12391.809287 kJ/mol
# Density = 1.981456 g / cm^3
# Si number density = 19.859761 Si / 1000 Ang^3
#
#
#
# Elastic Constant Matrix: (Units=GPa)
#
#
# Indices 1 2 3 4 5 6 
#
# 1 59.2357 42.9141 47.9611 0.0000 0.0000 0.0000
# 2 42.9141 110.4584 50.4920 0.0000 0.0000 0.0000
# 3 47.9611 50.4920 106.7652 0.0000 0.0000 0.0000
# 4 0.0000 0.0000 0.0000 26.7358 0.0000 0.0000
# 5 0.0000 0.0000 0.0000 0.0000 33.1748 0.0000
# 6 0.0000 0.0000 0.0000 0.0000 0.0000 24.3776
#
#
#
# Elastic Compliance Matrix: (Units=1/GPa)
#
#
# Indices 1 2 3 4 5 6 
#
# 1 0.030337 -0.007089 -0.010275 0.000000 0.000000 0.000000
# 2 -0.007089 0.013207 -0.003061 0.000000 0.000000 0.000000
# 3 -0.010275 -0.003061 0.015430 0.000000 0.000000 0.000000
# 4 0.000000 0.000000 0.000000 0.037403 0.000000 0.000000
# 5 0.000000 0.000000 0.000000 0.000000 0.030143 0.000000
# 6 0.000000 0.000000 0.000000 0.000000 0.000000 0.041021
#
#
# Mechanical properties :
#
#
# Convention : Reuss Voigt Hill
#
# Bulk Modulus (GPa) = 55.18068 62.13263 58.65666
# Shear Modulus (GPa) = 23.31719 25.86379 24.59049
#
# Velocity S-wave (km/s) = 3.43022 3.61268 3.52263
# Velocity P-wave (km/s) = 6.59803 6.98252 6.79300
#
# Compressibility (1/GPa) = 0.01812228
#
# Stress axis : x y z
#
# Youngs Moduli (GPa) = 32.96270 75.71901 64.80895
#
# Poissons Ratio (x) = 0.53679 0.66594
# Poissons Ratio (y) = 0.23368 0.19839
# Poissons Ratio (z) = 0.33871 0.23179
#
# Static dielectric constant tensor:
#      x y z
#    x 3.705520 0.000000 0.000000 
#    y 0.000000 3.659300 0.000000 
#    z 0.000000 0.000000 3.633770 
# 
# 
# High freq. dielectric constant tensor:
#      x y z
#    x 1.778120 0.000000 0.000000 
#    y 0.000000 1.771570 0.000000 
#    z 0.000000 0.000000 1.761490 
# 
# From -- ./inp_files/34861.got.cif
#   From: 2010.03.12/outbox.cif.g09.slc.cpg/sg51_18_cif.got.tgz:34861.got - 2010.04.16 13:43:02.
