data_PCOD8213936
_publ_section_title
;
Structure prediction by ZEFSAII (Michael W. Deem and Ramdas Pophale) SiO2 
 PCOD8213936
Probable space group: P M M A
;
_chemical_formula_sum "Si O2"
_cell_formula_units_Z 64
_cell_length_a 9.085163
_cell_length_b 14.176586
_cell_length_c 25.675522
_cell_angle_alpha 90.000000
_cell_angle_beta 90.000000
_cell_angle_gamma 90.000000
_cell_volume 3306.919798
_symmetry_space_group_name_H-M "P M M A"
_symmetry_group_IT_number 51
_symmetry_cell_setting 'orthorhombic'
loop_
_space_group_symop_operation_xyz
x,y,z
1/2-x,-y,z
1/2+x,-y,-z
-x,y,-z
-x,-y,-z
1/2+x,y,-z
1/2-x,y,z
x,-y,z
loop_
_atom_site_type_symbol
_atom_site_label
_atom_site_fract_x
_atom_site_fract_y
_atom_site_fract_z
Si Si1 0.923895 0.108073 0.089145
Si Si2 0.075718 0.716745 0.050889
Si Si3 0.919862 0.895880 0.695684
Si Si4 0.421976 0.391023 0.552866
Si Si5 0.917789 0.388960 0.141658
Si Si6 0.578948 0.706967 0.647155
Si Si7 0.589424 0.111808 0.204826
Si Si8 0.081808 0.610791 0.740294
O O1 0.750000 0.121449 0.079672
O O2 0.966394 0.141687 0.147759
O O3 0.018867 0.175056 0.052113
O O4 0.970314 0.000000 0.078700
O O5 0.250000 0.713652 0.044950
O O6 0.028825 0.661041 0.102434
O O7 0.000000 0.669354 0.000000
O O8 0.750000 0.906627 0.707445
O O9 0.948204 0.820244 0.649969
O O10 0.986111 0.853071 0.748857
O O11 0.985115 0.000000 0.680782
O O12 0.500000 0.358236 0.500000
O O13 0.250000 0.372313 0.546672
O O14 0.456593 0.500000 0.564948
O O15 0.483044 0.329674 0.599752
O O16 0.750000 0.363947 0.126124
O O17 0.944340 0.500000 0.138538
O O18 0.948737 0.353407 0.200723
O O19 0.750000 0.683230 0.637743
O O20 0.529826 0.660788 0.701214
O O21 0.750000 0.156274 0.215267
O O22 0.600557 0.000000 0.204961
O O23 0.250000 0.633083 0.724050
O O24 0.052934 0.500000 0.736934
#
# Coordination Sequence:
#
# PCOD8213936 Si02
#       8
#     8   8   8   8   8   8   8   8
#     4   9  19  37  59  82 110 143 180 225 277 333
#     4  12  26  41  59  82 109 141 182 229 279 338
#     4   9  19  34  49  71 110 154 192 231 274 320
#     4  10  21  38  60  85 115 151 190 233 283 336
#     4   9  20  41  65  85 109 143 182 227 281 338
#     4  11  22  33  52  84 118 153 193 234 278 325
#     4   8  15  29  50  75 101 134 177 221 266 319
#     4   9  19  36  57  82 113 148 182 219 271 334
#
# _framework density 19.353356999999999
#
# number of rings (size 3 to 8) (size 9 to 14) (size 15 to 20)
#    0.000    2.375    0.000    3.750    1.750    5.500 
#    0.000    2.500    0.000    0.375    0.000    0.000 
#    0.000    0.000    0.000    0.000    0.000    0.000 
#
# Total GULP energy -793461.609035 kJ/mol
# GULP energy per Si atom -12397.837641 kJ/mol
# Density = 1.930931 g / cm^3
# Si number density = 19.353357 Si / 1000 Ang^3
#
#
#
# Elastic Constant Matrix: (Units=GPa)
#
#
# Indices 1 2 3 4 5 6 
#
# 1 94.2386 38.3943 55.2385 0.0000 0.0000 0.0000
# 2 38.3943 51.1476 44.3664 0.0000 0.0000 0.0000
# 3 55.2385 44.3664 112.3288 0.0000 0.0000 0.0000
# 4 0.0000 0.0000 0.0000 25.5228 0.0000 0.0000
# 5 0.0000 0.0000 0.0000 0.0000 36.4640 0.0000
# 6 0.0000 0.0000 0.0000 0.0000 0.0000 26.9508
#
#
#
# Elastic Compliance Matrix: (Units=1/GPa)
#
#
# Indices 1 2 3 4 5 6 
#
# 1 0.016977 -0.008370 -0.005043 0.000000 0.000000 0.000000
# 2 -0.008370 0.033867 -0.009260 0.000000 0.000000 0.000000
# 3 -0.005043 -0.009260 0.015040 0.000000 0.000000 0.000000
# 4 0.000000 0.000000 0.000000 0.039181 0.000000 0.000000
# 5 0.000000 0.000000 0.000000 0.000000 0.027424 0.000000
# 6 0.000000 0.000000 0.000000 0.000000 0.000000 0.037105
#
#
# Mechanical properties :
#
#
# Convention : Reuss Voigt Hill
#
# Bulk Modulus (GPa) = 48.69087 59.30149 53.99618
# Shear Modulus (GPa) = 22.54429 25.76857 24.15643
#
# Velocity S-wave (km/s) = 3.41673 3.65290 3.53679
# Velocity P-wave (km/s) = 6.38584 6.96416 6.68126
#
# Compressibility (1/GPa) = 0.02053773
#
# Stress axis : x y z
#
# Youngs Moduli (GPa) = 58.90234 29.52747 66.48987
#
# Poissons Ratio (x) = 0.24714 0.33530
# Poissons Ratio (y) = 0.49300 0.61572
# Poissons Ratio (z) = 0.29704 0.27344
#
# Static dielectric constant tensor:
#      x y z
#    x 4.457280 0.000000 0.000000 
#    y 0.000000 3.652220 0.000000 
#    z 0.000000 0.000000 3.522000 
# 
# 
# High freq. dielectric constant tensor:
#      x y z
#    x 1.746180 0.000000 0.000000 
#    y 0.000000 1.756090 0.000000 
#    z 0.000000 0.000000 1.742610 
# 
# From -- ./inp_files/34843.got.cif
#   From: 2010.03.12/outbox.cif.g09.slc.cpg/sg51_18_cif.got.tgz:34843.got - 2010.04.16 13:43:02.
