data_PCOD8213976
_publ_section_title
;
Structure prediction by ZEFSAII (Michael W. Deem and Ramdas Pophale) SiO2 
 PCOD8213976
Probable space group: P M M A
;
_chemical_formula_sum "Si O2"
_cell_formula_units_Z 48
_cell_length_a 9.004112
_cell_length_b 9.379596
_cell_length_c 30.915040
_cell_angle_alpha 90.000000
_cell_angle_beta 90.000000
_cell_angle_gamma 90.000000
_cell_volume 2610.927629
_symmetry_space_group_name_H-M "P M M A"
_symmetry_group_IT_number 51
_symmetry_cell_setting 'orthorhombic'
loop_
_space_group_symop_operation_xyz
x,y,z
1/2-x,-y,z
1/2+x,-y,-z
-x,y,-z
-x,-y,-z
1/2+x,y,-z
1/2-x,y,z
x,-y,z
loop_
_atom_site_type_symbol
_atom_site_label
_atom_site_fract_x
_atom_site_fract_y
_atom_site_fract_z
Si Si1 0.922062 0.667582 0.695347
Si Si2 0.575993 0.164708 0.872160
Si Si3 0.426144 0.342743 0.207915
Si Si4 0.076722 0.166784 0.620617
Si Si5 0.075842 0.663651 0.455122
Si Si6 0.582266 0.830032 0.042279
O O1 0.750000 0.705063 0.686343
O O2 0.948488 0.500000 0.687390
O O3 0.969494 0.710729 0.744150
O O4 0.026489 0.759640 0.664818
O O5 0.750000 0.191779 0.877908
O O6 0.510701 0.239839 0.829281
O O7 0.496858 0.228691 0.914572
O O8 0.537969 0.000000 0.866548
O O9 0.250000 0.349036 0.205229
O O10 0.492506 0.500000 0.199917
O O11 0.250000 0.195666 0.613338
O O12 0.986463 0.233446 0.581289
O O13 0.040467 0.000000 0.623276
O O14 0.250000 0.689007 0.459891
O O15 0.040065 0.500000 0.442636
O O16 0.000000 0.705893 0.500000
O O17 0.750000 0.773913 0.041600
O O18 0.574977 0.000000 0.041823
O O19 0.500000 0.768403 0.000000
#
# Coordination Sequence:
#
# PCOD8213976 Si02
#       6
#     8   8   8   8   8   8
#     4   9  18  34  56  79 101 130 172 216 255 300
#     4   9  16  26  43  68  94 120 153 192 234 282
#     4   8  15  29  49  72  97 125 158 197 241 290
#     4  11  24  38  52  76 110 144 176 212 257 305
#     4  10  21  38  61  86 109 137 175 215 255 302
#     4   9  16  26  41  62  89 120 153 191 235 281
#
# _framework density 18.384270999999998
#
# number of rings (size 3 to 8) (size 9 to 14) (size 15 to 20)
#    0.000    2.667    0.000    3.000    0.000    7.667 
#    0.000    2.500    0.000    4.000    0.000    0.000 
#    0.000    0.000    0.000    0.000    0.000    0.000 
#
# Total GULP energy -595154.442392 kJ/mol
# GULP energy per Si atom -12399.050883 kJ/mol
# Density = 1.834243 g / cm^3
# Si number density = 18.384271 Si / 1000 Ang^3
#
#
#
# Elastic Constant Matrix: (Units=GPa)
#
#
# Indices 1 2 3 4 5 6 
#
# 1 71.9930 38.5318 59.0288 0.0000 0.0000 0.0000
# 2 38.5318 64.3687 66.0816 0.0000 0.0000 0.0000
# 3 59.0288 66.0816 172.3226 0.0000 0.0000 0.0000
# 4 0.0000 0.0000 0.0000 83.5531 0.0000 0.0000
# 5 0.0000 0.0000 0.0000 0.0000 33.1266 0.0000
# 6 0.0000 0.0000 0.0000 0.0000 0.0000 20.5613
#
#
#
# Elastic Compliance Matrix: (Units=1/GPa)
#
#
# Indices 1 2 3 4 5 6 
#
# 1 0.022076 -0.008991 -0.004114 0.000000 0.000000 0.000000
# 2 -0.008991 0.029285 -0.008150 0.000000 0.000000 0.000000
# 3 -0.004114 -0.008150 0.010338 0.000000 0.000000 0.000000
# 4 0.000000 0.000000 0.000000 0.011968 0.000000 0.000000
# 5 0.000000 0.000000 0.000000 0.000000 0.030187 0.000000
# 6 0.000000 0.000000 0.000000 0.000000 0.000000 0.048635
#
#
# Mechanical properties :
#
#
# Convention : Reuss Voigt Hill
#
# Bulk Modulus (GPa) = 52.11757 70.66318 61.39037
# Shear Modulus (GPa) = 24.82682 37.11769 30.97226
#
# Velocity S-wave (km/s) = 3.67882 4.49819 4.10898
# Velocity P-wave (km/s) = 6.81583 8.09312 7.48178
#
# Compressibility (1/GPa) = 0.01918739
#
# Stress axis : x y z
#
# Youngs Moduli (GPa) = 45.29866 34.14757 96.73350
#
# Poissons Ratio (x) = 0.30703 0.39797
# Poissons Ratio (y) = 0.40729 0.78838
# Poissons Ratio (z) = 0.18636 0.27830
#
# Static dielectric constant tensor:
#      x y z
#    x 3.302680 0.000000 0.000000 
#    y 0.000000 3.267350 0.000000 
#    z 0.000000 0.000000 3.739740 
# 
# 
# High freq. dielectric constant tensor:
#      x y z
#    x 1.698810 0.000000 0.000000 
#    y 0.000000 1.686770 0.000000 
#    z 0.000000 0.000000 1.731630 
# 
# From -- ./inp_files/36927.got.cif
#   From: 2010.03.12/outbox.cif.g09.slc.cpg/sg51_19_cif.got.tgz:36927.got - 2010.04.16 13:43:02.
