data_PCOD8213543
_publ_section_title
;
Structure prediction by ZEFSAII (Michael W. Deem and Ramdas Pophale) SiO2 
 PCOD8213543
Probable space group: P M M A
;
_chemical_formula_sum "Si O2"
_cell_formula_units_Z 40
_cell_length_a 15.804582
_cell_length_b 9.185208
_cell_length_c 14.548562
_cell_angle_alpha 90.000000
_cell_angle_beta 90.000000
_cell_angle_gamma 90.000000
_cell_volume 2111.991075
_symmetry_space_group_name_H-M "P M M A"
_symmetry_group_IT_number 51
_symmetry_cell_setting 'orthorhombic'
loop_
_space_group_symop_operation_xyz
x,y,z
1/2-x,-y,z
1/2+x,-y,-z
-x,y,-z
-x,-y,-z
1/2+x,y,-z
1/2-x,y,z
x,-y,z
loop_
_atom_site_type_symbol
_atom_site_label
_atom_site_fract_x
_atom_site_fract_y
_atom_site_fract_z
Si Si1 0.912137 0.328053 0.391661
Si Si2 0.093973 0.171352 0.969887
Si Si3 0.750000 0.326883 0.721105
Si Si4 0.250000 0.674169 0.067759
Si Si5 0.154147 0.837944 0.775361
Si Si6 0.898950 0.326996 0.595401
O O1 0.908988 0.500000 0.384958
O O2 0.854669 0.266170 0.311331
O O3 0.876960 0.276688 0.491146
O O4 0.007927 0.270488 0.377737
O O5 0.097772 0.211162 0.861905
O O6 0.111121 0.000000 0.986354
O O7 0.164501 0.262653 0.023954
O O8 0.000000 0.217944 0.000000
O O9 0.750000 0.500000 0.714976
O O10 0.750000 0.275648 0.825972
O O11 0.832046 0.262713 0.668173
O O12 0.250000 0.500000 0.056847
O O13 0.250000 0.831836 0.810826
O O14 0.128825 0.000000 0.743834
O O15 0.898143 0.500000 0.598080
#
# Coordination Sequence:
#
# PCOD8213543 Si02
#       6
#     8   8   4   4   8   8
#     4   9  18  32  55  82 106 138 183 223 259 315
#     4  10  22  42  64  80 107 155 198 230 277 344
#     4   9  18  31  50  75 112 148 171 211 276 325
#     4  11  23  37  58  89 118 144 181 239 296 333
#     4  10  21  37  55  78 109 141 175 225 283 326
#     4   8  16  32  50  76 112 145 176 215 262 320
#
# _framework density 18.939475000000002
#
# number of rings (size 3 to 8) (size 9 to 14) (size 15 to 20)
#    0.000    2.600    1.000    1.500    4.200    1.600 
#    0.000    2.000    0.000    2.400    0.000    0.000 
#    0.000    0.000    0.000    0.000    0.000    0.000 
#
# Total GULP energy -495858.299581 kJ/mol
# GULP energy per Si atom -12396.457490 kJ/mol
# Density = 1.889637 g / cm^3
# Si number density = 18.939475 Si / 1000 Ang^3
#
#
#
# Elastic Constant Matrix: (Units=GPa)
#
#
# Indices 1 2 3 4 5 6 
#
# 1 100.6094 31.9639 55.9574 0.0000 0.0000 0.0000
# 2 31.9639 41.9357 39.8207 0.0000 0.0000 0.0000
# 3 55.9574 39.8207 133.1803 0.0000 0.0000 0.0000
# 4 0.0000 0.0000 0.0000 21.5649 0.0000 0.0000
# 5 0.0000 0.0000 0.0000 0.0000 37.1869 0.0000
# 6 0.0000 0.0000 0.0000 0.0000 0.0000 17.4047
#
#
#
# Elastic Compliance Matrix: (Units=1/GPa)
#
#
# Indices 1 2 3 4 5 6 
#
# 1 0.014415 -0.007312 -0.003870 0.000000 0.000000 0.000000
# 2 -0.007312 0.037010 -0.007994 0.000000 0.000000 0.000000
# 3 -0.003870 -0.007994 0.011525 0.000000 0.000000 0.000000
# 4 0.000000 0.000000 0.000000 0.046372 0.000000 0.000000
# 5 0.000000 0.000000 0.000000 0.000000 0.026891 0.000000
# 6 0.000000 0.000000 0.000000 0.000000 0.000000 0.057456
#
#
# Mechanical properties :
#
#
# Convention : Reuss Voigt Hill
#
# Bulk Modulus (GPa) = 40.65439 59.02327 49.83883
# Shear Modulus (GPa) = 20.81423 25.09685 22.95554
#
# Velocity S-wave (km/s) = 3.31869 3.64415 3.48522
# Velocity P-wave (km/s) = 6.01639 6.99559 6.52439
#
# Compressibility (1/GPa) = 0.02459759
#
# Stress axis : x y z
#
# Youngs Moduli (GPa) = 69.37123 27.01977 86.76875
#
# Poissons Ratio (x) = 0.19757 0.33583
# Poissons Ratio (y) = 0.50726 0.69359
# Poissons Ratio (z) = 0.26849 0.21599
#
# Static dielectric constant tensor:
#      x y z
#    x 3.681750 0.000000 0.000000 
#    y 0.000000 3.082230 0.000000 
#    z 0.000000 0.000000 3.596380 
# 
# 
# High freq. dielectric constant tensor:
#      x y z
#    x 1.743200 0.000000 0.000000 
#    y 0.000000 1.695020 0.000000 
#    z 0.000000 0.000000 1.747750 
# 
# From -- ./inp_files/23804.got.cif
#   From: 2010.03.12/outbox.cif.g09.slc.cpg/sg51_12_cif.got.tgz:23804.got - 2010.04.16 13:43:02.
