data_PCOD8213736
_publ_section_title
;
Structure prediction by ZEFSAII (Michael W. Deem and Ramdas Pophale) SiO2 
 PCOD8213736
Probable space group: P M M A
;
_chemical_formula_sum "Si O2"
_cell_formula_units_Z 48
_cell_length_a 16.878227
_cell_length_b 15.216750
_cell_length_c 9.970691
_cell_angle_alpha 90.000000
_cell_angle_beta 90.000000
_cell_angle_gamma 90.000000
_cell_volume 2560.790125
_symmetry_space_group_name_H-M "P M M A"
_symmetry_group_IT_number 51
_symmetry_cell_setting 'orthorhombic'
loop_
_space_group_symop_operation_xyz
x,y,z
1/2-x,-y,z
1/2+x,-y,-z
-x,y,-z
-x,-y,-z
1/2+x,y,-z
1/2-x,y,z
x,-y,z
loop_
_atom_site_type_symbol
_atom_site_label
_atom_site_fract_x
_atom_site_fract_y
_atom_site_fract_z
Si Si1 0.038897 0.101389 0.859974
Si Si2 0.155741 0.597443 0.985690
Si Si3 0.432500 0.094267 0.390628
Si Si4 0.660106 0.397755 0.715621
Si Si5 0.406110 0.732251 0.493606
Si Si6 0.156285 0.748063 0.785462
O O1 0.114905 0.161226 0.827431
O O2 0.971311 0.118298 0.751117
O O3 0.067661 0.000000 0.860120
O O4 0.000000 0.128723 0.000000
O O5 0.250000 0.594559 0.988983
O O6 0.124267 0.500000 0.944293
O O7 0.124899 0.670083 0.881858
O O8 0.125504 0.621295 0.135622
O O9 0.500000 0.082423 0.500000
O O10 0.374232 0.174392 0.432463
O O11 0.386532 0.000000 0.380378
O O12 0.750000 0.364382 0.706380
O O13 0.654221 0.500000 0.682014
O O14 0.610509 0.347899 0.604039
O O15 0.500000 0.741263 0.500000
O O16 0.365670 0.716873 0.636338
O O17 0.250000 0.761943 0.798520
#
# Coordination Sequence:
#
# PCOD8213736 Si02
#       6
#     8   8   8   8   8   8
#     4  10  21  37  58  83 111 150 190 225 276 340
#     4   8  17  35  56  76 102 141 183 222 275 339
#     4   9  17  34  56  77 106 145 187 220 262 327
#     4   9  19  37  58  78 106 146 187 230 287 345
#     4  11  21  34  54  84 111 147 185 232 276 335
#     4  11  22  35  56  87 116 144 186 239 289 331
#
# _framework density 18.744213999999999
#
# number of rings (size 3 to 8) (size 9 to 14) (size 15 to 20)
#    0.000    2.333    3.333    1.500    2.333    1.333 
#    0.000    1.667    0.000    4.000    0.000    0.000 
#    0.000    0.000    0.000    0.000    0.000    0.000 
#
# Total GULP energy -594948.498699 kJ/mol
# GULP energy per Si atom -12394.760390 kJ/mol
# Density = 1.870155 g / cm^3
# Si number density = 18.744214 Si / 1000 Ang^3
#
#
#
# Elastic Constant Matrix: (Units=GPa)
#
#
# Indices 1 2 3 4 5 6 
#
# 1 32.7993 30.5570 23.9582 0.0000 0.0000 0.0000
# 2 30.5570 120.7195 70.3702 0.0000 0.0000 0.0000
# 3 23.9582 70.3702 146.6731 0.0000 0.0000 0.0000
# 4 0.0000 0.0000 0.0000 35.1969 0.0000 0.0000
# 5 0.0000 0.0000 0.0000 0.0000 24.6870 0.0000
# 6 0.0000 0.0000 0.0000 0.0000 0.0000 17.5596
#
#
#
# Elastic Compliance Matrix: (Units=1/GPa)
#
#
# Indices 1 2 3 4 5 6 
#
# 1 0.040474 -0.008873 -0.002354 0.000000 0.000000 0.000000
# 2 -0.008873 0.013445 -0.005001 0.000000 0.000000 0.000000
# 3 -0.002354 -0.005001 0.009602 0.000000 0.000000 0.000000
# 4 0.000000 0.000000 0.000000 0.028412 0.000000 0.000000
# 5 0.000000 0.000000 0.000000 0.000000 0.040507 0.000000
# 6 0.000000 0.000000 0.000000 0.000000 0.000000 0.056949
#
#
# Mechanical properties :
#
#
# Convention : Reuss Voigt Hill
#
# Bulk Modulus (GPa) = 32.19097 61.10697 46.64897
# Shear Modulus (GPa) = 21.53317 27.17580 24.35449
#
# Velocity S-wave (km/s) = 3.39306 3.81179 3.60850
# Velocity P-wave (km/s) = 5.70627 7.21416 6.50406
#
# Compressibility (1/GPa) = 0.03106461
#
# Stress axis : x y z
#
# Youngs Moduli (GPa) = 24.70712 74.37796 104.14579
#
# Poissons Ratio (x) = 0.65992 0.24520
# Poissons Ratio (y) = 0.21921 0.52086
# Poissons Ratio (z) = 0.05817 0.37198
#
# Static dielectric constant tensor:
#      x y z
#    x 2.994500 0.000000 0.000000 
#    y 0.000000 3.959880 0.000000 
#    z 0.000000 0.000000 3.535480 
# 
# 
# High freq. dielectric constant tensor:
#      x y z
#    x 1.678980 0.000000 0.000000 
#    y 0.000000 1.744960 0.000000 
#    z 0.000000 0.000000 1.744530 
# 
# From -- ./inp_files/9648.got.cif
#   From: 2010.03.12/outbox.cif.g09.slc.cpg/sg51_5_cif.got.tgz:9648.got - 2010.04.16 13:43:02.
