data_PCOD8213867
_publ_section_title
;
Structure prediction by ZEFSAII (Michael W. Deem and Ramdas Pophale) SiO2 
 PCOD8213867
Probable space group: P M M A
;
_chemical_formula_sum "Si O2"
_cell_formula_units_Z 64
_cell_length_a 14.535443
_cell_length_b 8.709582
_cell_length_c 25.972275
_cell_angle_alpha 90.000000
_cell_angle_beta 90.000000
_cell_angle_gamma 90.000000
_cell_volume 3288.028531
_symmetry_space_group_name_H-M "P M M A"
_symmetry_group_IT_number 51
_symmetry_cell_setting 'orthorhombic'
loop_
_space_group_symop_operation_xyz
x,y,z
1/2-x,-y,z
1/2+x,-y,-z
-x,y,-z
-x,-y,-z
1/2+x,y,-z
1/2-x,y,z
x,-y,z
loop_
_atom_site_type_symbol
_atom_site_label
_atom_site_fract_x
_atom_site_fract_y
_atom_site_fract_z
Si Si1 0.000936 0.178432 0.176904
Si Si2 0.507097 0.818253 0.558153
Si Si3 0.493008 0.319898 0.712694
Si Si4 0.853202 0.326548 0.894197
Si Si5 0.354194 0.318487 0.366755
Si Si6 0.854318 0.818261 0.362248
Si Si7 0.391277 0.174725 0.999506
Si Si8 0.146581 0.326846 0.892576
O O1 0.909665 0.219648 0.145762
O O2 0.006537 0.275795 0.228531
O O3 0.088180 0.215671 0.141751
O O4 0.000293 0.000000 0.190708
O O5 0.500000 0.757087 0.500000
O O6 0.600335 0.749517 0.581815
O O7 0.416304 0.762428 0.589349
O O8 0.515404 0.000000 0.559991
O O9 0.479405 0.500000 0.707714
O O10 0.584329 0.265387 0.681978
O O11 0.401104 0.241927 0.690097
O O12 0.750000 0.324873 0.872523
O O13 0.893056 0.500000 0.893185
O O14 0.852284 0.265205 0.952046
O O15 0.250000 0.255057 0.360354
O O16 0.352871 0.500000 0.371740
O O17 0.750000 0.753355 0.367563
O O18 0.851523 0.000000 0.359549
O O19 0.355056 0.000000 0.000401
O O20 0.500000 0.179049 0.000000
O O21 0.353959 0.259044 0.949513
O O22 0.250000 0.328247 0.871582
O O23 0.106062 0.500000 0.893266
#
# Coordination Sequence:
#
# PCOD8213867 Si02
#       8
#     8   8   8   8   8   8   8   8
#     4  12  25  41  61  86 115 147 184 231 287 339
#     4   9  18  32  52  82 118 153 190 232 277 327
#     4  10  21  38  59  81 108 143 184 234 285 335
#     4  11  24  41  62  87 115 150 189 229 276 332
#     4   9  19  36  57  81 110 147 190 232 277 330
#     4   9  18  34  55  79 110 149 191 234 281 332
#     4  11  22  37  60  89 118 151 185 226 280 334
#     4  11  24  41  62  87 114 148 189 231 278 335
#
# _framework density 19.464552000000001
#
# number of rings (size 3 to 8) (size 9 to 14) (size 15 to 20)
#    0.000    1.750    1.250    3.000    0.000    6.750 
#    0.000    2.500    0.000    0.000    0.000    0.000 
#    0.000    0.000    0.000    0.000    0.000    0.000 
#
# Total GULP energy -793770.014439 kJ/mol
# GULP energy per Si atom -12402.656476 kJ/mol
# Density = 1.942025 g / cm^3
# Si number density = 19.464552 Si / 1000 Ang^3
#
#
#
# Elastic Constant Matrix: (Units=GPa)
#
#
# Indices 1 2 3 4 5 6 
#
# 1 139.0687 21.4817 44.9433 0.0000 0.0000 0.0000
# 2 21.4817 37.2484 0.0725 0.0000 0.0000 0.0000
# 3 44.9433 0.0725 120.1007 0.0000 0.0000 0.0000
# 4 0.0000 0.0000 0.0000 30.0265 0.0000 0.0000
# 5 0.0000 0.0000 0.0000 0.0000 32.0733 0.0000
# 6 0.0000 0.0000 0.0000 0.0000 0.0000 64.0869
#
#
#
# Elastic Compliance Matrix: (Units=1/GPa)
#
#
# Indices 1 2 3 4 5 6 
#
# 1 0.009100 -0.005241 -0.003402 0.000000 0.000000 0.000000
# 2 -0.005241 0.029866 0.001943 0.000000 0.000000 0.000000
# 3 -0.003402 0.001943 0.009598 0.000000 0.000000 0.000000
# 4 0.000000 0.000000 0.000000 0.033304 0.000000 0.000000
# 5 0.000000 0.000000 0.000000 0.000000 0.031179 0.000000
# 6 0.000000 0.000000 0.000000 0.000000 0.000000 0.015604
#
#
# Mechanical properties :
#
#
# Convention : Reuss Voigt Hill
#
# Bulk Modulus (GPa) = 28.43844 47.71253 38.07549
# Shear Modulus (GPa) = 32.51574 40.56534 36.54054
#
# Velocity S-wave (km/s) = 4.09162 4.57011 4.33747
# Velocity P-wave (km/s) = 6.07980 7.23972 6.68496
#
# Compressibility (1/GPa) = 0.03516368
#
# Stress axis : x y z
#
# Youngs Moduli (GPa) = 109.89264 33.48310 104.18522
#
# Poissons Ratio (x) = 0.17550 0.35445
# Poissons Ratio (y) = 0.57599 -0.20247
# Poissons Ratio (z) = 0.37387 -0.06507
#
# Static dielectric constant tensor:
#      x y z
#    x 3.791310 0.000000 0.000000 
#    y 0.000000 3.577770 0.000000 
#    z 0.000000 0.000000 3.578830 
# 
# 
# High freq. dielectric constant tensor:
#      x y z
#    x 1.768390 0.000000 0.000000 
#    y 0.000000 1.760600 0.000000 
#    z 0.000000 0.000000 1.753080 
# 
# From -- ./inp_files/35803.got.cif
#   From: 2010.03.12/outbox.cif.g09.slc.cpg/sg51_18_cif.got.tgz:35803.got - 2010.04.16 13:43:02.
