data_PCOD8213302
_publ_section_title
;
Structure prediction by ZEFSAII (Michael W. Deem and Ramdas Pophale) SiO2 
 PCOD8213302
Probable space group: P M M A
;
_chemical_formula_sum "Si O2"
_cell_formula_units_Z 64
_cell_length_a 9.107285
_cell_length_b 23.649494
_cell_length_c 15.170568
_cell_angle_alpha 90.000000
_cell_angle_beta 90.000000
_cell_angle_gamma 90.000000
_cell_volume 3267.477623
_symmetry_space_group_name_H-M "P M M A"
_symmetry_group_IT_number 51
_symmetry_cell_setting 'orthorhombic'
loop_
_space_group_symop_operation_xyz
x,y,z
1/2-x,-y,z
1/2+x,-y,-z
-x,y,-z
-x,-y,-z
1/2+x,y,-z
1/2-x,y,z
x,-y,z
loop_
_atom_site_type_symbol
_atom_site_label
_atom_site_fract_x
_atom_site_fract_y
_atom_site_fract_z
Si Si1 0.416567 0.846929 0.768535
Si Si2 0.926154 0.791862 0.410185
Si Si3 0.416907 0.760337 0.920917
Si Si4 0.081068 0.563853 0.908164
Si Si5 0.422196 0.934767 0.908440
Si Si6 0.584348 0.682836 0.650646
Si Si7 0.921953 0.438788 0.592168
Si Si8 0.584528 0.662483 0.845625
O O1 0.250000 0.864108 0.750142
O O2 0.484089 0.831211 0.672099
O O3 0.429369 0.791833 0.828595
O O4 0.487674 0.898997 0.824857
O O5 0.750000 0.792971 0.416914
O O6 0.000000 0.815755 0.500000
O O7 0.977248 0.726872 0.397819
O O8 0.250000 0.750973 0.948791
O O9 0.498401 0.700387 0.915688
O O10 0.500000 0.794238 0.000000
O O11 0.250000 0.581380 0.918680
O O12 0.065089 0.500000 0.874422
O O13 0.000344 0.602916 0.836404
O O14 0.000000 0.573175 0.000000
O O15 0.250000 0.920652 0.920745
O O16 0.450413 0.000000 0.885815
O O17 0.500000 0.917926 0.000000
O O18 0.750000 0.690254 0.612484
O O19 0.526911 0.617891 0.642863
O O20 0.583580 0.695910 0.753839
O O21 0.750000 0.435031 0.576159
O O22 0.959604 0.500000 0.639105
O O23 0.000000 0.437510 0.500000
O O24 0.750000 0.651463 0.877927
#
# Coordination Sequence:
#
# PCOD8213302 Si02
#       8
#     8   8   8   8   8   8   8   8
#     4   9  19  35  55  81 113 150 189 229 277 329
#     4  11  22  38  58  80 109 146 188 236 286 337
#     4  11  21  35  53  76 108 145 181 220 270 326
#     4  10  21  37  55  73  95 128 173 221 271 329
#     4   9  17  32  56  87 122 158 195 232 274 327
#     4  10  21  36  54  77 103 134 177 224 275 335
#     4   9  18  33  51  71  95 123 157 203 261 326
#     4  11  22  35  52  75 103 133 172 221 272 329
#
# _framework density 19.586974000000001
#
# number of rings (size 3 to 8) (size 9 to 14) (size 15 to 20)
#    0.000    2.000    1.250    2.625    0.000    3.250 
#    0.000    3.125    0.000    1.875    0.000    0.000 
#    0.000    0.000    0.000    0.000    0.000    0.125 
#
# Total GULP energy -793014.318230 kJ/mol
# GULP energy per Si atom -12390.848722 kJ/mol
# Density = 1.954239 g / cm^3
# Si number density = 19.586974 Si / 1000 Ang^3
#
#
#
# Elastic Constant Matrix: (Units=GPa)
#
#
# Indices 1 2 3 4 5 6 
#
# 1 94.8781 40.2943 41.5105 0.0000 0.0000 0.0000
# 2 40.2943 100.4368 45.9321 0.0000 0.0000 0.0000
# 3 41.5105 45.9321 115.7975 0.0000 0.0000 0.0000
# 4 0.0000 0.0000 0.0000 30.7420 0.0000 0.0000
# 5 0.0000 0.0000 0.0000 0.0000 28.7157 0.0000
# 6 0.0000 0.0000 0.0000 0.0000 0.0000 18.9102
#
#
#
# Elastic Compliance Matrix: (Units=1/GPa)
#
#
# Indices 1 2 3 4 5 6 
#
# 1 0.013682 -0.003965 -0.003332 0.000000 0.000000 0.000000
# 2 -0.003965 0.013312 -0.003859 0.000000 0.000000 0.000000
# 3 -0.003332 -0.003859 0.011361 0.000000 0.000000 0.000000
# 4 0.000000 0.000000 0.000000 0.032529 0.000000 0.000000
# 5 0.000000 0.000000 0.000000 0.000000 0.034824 0.000000
# 6 0.000000 0.000000 0.000000 0.000000 0.000000 0.052882
#
#
# Mechanical properties :
#
#
# Convention : Reuss Voigt Hill
#
# Bulk Modulus (GPa) = 62.33343 62.95401 62.64372
# Shear Modulus (GPa) = 26.84592 27.89861 27.37226
#
# Velocity S-wave (km/s) = 3.70618 3.77814 3.74233
# Velocity P-wave (km/s) = 7.08571 7.15842 7.12216
#
# Compressibility (1/GPa) = 0.01604276
#
# Stress axis : x y z
#
# Youngs Moduli (GPa) = 73.09137 75.11962 88.02247
#
# Poissons Ratio (x) = 0.29787 0.29326
# Poissons Ratio (y) = 0.28983 0.33967
# Poissons Ratio (z) = 0.24351 0.28988
#
# Static dielectric constant tensor:
#      x y z
#    x 3.514530 0.000000 0.000000 
#    y 0.000000 3.630060 0.000000 
#    z 0.000000 0.000000 3.572660 
# 
# 
# High freq. dielectric constant tensor:
#      x y z
#    x 1.753550 0.000000 0.000000 
#    y 0.000000 1.751360 0.000000 
#    z 0.000000 0.000000 1.756830 
# 
# From -- ./inp_files/22395.got.cif
#   From: 2010.03.12/outbox.cif.g09.slc.cpg/sg51_12_cif.got.tgz:22395.got - 2010.04.16 13:43:02.
