data_PCOD8213339
_publ_section_title
;
Structure prediction by ZEFSAII (Michael W. Deem and Ramdas Pophale) SiO2 
 PCOD8213339
Probable space group: P M M A
;
_chemical_formula_sum "Si O2"
_cell_formula_units_Z 64
_cell_length_a 18.348674
_cell_length_b 9.092287
_cell_length_c 20.342731
_cell_angle_alpha 90.000000
_cell_angle_beta 90.000000
_cell_angle_gamma 90.000000
_cell_volume 3393.806498
_symmetry_space_group_name_H-M "P M M A"
_symmetry_group_IT_number 51
_symmetry_cell_setting 'orthorhombic'
loop_
_space_group_symop_operation_xyz
x,y,z
1/2-x,-y,z
1/2+x,-y,-z
-x,y,-z
-x,-y,-z
1/2+x,y,-z
1/2-x,y,z
x,-y,z
loop_
_atom_site_type_symbol
_atom_site_label
_atom_site_fract_x
_atom_site_fract_y
_atom_site_fract_z
Si Si1 0.925655 0.826069 0.690052
Si Si2 0.168293 0.173777 0.186128
Si Si3 0.085332 0.670080 0.924353
Si Si4 0.166630 0.327871 0.566630
Si Si5 0.580234 0.325252 0.305091
Si Si6 0.333045 0.172495 0.435739
Si Si7 0.664582 0.171122 0.188318
Si Si8 0.418158 0.669387 0.075989
O O1 0.877729 0.772869 0.751457
O O2 0.883094 0.778145 0.624600
O O3 0.999877 0.738042 0.693513
O O4 0.940774 0.000000 0.691713
O O5 0.250000 0.235838 0.193542
O O6 0.134104 0.231362 0.119114
O O7 0.169189 0.000000 0.182812
O O8 0.102619 0.500000 0.909014
O O9 0.138004 0.773979 0.882671
O O10 0.001731 0.706047 0.906625
O O11 0.099311 0.705361 0.000475
O O12 0.250000 0.282167 0.580109
O O13 0.158503 0.500000 0.555333
O O14 0.119986 0.273785 0.628448
O O15 0.136606 0.249082 0.501408
O O16 0.577804 0.500000 0.298501
O O17 0.623790 0.262534 0.243742
O O18 0.250000 0.222058 0.421082
O O19 0.337260 0.000000 0.447051
O O20 0.750000 0.200765 0.194756
O O21 0.645502 0.000000 0.196017
O O22 0.401945 0.500000 0.091265
#
# Coordination Sequence:
#
# PCOD8213339 Si02
#       8
#     8   8   8   8   8   8   8   8
#     4  10  21  37  56  79 109 143 180 223 270 320
#     4  10  21  36  54  77 107 143 180 220 268 320
#     4   9  19  37  59  81 109 144 179 217 264 319
#     4   9  19  36  56  78 106 140 177 218 265 318
#     4  11  23  38  57  80 108 143 182 223 269 323
#     4   9  18  34  57  82 108 142 182 222 266 318
#     4  11  24  39  56  81 111 141 178 225 271 318
#     4   9  19  36  57  82 110 141 179 221 264 313
#
# _framework density 18.857880999999999
#
# number of rings (size 3 to 8) (size 9 to 14) (size 15 to 20)
#    0.000    2.250    0.000    3.000    0.000    9.250 
#    0.000    7.500    0.000    2.250    0.000    0.000 
#    0.000    0.000    0.000    0.000    0.000    0.000 
#
# Total GULP energy -793811.596373 kJ/mol
# GULP energy per Si atom -12403.306193 kJ/mol
# Density = 1.881496 g / cm^3
# Si number density = 18.857881 Si / 1000 Ang^3
#
#
#
# Elastic Constant Matrix: (Units=GPa)
#
#
# Indices 1 2 3 4 5 6 
#
# 1 124.3761 47.5500 77.3610 0.0000 0.0000 0.0000
# 2 47.5500 44.4315 45.2683 0.0000 0.0000 0.0000
# 3 77.3610 45.2683 135.0409 0.0000 0.0000 0.0000
# 4 0.0000 0.0000 0.0000 31.8648 0.0000 0.0000
# 5 0.0000 0.0000 0.0000 0.0000 38.0645 0.0000
# 6 0.0000 0.0000 0.0000 0.0000 0.0000 31.8212
#
#
#
# Elastic Compliance Matrix: (Units=1/GPa)
#
#
# Indices 1 2 3 4 5 6 
#
# 1 0.015604 -0.011529 -0.005074 0.000000 0.000000 0.000000
# 2 -0.011529 0.042699 -0.007709 0.000000 0.000000 0.000000
# 3 -0.005074 -0.007709 0.012896 0.000000 0.000000 0.000000
# 4 0.000000 0.000000 0.000000 0.031383 0.000000 0.000000
# 5 0.000000 0.000000 0.000000 0.000000 0.026271 0.000000
# 6 0.000000 0.000000 0.000000 0.000000 0.000000 0.031426
#
#
# Mechanical properties :
#
#
# Convention : Reuss Voigt Hill
#
# Bulk Modulus (GPa) = 44.29763 71.57857 57.93810
# Shear Modulus (GPa) = 23.10236 29.26138 26.18187
#
# Velocity S-wave (km/s) = 3.50391 3.94341 3.73014
# Velocity P-wave (km/s) = 6.31752 7.66637 7.02440
#
# Compressibility (1/GPa) = 0.02257457
#
# Stress axis : x y z
#
# Youngs Moduli (GPa) = 64.08594 23.41973 77.54267
#
# Poissons Ratio (x) = 0.27002 0.39347
# Poissons Ratio (y) = 0.73888 0.59775
# Poissons Ratio (z) = 0.32519 0.18053
#
# Static dielectric constant tensor:
#      x y z
#    x 3.490210 0.000000 0.000000 
#    y 0.000000 3.346420 0.000000 
#    z 0.000000 0.000000 3.585740 
# 
# 
# High freq. dielectric constant tensor:
#      x y z
#    x 1.736350 0.000000 0.000000 
#    y 0.000000 1.726040 0.000000 
#    z 0.000000 0.000000 1.747020 
# 
# From -- ./inp_files/33947.got.cif
#   From: 2010.03.12/outbox.cif.g09.slc.cpg/sg51_17_cif.got.tgz:33947.got - 2010.04.16 13:43:02.
