data_PCOD8213276
_publ_section_title
;
Structure prediction by ZEFSAII (Michael W. Deem and Ramdas Pophale) SiO2 
 PCOD8213276
Probable space group: P M M A
;
_chemical_formula_sum "Si O2"
_cell_formula_units_Z 64
_cell_length_a 8.868640
_cell_length_b 14.223115
_cell_length_c 26.087778
_cell_angle_alpha 90.000000
_cell_angle_beta 90.000000
_cell_angle_gamma 90.000000
_cell_volume 3290.704141
_symmetry_space_group_name_H-M "P M M A"
_symmetry_group_IT_number 51
_symmetry_cell_setting 'orthorhombic'
loop_
_space_group_symop_operation_xyz
x,y,z
1/2-x,-y,z
1/2+x,-y,-z
-x,y,-z
-x,-y,-z
1/2+x,y,-z
1/2-x,y,z
x,-y,z
loop_
_atom_site_type_symbol
_atom_site_label
_atom_site_fract_x
_atom_site_fract_y
_atom_site_fract_z
Si Si1 0.425594 0.889579 0.254798
Si Si2 0.428144 0.392848 0.310147
Si Si3 0.072471 0.391289 0.102368
Si Si4 0.073962 0.891665 0.849914
Si Si5 0.428470 0.225901 0.948476
Si Si6 0.581070 0.611322 0.206054
Si Si7 0.428747 0.781685 0.651226
Si Si8 0.072315 0.107009 0.551873
O O1 0.250000 0.865858 0.258851
O O2 0.486881 0.852695 0.200025
O O3 0.512147 0.837654 0.299922
O O4 0.458781 0.000000 0.260211
O O5 0.250000 0.383690 0.311543
O O6 0.479354 0.500000 0.321361
O O7 0.485963 0.356180 0.255088
O O8 0.503463 0.323869 0.351592
O O9 0.250000 0.375186 0.103742
O O10 0.031664 0.500000 0.092850
O O11 0.996070 0.330897 0.057523
O O12 0.002376 0.352648 0.155415
O O13 0.250000 0.876677 0.839950
O O14 0.019565 0.836935 0.900435
O O15 0.033340 0.000000 0.859369
O O16 0.250000 0.230374 0.953953
O O17 0.500000 0.181753 0.000000
O O18 0.750000 0.654249 0.208215
O O19 0.588613 0.500000 0.205070
O O20 0.250000 0.776515 0.653923
O O21 0.485666 0.832980 0.599940
O O22 0.250000 0.113369 0.546336
O O23 0.000000 0.148331 0.500000
O O24 0.018446 0.000000 0.560637
#
# Coordination Sequence:
#
# PCOD8213276 Si02
#       8
#     8   8   8   8   8   8   8   8
#     4  10  21  36  56  85 118 150 185 227 278 337
#     4  10  21  36  53  77 112 152 194 240 286 332
#     4  10  21  37  57  80 108 143 180 222 274 330
#     4   9  20  40  62  82 108 143 180 222 277 338
#     4  11  24  40  59  82 107 138 180 228 279 336
#     4   9  17  31  52  77 105 139 180 223 270 329
#     4  11  22  35  56  85 118 156 195 236 285 341
#     4   9  19  36  58  85 117 154 194 237 286 338
#
# _framework density 19.448726000000001
#
# number of rings (size 3 to 8) (size 9 to 14) (size 15 to 20)
#    0.000    2.125    0.000    2.625    1.750    6.750 
#    0.000    1.250    0.000    0.375    0.000    0.000 
#    0.000    0.000    0.000    0.000    0.000    0.000 
#
# Total GULP energy -793776.409970 kJ/mol
# GULP energy per Si atom -12402.756406 kJ/mol
# Density = 1.940446 g / cm^3
# Si number density = 19.448726 Si / 1000 Ang^3
#
#
#
# Elastic Constant Matrix: (Units=GPa)
#
#
# Indices 1 2 3 4 5 6 
#
# 1 84.3194 37.2522 52.1791 0.0000 0.0000 0.0000
# 2 37.2522 74.1141 68.7744 0.0000 0.0000 0.0000
# 3 52.1791 68.7744 148.0791 0.0000 0.0000 0.0000
# 4 0.0000 0.0000 0.0000 31.6466 0.0000 0.0000
# 5 0.0000 0.0000 0.0000 0.0000 35.4742 0.0000
# 6 0.0000 0.0000 0.0000 0.0000 0.0000 28.1539
#
#
#
# Elastic Compliance Matrix: (Units=1/GPa)
#
#
# Indices 1 2 3 4 5 6 
#
# 1 0.016151 -0.004986 -0.003376 0.000000 0.000000 0.000000
# 2 -0.004986 0.025251 -0.009971 0.000000 0.000000 0.000000
# 3 -0.003376 -0.009971 0.012574 0.000000 0.000000 0.000000
# 4 0.000000 0.000000 0.000000 0.031599 0.000000 0.000000
# 5 0.000000 0.000000 0.000000 0.000000 0.028190 0.000000
# 6 0.000000 0.000000 0.000000 0.000000 0.000000 0.035519
#
#
# Mechanical properties :
#
#
# Convention : Reuss Voigt Hill
#
# Bulk Modulus (GPa) = 57.76523 69.21377 63.48950
# Shear Modulus (GPa) = 26.07984 28.94207 27.51096
#
# Velocity S-wave (km/s) = 3.66588 3.86180 3.76511
# Velocity P-wave (km/s) = 6.90536 7.45317 7.18449
#
# Compressibility (1/GPa) = 0.01731145
#
# Stress axis : x y z
#
# Youngs Moduli (GPa) = 61.91441 39.60197 79.53163
#
# Poissons Ratio (x) = 0.19744 0.26848
# Poissons Ratio (y) = 0.30869 0.79301
# Poissons Ratio (z) = 0.20901 0.39487
#
# Static dielectric constant tensor:
#      x y z
#    x 3.552000 0.000000 0.000000 
#    y 0.000000 3.667800 0.000000 
#    z 0.000000 0.000000 3.579470 
# 
# 
# High freq. dielectric constant tensor:
#      x y z
#    x 1.763450 0.000000 0.000000 
#    y 0.000000 1.758290 0.000000 
#    z 0.000000 0.000000 1.745090 
# 
# From -- ./inp_files/34911.got.cif
#   From: 2010.03.12/outbox.cif.g09.slc.cpg/sg51_18_cif.got.tgz:34911.got - 2010.04.16 13:43:02.
