data_PCOD8213750
_publ_section_title
;
Structure prediction by ZEFSAII (Michael W. Deem and Ramdas Pophale) SiO2 
 PCOD8213750
Probable space group: P M M A
;
_chemical_formula_sum "Si O2"
_cell_formula_units_Z 36
_cell_length_a 9.131553
_cell_length_b 7.883320
_cell_length_c 24.563718
_cell_angle_alpha 90.000000
_cell_angle_beta 90.000000
_cell_angle_gamma 90.000000
_cell_volume 1768.267247
_symmetry_space_group_name_H-M "P M M A"
_symmetry_group_IT_number 51
_symmetry_cell_setting 'orthorhombic'
loop_
_space_group_symop_operation_xyz
x,y,z
1/2-x,-y,z
1/2+x,-y,-z
-x,y,-z
-x,-y,-z
1/2+x,y,-z
1/2-x,y,z
x,-y,z
loop_
_atom_site_type_symbol
_atom_site_label
_atom_site_fract_x
_atom_site_fract_y
_atom_site_fract_z
Si Si1 0.417482 0.197491 0.245531
Si Si2 0.420127 0.806343 0.865487
Si Si3 0.910886 0.805085 0.549799
Si Si4 0.578813 0.500000 0.057053
Si Si5 0.414590 0.306880 0.651204
O O1 0.250000 0.259877 0.245722
O O2 0.485655 0.239008 0.187190
O O3 0.507602 0.297751 0.290629
O O4 0.428874 0.000000 0.259215
O O5 0.250000 0.784394 0.850292
O O6 0.467547 0.671684 0.911355
O O7 0.451895 0.000000 0.885365
O O8 0.750000 0.718498 0.554982
O O9 0.000000 0.717323 0.500000
O O10 0.995992 0.796091 0.606499
O O11 0.888121 0.000000 0.535047
O O12 0.750000 0.500000 0.045993
O O13 0.500000 0.500000 0.000000
O O14 0.250000 0.232568 0.655722
O O15 0.410055 0.500000 0.631948
#
# Coordination Sequence:
#
# PCOD8213750 Si02
#       5
#     8   8   8   4   8
#     4  10  21  37  58  85 114 145 185 234 287 341
#     4   9  19  37  59  83 115 155 195 239 290 344
#     4  10  21  38  60  83 107 140 184 232 282 338
#     4  10  22  38  58  86 118 154 197 240 287 344
#     4  11  24  38  54  80 113 149 187 228 279 338
#
# _framework density 20.358913000000001
#
# number of rings (size 3 to 8) (size 9 to 14) (size 15 to 20)
#    0.000    2.000    0.000    2.667    1.556    8.889 
#    0.000    0.000    0.000    0.000    0.000    0.000 
#    0.000    0.000    0.000    0.000    0.000    0.000 
#
# Total GULP energy -446446.818323 kJ/mol
# GULP energy per Si atom -12401.300509 kJ/mol
# Density = 2.031258 g / cm^3
# Si number density = 20.358913 Si / 1000 Ang^3
#
#
#
# Elastic Constant Matrix: (Units=GPa)
#
#
# Indices 1 2 3 4 5 6 
#
# 1 159.0456 33.8510 83.8167 0.0000 0.0000 0.0000
# 2 33.8510 68.1593 46.2453 0.0000 0.0000 0.0000
# 3 83.8167 46.2453 148.3137 0.0000 0.0000 0.0000
# 4 0.0000 0.0000 0.0000 3.2113 0.0000 0.0000
# 5 0.0000 0.0000 0.0000 0.0000 44.8815 0.0000
# 6 0.0000 0.0000 0.0000 0.0000 0.0000 13.2177
#
#
#
# Elastic Compliance Matrix: (Units=1/GPa)
#
#
# Indices 1 2 3 4 5 6 
#
# 1 0.009044 -0.001299 -0.004706 0.000000 0.000000 0.000000
# 2 -0.001299 0.018795 -0.005126 0.000000 0.000000 0.000000
# 3 -0.004706 -0.005126 0.011001 0.000000 0.000000 0.000000
# 4 0.000000 0.000000 0.000000 0.311401 0.000000 0.000000
# 5 0.000000 0.000000 0.000000 0.000000 0.022281 0.000000
# 6 0.000000 0.000000 0.000000 0.000000 0.000000 0.075656
#
#
# Mechanical properties :
#
#
# Convention : Reuss Voigt Hill
#
# Bulk Modulus (GPa) = 60.32508 78.14940 69.23724
# Shear Modulus (GPa) = 10.50496 26.36913 18.43705
#
# Velocity S-wave (km/s) = 2.27400 3.60281 3.01258
# Velocity P-wave (km/s) = 6.04896 7.46834 6.79581
#
# Compressibility (1/GPa) = 0.01657685
#
# Stress axis : x y z
#
# Youngs Moduli (GPa) = 110.57013 53.20647 90.90481
#
# Poissons Ratio (x) = 0.06909 0.42781
# Poissons Ratio (y) = 0.14359 0.46602
# Poissons Ratio (z) = 0.52036 0.27276
#
# Static dielectric constant tensor:
#      x y z
#    x 3.979740 0.000000 0.000000 
#    y 0.000000 3.652600 0.000000 
#    z 0.000000 0.000000 3.502880 
# 
# 
# High freq. dielectric constant tensor:
#      x y z
#    x 1.807450 0.000000 0.000000 
#    y 0.000000 1.789380 0.000000 
#    z 0.000000 0.000000 1.790100 
# 
# From -- ./inp_files/34320.got.cif
#   From: 2010.03.12/outbox.cif.g09.slc.cpg/sg51_18_cif.got.tgz:34320.got - 2010.04.16 13:43:02.
