data_PCOD8213488
_publ_section_title
;
Structure prediction by ZEFSAII (Michael W. Deem and Ramdas Pophale) SiO2 
 PCOD8213488
Probable space group: P M M A
;
_chemical_formula_sum "Si O2"
_cell_formula_units_Z 64
_cell_length_a 15.813008
_cell_length_b 21.765485
_cell_length_c 9.167881
_cell_angle_alpha 90.000000
_cell_angle_beta 90.000000
_cell_angle_gamma 90.000000
_cell_volume 3155.381007
_symmetry_space_group_name_H-M "P M M A"
_symmetry_group_IT_number 51
_symmetry_cell_setting 'orthorhombic'
loop_
_space_group_symop_operation_xyz
x,y,z
1/2-x,-y,z
1/2+x,-y,-z
-x,y,-z
-x,-y,-z
1/2+x,y,-z
1/2-x,y,z
x,-y,z
loop_
_atom_site_type_symbol
_atom_site_label
_atom_site_fract_x
_atom_site_fract_y
_atom_site_fract_z
Si Si1 0.652420 0.240800 0.324267
Si Si2 0.151078 0.571047 0.685382
Si Si3 0.404403 0.662494 0.464724
Si Si4 0.846738 0.068756 0.116132
Si Si5 0.076079 0.832275 0.099882
Si Si6 0.961336 0.123488 0.346192
Si Si7 0.342071 0.705370 0.177119
Si Si8 0.414031 0.333172 0.905553
O O1 0.750000 0.225705 0.279700
O O2 0.655228 0.286469 0.461374
O O3 0.600665 0.181135 0.371131
O O4 0.600283 0.272353 0.192264
O O5 0.250000 0.582752 0.714425
O O6 0.127230 0.500000 0.692865
O O7 0.125122 0.595897 0.524828
O O8 0.095046 0.606152 0.806658
O O9 0.500000 0.677075 0.500000
O O10 0.400779 0.668567 0.290704
O O11 0.750000 0.080901 0.161503
O O12 0.904522 0.073392 0.261555
O O13 0.858536 0.000000 0.052749
O O14 0.871745 0.117331 0.991699
O O15 0.132517 0.775044 0.144796
O O16 0.042741 0.862001 0.248254
O O17 0.000000 0.807581 0.000000
O O18 0.000000 0.099815 0.500000
O O19 0.250000 0.705932 0.247181
O O20 0.341087 0.666554 0.027669
O O21 0.500000 0.329719 0.000000
#
# Coordination Sequence:
#
# PCOD8213488 Si02
#       8
#     8   8   8   8   8   8   8   8
#     4  11  21  37  58  82 117 158 193 221 276 356
#     4  10  22  42  61  76 104 151 198 231 275 349
#     4  11  22  37  57  82 114 148 183 227 283 344
#     4  10  22  42  63  82 111 156 205 245 288 350
#     4  10  21  36  58  86 118 155 193 232 284 349
#     4  11  22  36  58  88 121 152 191 245 299 348
#     4  12  21  32  54  86 117 139 176 233 288 332
#     4  11  21  35  56  83 113 145 184 235 288 337
#
# _framework density 20.282812
#
# number of rings (size 3 to 8) (size 9 to 14) (size 15 to 20)
#    0.000    1.250    0.000    9.750    0.000    3.000 
#    0.000    2.500    0.000    3.750    0.000    0.000 
#    0.000    0.000    0.000    0.000    0.000    0.000 
#
# Total GULP energy -793366.813441 kJ/mol
# GULP energy per Si atom -12396.356460 kJ/mol
# Density = 2.023665 g / cm^3
# Si number density = 20.282812 Si / 1000 Ang^3
#
#
#
# Elastic Constant Matrix: (Units=GPa)
#
#
# Indices 1 2 3 4 5 6 
#
# 1 93.9428 37.4814 24.3759 0.0000 0.0000 0.0000
# 2 37.4814 100.7667 36.6722 0.0000 0.0000 0.0000
# 3 24.3759 36.6722 117.5571 0.0000 0.0000 0.0000
# 4 0.0000 0.0000 0.0000 19.7378 0.0000 0.0000
# 5 0.0000 0.0000 0.0000 0.0000 30.7465 0.0000
# 6 0.0000 0.0000 0.0000 0.0000 0.0000 16.1996
#
#
#
# Elastic Compliance Matrix: (Units=1/GPa)
#
#
# Indices 1 2 3 4 5 6 
#
# 1 0.012675 -0.004239 -0.001306 0.000000 0.000000 0.000000
# 2 -0.004239 0.012613 -0.003056 0.000000 0.000000 0.000000
# 3 -0.001306 -0.003056 0.009730 0.000000 0.000000 0.000000
# 4 0.000000 0.000000 0.000000 0.050664 0.000000 0.000000
# 5 0.000000 0.000000 0.000000 0.000000 0.032524 0.000000
# 6 0.000000 0.000000 0.000000 0.000000 0.000000 0.061730
#
#
# Mechanical properties :
#
#
# Convention : Reuss Voigt Hill
#
# Bulk Modulus (GPa) = 56.12644 56.59173 56.35908
# Shear Modulus (GPa) = 24.62121 27.58591 26.10356
#
# Velocity S-wave (km/s) = 3.48788 3.69190 3.59134
# Velocity P-wave (km/s) = 6.62966 6.79231 6.71148
#
# Compressibility (1/GPa) = 0.01781692
#
# Stress axis : x y z
#
# Youngs Moduli (GPa) = 78.89519 79.28431 102.77046
#
# Poissons Ratio (x) = 0.33612 0.13419
# Poissons Ratio (y) = 0.33447 0.31402
# Poissons Ratio (z) = 0.10301 0.24226
#
# Static dielectric constant tensor:
#      x y z
#    x 3.904500 0.000000 0.000000 
#    y 0.000000 3.518380 0.000000 
#    z 0.000000 0.000000 3.923220 
# 
# 
# High freq. dielectric constant tensor:
#      x y z
#    x 1.806250 0.000000 0.000000 
#    y 0.000000 1.771600 0.000000 
#    z 0.000000 0.000000 1.797770 
# 
# From -- ./inp_files/8755.got.cif
#   From: 2010.03.12/outbox.cif.g09.slc.cpg/sg51_5_cif.got.tgz:8755.got - 2010.04.16 13:43:02.
