data_PCOD8213686
_publ_section_title
;
Structure prediction by ZEFSAII (Michael W. Deem and Ramdas Pophale) SiO2 
 PCOD8213686
Probable space group: P M M A
;
_chemical_formula_sum "Si O2"
_cell_formula_units_Z 48
_cell_length_a 17.829741
_cell_length_b 15.131626
_cell_length_c 9.086805
_cell_angle_alpha 90.000000
_cell_angle_beta 90.000000
_cell_angle_gamma 90.000000
_cell_volume 2451.556131
_symmetry_space_group_name_H-M "P M M A"
_symmetry_group_IT_number 51
_symmetry_cell_setting 'orthorhombic'
loop_
_space_group_symop_operation_xyz
x,y,z
1/2-x,-y,z
1/2+x,-y,-z
-x,y,-z
-x,-y,-z
1/2+x,y,-z
1/2-x,y,z
x,-y,z
loop_
_atom_site_type_symbol
_atom_site_label
_atom_site_fract_x
_atom_site_fract_y
_atom_site_fract_z
Si Si1 0.337725 0.752664 0.437873
Si Si2 0.837937 0.755040 0.888519
Si Si3 0.337026 0.600568 0.653720
Si Si4 0.415452 0.398744 0.959128
Si Si5 0.079810 0.098824 0.927009
Si Si6 0.074605 0.102044 0.586413
O O1 0.250000 0.745580 0.420963
O O2 0.373566 0.760774 0.275108
O O3 0.365715 0.665012 0.523873
O O4 0.356659 0.840763 0.527350
O O5 0.750000 0.765998 0.882881
O O6 0.858125 0.658771 0.947466
O O7 0.866244 0.831991 0.995397
O O8 0.250000 0.621027 0.699523
O O9 0.343338 0.500000 0.596545
O O10 0.394310 0.615705 0.788557
O O11 0.403389 0.500000 0.005683
O O12 0.500000 0.368283 0.000000
O O13 0.066908 0.123298 0.757741
O O14 0.114023 0.000000 0.943602
O O15 0.000000 0.104245 0.000000
O O16 0.000000 0.131272 0.500000
O O17 0.092985 0.000000 0.555510
#
# Coordination Sequence:
#
# PCOD8213686 Si02
#       6
#     8   8   8   8   8   8
#     4  10  22  37  54  80 112 146 184 227 273 322
#     4  11  23  37  56  83 114 149 187 228 276 329
#     4   9  18  35  58  81 108 145 186 227 275 332
#     4  10  21  37  57  82 111 143 183 231 280 331
#     4  10  21  38  60  84 112 146 184 229 278 329
#     4  10  21  37  58  82 108 143 185 226 273 328
#
# _framework density 19.579401000000001
#
# number of rings (size 3 to 8) (size 9 to 14) (size 15 to 20)
#    0.000    2.000    0.000    3.000    0.000    7.667 
#    0.000    5.000    0.000    3.500    0.000    0.000 
#    0.000    0.000    0.000    0.000    0.000    0.000 
#
# Total GULP energy -595176.625582 kJ/mol
# GULP energy per Si atom -12399.513033 kJ/mol
# Density = 1.953484 g / cm^3
# Si number density = 19.579401 Si / 1000 Ang^3
#
#
#
# Elastic Constant Matrix: (Units=GPa)
#
#
# Indices 1 2 3 4 5 6 
#
# 1 47.2802 36.6832 44.5002 0.0000 0.0000 0.0000
# 2 36.6832 111.2322 78.9274 0.0000 0.0000 0.0000
# 3 44.5002 78.9274 156.9603 0.0000 0.0000 0.0000
# 4 0.0000 0.0000 0.0000 34.4338 0.0000 0.0000
# 5 0.0000 0.0000 0.0000 0.0000 31.6199 0.0000
# 6 0.0000 0.0000 0.0000 0.0000 0.0000 27.9056
#
#
#
# Elastic Compliance Matrix: (Units=1/GPa)
#
#
# Indices 1 2 3 4 5 6 
#
# 1 0.031444 -0.006288 -0.005753 0.000000 0.000000 0.000000
# 2 -0.006288 0.015235 -0.005878 0.000000 0.000000 0.000000
# 3 -0.005753 -0.005878 0.010958 0.000000 0.000000 0.000000
# 4 0.000000 0.000000 0.000000 0.029041 0.000000 0.000000
# 5 0.000000 0.000000 0.000000 0.000000 0.031626 0.000000
# 6 0.000000 0.000000 0.000000 0.000000 0.000000 0.035835
#
#
# Mechanical properties :
#
#
# Convention : Reuss Voigt Hill
#
# Bulk Modulus (GPa) = 45.87411 70.63269 58.25340
# Shear Modulus (GPa) = 25.34959 29.14932 27.24945
#
# Velocity S-wave (km/s) = 3.60211 3.86265 3.73465
# Velocity P-wave (km/s) = 6.38599 7.48644 6.95800
#
# Compressibility (1/GPa) = 0.02179879
#
# Stress axis : x y z
#
# Youngs Moduli (GPa) = 31.80307 65.63921 91.25831
#
# Poissons Ratio (x) = 0.41271 0.52500
# Poissons Ratio (y) = 0.19997 0.53643
# Poissons Ratio (z) = 0.18296 0.38584
#
# Static dielectric constant tensor:
#      x y z
#    x 3.475240 0.000000 0.000000 
#    y 0.000000 3.741630 0.000000 
#    z 0.000000 0.000000 3.791500 
# 
# 
# High freq. dielectric constant tensor:
#      x y z
#    x 1.749720 0.000000 0.000000 
#    y 0.000000 1.775260 0.000000 
#    z 0.000000 0.000000 1.773210 
# 
# From -- ./inp_files/9608.got.cif
#   From: 2010.03.12/outbox.cif.g09.slc.cpg/sg51_5_cif.got.tgz:9608.got - 2010.04.16 13:43:02.
