data_PCOD8213251
_publ_section_title
;
Structure prediction by ZEFSAII (Michael W. Deem and Ramdas Pophale) SiO2 
 PCOD8213251
Probable space group: P M M A
;
_chemical_formula_sum "Si O2"
_cell_formula_units_Z 48
_cell_length_a 31.227342
_cell_length_b 9.250258
_cell_length_c 9.052380
_cell_angle_alpha 90.000000
_cell_angle_beta 90.000000
_cell_angle_gamma 90.000000
_cell_volume 2614.879269
_symmetry_space_group_name_H-M "P M M A"
_symmetry_group_IT_number 51
_symmetry_cell_setting 'orthorhombic'
loop_
_space_group_symop_operation_xyz
x,y,z
1/2-x,-y,z
1/2+x,-y,-z
-x,y,-z
-x,-y,-z
1/2+x,y,-z
1/2-x,y,z
x,-y,z
loop_
_atom_site_type_symbol
_atom_site_label
_atom_site_fract_x
_atom_site_fract_y
_atom_site_fract_z
Si Si1 0.504794 0.165230 0.329268
Si Si2 0.579951 0.832859 0.855231
Si Si3 0.657399 0.830483 0.656515
Si Si4 0.842678 0.331569 0.346863
Si Si5 0.422972 0.671093 0.840688
Si Si6 0.750000 0.165807 0.650398
Si Si7 0.250000 0.664752 0.647041
O O1 0.500000 0.203494 0.500000
O O2 0.459383 0.191654 0.253750
O O3 0.539239 0.273213 0.262543
O O4 0.520166 0.000000 0.306390
O O5 0.622469 0.775025 0.773060
O O6 0.584511 0.000000 0.901483
O O7 0.572197 0.739053 0.999161
O O8 0.651457 0.752149 0.500288
O O9 0.704647 0.797281 0.730250
O O10 0.650572 0.000000 0.626518
O O11 0.848951 0.500000 0.382943
O O12 0.877762 0.279264 0.229339
O O13 0.795408 0.301623 0.271506
O O14 0.426533 0.500000 0.855176
O O15 0.750000 0.245416 0.498577
O O16 0.750000 0.000000 0.607534
O O17 0.250000 0.500000 0.596569
#
# Coordination Sequence:
#
# PCOD8213251 Si02
#       7
#     8   8   8   8   8   4   4
#     4  10  21  38  59  79  98 126 167 209 248 298
#     4  10  21  36  53  74 102 136 169 201 244 299
#     4   9  17  31  53  78 102 131 168 210 253 296
#     4   9  18  32  51  75 101 131 168 208 249 294
#     4  11  23  36  51  75 106 136 166 205 252 296
#     4   8  14  26  47  76 104 126 158 208 257 294
#     4   8  14  28  49  70  96 130 166 204 245 290
#
# _framework density 18.356487999999999
#
# number of rings (size 3 to 8) (size 9 to 14) (size 15 to 20)
#    0.000    2.500    0.000    2.000    0.000    6.333 
#    0.000    0.833    0.000    0.000    0.000    0.000 
#    0.000    0.000    0.000    0.000    0.000    0.000 
#
# Total GULP energy -594814.480986 kJ/mol
# GULP energy per Si atom -12391.968354 kJ/mol
# Density = 1.831471 g / cm^3
# Si number density = 18.356488 Si / 1000 Ang^3
#
#
#
# Elastic Constant Matrix: (Units=GPa)
#
#
# Indices 1 2 3 4 5 6 
#
# 1 153.5820 46.5273 63.9306 0.0000 0.0000 0.0000
# 2 46.5273 52.3081 42.5676 0.0000 0.0000 0.0000
# 3 63.9306 42.5676 110.2270 0.0000 0.0000 0.0000
# 4 0.0000 0.0000 0.0000 23.6944 0.0000 0.0000
# 5 0.0000 0.0000 0.0000 0.0000 1.8379 0.0000
# 6 0.0000 0.0000 0.0000 0.0000 0.0000 26.2770
#
#
#
# Elastic Compliance Matrix: (Units=1/GPa)
#
#
# Indices 1 2 3 4 5 6 
#
# 1 0.009689 -0.005899 -0.003342 0.000000 0.000000 0.000000
# 2 -0.005899 0.031471 -0.008732 0.000000 0.000000 0.000000
# 3 -0.003342 -0.008732 0.014382 0.000000 0.000000 0.000000
# 4 0.000000 0.000000 0.000000 0.042204 0.000000 0.000000
# 5 0.000000 0.000000 0.000000 0.000000 0.544098 0.000000
# 6 0.000000 0.000000 0.000000 0.000000 0.000000 0.038056
#
#
# Mechanical properties :
#
#
# Convention : Reuss Voigt Hill
#
# Bulk Modulus (GPa) = 51.02815 69.12978 60.07897
# Shear Modulus (GPa) = 6.92158 21.23464 14.07811
#
# Velocity S-wave (km/s) = 1.94392 3.40485 2.77235
# Velocity P-wave (km/s) = 5.73561 7.29375 6.56110
#
# Compressibility (1/GPa) = 0.01959703
#
# Stress axis : x y z
#
# Youngs Moduli (GPa) = 103.20677 31.77566 69.52970
#
# Poissons Ratio (x) = 0.18745 0.23234
# Poissons Ratio (y) = 0.60884 0.60713
# Poissons Ratio (z) = 0.34487 0.27746
#
# Static dielectric constant tensor:
#      x y z
#    x 4.194300 0.000000 0.000000 
#    y 0.000000 3.325720 0.000000 
#    z 0.000000 0.000000 3.066000 
# 
# 
# High freq. dielectric constant tensor:
#      x y z
#    x 1.742100 0.000000 0.000000 
#    y 0.000000 1.709180 0.000000 
#    z 0.000000 0.000000 1.682190 
# 
# From -- ./inp_files/12976.got.cif
#   From: 2010.03.12/outbox.cif.g09.slc.cpg/sg51_7_cif.got.tgz:12976.got - 2010.04.16 13:43:02.
