data_PCOD8213299
_publ_section_title
;
Structure prediction by ZEFSAII (Michael W. Deem and Ramdas Pophale) SiO2 
 PCOD8213299
Probable space group: P M M A
;
_chemical_formula_sum "Si O2"
_cell_formula_units_Z 64
_cell_length_a 13.831941
_cell_length_b 9.306270
_cell_length_c 24.098077
_cell_angle_alpha 90.000000
_cell_angle_beta 90.000000
_cell_angle_gamma 90.000000
_cell_volume 3101.995504
_symmetry_space_group_name_H-M "P M M A"
_symmetry_group_IT_number 51
_symmetry_cell_setting 'orthorhombic'
loop_
_space_group_symop_operation_xyz
x,y,z
1/2-x,-y,z
1/2+x,-y,-z
-x,y,-z
-x,-y,-z
1/2+x,y,-z
1/2-x,y,z
x,-y,z
loop_
_atom_site_type_symbol
_atom_site_label
_atom_site_fract_x
_atom_site_fract_y
_atom_site_fract_z
Si Si1 0.141476 0.164174 0.233999
Si Si2 0.457428 0.166806 0.700366
Si Si3 0.864788 0.162179 0.974356
Si Si4 0.644105 0.670223 0.520824
Si Si5 0.365393 0.338441 0.128368
Si Si6 0.864762 0.662019 0.200809
Si Si7 0.963859 0.670028 0.411368
Si Si8 0.134805 0.162404 0.903001
O O1 0.250000 0.211996 0.251339
O O2 0.071536 0.185715 0.286546
O O3 0.098951 0.259098 0.183911
O O4 0.141268 0.000000 0.213390
O O5 0.394165 0.240302 0.747673
O O6 0.433479 0.243888 0.642896
O O7 0.428277 0.000000 0.696559
O O8 0.750000 0.177711 0.975269
O O9 0.905797 0.204067 0.035528
O O10 0.894975 0.000000 0.959932
O O11 0.909558 0.262549 0.926332
O O12 0.750000 0.736485 0.532732
O O13 0.646731 0.500000 0.521685
O O14 0.570513 0.720582 0.568699
O O15 0.610076 0.716791 0.459604
O O16 0.250000 0.331245 0.126414
O O17 0.404214 0.500000 0.130085
O O18 0.750000 0.660671 0.197905
O O19 0.905282 0.500000 0.207274
O O20 0.907405 0.729446 0.143517
O O21 0.959846 0.500000 0.399196
O O22 0.250000 0.172323 0.904548
O O23 0.103589 0.000000 0.887687
#
# Coordination Sequence:
#
# PCOD8213299 Si02
#       8
#     8   8   8   8   8   8   8   8
#     4   9  19  36  54  71  97 137 181 220 264 322
#     4  11  23  37  55  79 109 145 181 221 267 312
#     4   8  13  22  39  64  94 129 166 205 257 323
#     4   8  15  31  56  83 111 144 178 213 256 303
#     4   9  16  25  41  68  98 127 165 216 269 318
#     4  10  21  36  54  76 103 138 179 222 269 320
#     4   9  18  33  54  81 110 140 179 220 254 300
#     4   8  14  26  45  69  97 130 170 215 263 319
#
# _framework density 20.631879000000001
#
# number of rings (size 3 to 8) (size 9 to 14) (size 15 to 20)
#    0.000    3.000    0.000    2.625    0.000    4.750 
#    0.000    5.000    0.000    1.500    0.000    5.250 
#    0.000    0.000    0.000    0.000    0.000    0.000 
#
# Total GULP energy -793441.482483 kJ/mol
# GULP energy per Si atom -12397.523164 kJ/mol
# Density = 2.058492 g / cm^3
# Si number density = 20.631879 Si / 1000 Ang^3
#
#
#
# Elastic Constant Matrix: (Units=GPa)
#
#
# Indices 1 2 3 4 5 6 
#
# 1 20.4554 -3.8609 -11.1005 0.0000 0.0000 0.0000
# 2 -3.8609 95.6055 42.3041 0.0000 0.0000 0.0000
# 3 -11.1005 42.3041 102.7581 0.0000 0.0000 0.0000
# 4 0.0000 0.0000 0.0000 37.6425 0.0000 0.0000
# 5 0.0000 0.0000 0.0000 0.0000 29.8693 0.0000
# 6 0.0000 0.0000 0.0000 0.0000 0.0000 15.6285
#
#
#
# Elastic Compliance Matrix: (Units=1/GPa)
#
#
# Indices 1 2 3 4 5 6 
#
# 1 0.051948 -0.000471 0.005806 0.000000 0.000000 0.000000
# 2 -0.000471 0.012794 -0.005318 0.000000 0.000000 0.000000
# 3 0.005806 -0.005318 0.012548 0.000000 0.000000 0.000000
# 4 0.000000 0.000000 0.000000 0.026566 0.000000 0.000000
# 5 0.000000 0.000000 0.000000 0.000000 0.033479 0.000000
# 6 0.000000 0.000000 0.000000 0.000000 0.000000 0.063985
#
#
# Mechanical properties :
#
#
# Convention : Reuss Voigt Hill
#
# Bulk Modulus (GPa) = 12.93266 30.38939 21.66103
# Shear Modulus (GPa) = 22.02044 29.39315 25.70680
#
# Velocity S-wave (km/s) = 3.27050 3.77854 3.53367
# Velocity P-wave (km/s) = 4.53249 5.81359 5.21255
#
# Compressibility (1/GPa) = 0.07732361
#
# Stress axis : x y z
#
# Youngs Moduli (GPa) = 19.24986 78.16336 79.69365
#
# Poissons Ratio (x) = 0.03682 -0.46268
# Poissons Ratio (y) = 0.00907 0.42380
# Poissons Ratio (z) = -0.11176 0.41566
#
# Static dielectric constant tensor:
#      x y z
#    x 3.833020 0.000000 0.000000 
#    y 0.000000 3.651840 0.000000 
#    z 0.000000 0.000000 3.717480 
# 
# 
# High freq. dielectric constant tensor:
#      x y z
#    x 1.807880 0.000000 0.000000 
#    y 0.000000 1.785650 0.000000 
#    z 0.000000 0.000000 1.801300 
# 
# From -- ./inp_files/35648.got.cif
#   From: 2010.03.12/outbox.cif.g09.slc.cpg/sg51_18_cif.got.tgz:35648.got - 2010.04.16 13:43:02.
