data_PCOD8213466
_publ_section_title
;
Structure prediction by ZEFSAII (Michael W. Deem and Ramdas Pophale) SiO2 
 PCOD8213466
Probable space group: P M M A
;
_chemical_formula_sum "Si O2"
_cell_formula_units_Z 64
_cell_length_a 25.504808
_cell_length_b 9.061032
_cell_length_c 14.353549
_cell_angle_alpha 90.000000
_cell_angle_beta 90.000000
_cell_angle_gamma 90.000000
_cell_volume 3317.103472
_symmetry_space_group_name_H-M "P M M A"
_symmetry_group_IT_number 51
_symmetry_cell_setting 'orthorhombic'
loop_
_space_group_symop_operation_xyz
x,y,z
1/2-x,-y,z
1/2+x,-y,-z
-x,y,-z
-x,-y,-z
1/2+x,y,-z
1/2-x,y,z
x,-y,z
loop_
_atom_site_type_symbol
_atom_site_label
_atom_site_fract_x
_atom_site_fract_y
_atom_site_fract_z
Si Si1 0.308160 0.324554 0.276787
Si Si2 0.358925 0.325747 0.089859
Si Si3 0.020760 0.673075 0.100285
Si Si4 0.097260 0.829413 0.585678
Si Si5 0.906728 0.324985 0.607645
Si Si6 0.809225 0.827154 0.285100
Si Si7 0.688619 0.669289 0.098671
Si Si8 0.500413 0.827935 0.717585
O O1 0.250000 0.264346 0.302079
O O2 0.307868 0.500000 0.272016
O O3 0.324957 0.261448 0.175571
O O4 0.349749 0.272818 0.354763
O O5 0.351076 0.500000 0.084383
O O6 0.418656 0.283332 0.107843
O O7 0.339690 0.259050 0.991387
O O8 0.011028 0.500000 0.116228
O O9 0.990002 0.763507 0.179444
O O10 0.000000 0.723449 0.000000
O O11 0.086349 0.728462 0.497268
O O12 0.152935 0.782331 0.630083
O O13 0.051942 0.798498 0.659628
O O14 0.097509 0.000000 0.554405
O O15 0.912851 0.500000 0.612358
O O16 0.951216 0.256191 0.671734
O O17 0.750000 0.774757 0.309563
O O18 0.830124 0.752990 0.190877
O O19 0.811581 0.000000 0.267310
O O20 0.750000 0.687918 0.082550
O O21 0.672223 0.500000 0.112018
O O22 0.513901 0.000000 0.722894
#
# Coordination Sequence:
#
# PCOD8213466 Si02
#       8
#     8   8   8   8   8   8   8   8
#     4   9  17  31  54  83 114 146 181 225 278 336
#     4   9  16  30  51  78 111 145 179 220 273 328
#     4  10  21  36  56  85 117 147 184 233 282 327
#     4  10  23  40  58  81 109 145 188 228 278 340
#     4  11  22  38  60  87 113 140 184 236 286 332
#     4   9  19  37  57  77 108 148 183 223 277 330
#     4   9  17  29  50  80 108 138 179 222 264 318
#     4  11  23  40  60  81 112 151 188 227 274 335
#
# _framework density 19.293941
#
# number of rings (size 3 to 8) (size 9 to 14) (size 15 to 20)
#    0.000    2.250    1.250    1.500    1.750    5.250 
#    0.000    0.625    0.000    1.125    0.000    0.000 
#    0.000    0.000    0.000    0.000    0.000    0.000 
#
# Total GULP energy -793644.420122 kJ/mol
# GULP energy per Si atom -12400.694064 kJ/mol
# Density = 1.925003 g / cm^3
# Si number density = 19.293941 Si / 1000 Ang^3
#
#
#
# Elastic Constant Matrix: (Units=GPa)
#
#
# Indices 1 2 3 4 5 6 
#
# 1 99.5060 36.6557 50.8128 0.0000 0.0000 0.0000
# 2 36.6557 53.3272 50.0775 0.0000 0.0000 0.0000
# 3 50.8128 50.0775 138.9957 0.0000 0.0000 0.0000
# 4 0.0000 0.0000 0.0000 18.3778 0.0000 0.0000
# 5 0.0000 0.0000 0.0000 0.0000 30.5647 0.0000
# 6 0.0000 0.0000 0.0000 0.0000 0.0000 20.5851
#
#
#
# Elastic Compliance Matrix: (Units=1/GPa)
#
#
# Indices 1 2 3 4 5 6 
#
# 1 0.014008 -0.007284 -0.002496 0.000000 0.000000 0.000000
# 2 -0.007284 0.032128 -0.008912 0.000000 0.000000 0.000000
# 3 -0.002496 -0.008912 0.011318 0.000000 0.000000 0.000000
# 4 0.000000 0.000000 0.000000 0.054413 0.000000 0.000000
# 5 0.000000 0.000000 0.000000 0.000000 0.032718 0.000000
# 6 0.000000 0.000000 0.000000 0.000000 0.000000 0.048579
#
#
# Mechanical properties :
#
#
# Convention : Reuss Voigt Hill
#
# Bulk Modulus (GPa) = 49.83026 62.99119 56.41072
# Shear Modulus (GPa) = 21.07574 24.19104 22.63339
#
# Velocity S-wave (km/s) = 3.30866 3.54477 3.42875
# Velocity P-wave (km/s) = 6.36233 7.03370 6.70642
#
# Compressibility (1/GPa) = 0.02006813
#
# Stress axis : x y z
#
# Youngs Moduli (GPa) = 71.38870 31.12516 88.35447
#
# Poissons Ratio (x) = 0.22672 0.22057
# Poissons Ratio (y) = 0.52001 0.78744
# Poissons Ratio (z) = 0.17822 0.27740
#
# Static dielectric constant tensor:
#      x y z
#    x 3.748030 0.000000 0.000000 
#    y 0.000000 3.263380 0.000000 
#    z 0.000000 0.000000 3.655550 
# 
# 
# High freq. dielectric constant tensor:
#      x y z
#    x 1.759700 0.000000 0.000000 
#    y 0.000000 1.717330 0.000000 
#    z 0.000000 0.000000 1.761510 
# 
# From -- ./inp_files/26288.got.cif
#   From: 2010.03.12/outbox.cif.g09.slc.cpg/sg51_14_cif.got.tgz:26288.got - 2010.04.16 13:43:02.
