data_PCOD8213193
_publ_section_title
;
Structure prediction by ZEFSAII (Michael W. Deem and Ramdas Pophale) SiO2 
 PCOD8213193
Probable space group: P M M A
;
_chemical_formula_sum "Si O2"
_cell_formula_units_Z 64
_cell_length_a 8.966015
_cell_length_b 14.637512
_cell_length_c 28.863170
_cell_angle_alpha 90.000000
_cell_angle_beta 90.000000
_cell_angle_gamma 90.000000
_cell_volume 3788.006822
_symmetry_space_group_name_H-M "P M M A"
_symmetry_group_IT_number 51
_symmetry_cell_setting 'orthorhombic'
loop_
_space_group_symop_operation_xyz
x,y,z
1/2-x,-y,z
1/2+x,-y,-z
-x,y,-z
-x,-y,-z
1/2+x,y,-z
1/2-x,y,z
x,-y,z
loop_
_atom_site_type_symbol
_atom_site_label
_atom_site_fract_x
_atom_site_fract_y
_atom_site_fract_z
Si Si1 0.072793 0.216058 0.773942
Si Si2 0.927255 0.732556 0.453118
Si Si3 0.917514 0.891336 0.954837
Si Si4 0.076131 0.105201 0.408732
Si Si5 0.919808 0.105919 0.314147
Si Si6 0.926314 0.894959 0.138545
Si Si7 0.573181 0.601753 0.372280
Si Si8 0.427438 0.601054 0.731459
O O1 0.250000 0.210120 0.775660
O O2 0.015368 0.159515 0.729824
O O3 0.009527 0.169987 0.820668
O O4 0.017524 0.321394 0.767820
O O5 0.750000 0.730444 0.457475
O O6 0.989356 0.671880 0.410384
O O7 0.000000 0.693338 0.500000
O O8 0.983975 0.835836 0.445664
O O9 0.750000 0.852821 0.954083
O O10 0.001487 0.858363 0.908750
O O11 0.918240 0.000000 0.957164
O O12 0.000000 0.850851 0.000000
O O13 0.250000 0.127155 0.413249
O O14 0.022971 0.130905 0.357282
O O15 0.040216 0.000000 0.419635
O O16 0.750000 0.136085 0.325987
O O17 0.926168 0.000000 0.301352
O O18 0.750000 0.886536 0.133270
O O19 0.971745 0.000000 0.149030
O O20 0.750000 0.605099 0.373390
O O21 0.517032 0.500000 0.384922
O O22 0.517173 0.627391 0.320444
O O23 0.250000 0.598430 0.731025
O O24 0.488144 0.500000 0.745745
#
# Coordination Sequence:
#
# PCOD8213193 Si02
#       8
#     8   8   8   8   8   8   8   8
#     4   9  15  23  38  61  89 119 148 178 214 255
#     4  11  22  35  52  72  93 116 142 175 216 262
#     4   9  16  26  40  57  79 111 151 190 224 259
#     4  10  21  36  51  67  89 117 149 184 219 256
#     4   9  16  27  45  67  88 113 147 182 215 255
#     4   9  16  25  37  56  85 119 152 185 219 254
#     4   8  15  29  49  72  95 117 142 174 214 260
#     4   8  13  22  38  61  87 113 142 175 208 245
#
# _framework density 16.895429
#
# number of rings (size 3 to 8) (size 9 to 14) (size 15 to 20)
#    0.000    2.875    0.000    3.000    0.000    6.250 
#    0.000    0.625    0.000    4.125    0.000    0.000 
#    0.000    2.000    0.000    0.875    0.000    1.250 
#
# Total GULP energy -793328.176427 kJ/mol
# GULP energy per Si atom -12395.752757 kJ/mol
# Density = 1.685697 g / cm^3
# Si number density = 16.895429 Si / 1000 Ang^3
#
#
#
# Elastic Constant Matrix: (Units=GPa)
#
#
# Indices 1 2 3 4 5 6 
#
# 1 41.6963 22.9097 27.2954 0.0000 0.0000 0.0000
# 2 22.9097 83.4939 62.9771 0.0000 0.0000 0.0000
# 3 27.2954 62.9771 112.4368 0.0000 0.0000 0.0000
# 4 0.0000 0.0000 0.0000 18.9946 0.0000 0.0000
# 5 0.0000 0.0000 0.0000 0.0000 23.0203 0.0000
# 6 0.0000 0.0000 0.0000 0.0000 0.0000 7.9585
#
#
#
# Elastic Compliance Matrix: (Units=1/GPa)
#
#
# Indices 1 2 3 4 5 6 
#
# 1 0.029529 -0.004667 -0.004554 0.000000 0.000000 0.000000
# 2 -0.004667 0.021476 -0.010896 0.000000 0.000000 0.000000
# 3 -0.004554 -0.010896 0.016102 0.000000 0.000000 0.000000
# 4 0.000000 0.000000 0.000000 0.052646 0.000000 0.000000
# 5 0.000000 0.000000 0.000000 0.000000 0.043440 0.000000
# 6 0.000000 0.000000 0.000000 0.000000 0.000000 0.125652
#
#
# Mechanical properties :
#
#
# Convention : Reuss Voigt Hill
#
# Bulk Modulus (GPa) = 37.21303 51.55462 44.38383
# Shear Modulus (GPa) = 14.79125 18.29100 16.54112
#
# Velocity S-wave (km/s) = 2.96202 3.29386 3.13234
# Velocity P-wave (km/s) = 5.81132 6.71165 6.27764
#
# Compressibility (1/GPa) = 0.02687230
#
# Stress axis : x y z
#
# Youngs Moduli (GPa) = 33.86545 46.56342 62.10223
#
# Poissons Ratio (x) = 0.21732 0.28283
# Poissons Ratio (y) = 0.15805 0.67667
# Poissons Ratio (z) = 0.15423 0.50736
#
# Static dielectric constant tensor:
#      x y z
#    x 2.855630 0.000000 0.000000 
#    y 0.000000 3.274800 0.000000 
#    z 0.000000 0.000000 3.258870 
# 
# 
# High freq. dielectric constant tensor:
#      x y z
#    x 1.616960 0.000000 0.000000 
#    y 0.000000 1.633970 0.000000 
#    z 0.000000 0.000000 1.644030 
# 
# From -- ./inp_files/37539.got.cif
#   From: 2010.03.12/outbox.cif.g09.slc.cpg/sg51_19_cif.got.tgz:37539.got - 2010.04.16 13:43:02.
