data_PCOD8213018
_publ_section_title
;
Structure prediction by ZEFSAII (Michael W. Deem and Ramdas Pophale) SiO2 
 PCOD8213018
Probable space group: P M M A
;
_chemical_formula_sum "Si O2"
_cell_formula_units_Z 64
_cell_length_a 29.574424
_cell_length_b 9.022835
_cell_length_c 14.725356
_cell_angle_alpha 90.000000
_cell_angle_beta 90.000000
_cell_angle_gamma 90.000000
_cell_volume 3929.389801
_symmetry_space_group_name_H-M "P M M A"
_symmetry_group_IT_number 51
_symmetry_cell_setting 'orthorhombic'
loop_
_space_group_symop_operation_xyz
x,y,z
1/2-x,-y,z
1/2+x,-y,-z
-x,y,-z
-x,-y,-z
1/2+x,y,-z
1/2-x,y,z
x,-y,z
loop_
_atom_site_type_symbol
_atom_site_label
_atom_site_fract_x
_atom_site_fract_y
_atom_site_fract_z
Si Si1 0.944228 0.174085 0.862982
Si Si2 0.299684 0.825757 0.011348
Si Si3 0.036004 0.675179 0.823175
Si Si4 0.611152 0.671440 0.706009
Si Si5 0.799842 0.668826 0.802571
Si Si6 0.067230 0.831223 0.446192
Si Si7 0.895086 0.826708 0.050639
Si Si8 0.031183 0.169606 0.636001
O O1 0.919537 0.235803 0.774581
O O2 0.993340 0.248373 0.871886
O O3 0.951376 0.000000 0.849840
O O4 0.915372 0.211745 0.951969
O O5 0.250000 0.767647 0.976604
O O6 0.310588 0.767943 0.111077
O O7 0.298432 0.000000 0.020438
O O8 0.341687 0.781373 0.946657
O O9 0.030809 0.500000 0.830608
O O10 0.081213 0.727447 0.873810
O O11 0.040903 0.720420 0.718319
O O12 0.598203 0.500000 0.717031
O O13 0.663906 0.702334 0.724491
O O14 0.602908 0.724017 0.602968
O O15 0.750000 0.703439 0.762739
O O16 0.803471 0.500000 0.835941
O O17 0.064631 0.790020 0.552735
O O18 0.019386 0.807820 0.398151
O O19 0.083311 0.000000 0.435240
O O20 0.902029 0.000000 0.072737
O O21 0.038711 0.000000 0.667465
#
# Coordination Sequence:
#
# PCOD8213018 Si02
#       8
#     8   8   8   8   8   8   8   8
#     4  11  21  34  49  67  96 135 171 200 235 284
#     4   9  17  31  51  73  94 120 162 208 243 280
#     4  12  24  34  48  71  98 130 166 207 244 281
#     4  11  20  29  47  74 101 129 163 200 239 283
#     4   9  18  31  46  67  99 134 161 191 238 291
#     4   9  18  32  52  72  93 125 160 193 238 289
#     4  10  21  35  50  69  95 133 168 199 243 289
#     4   9  18  34  52  70  93 125 161 197 238 288
#
# _framework density 16.287514999999999
#
# number of rings (size 3 to 8) (size 9 to 14) (size 15 to 20)
#    0.000    2.000    2.500    3.000    0.000    4.000 
#    0.000    1.250    0.000    0.000    0.000    0.875 
#    0.000    1.000    0.000    0.000    0.000    0.000 
#
# Total GULP energy -793477.955422 kJ/mol
# GULP energy per Si atom -12398.093053 kJ/mol
# Density = 1.625044 g / cm^3
# Si number density = 16.287515 Si / 1000 Ang^3
#
#
#
# Elastic Constant Matrix: (Units=GPa)
#
#
# Indices 1 2 3 4 5 6 
#
# 1 106.7626 46.9528 38.9877 0.0000 0.0000 0.0000
# 2 46.9528 68.5748 37.8645 0.0000 0.0000 0.0000
# 3 38.9877 37.8645 65.0972 0.0000 0.0000 0.0000
# 4 0.0000 0.0000 0.0000 12.7886 0.0000 0.0000
# 5 0.0000 0.0000 0.0000 0.0000 17.5514 0.0000
# 6 0.0000 0.0000 0.0000 0.0000 0.0000 20.5152
#
#
#
# Elastic Compliance Matrix: (Units=1/GPa)
#
#
# Indices 1 2 3 4 5 6 
#
# 1 0.014134 -0.007370 -0.004178 0.000000 0.000000 0.000000
# 2 -0.007370 0.025326 -0.010317 0.000000 0.000000 0.000000
# 3 -0.004178 -0.010317 0.023865 0.000000 0.000000 0.000000
# 4 0.000000 0.000000 0.000000 0.078195 0.000000 0.000000
# 5 0.000000 0.000000 0.000000 0.000000 0.056976 0.000000
# 6 0.000000 0.000000 0.000000 0.000000 0.000000 0.048744
#
#
# Mechanical properties :
#
#
# Convention : Reuss Voigt Hill
#
# Bulk Modulus (GPa) = 51.03575 54.22720 52.63147
# Shear Modulus (GPa) = 16.80677 17.94634 17.37655
#
# Velocity S-wave (km/s) = 3.21577 3.32301 3.26983
# Velocity P-wave (km/s) = 6.72239 6.93464 6.82934
#
# Compressibility (1/GPa) = 0.01959411
#
# Stress axis : x y z
#
# Youngs Moduli (GPa) = 70.75324 39.48581 41.90316
#
# Poissons Ratio (x) = 0.29103 0.17506
# Poissons Ratio (y) = 0.52148 0.43230
# Poissons Ratio (z) = 0.29559 0.40736
#
# Static dielectric constant tensor:
#      x y z
#    x 3.356700 0.000000 0.000000 
#    y 0.000000 3.085490 0.000000 
#    z 0.000000 0.000000 3.079660 
# 
# 
# High freq. dielectric constant tensor:
#      x y z
#    x 1.618740 0.000000 0.000000 
#    y 0.000000 1.630110 0.000000 
#    z 0.000000 0.000000 1.604310 
# 
# From -- ./inp_files/26640.got.cif
#   From: 2010.03.12/outbox.cif.g09.slc.cpg/sg51_14_cif.got.tgz:26640.got - 2010.04.16 13:43:02.
