data_PCOD8213993
_publ_section_title
;
Structure prediction by ZEFSAII (Michael W. Deem and Ramdas Pophale) SiO2 
 PCOD8213993
Probable space group: P M M A
;
_chemical_formula_sum "Si O2"
_cell_formula_units_Z 48
_cell_length_a 9.092246
_cell_length_b 8.568355
_cell_length_c 31.478967
_cell_angle_alpha 90.000000
_cell_angle_beta 90.000000
_cell_angle_gamma 90.000000
_cell_volume 2452.387543
_symmetry_space_group_name_H-M "P M M A"
_symmetry_group_IT_number 51
_symmetry_cell_setting 'orthorhombic'
loop_
_space_group_symop_operation_xyz
x,y,z
1/2-x,-y,z
1/2+x,-y,-z
-x,y,-z
-x,-y,-z
1/2+x,y,-z
1/2-x,y,z
x,-y,z
loop_
_atom_site_type_symbol
_atom_site_label
_atom_site_fract_x
_atom_site_fract_y
_atom_site_fract_z
Si Si1 0.412880 0.315077 0.368993
Si Si2 0.085409 0.815845 0.959367
Si Si3 0.575125 0.319145 0.723012
Si Si4 0.918994 0.681433 0.880363
Si Si5 0.083022 0.685395 0.459843
Si Si6 0.579821 0.180737 0.198318
O O1 0.250000 0.242930 0.369859
O O2 0.399831 0.500000 0.368337
O O3 0.486045 0.266182 0.323969
O O4 0.489538 0.263386 0.413867
O O5 0.250000 0.744230 0.957890
O O6 0.999903 0.777152 0.916688
O O7 0.095479 0.000000 0.963841
O O8 0.000000 0.744544 0.000000
O O9 0.750000 0.291830 0.726303
O O10 0.538072 0.500000 0.732138
O O11 0.489821 0.210899 0.755805
O O12 0.750000 0.735618 0.878139
O O13 0.931926 0.500000 0.890940
O O14 0.994465 0.714767 0.835555
O O15 0.250000 0.743979 0.461751
O O16 0.076080 0.500000 0.463575
O O17 0.000000 0.762564 0.500000
O O18 0.750000 0.230045 0.198576
O O19 0.561286 0.000000 0.186321
#
# Coordination Sequence:
#
# PCOD8213993 Si02
#       6
#     8   8   8   8   8   8
#     4   7  11  21  37  57  83 116 152 191 237 287
#     4  10  21  38  61  88 117 150 186 221 259 303
#     4   9  17  31  52  75  97 125 165 209 251 299
#     4  11  24  40  59  84 111 140 177 219 261 305
#     4   8  12  18  29  47  75 112 150 186 226 275
#     4  11  24  39  54  75 104 136 169 207 255 310
#
# _framework density 19.572762999999998
#
# number of rings (size 3 to 8) (size 9 to 14) (size 15 to 20)
#    0.000    2.667    0.000    4.500    0.000    8.333 
#    0.000    0.833    0.000    3.000    0.000    0.000 
#    0.000    0.667    0.000    1.500    0.000    4.333 
#
# Total GULP energy -594724.594400 kJ/mol
# GULP energy per Si atom -12390.095717 kJ/mol
# Density = 1.952821 g / cm^3
# Si number density = 19.572763 Si / 1000 Ang^3
#
#
#
# Elastic Constant Matrix: (Units=GPa)
#
#
# Indices 1 2 3 4 5 6 
#
# 1 106.0324 16.1763 59.9853 0.0000 0.0000 0.0000
# 2 16.1763 18.3734 4.8330 0.0000 0.0000 0.0000
# 3 59.9853 4.8330 166.8306 0.0000 0.0000 0.0000
# 4 0.0000 0.0000 0.0000 5.3670 0.0000 0.0000
# 5 0.0000 0.0000 0.0000 0.0000 33.2244 0.0000
# 6 0.0000 0.0000 0.0000 0.0000 0.0000 18.5701
#
#
#
# Elastic Compliance Matrix: (Units=1/GPa)
#
#
# Indices 1 2 3 4 5 6 
#
# 1 0.013693 -0.010843 -0.004609 0.000000 0.000000 0.000000
# 2 -0.010843 0.063431 0.002061 0.000000 0.000000 0.000000
# 3 -0.004609 0.002061 0.007592 0.000000 0.000000 0.000000
# 4 0.000000 0.000000 0.000000 0.186323 0.000000 0.000000
# 5 0.000000 0.000000 0.000000 0.000000 0.030098 0.000000
# 6 0.000000 0.000000 0.000000 0.000000 0.000000 0.053850
#
#
# Mechanical properties :
#
#
# Convention : Reuss Voigt Hill
#
# Bulk Modulus (GPa) = 17.26136 50.35840 33.80988
# Shear Modulus (GPa) = 12.46634 25.44843 18.95738
#
# Velocity S-wave (km/s) = 2.52647 3.60973 3.11555
# Velocity P-wave (km/s) = 4.16521 6.56949 5.50033
#
# Compressibility (1/GPa) = 0.05793286
#
# Stress axis : x y z
#
# Youngs Moduli (GPa) = 73.03073 15.76527 131.72294
#
# Poissons Ratio (x) = 0.17094 0.60715
# Poissons Ratio (y) = 0.79187 -0.27150
# Poissons Ratio (z) = 0.33662 -0.03249
#
# Static dielectric constant tensor:
#      x y z
#    x 3.359890 0.000000 0.000000 
#    y 0.000000 3.076960 0.000000 
#    z 0.000000 0.000000 4.116310 
# 
# 
# High freq. dielectric constant tensor:
#      x y z
#    x 1.741030 0.000000 0.000000 
#    y 0.000000 1.716020 0.000000 
#    z 0.000000 0.000000 1.792830 
# 
# From -- ./inp_files/37041.got.cif
#   From: 2010.03.12/outbox.cif.g09.slc.cpg/sg51_19_cif.got.tgz:37041.got - 2010.04.16 13:43:02.
