data_PCOD8213184
_publ_section_title
;
Structure prediction by ZEFSAII (Michael W. Deem and Ramdas Pophale) SiO2 
 PCOD8213184
Probable space group: P M M A
;
_chemical_formula_sum "Si O2"
_cell_formula_units_Z 56
_cell_length_a 9.092861
_cell_length_b 19.862909
_cell_length_c 15.376833
_cell_angle_alpha 90.000000
_cell_angle_beta 90.000000
_cell_angle_gamma 90.000000
_cell_volume 2777.220120
_symmetry_space_group_name_H-M "P M M A"
_symmetry_group_IT_number 51
_symmetry_cell_setting 'orthorhombic'
loop_
_space_group_symop_operation_xyz
x,y,z
1/2-x,-y,z
1/2+x,-y,-z
-x,y,-z
-x,-y,-z
1/2+x,y,-z
1/2-x,y,z
x,-y,z
loop_
_atom_site_type_symbol
_atom_site_label
_atom_site_fract_x
_atom_site_fract_y
_atom_site_fract_z
Si Si1 0.250000 0.573936 0.453632
Si Si2 0.925574 0.827255 0.219229
Si Si3 0.917740 0.199723 0.415208
Si Si4 0.412454 0.305015 0.184861
Si Si5 0.919695 0.079591 0.912099
Si Si6 0.922821 0.423984 0.091914
Si Si7 0.513472 0.659025 0.636142
Si Si8 0.250000 0.573484 0.657579
O O1 0.250000 0.500000 0.408788
O O2 0.396286 0.613669 0.430048
O O3 0.250000 0.565082 0.555150
O O4 0.750000 0.827087 0.209514
O O5 0.971032 0.829858 0.321793
O O6 0.989148 0.761428 0.169985
O O7 0.996915 0.891198 0.172019
O O8 0.750000 0.180781 0.429940
O O9 0.000000 0.168887 0.500000
O O10 0.936619 0.280402 0.415952
O O11 0.250000 0.297328 0.141473
O O12 0.496587 0.370555 0.152301
O O13 0.383460 0.312507 0.288063
O O14 0.750000 0.103511 0.914277
O O15 0.930944 0.000000 0.903602
O O16 0.000000 0.104658 0.000000
O O17 0.750000 0.406819 0.084978
O O18 0.945357 0.500000 0.128281
O O19 0.000000 0.417328 0.000000
O O20 0.392287 0.614512 0.686779
O O21 0.250000 0.500000 0.703094
#
# Coordination Sequence:
#
# PCOD8213184 Si02
#       8
#     4   8   8   8   8   8   8   4
#     4  11  22  36  48  68  97 133 180 231 291 355
#     4  10  22  39  60  90 126 158 201 253 296 348
#     4  10  21  35  57  82 110 151 198 249 303 355
#     4  11  23  39  57  80 111 147 188 240 295 347
#     4  10  21  39  66 100 136 172 204 234 279 342
#     4  10  22  40  61  82 105 137 181 234 294 362
#     4  11  22  36  51  74 102 138 184 237 294 354
#     4  11  22  34  50  68  97 135 178 233 291 357
#
# _framework density 20.16405
#
# number of rings (size 3 to 8) (size 9 to 14) (size 15 to 20)
#    0.000    1.571    1.429    3.429    3.000    5.714 
#    0.000    2.857    0.000    0.429    0.000    0.000 
#    0.000    0.000    0.000    0.000    0.000    0.000 
#
# Total GULP energy -694192.590056 kJ/mol
# GULP energy per Si atom -12396.296251 kJ/mol
# Density = 2.011816 g / cm^3
# Si number density = 20.164050 Si / 1000 Ang^3
#
#
#
# Elastic Constant Matrix: (Units=GPa)
#
#
# Indices 1 2 3 4 5 6 
#
# 1 142.1428 34.7053 48.4086 0.0000 0.0000 0.0000
# 2 34.7053 51.8108 38.2858 0.0000 0.0000 0.0000
# 3 48.4086 38.2858 96.8033 0.0000 0.0000 0.0000
# 4 0.0000 0.0000 0.0000 28.8284 0.0000 0.0000
# 5 0.0000 0.0000 0.0000 0.0000 35.1541 0.0000
# 6 0.0000 0.0000 0.0000 0.0000 0.0000 31.7911
#
#
#
# Elastic Compliance Matrix: (Units=1/GPa)
#
#
# Indices 1 2 3 4 5 6 
#
# 1 0.008982 -0.003811 -0.002984 0.000000 0.000000 0.000000
# 2 -0.003811 0.028888 -0.009519 0.000000 0.000000 0.000000
# 3 -0.002984 -0.009519 0.015588 0.000000 0.000000 0.000000
# 4 0.000000 0.000000 0.000000 0.034688 0.000000 0.000000
# 5 0.000000 0.000000 0.000000 0.000000 0.028446 0.000000
# 6 0.000000 0.000000 0.000000 0.000000 0.000000 0.031455
#
#
# Mechanical properties :
#
#
# Convention : Reuss Voigt Hill
#
# Bulk Modulus (GPa) = 48.01257 59.28401 53.64829
# Shear Modulus (GPa) = 26.64953 30.44520 28.54737
#
# Velocity S-wave (km/s) = 3.63938 3.88993 3.76673
# Velocity P-wave (km/s) = 6.44381 7.04557 6.75140
#
# Compressibility (1/GPa) = 0.02082788
#
# Stress axis : x y z
#
# Youngs Moduli (GPa) = 111.33264 34.61587 64.15379
#
# Poissons Ratio (x) = 0.13193 0.19145
# Poissons Ratio (y) = 0.42433 0.61071
# Poissons Ratio (z) = 0.33225 0.32952
#
# Static dielectric constant tensor:
#      x y z
#    x 4.114150 0.000000 0.000000 
#    y 0.000000 3.500460 0.000000 
#    z 0.000000 0.000000 3.740790 
# 
# 
# High freq. dielectric constant tensor:
#      x y z
#    x 1.803280 0.000000 0.000000 
#    y 0.000000 1.759540 0.000000 
#    z 0.000000 0.000000 1.787600 
# 
# From -- ./inp_files/21897.got.cif
#   From: 2010.03.12/outbox.cif.g09.slc.cpg/sg51_11_cif.got.tgz:21897.got - 2010.04.16 13:43:02.
