data_PCOD8213145
_publ_section_title
;
Structure prediction by ZEFSAII (Michael W. Deem and Ramdas Pophale) SiO2 
 PCOD8213145
Probable space group: P M M A
;
_chemical_formula_sum "Si O2"
_cell_formula_units_Z 44
_cell_length_a 9.833831
_cell_length_b 16.282438
_cell_length_c 14.823081
_cell_angle_alpha 90.000000
_cell_angle_beta 90.000000
_cell_angle_gamma 90.000000
_cell_volume 2373.453105
_symmetry_space_group_name_H-M "P M M A"
_symmetry_group_IT_number 51
_symmetry_cell_setting 'orthorhombic'
loop_
_space_group_symop_operation_xyz
x,y,z
1/2-x,-y,z
1/2+x,-y,-z
-x,y,-z
-x,-y,-z
1/2+x,y,-z
1/2-x,y,z
x,-y,z
loop_
_atom_site_type_symbol
_atom_site_label
_atom_site_fract_x
_atom_site_fract_y
_atom_site_fract_z
Si Si1 0.090441 0.500000 0.909833
Si Si2 0.592293 0.093965 0.584720
Si Si3 0.898854 0.595467 0.427045
Si Si4 0.402344 0.906157 0.074032
Si Si5 0.904697 0.797742 0.754419
Si Si6 0.409256 0.356164 0.771417
O O1 0.250000 0.500000 0.935941
O O2 0.053975 0.579897 0.850417
O O3 0.000000 0.500000 0.000000
O O4 0.500000 0.117186 0.500000
O O5 0.750000 0.104556 0.558372
O O6 0.550114 0.158108 0.662261
O O7 0.564627 0.000000 0.616199
O O8 0.750000 0.636440 0.439048
O O9 0.887506 0.500000 0.448674
O O10 0.951349 0.606358 0.325247
O O11 0.000000 0.637374 0.500000
O O12 0.250000 0.897065 0.036792
O O13 0.418919 0.865881 0.170151
O O14 0.444958 0.000000 0.088369
O O15 0.500000 0.864008 0.000000
O O16 0.750000 0.764682 0.747494
O O17 0.003620 0.725174 0.784169
O O18 0.250000 0.334810 0.774480
#
# Coordination Sequence:
#
# PCOD8213145 Si02
#       6
#     4   8   8   8   8   8
#     4  10  22  42  63  80 102 138 181 224 271 326
#     4   9  18  34  55  78 108 148 189 225 262 309
#     4   9  17  32  54  77 101 132 168 207 253 304
#     4   9  18  34  55  77 103 136 172 212 260 314
#     4  10  21  35  53  79 110 141 176 219 266 315
#     4  10  21  38  57  77 107 142 176 217 268 321
#
# _framework density 18.53839
#
# number of rings (size 3 to 8) (size 9 to 14) (size 15 to 20)
#    0.000    2.545    0.909    0.545    0.000    6.545 
#    0.000    7.273    0.000    5.455    0.000    0.000 
#    0.000    0.000    0.000    0.000    0.000    0.000 
#
# Total GULP energy -545489.423113 kJ/mol
# GULP energy per Si atom -12397.486889 kJ/mol
# Density = 1.849620 g / cm^3
# Si number density = 18.538390 Si / 1000 Ang^3
#
#
#
# Elastic Constant Matrix: (Units=GPa)
#
#
# Indices 1 2 3 4 5 6 
#
# 1 86.4106 52.4816 72.0601 0.0000 0.0000 0.0000
# 2 52.4816 82.9317 44.8709 0.0000 0.0000 0.0000
# 3 72.0601 44.8709 132.6428 0.0000 0.0000 0.0000
# 4 0.0000 0.0000 0.0000 8.5891 0.0000 0.0000
# 5 0.0000 0.0000 0.0000 0.0000 37.4119 0.0000
# 6 0.0000 0.0000 0.0000 0.0000 0.0000 13.5918
#
#
#
# Elastic Compliance Matrix: (Units=1/GPa)
#
#
# Indices 1 2 3 4 5 6 
#
# 1 0.028086 -0.011651 -0.011317 0.000000 0.000000 0.000000
# 2 -0.011651 0.019592 -0.000298 0.000000 0.000000 0.000000
# 3 -0.011317 -0.000298 0.013788 0.000000 0.000000 0.000000
# 4 0.000000 0.000000 0.000000 0.116427 0.000000 0.000000
# 5 0.000000 0.000000 0.000000 0.000000 0.026729 0.000000
# 6 0.000000 0.000000 0.000000 0.000000 0.000000 0.073574
#
#
# Mechanical properties :
#
#
# Convention : Reuss Voigt Hill
#
# Bulk Modulus (GPa) = 66.95842 71.20114 69.07978
# Shear Modulus (GPa) = 15.16496 20.75672 17.96084
#
# Velocity S-wave (km/s) = 2.86323 3.34976 3.11601
# Velocity P-wave (km/s) = 6.86498 7.31109 7.09154
#
# Compressibility (1/GPa) = 0.01493464
#
# Stress axis : x y z
#
# Youngs Moduli (GPa) = 35.60455 51.04003 72.52604
#
# Poissons Ratio (x) = 0.59465 0.82078
# Poissons Ratio (y) = 0.41482 0.02164
# Poissons Ratio (z) = 0.40294 0.01523
#
# Static dielectric constant tensor:
#      x y z
#    x 3.699470 0.000000 0.000000 
#    y 0.000000 3.271910 0.000000 
#    z 0.000000 0.000000 3.454210 
# 
# 
# High freq. dielectric constant tensor:
#      x y z
#    x 1.719090 0.000000 0.000000 
#    y 0.000000 1.706740 0.000000 
#    z 0.000000 0.000000 1.724080 
# 
# From -- ./inp_files/20928.got.cif
#   From: 2010.03.12/outbox.cif.g09.slc.cpg/sg51_11_cif.got.tgz:20928.got - 2010.04.16 13:43:02.
