data_PCOD8213051
_publ_section_title
;
Structure prediction by ZEFSAII (Michael W. Deem and Ramdas Pophale) SiO2 
 PCOD8213051
Probable space group: P M M A
;
_chemical_formula_sum "Si O2"
_cell_formula_units_Z 32
_cell_length_a 9.533958
_cell_length_b 20.876971
_cell_length_c 8.893674
_cell_angle_alpha 90.000000
_cell_angle_beta 90.000000
_cell_angle_gamma 90.000000
_cell_volume 1770.198338
_symmetry_space_group_name_H-M "P M M A"
_symmetry_group_IT_number 51
_symmetry_cell_setting 'orthorhombic'
loop_
_space_group_symop_operation_xyz
x,y,z
1/2-x,-y,z
1/2+x,-y,-z
-x,y,-z
-x,-y,-z
1/2+x,y,-z
1/2-x,y,z
x,-y,z
loop_
_atom_site_type_symbol
_atom_site_label
_atom_site_fract_x
_atom_site_fract_y
_atom_site_fract_z
Si Si1 0.408466 0.000000 0.645026
Si Si2 0.413484 0.743195 0.850340
Si Si3 0.913134 0.861256 0.347013
Si Si4 0.586324 0.500000 0.151440
Si Si5 0.087423 0.621379 0.650593
O O1 0.500000 0.000000 0.500000
O O2 0.437567 0.067775 0.729699
O O3 0.250000 0.000000 0.587377
O O4 0.250000 0.744283 0.892595
O O5 0.463206 0.809608 0.774696
O O6 0.448985 0.686771 0.735330
O O7 0.500000 0.731541 0.000000
O O8 0.750000 0.849985 0.387191
O O9 0.000000 0.853246 0.500000
O O10 0.750000 0.500000 0.110573
O O11 0.543398 0.437589 0.244938
O O12 0.500000 0.500000 0.000000
O O13 0.250000 0.617556 0.606828
O O14 0.000000 0.618041 0.500000
#
# Coordination Sequence:
#
# PCOD8213051 Si02
#       5
#     4   8   8   4   8
#     4   8  14  26  45  68  94 122 154 196 241 284
#     4  10  21  35  50  71  99 130 164 201 243 291
#     4   9  17  30  49  72  96 124 160 200 242 289
#     4  10  21  36  54  78 106 134 165 200 240 288
#     4  10  21  36  54  77 102 129 165 205 243 287
#
# _framework density 18.077071
#
# number of rings (size 3 to 8) (size 9 to 14) (size 15 to 20)
#    0.000    2.500    0.000    1.875    0.000    3.000 
#    0.000    0.625    0.000    0.000    0.000    0.000 
#    0.000    0.000    0.000    0.000    0.000    0.000 
#
# Total GULP energy -396652.471930 kJ/mol
# GULP energy per Si atom -12395.389748 kJ/mol
# Density = 1.803593 g / cm^3
# Si number density = 18.077071 Si / 1000 Ang^3
#
#
#
# Elastic Constant Matrix: (Units=GPa)
#
#
# Indices 1 2 3 4 5 6 
#
# 1 59.2886 47.5716 66.5313 0.0000 0.0000 0.0000
# 2 47.5716 166.9052 71.8678 0.0000 0.0000 0.0000
# 3 66.5313 71.8678 130.9707 0.0000 0.0000 0.0000
# 4 0.0000 0.0000 0.0000 -6.3102 0.0000 0.0000
# 5 0.0000 0.0000 0.0000 0.0000 37.2750 0.0000
# 6 0.0000 0.0000 0.0000 0.0000 0.0000 11.2079
#
#
#
# Elastic Compliance Matrix: (Units=1/GPa)
#
#
# Indices 1 2 3 4 5 6 
#
# 1 0.040764 -0.003538 -0.018766 0.000000 0.000000 0.000000
# 2 -0.003538 0.008152 -0.002676 0.000000 0.000000 0.000000
# 3 -0.018766 -0.002676 0.018637 0.000000 0.000000 0.000000
# 4 0.000000 0.000000 0.000000 -0.158473 0.000000 0.000000
# 5 0.000000 0.000000 0.000000 0.000000 0.026828 0.000000
# 6 0.000000 0.000000 0.000000 0.000000 0.000000 0.089223
#
#
# Mechanical properties :
#
#
# Convention : Reuss Voigt Hill
#
# Bulk Modulus (GPa) = 56.84279 81.01178 68.92729
# Shear Modulus (GPa) = 61.76211 19.84745 40.80478
#
# Velocity S-wave (km/s) = 5.85151 3.31711 4.75622
# Velocity P-wave (km/s) = 8.78445 7.71899 8.26890
#
# Compressibility (1/GPa) = 0.01759238
#
# Stress axis : x y z
#
# Youngs Moduli (GPa) = 24.53127 122.66715 53.65762
#
# Poissons Ratio (x) = 0.43402 1.00695
# Poissons Ratio (y) = 0.08680 0.14359
# Poissons Ratio (z) = 0.46036 0.32826
#
# Static dielectric constant tensor:
#      x y z
#    x 3.317210 0.000000 0.000000 
#    y 0.000000 4.086990 0.000000 
#    z 0.000000 0.000000 2.394310 
# 
# 
# High freq. dielectric constant tensor:
#      x y z
#    x 1.698360 0.000000 0.000000 
#    y 0.000000 1.732560 0.000000 
#    z 0.000000 0.000000 1.673810 
# 
# From -- ./inp_files/756.got.cif
#   From: 2010.03.12/outbox.cif.g09.slc.cpg/sg51_1_cif.got.tgz:756.got - 2010.04.16 13:43:02.
