data_PCOD8213629
_publ_section_title
;
Structure prediction by ZEFSAII (Michael W. Deem and Ramdas Pophale) SiO2 
 PCOD8213629
Probable space group: P M M A
;
_chemical_formula_sum "Si O2"
_cell_formula_units_Z 48
_cell_length_a 9.182918
_cell_length_b 9.246783
_cell_length_c 30.894946
_cell_angle_alpha 90.000000
_cell_angle_beta 90.000000
_cell_angle_gamma 90.000000
_cell_volume 2623.365559
_symmetry_space_group_name_H-M "P M M A"
_symmetry_group_IT_number 51
_symmetry_cell_setting 'orthorhombic'
loop_
_space_group_symop_operation_xyz
x,y,z
1/2-x,-y,z
1/2+x,-y,-z
-x,y,-z
-x,-y,-z
1/2+x,y,-z
1/2-x,y,z
x,-y,z
loop_
_atom_site_type_symbol
_atom_site_label
_atom_site_fract_x
_atom_site_fract_y
_atom_site_fract_z
Si Si1 0.422843 0.159568 0.876478
Si Si2 0.080376 0.667954 0.957965
Si Si3 0.078180 0.667791 0.295035
Si Si4 0.580058 0.334709 0.457119
Si Si5 0.079671 0.831284 0.628296
Si Si6 0.580749 0.169718 0.220161
O O1 0.250000 0.154428 0.878573
O O2 0.484729 0.261864 0.914250
O O3 0.466837 0.213769 0.828611
O O4 0.487141 0.000000 0.884445
O O5 0.250000 0.701759 0.963316
O O6 0.046906 0.500000 0.953736
O O7 0.000000 0.733162 0.000000
O O8 0.250000 0.689478 0.296048
O O9 0.034297 0.500000 0.297926
O O10 0.009821 0.752013 0.334939
O O11 0.017644 0.733589 0.250844
O O12 0.500000 0.278573 0.500000
O O13 0.750000 0.320227 0.465958
O O14 0.536017 0.500000 0.446434
O O15 0.530456 0.234328 0.417547
O O16 0.250000 0.803786 0.636702
O O17 0.041558 0.000000 0.628773
O O18 0.750000 0.205038 0.228618
O O19 0.552161 0.000000 0.228462
#
# Coordination Sequence:
#
# PCOD8213629 Si02
#       6
#     8   8   8   8   8   8
#     4   8  15  29  49  72  96 122 156 199 242 287
#     4   9  17  29  45  66  93 125 160 197 238 284
#     4  11  24  38  52  75 106 137 170 209 254 304
#     4   9  18  33  53  77 106 139 173 210 252 297
#     4  10  21  37  57  80 105 136 176 217 255 300
#     4   9  18  34  56  79 101 128 165 208 254 304
#
# _framework density 18.297107
#
# number of rings (size 3 to 8) (size 9 to 14) (size 15 to 20)
#    0.000    2.667    0.000    2.500    0.000    6.667 
#    0.000    4.167    0.000    3.000    0.000    0.000 
#    0.000    0.000    0.000    0.000    0.000    0.000 
#
# Total GULP energy -595163.732666 kJ/mol
# GULP energy per Si atom -12399.244431 kJ/mol
# Density = 1.825546 g / cm^3
# Si number density = 18.297107 Si / 1000 Ang^3
#
#
#
# Elastic Constant Matrix: (Units=GPa)
#
#
# Indices 1 2 3 4 5 6 
#
# 1 47.6540 50.8930 61.9020 0.0000 0.0000 0.0000
# 2 50.8930 108.5860 95.8416 0.0000 0.0000 0.0000
# 3 61.9020 95.8416 190.6433 0.0000 0.0000 0.0000
# 4 0.0000 0.0000 0.0000 43.2698 0.0000 0.0000
# 5 0.0000 0.0000 0.0000 0.0000 32.2396 0.0000
# 6 0.0000 0.0000 0.0000 0.0000 0.0000 22.9197
#
#
#
# Elastic Compliance Matrix: (Units=1/GPa)
#
#
# Indices 1 2 3 4 5 6 
#
# 1 0.047435 -0.015528 -0.007596 0.000000 0.000000 0.000000
# 2 -0.015528 0.021638 -0.005836 0.000000 0.000000 0.000000
# 3 -0.007596 -0.005836 0.010646 0.000000 0.000000 0.000000
# 4 0.000000 0.000000 0.000000 0.023111 0.000000 0.000000
# 5 0.000000 0.000000 0.000000 0.000000 0.031018 0.000000
# 6 0.000000 0.000000 0.000000 0.000000 0.000000 0.043631
#
#
# Mechanical properties :
#
#
# Convention : Reuss Voigt Hill
#
# Bulk Modulus (GPa) = 45.87362 84.90628 65.38995
# Shear Modulus (GPa) = 20.60463 28.90224 24.75344
#
# Velocity S-wave (km/s) = 3.35940 3.97874 3.68212
# Velocity P-wave (km/s) = 6.33825 8.22266 7.34117
#
# Compressibility (1/GPa) = 0.02179902
#
# Stress axis : x y z
#
# Youngs Moduli (GPa) = 21.08165 46.21451 93.93352
#
# Poissons Ratio (x) = 0.71761 0.71350
# Poissons Ratio (y) = 0.32735 0.54822
# Poissons Ratio (z) = 0.16013 0.26972
#
# Static dielectric constant tensor:
#      x y z
#    x 3.135220 0.000000 0.000000 
#    y 0.000000 3.465160 0.000000 
#    z 0.000000 0.000000 3.702840 
# 
# 
# High freq. dielectric constant tensor:
#      x y z
#    x 1.683770 0.000000 0.000000 
#    y 0.000000 1.708010 0.000000 
#    z 0.000000 0.000000 1.726850 
# 
# From -- ./inp_files/37014.got.cif
#   From: 2010.03.12/outbox.cif.g09.slc.cpg/sg51_19_cif.got.tgz:37014.got - 2010.04.16 13:43:02.
