data_PCOD8213298
_publ_section_title
;
Structure prediction by ZEFSAII (Michael W. Deem and Ramdas Pophale) SiO2 
 PCOD8213298
Probable space group: P M M A
;
_chemical_formula_sum "Si O2"
_cell_formula_units_Z 64
_cell_length_a 14.698670
_cell_length_b 9.379981
_cell_length_c 24.382266
_cell_angle_alpha 90.000000
_cell_angle_beta 90.000000
_cell_angle_gamma 90.000000
_cell_volume 3361.662142
_symmetry_space_group_name_H-M "P M M A"
_symmetry_group_IT_number 51
_symmetry_cell_setting 'orthorhombic'
loop_
_space_group_symop_operation_xyz
x,y,z
1/2-x,-y,z
1/2+x,-y,-z
-x,y,-z
-x,-y,-z
1/2+x,y,-z
1/2-x,y,z
x,-y,z
loop_
_atom_site_type_symbol
_atom_site_label
_atom_site_fract_x
_atom_site_fract_y
_atom_site_fract_z
Si Si1 0.356570 0.835998 0.934180
Si Si2 0.998495 0.664336 0.369941
Si Si3 0.358438 0.161341 0.051496
Si Si4 0.645969 0.666618 0.844832
Si Si5 0.145976 0.664214 0.458926
Si Si6 0.497634 0.664682 0.244879
Si Si7 0.355084 0.169239 0.815935
Si Si8 0.855756 0.833745 0.433296
O O1 0.250000 0.815286 0.930731
O O2 0.392936 0.774776 0.875900
O O3 0.382596 0.000000 0.937217
O O4 0.393174 0.772386 0.992435
O O5 0.970174 0.500000 0.378446
O O6 0.084813 0.705495 0.407057
O O7 0.028404 0.694291 0.307712
O O8 0.912540 0.762717 0.384382
O O9 0.250000 0.162292 0.050716
O O10 0.395443 0.255868 0.101479
O O11 0.394276 0.000000 0.059717
O O12 0.750000 0.713656 0.833744
O O13 0.639573 0.500000 0.856435
O O14 0.588086 0.712847 0.791879
O O15 0.250000 0.695572 0.442380
O O16 0.132406 0.500000 0.476265
O O17 0.114941 0.760648 0.509767
O O18 0.520986 0.500000 0.234624
O O19 0.586804 0.755180 0.230803
O O20 0.250000 0.211546 0.807060
O O21 0.366772 0.000000 0.811586
O O22 0.750000 0.806651 0.420701
O O23 0.878695 0.000000 0.437171
#
# Coordination Sequence:
#
# PCOD8213298 Si02
#       8
#     8   8   8   8   8   8   8   8
#     4   7  11  23  45  71  95 120 155 201 252 304
#     4  10  21  36  54  76 103 137 175 212 248 289
#     4   8  13  24  46  73  96 120 156 203 253 305
#     4   9  18  33  51  70  97 133 168 205 252 303
#     4   9  18  34  57  83 108 134 167 207 249 294
#     4  10  22  37  51  72 102 135 173 213 251 293
#     4   9  18  34  55  75  97 129 168 210 256 305
#     4  10  21  36  55  81 111 139 166 200 247 300
#
# _framework density 19.038201000000001
#
# number of rings (size 3 to 8) (size 9 to 14) (size 15 to 20)
#    0.000    3.000    0.000    2.250    0.000    5.000 
#    0.000    6.250    0.000    6.000    0.000    5.250 
#    0.000    0.000    0.000    0.000    0.000    0.000 
#
# Total GULP energy -793150.467107 kJ/mol
# GULP energy per Si atom -12392.976049 kJ/mol
# Density = 1.899487 g / cm^3
# Si number density = 19.038201 Si / 1000 Ang^3
#
#
#
# Elastic Constant Matrix: (Units=GPa)
#
#
# Indices 1 2 3 4 5 6 
#
# 1 50.9907 19.7965 21.4933 0.0000 0.0000 0.0000
# 2 19.7965 46.1297 27.1176 0.0000 0.0000 0.0000
# 3 21.4933 27.1176 96.5556 0.0000 0.0000 0.0000
# 4 0.0000 0.0000 0.0000 36.3076 0.0000 0.0000
# 5 0.0000 0.0000 0.0000 0.0000 -89.5378 0.0000
# 6 0.0000 0.0000 0.0000 0.0000 0.0000 19.3892
#
#
#
# Elastic Compliance Matrix: (Units=1/GPa)
#
#
# Indices 1 2 3 4 5 6 
#
# 1 0.024219 -0.008653 -0.002961 0.000000 0.000000 0.000000
# 2 -0.008653 0.029056 -0.006234 0.000000 0.000000 0.000000
# 3 -0.002961 -0.006234 0.012767 0.000000 0.000000 0.000000
# 4 0.000000 0.000000 0.000000 0.027542 0.000000 0.000000
# 5 0.000000 0.000000 0.000000 0.000000 -0.011168 0.000000
# 6 0.000000 0.000000 0.000000 0.000000 0.000000 0.051575
#
#
# Mechanical properties :
#
#
# Convention : Reuss Voigt Hill
#
# Bulk Modulus (GPa) = 32.95374 36.72120 34.83747
# Shear Modulus (GPa) = 27.80829 1.58304 14.69566
#
# Velocity S-wave (km/s) = 3.82600 0.91286 2.78133
# Velocity P-wave (km/s) = 6.07162 4.52119 5.35283
#
# Compressibility (1/GPa) = 0.03034557
#
# Stress axis : x y z
#
# Youngs Moduli (GPa) = 41.29010 34.41597 78.32853
#
# Poissons Ratio (x) = 0.29780 0.23193
# Poissons Ratio (y) = 0.35728 0.48832
# Poissons Ratio (z) = 0.12226 0.21456
#
# Static dielectric constant tensor:
#      x y z
#    x 3.376150 0.000000 0.000000 
#    y 0.000000 3.303450 0.000000 
#    z 0.000000 0.000000 3.706470 
# 
# 
# High freq. dielectric constant tensor:
#      x y z
#    x 1.733430 0.000000 0.000000 
#    y 0.000000 1.712790 0.000000 
#    z 0.000000 0.000000 1.747240 
# 
# From -- ./inp_files/35869.got.cif
#   From: 2010.03.12/outbox.cif.g09.slc.cpg/sg51_18_cif.got.tgz:35869.got - 2010.04.16 13:43:02.
