data_PCOD8213301
_publ_section_title
;
Structure prediction by ZEFSAII (Michael W. Deem and Ramdas Pophale) SiO2 
 PCOD8213301
Probable space group: P M M A
;
_chemical_formula_sum "Si O2"
_cell_formula_units_Z 40
_cell_length_a 7.714299
_cell_length_b 9.336810
_cell_length_c 29.465076
_cell_angle_alpha 90.000000
_cell_angle_beta 90.000000
_cell_angle_gamma 90.000000
_cell_volume 2122.279380
_symmetry_space_group_name_H-M "P M M A"
_symmetry_group_IT_number 51
_symmetry_cell_setting 'orthorhombic'
loop_
_space_group_symop_operation_xyz
x,y,z
1/2-x,-y,z
1/2+x,-y,-z
-x,y,-z
-x,-y,-z
1/2+x,y,-z
1/2-x,y,z
x,-y,z
loop_
_atom_site_type_symbol
_atom_site_label
_atom_site_fract_x
_atom_site_fract_y
_atom_site_fract_z
Si Si1 0.750000 0.330669 0.713822
Si Si2 0.943753 0.670481 0.450827
Si Si3 0.051124 0.842758 0.865897
Si Si4 0.750000 0.328933 0.612437
Si Si5 0.452686 0.339115 0.049737
Si Si6 0.549351 0.332218 0.219717
O O1 0.750000 0.500000 0.710237
O O2 0.750000 0.264634 0.663282
O O3 0.574114 0.280808 0.739214
O O4 0.750000 0.725159 0.438908
O O5 0.947900 0.500000 0.451938
O O6 0.000000 0.730045 0.500000
O O7 0.078133 0.728198 0.413170
O O8 0.250000 0.864703 0.854843
O O9 0.975631 0.746940 0.825094
O O10 0.035909 0.765400 0.913929
O O11 0.960402 0.000000 0.867510
O O12 0.750000 0.500000 0.613015
O O13 0.250000 0.340001 0.057415
O O14 0.529003 0.500000 0.055435
O O15 0.500000 0.279734 0.000000
O O16 0.750000 0.295226 0.231479
O O17 0.528027 0.500000 0.210053
#
# Coordination Sequence:
#
# PCOD8213301 Si02
#       6
#     4   8   8   4   8   8
#     4   9  18  30  45  65  89 119 165 217 258 299
#     4   9  14  20  31  47  72 108 149 193 242 293
#     4  10  21  36  54  77 103 130 164 207 254 302
#     4   9  16  24  34  53  79 109 151 205 250 287
#     4  10  21  36  55  78 104 135 169 203 243 296
#     4   9  18  33  52  71  95 128 166 209 255 304
#
# _framework density 18.847662
#
# number of rings (size 3 to 8) (size 9 to 14) (size 15 to 20)
#    0.000    2.600    1.000    1.200    1.400    3.600 
#    0.000    4.000    0.000    0.000    0.000    0.000 
#    0.000    0.000    0.000    0.000    0.000    4.000 
#
# Total GULP energy -495829.893603 kJ/mol
# GULP energy per Si atom -12395.747340 kJ/mol
# Density = 1.880476 g / cm^3
# Si number density = 18.847662 Si / 1000 Ang^3
#
#
#
# Elastic Constant Matrix: (Units=GPa)
#
#
# Indices 1 2 3 4 5 6 
#
# 1 110.6611 23.5700 65.4799 0.0000 0.0000 0.0000
# 2 23.5700 52.6422 47.1856 0.0000 0.0000 0.0000
# 3 65.4799 47.1856 181.9046 0.0000 0.0000 0.0000
# 4 0.0000 0.0000 0.0000 2.0868 0.0000 0.0000
# 5 0.0000 0.0000 0.0000 0.0000 34.7828 0.0000
# 6 0.0000 0.0000 0.0000 0.0000 0.0000 7.6943
#
#
#
# Elastic Compliance Matrix: (Units=1/GPa)
#
#
# Indices 1 2 3 4 5 6 
#
# 1 0.011626 -0.001895 -0.003693 0.000000 0.000000 0.000000
# 2 -0.001895 0.025060 -0.005818 0.000000 0.000000 0.000000
# 3 -0.003693 -0.005818 0.008336 0.000000 0.000000 0.000000
# 4 0.000000 0.000000 0.000000 0.479211 0.000000 0.000000
# 5 0.000000 0.000000 0.000000 0.000000 0.028750 0.000000
# 6 0.000000 0.000000 0.000000 0.000000 0.000000 0.129966
#
#
# Mechanical properties :
#
#
# Convention : Reuss Voigt Hill
#
# Bulk Modulus (GPa) = 45.02761 68.63099 56.82930
# Shear Modulus (GPa) = 7.01101 22.84428 14.92764
#
# Velocity S-wave (km/s) = 1.93078 3.48523 2.81733
# Velocity P-wave (km/s) = 5.37705 7.25867 6.38753
#
# Compressibility (1/GPa) = 0.02220860
#
# Stress axis : x y z
#
# Youngs Moduli (GPa) = 86.01730 39.90450 119.95926
#
# Poissons Ratio (x) = 0.07561 0.44305
# Poissons Ratio (y) = 0.16298 0.69797
# Poissons Ratio (z) = 0.31769 0.23218
#
# Static dielectric constant tensor:
#      x y z
#    x 3.640180 0.000000 0.000000 
#    y 0.000000 3.184820 0.000000 
#    z 0.000000 0.000000 3.693620 
# 
# 
# High freq. dielectric constant tensor:
#      x y z
#    x 1.741030 0.000000 0.000000 
#    y 0.000000 1.675920 0.000000 
#    z 0.000000 0.000000 1.732600 
# 
# From -- ./inp_files/36069.got.cif
#   From: 2010.03.12/outbox.cif.g09.slc.cpg/sg51_19_cif.got.tgz:36069.got - 2010.04.16 13:43:02.
