data_PCOD8213855
_publ_section_title
;
Structure prediction by ZEFSAII (Michael W. Deem and Ramdas Pophale) SiO2 
 PCOD8213855
Probable space group: P M M A
;
_chemical_formula_sum "Si O2"
_cell_formula_units_Z 44
_cell_length_a 8.564922
_cell_length_b 27.987481
_cell_length_c 9.268240
_cell_angle_alpha 90.000000
_cell_angle_beta 90.000000
_cell_angle_gamma 90.000000
_cell_volume 2221.695295
_symmetry_space_group_name_H-M "P M M A"
_symmetry_group_IT_number 51
_symmetry_cell_setting 'orthorhombic'
loop_
_space_group_symop_operation_xyz
x,y,z
1/2-x,-y,z
1/2+x,-y,-z
-x,y,-z
-x,-y,-z
1/2+x,y,-z
1/2-x,y,z
x,-y,z
loop_
_atom_site_type_symbol
_atom_site_label
_atom_site_fract_x
_atom_site_fract_y
_atom_site_fract_z
Si Si1 0.564889 0.500000 0.839514
Si Si2 0.065379 0.409248 0.339949
Si Si3 0.067521 0.133370 0.347764
Si Si4 0.429487 0.946761 0.843010
Si Si5 0.934845 0.681507 0.841455
Si Si6 0.434200 0.234541 0.657660
O O1 0.750000 0.500000 0.848916
O O2 0.502572 0.546232 0.753523
O O3 0.500000 0.500000 0.000000
O O4 0.250000 0.410642 0.349897
O O5 0.006968 0.361157 0.261940
O O6 0.000000 0.411745 0.500000
O O7 0.250000 0.144191 0.360441
O O8 0.000000 0.117068 0.500000
O O9 0.036547 0.089862 0.242259
O O10 0.982637 0.181391 0.294214
O O11 0.250000 0.929433 0.845041
O O12 0.441274 0.000000 0.774735
O O13 0.500000 0.948168 0.000000
O O14 0.750000 0.683819 0.849452
O O15 0.999138 0.730737 0.778762
O O16 0.000000 0.672336 0.000000
O O17 0.500000 0.247583 0.500000
O O18 0.250000 0.239216 0.651827
#
# Coordination Sequence:
#
# PCOD8213855 Si02
#       6
#     4   8   8   8   8   8
#     4  10  21  38  58  86 118 152 191 236 286 338
#     4  10  22  38  59  85 116 151 193 237 283 340
#     4  11  22  38  60  86 116 150 190 236 285 339
#     4  10  21  38  59  84 115 151 191 235 284 339
#     4  11  23  39  58  85 116 150 191 237 287 340
#     4  11  22  39  61  85 114 149 188 233 284 341
#
# _framework density 19.804697000000001
#
# number of rings (size 3 to 8) (size 9 to 14) (size 15 to 20)
#    0.000    1.455    0.000    6.818    0.000    5.818 
#    0.000    3.636    0.000    0.000    0.000    0.000 
#    0.000    0.000    0.000    0.000    0.000    0.000 
#
# Total GULP energy -545761.483148 kJ/mol
# GULP energy per Si atom -12403.670072 kJ/mol
# Density = 1.975962 g / cm^3
# Si number density = 19.804697 Si / 1000 Ang^3
#
#
#
# Elastic Constant Matrix: (Units=GPa)
#
#
# Indices 1 2 3 4 5 6 
#
# 1 86.1516 26.7874 35.4536 0.0000 0.0000 0.0000
# 2 26.7874 119.6093 75.4062 0.0000 0.0000 0.0000
# 3 35.4536 75.4062 138.8592 0.0000 0.0000 0.0000
# 4 0.0000 0.0000 0.0000 47.5726 0.0000 0.0000
# 5 0.0000 0.0000 0.0000 0.0000 38.5126 0.0000
# 6 0.0000 0.0000 0.0000 0.0000 0.0000 25.7265
#
#
#
# Elastic Compliance Matrix: (Units=1/GPa)
#
#
# Indices 1 2 3 4 5 6 
#
# 1 0.013093 -0.001254 -0.002662 0.000000 0.000000 0.000000
# 2 -0.001254 0.012833 -0.006649 0.000000 0.000000 0.000000
# 3 -0.002662 -0.006649 0.011492 0.000000 0.000000 0.000000
# 4 0.000000 0.000000 0.000000 0.021020 0.000000 0.000000
# 5 0.000000 0.000000 0.000000 0.000000 0.025966 0.000000
# 6 0.000000 0.000000 0.000000 0.000000 0.000000 0.038870
#
#
# Mechanical properties :
#
#
# Convention : Reuss Voigt Hill
#
# Bulk Modulus (GPa) = 61.39387 68.87939 65.13663
# Shear Modulus (GPa) = 33.37063 36.16054 34.76559
#
# Velocity S-wave (km/s) = 4.10931 4.27764 4.19432
# Velocity P-wave (km/s) = 7.31999 7.69756 7.51115
#
# Compressibility (1/GPa) = 0.01628827
#
# Stress axis : x y z
#
# Youngs Moduli (GPa) = 76.37779 77.92438 87.01992
#
# Poissons Ratio (x) = 0.09773 0.23163
# Poissons Ratio (y) = 0.09579 0.57856
# Poissons Ratio (z) = 0.20330 0.51809
#
# Static dielectric constant tensor:
#      x y z
#    x 3.650370 0.000000 0.000000 
#    y 0.000000 3.896230 0.000000 
#    z 0.000000 0.000000 3.572600 
# 
# 
# High freq. dielectric constant tensor:
#      x y z
#    x 1.782100 0.000000 0.000000 
#    y 0.000000 1.787920 0.000000 
#    z 0.000000 0.000000 1.774130 
# 
# From -- ./inp_files/5893.got.cif
#   From: 2010.03.12/outbox.cif.g09.slc.cpg/sg51_3_cif.got.tgz:5893.got - 2010.04.16 13:43:02.
