data_PCOD8213789
_publ_section_title
;
Structure prediction by ZEFSAII (Michael W. Deem and Ramdas Pophale) SiO2 
 PCOD8213789
Probable space group: P M M A
;
_chemical_formula_sum "Si O2"
_cell_formula_units_Z 48
_cell_length_a 8.891353
_cell_length_b 9.419185
_cell_length_c 29.120549
_cell_angle_alpha 90.000000
_cell_angle_beta 90.000000
_cell_angle_gamma 90.000000
_cell_volume 2438.825560
_symmetry_space_group_name_H-M "P M M A"
_symmetry_group_IT_number 51
_symmetry_cell_setting 'orthorhombic'
loop_
_space_group_symop_operation_xyz
x,y,z
1/2-x,-y,z
1/2+x,-y,-z
-x,y,-z
-x,-y,-z
1/2+x,y,-z
1/2-x,y,z
x,-y,z
loop_
_atom_site_type_symbol
_atom_site_label
_atom_site_fract_x
_atom_site_fract_y
_atom_site_fract_z
Si Si1 0.075508 0.666838 0.281010
Si Si2 0.425119 0.264401 0.108409
Si Si3 0.925494 0.500000 0.049888
Si Si4 0.426883 0.165546 0.799925
Si Si5 0.075910 0.835807 0.373247
Si Si6 0.918143 0.000000 0.952665
Si Si7 0.073122 0.339063 0.547980
O O1 0.250000 0.687338 0.267451
O O2 0.033514 0.500000 0.283063
O O3 0.039668 0.739649 0.329325
O O4 0.970114 0.748339 0.245333
O O5 0.250000 0.310159 0.109339
O O6 0.527876 0.371179 0.081269
O O7 0.481050 0.241750 0.159851
O O8 0.458683 0.127452 0.079537
O O9 0.750000 0.500000 0.040445
O O10 0.000000 0.500000 0.000000
O O11 0.250000 0.179748 0.809227
O O12 0.473825 0.000000 0.795227
O O13 0.250000 0.824131 0.386633
O O14 0.979198 0.773834 0.414569
O O15 0.030964 0.000000 0.363833
O O16 0.750000 0.000000 0.969279
O O17 0.000000 0.000000 0.000000
O O18 0.250000 0.327878 0.542391
O O19 0.024686 0.500000 0.561748
O O20 0.000000 0.294932 0.500000
#
# Coordination Sequence:
#
# PCOD8213789 Si02
#       7
#     8   8   4   8   8   4   8
#     4  10  22  40  64  91 119 157 202 250 303 364
#     4  11  23  42  65  91 121 161 204 249 301 358
#     4  12  26  44  64  92 126 164 204 248 299 356
#     4  11  24  41  62  90 123 160 200 248 305 363
#     4  10  21  38  61  89 121 159 204 253 307 365
#     4  10  22  38  62  92 120 154 198 244 295 352
#     4  10  21  37  59  87 120 161 207 255 307 362
#
# _framework density 19.681605000000001
#
# number of rings (size 3 to 8) (size 9 to 14) (size 15 to 20)
#    0.000    1.500    0.833    3.750    1.167    7.667 
#    0.000    0.000    0.000    0.000    0.000    0.000 
#    0.000    0.000    0.000    0.000    0.000    0.000 
#
# Total GULP energy -595178.459189 kJ/mol
# GULP energy per Si atom -12399.551233 kJ/mol
# Density = 1.963681 g / cm^3
# Si number density = 19.681605 Si / 1000 Ang^3
#
#
#
# Elastic Constant Matrix: (Units=GPa)
#
#
# Indices 1 2 3 4 5 6 
#
# 1 91.5897 53.3037 54.0875 0.0000 0.0000 0.0000
# 2 53.3037 126.8599 57.0274 0.0000 0.0000 0.0000
# 3 54.0875 57.0274 125.6363 0.0000 0.0000 0.0000
# 4 0.0000 0.0000 0.0000 36.7369 0.0000 0.0000
# 5 0.0000 0.0000 0.0000 0.0000 41.1604 0.0000
# 6 0.0000 0.0000 0.0000 0.0000 0.0000 33.2387
#
#
#
# Elastic Compliance Matrix: (Units=1/GPa)
#
#
# Indices 1 2 3 4 5 6 
#
# 1 0.016634 -0.004737 -0.005011 0.000000 0.000000 0.000000
# 2 -0.004737 0.011252 -0.003068 0.000000 0.000000 0.000000
# 3 -0.005011 -0.003068 0.011510 0.000000 0.000000 0.000000
# 4 0.000000 0.000000 0.000000 0.027221 0.000000 0.000000
# 5 0.000000 0.000000 0.000000 0.000000 0.024295 0.000000
# 6 0.000000 0.000000 0.000000 0.000000 0.000000 0.030085
#
#
# Mechanical properties :
#
#
# Convention : Reuss Voigt Hill
#
# Bulk Modulus (GPa) = 72.65459 74.76923 73.71191
# Shear Modulus (GPa) = 33.06497 34.20502 33.63499
#
# Velocity S-wave (km/s) = 4.10322 4.17336 4.13844
# Velocity P-wave (km/s) = 7.70997 7.82907 7.76975
#
# Compressibility (1/GPa) = 0.01376376
#
# Stress axis : x y z
#
# Youngs Moduli (GPa) = 60.11706 88.87110 86.88421
#
# Poissons Ratio (x) = 0.42095 0.43539
# Poissons Ratio (y) = 0.28475 0.26659
# Poissons Ratio (z) = 0.30126 0.27269
#
# Static dielectric constant tensor:
#      x y z
#    x 3.560540 0.000000 0.000000 
#    y 0.000000 3.810880 0.000000 
#    z 0.000000 0.000000 3.708480 
# 
# 
# High freq. dielectric constant tensor:
#      x y z
#    x 1.769990 0.000000 0.000000 
#    y 0.000000 1.781860 0.000000 
#    z 0.000000 0.000000 1.779850 
# 
# From -- ./inp_files/37141.got.cif
#   From: 2010.03.12/outbox.cif.g09.slc.cpg/sg51_19_cif.got.tgz:37141.got - 2010.04.16 13:43:02.
