data_PCOD8213228
_publ_section_title
;
Structure prediction by ZEFSAII (Michael W. Deem and Ramdas Pophale) SiO2 
 PCOD8213228
Probable space group: P M M A
;
_chemical_formula_sum "Si O2"
_cell_formula_units_Z 48
_cell_length_a 9.453545
_cell_length_b 9.579194
_cell_length_c 30.932604
_cell_angle_alpha 90.000000
_cell_angle_beta 90.000000
_cell_angle_gamma 90.000000
_cell_volume 2801.174385
_symmetry_space_group_name_H-M "P M M A"
_symmetry_group_IT_number 51
_symmetry_cell_setting 'orthorhombic'
loop_
_space_group_symop_operation_xyz
x,y,z
1/2-x,-y,z
1/2+x,-y,-z
-x,y,-z
-x,-y,-z
1/2+x,y,-z
1/2-x,y,z
x,-y,z
loop_
_atom_site_type_symbol
_atom_site_label
_atom_site_fract_x
_atom_site_fract_y
_atom_site_fract_z
Si Si1 0.915050 0.838072 0.712147
Si Si2 0.914898 0.662542 0.957148
Si Si3 0.906020 0.165615 0.208295
Si Si4 0.093019 0.333654 0.461231
Si Si5 0.581242 0.344270 0.633317
Si Si6 0.414171 0.836363 0.888705
O O1 0.750000 0.810465 0.717737
O O2 0.976786 0.758151 0.670399
O O3 0.987220 0.776749 0.755435
O O4 0.950214 0.000000 0.705382
O O5 0.750000 0.700659 0.963356
O O6 0.934684 0.500000 0.946402
O O7 0.979968 0.750512 0.918360
O O8 0.000000 0.704316 0.000000
O O9 0.750000 0.225058 0.218526
O O10 0.952518 0.210655 0.160182
O O11 0.902473 0.000000 0.209654
O O12 0.250000 0.271497 0.466762
O O13 0.098214 0.500000 0.464016
O O14 0.029191 0.292066 0.414104
O O15 0.000000 0.269658 0.500000
O O16 0.750000 0.345336 0.632459
O O17 0.524188 0.500000 0.643007
O O18 0.250000 0.801342 0.898910
O O19 0.442232 0.000000 0.895755
#
# Coordination Sequence:
#
# PCOD8213228 Si02
#       6
#     8   8   8   8   8   8
#     4   9  16  26  43  65  84 107 144 181 208 245
#     4  10  21  36  53  73  98 129 162 193 229 275
#     4   8  15  29  47  66  90 119 147 177 218 265
#     4   8  13  22  37  55  74  99 132 167 204 248
#     4   8  14  25  40  58  82 110 136 167 212 258
#     4   9  18  33  53  75  97 123 157 195 234 275
#
# _framework density 17.135670999999999
#
# number of rings (size 3 to 8) (size 9 to 14) (size 15 to 20)
#    0.000    3.333    0.000    2.500    0.000    2.333 
#    0.000    3.333    0.000    5.000    0.000    0.000 
#    0.000    0.000    0.000    0.000    0.000    0.000 
#
# Total GULP energy -594889.605200 kJ/mol
# GULP energy per Si atom -12393.533442 kJ/mol
# Density = 1.709667 g / cm^3
# Si number density = 17.135671 Si / 1000 Ang^3
#
#
#
# Elastic Constant Matrix: (Units=GPa)
#
#
# Indices 1 2 3 4 5 6 
#
# 1 80.7204 34.7312 78.7994 0.0000 0.0000 0.0000
# 2 34.7312 40.4807 54.5162 0.0000 0.0000 0.0000
# 3 78.7994 54.5162 175.2835 0.0000 0.0000 0.0000
# 4 0.0000 0.0000 0.0000 27.6362 0.0000 0.0000
# 5 0.0000 0.0000 0.0000 0.0000 33.9630 0.0000
# 6 0.0000 0.0000 0.0000 0.0000 0.0000 17.4977
#
#
#
# Elastic Compliance Matrix: (Units=1/GPa)
#
#
# Indices 1 2 3 4 5 6 
#
# 1 0.024478 -0.010637 -0.007696 0.000000 0.000000 0.000000
# 2 -0.010637 0.047130 -0.009876 0.000000 0.000000 0.000000
# 3 -0.007696 -0.009876 0.012236 0.000000 0.000000 0.000000
# 4 0.000000 0.000000 0.000000 0.036184 0.000000 0.000000
# 5 0.000000 0.000000 0.000000 0.000000 0.029444 0.000000
# 6 0.000000 0.000000 0.000000 0.000000 0.000000 0.057150
#
#
# Mechanical properties :
#
#
# Convention : Reuss Voigt Hill
#
# Bulk Modulus (GPa) = 36.46189 70.28645 53.37417
# Shear Modulus (GPa) = 18.36997 24.38192 21.37594
#
# Velocity S-wave (km/s) = 3.27774 3.77619 3.53576
# Velocity P-wave (km/s) = 5.97071 7.75368 6.91986
#
# Compressibility (1/GPa) = 0.02742590
#
# Stress axis : x y z
#
# Youngs Moduli (GPa) = 40.85318 21.21784 81.72324
#
# Poissons Ratio (x) = 0.22570 0.62892
# Poissons Ratio (y) = 0.43456 0.80712
# Poissons Ratio (z) = 0.31440 0.20955
#
# Static dielectric constant tensor:
#      x y z
#    x 3.234600 0.000000 0.000000 
#    y 0.000000 2.895070 0.000000 
#    z 0.000000 0.000000 3.588490 
# 
# 
# High freq. dielectric constant tensor:
#      x y z
#    x 1.643400 0.000000 0.000000 
#    y 0.000000 1.620500 0.000000 
#    z 0.000000 0.000000 1.677450 
# 
# From -- ./inp_files/36151.got.cif
#   From: 2010.03.12/outbox.cif.g09.slc.cpg/sg51_19_cif.got.tgz:36151.got - 2010.04.16 13:43:02.
