data_PCOD8213178
_publ_section_title
;
Structure prediction by ZEFSAII (Michael W. Deem and Ramdas Pophale) SiO2 
 PCOD8213178
Probable space group: P M M A
;
_chemical_formula_sum "Si O2"
_cell_formula_units_Z 64
_cell_length_a 28.966723
_cell_length_b 9.237682
_cell_length_c 12.575462
_cell_angle_alpha 90.000000
_cell_angle_beta 90.000000
_cell_angle_gamma 90.000000
_cell_volume 3365.009723
_symmetry_space_group_name_H-M "P M M A"
_symmetry_group_IT_number 51
_symmetry_cell_setting 'orthorhombic'
loop_
_space_group_symop_operation_xyz
x,y,z
1/2-x,-y,z
1/2+x,-y,-z
-x,y,-z
-x,-y,-z
1/2+x,y,-z
1/2-x,y,z
x,-y,z
loop_
_atom_site_type_symbol
_atom_site_label
_atom_site_fract_x
_atom_site_fract_y
_atom_site_fract_z
Si Si1 0.698770 0.165803 0.963621
Si Si2 0.958381 0.671439 0.295436
Si Si3 0.304404 0.659507 0.831802
Si Si4 0.301523 0.165848 0.627728
Si Si5 0.947198 0.170918 0.672254
Si Si6 0.048219 0.330427 0.950483
Si Si7 0.103555 0.833325 0.542269
Si Si8 0.895479 0.833243 0.881646
O O1 0.750000 0.215550 0.924044
O O2 0.660342 0.186308 0.871349
O O3 0.700968 0.000000 0.001038
O O4 0.680362 0.257173 0.063066
O O5 0.962719 0.500000 0.309947
O O6 0.949199 0.713572 0.173017
O O7 0.916729 0.732190 0.365603
O O8 0.005138 0.744550 0.336837
O O9 0.250000 0.645282 0.830267
O O10 0.327682 0.500000 0.831698
O O11 0.320338 0.744275 0.727690
O O12 0.250000 0.215976 0.588909
O O13 0.340533 0.187239 0.537000
O O14 0.298899 0.000000 0.664248
O O15 0.916382 0.213327 0.571148
O O16 0.919335 0.227079 0.775364
O O17 0.956951 0.000000 0.676862
O O18 0.054779 0.500000 0.966754
O O19 0.088489 0.251101 0.013893
O O20 0.000000 0.277455 0.000000
O O21 0.090913 0.000000 0.567895
O O22 0.908711 0.000000 0.897240
#
# Coordination Sequence:
#
# PCOD8213178 Si02
#       8
#     8   8   8   8   8   8   8   8
#     4   9  18  33  51  75 109 145 180 219 264 317
#     4  11  23  38  58  83 111 142 181 226 274 329
#     4   9  17  29  47  72 102 136 173 216 265 313
#     4   9  18  34  54  76 105 141 179 219 266 320
#     4  10  21  39  58  79 109 144 183 228 274 320
#     4  10  21  38  56  79 111 142 173 217 274 327
#     4  10  22  38  57  81 110 144 183 226 273 322
#     4  10  21  35  56  82 108 144 186 222 264 322
#
# _framework density 19.019262999999999
#
# number of rings (size 3 to 8) (size 9 to 14) (size 15 to 20)
#    0.000    2.250    1.250    1.125    1.750    5.750 
#    0.000    0.625    0.000    3.750    0.000    0.000 
#    0.000    7.000    0.000    0.000    0.000    0.000 
#
# Total GULP energy -793424.551985 kJ/mol
# GULP energy per Si atom -12397.258625 kJ/mol
# Density = 1.897597 g / cm^3
# Si number density = 19.019263 Si / 1000 Ang^3
#
#
#
# Elastic Constant Matrix: (Units=GPa)
#
#
# Indices 1 2 3 4 5 6 
#
# 1 124.3006 32.6742 52.0567 0.0000 0.0000 0.0000
# 2 32.6742 56.0674 31.8801 0.0000 0.0000 0.0000
# 3 52.0567 31.8801 94.1550 0.0000 0.0000 0.0000
# 4 0.0000 0.0000 0.0000 20.7510 0.0000 0.0000
# 5 0.0000 0.0000 0.0000 0.0000 25.2444 0.0000
# 6 0.0000 0.0000 0.0000 0.0000 0.0000 13.5048
#
#
#
# Elastic Compliance Matrix: (Units=1/GPa)
#
#
# Indices 1 2 3 4 5 6 
#
# 1 0.011048 -0.003672 -0.004865 0.000000 0.000000 0.000000
# 2 -0.003672 0.023309 -0.005862 0.000000 0.000000 0.000000
# 3 -0.004865 -0.005862 0.015295 0.000000 0.000000 0.000000
# 4 0.000000 0.000000 0.000000 0.048191 0.000000 0.000000
# 5 0.000000 0.000000 0.000000 0.000000 0.039613 0.000000
# 6 0.000000 0.000000 0.000000 0.000000 0.000000 0.074048
#
#
# Mechanical properties :
#
#
# Convention : Reuss Voigt Hill
#
# Bulk Modulus (GPa) = 47.95208 56.41610 52.18409
# Shear Modulus (GPa) = 20.22235 22.42749 21.32492
#
# Velocity S-wave (km/s) = 3.26430 3.43767 3.35211
# Velocity P-wave (km/s) = 6.28288 6.74417 6.51761
#
# Compressibility (1/GPa) = 0.02085415
#
# Stress axis : x y z
#
# Youngs Moduli (GPa) = 90.51743 42.90231 65.38006
#
# Poissons Ratio (x) = 0.15754 0.31805
# Poissons Ratio (y) = 0.33239 0.38325
# Poissons Ratio (z) = 0.44034 0.25149
#
# Static dielectric constant tensor:
#      x y z
#    x 3.621100 0.000000 0.000000 
#    y 0.000000 3.537530 0.000000 
#    z 0.000000 0.000000 3.372640 
# 
# 
# High freq. dielectric constant tensor:
#      x y z
#    x 1.751840 0.000000 0.000000 
#    y 0.000000 1.733800 0.000000 
#    z 0.000000 0.000000 1.717520 
# 
# From -- ./inp_files/19632.got.cif
#   From: 2010.03.12/outbox.cif.g09.slc.cpg/sg51_10_cif.got.tgz:19632.got - 2010.04.16 13:43:02.
