data_PCOD8213590
_publ_section_title
;
Structure prediction by ZEFSAII (Michael W. Deem and Ramdas Pophale) SiO2 
 PCOD8213590
Probable space group: P M M A
;
_chemical_formula_sum "Si O2"
_cell_formula_units_Z 64
_cell_length_a 15.209395
_cell_length_b 19.237680
_cell_length_c 11.846020
_cell_angle_alpha 90.000000
_cell_angle_beta 90.000000
_cell_angle_gamma 90.000000
_cell_volume 3466.068145
_symmetry_space_group_name_H-M "P M M A"
_symmetry_group_IT_number 51
_symmetry_cell_setting 'orthorhombic'
loop_
_space_group_symop_operation_xyz
x,y,z
1/2-x,-y,z
1/2+x,-y,-z
-x,y,-z
-x,-y,-z
1/2+x,y,-z
1/2-x,y,z
x,-y,z
loop_
_atom_site_type_symbol
_atom_site_label
_atom_site_fract_x
_atom_site_fract_y
_atom_site_fract_z
Si Si1 0.347670 0.920693 0.785025
Si Si2 0.348930 0.830558 0.244840
Si Si3 0.147923 0.682241 0.987923
Si Si4 0.598586 0.833561 0.007039
Si Si5 0.147988 0.670753 0.242027
Si Si6 0.006727 0.918102 0.370982
Si Si7 0.149843 0.419711 0.789251
Si Si8 0.991979 0.581067 0.629087
O O1 0.250000 0.913206 0.732317
O O2 0.417318 0.894939 0.691828
O O3 0.367763 0.000000 0.818875
O O4 0.350511 0.875512 0.897661
O O5 0.250000 0.845621 0.285228
O O6 0.353562 0.845713 0.111552
O O7 0.374781 0.750811 0.268524
O O8 0.411491 0.880559 0.314253
O O9 0.250000 0.702199 0.982777
O O10 0.121454 0.623446 0.899027
O O11 0.095319 0.752310 0.958921
O O12 0.124609 0.653753 0.111996
O O13 0.500000 0.862525 0.000000
O O14 0.250000 0.654771 0.267475
O O15 0.089261 0.622119 0.319260
O O16 0.000000 0.893688 0.500000
O O17 0.023130 0.000000 0.362447
O O18 0.250000 0.402218 0.751695
O O19 0.141038 0.500000 0.822978
O O20 0.084564 0.399799 0.687939
O O21 0.970470 0.500000 0.641634
O O22 0.000000 0.603760 0.500000
#
# Coordination Sequence:
#
# PCOD8213590 Si02
#       8
#     8   8   8   8   8   8   8   8
#     4  10  21  37  56  80 112 146 181 225 274 325
#     4  10  21  38  57  82 114 146 180 223 275 327
#     4   9  19  34  54  82 111 140 177 215 267 333
#     4  11  20  33  57  84 112 144 178 221 274 329
#     4   9  20  37  56  79 110 142 175 221 270 320
#     4  10  22  39  58  82 110 144 188 231 272 320
#     4   9  19  35  54  78 109 141 176 223 272 320
#     4  10  22  37  54  78 106 142 187 227 266 318
#
# _framework density 18.464725999999999
#
# number of rings (size 3 to 8) (size 9 to 14) (size 15 to 20)
#    0.000    2.250    1.250    1.875    3.500    3.250 
#    0.000    5.000    0.000    1.500    0.000    0.000 
#    0.000    0.000    0.000    0.000    0.000    0.000 
#
# Total GULP energy -793736.942755 kJ/mol
# GULP energy per Si atom -12402.139731 kJ/mol
# Density = 1.842270 g / cm^3
# Si number density = 18.464726 Si / 1000 Ang^3
#
#
#
# Elastic Constant Matrix: (Units=GPa)
#
#
# Indices 1 2 3 4 5 6 
#
# 1 111.9150 48.4553 63.8149 0.0000 0.0000 0.0000
# 2 48.4553 62.9247 64.9745 0.0000 0.0000 0.0000
# 3 63.8149 64.9745 137.7065 0.0000 0.0000 0.0000
# 4 0.0000 0.0000 0.0000 -10.5501 0.0000 0.0000
# 5 0.0000 0.0000 0.0000 0.0000 22.0123 0.0000
# 6 0.0000 0.0000 0.0000 0.0000 0.0000 33.5450
#
#
#
# Elastic Compliance Matrix: (Units=1/GPa)
#
#
# Indices 1 2 3 4 5 6 
#
# 1 0.013906 -0.007906 -0.002714 0.000000 0.000000 0.000000
# 2 -0.007906 0.035486 -0.013080 0.000000 0.000000 0.000000
# 3 -0.002714 -0.013080 0.014691 0.000000 0.000000 0.000000
# 4 0.000000 0.000000 0.000000 -0.094786 0.000000 0.000000
# 5 0.000000 0.000000 0.000000 0.000000 0.045429 0.000000
# 6 0.000000 0.000000 0.000000 0.000000 0.000000 0.029811
#
#
# Mechanical properties :
#
#
# Convention : Reuss Voigt Hill
#
# Bulk Modulus (GPa) = 59.93931 74.11508 67.02719
# Shear Modulus (GPa) = 51.28388 18.02154 34.65271
#
# Velocity S-wave (km/s) = 5.27582 3.12749 4.33679
# Velocity P-wave (km/s) = 8.34532 7.29845 7.83938
#
# Compressibility (1/GPa) = 0.01668354
#
# Stress axis : x y z
#
# Youngs Moduli (GPa) = 71.91247 28.18035 68.06952
#
# Poissons Ratio (x) = 0.22279 0.18473
# Poissons Ratio (y) = 0.56854 0.89033
# Poissons Ratio (z) = 0.19516 0.36859
#
# Static dielectric constant tensor:
#      x y z
#    x 3.489620 0.000000 0.000000 
#    y 0.000000 3.316490 0.000000 
#    z 0.000000 0.000000 3.352940 
# 
# 
# High freq. dielectric constant tensor:
#      x y z
#    x 1.729510 0.000000 0.000000 
#    y 0.000000 1.710220 0.000000 
#    z 0.000000 0.000000 1.707460 
# 
# From -- ./inp_files/16853.got.cif
#   From: 2010.03.12/outbox.cif.g09.slc.cpg/sg51_9_cif.got.tgz:16853.got - 2010.04.16 13:43:02.
