data_PCOD8213124
_publ_section_title
;
Structure prediction by ZEFSAII (Michael W. Deem and Ramdas Pophale) SiO2 
 PCOD8213124
Probable space group: P M M A
;
_chemical_formula_sum "Si O2"
_cell_formula_units_Z 56
_cell_length_a 13.599841
_cell_length_b 22.913070
_cell_length_c 9.399244
_cell_angle_alpha 90.000000
_cell_angle_beta 90.000000
_cell_angle_gamma 90.000000
_cell_volume 2928.937043
_symmetry_space_group_name_H-M "P M M A"
_symmetry_group_IT_number 51
_symmetry_cell_setting 'orthorhombic'
loop_
_space_group_symop_operation_xyz
x,y,z
1/2-x,-y,z
1/2+x,-y,-z
-x,y,-z
-x,-y,-z
1/2+x,y,-z
1/2-x,y,z
x,-y,z
loop_
_atom_site_type_symbol
_atom_site_label
_atom_site_fract_x
_atom_site_fract_y
_atom_site_fract_z
Si Si1 0.020052 0.567677 0.345415
Si Si2 0.472810 0.241143 0.160957
Si Si3 0.362536 0.869763 0.139189
Si Si4 0.637653 0.843749 0.184805
Si Si5 0.482148 0.067566 0.665221
Si Si6 0.362762 0.356515 0.164927
Si Si7 0.863328 0.566654 0.106694
O O1 0.041241 0.500000 0.358530
O O2 0.120525 0.595537 0.286294
O O3 0.000000 0.594834 0.500000
O O4 0.928071 0.582218 0.243541
O O5 0.383657 0.196207 0.189977
O O6 0.572020 0.212985 0.229368
O O7 0.435406 0.303924 0.212374
O O8 0.500000 0.250294 0.000000
O O9 0.250000 0.886774 0.166142
O O10 0.427642 0.914263 0.231696
O O11 0.389122 0.870055 0.970962
O O12 0.750000 0.823814 0.194589
O O13 0.615034 0.896015 0.293734
O O14 0.500000 0.080899 0.500000
O O15 0.460285 0.000000 0.690764
O O16 0.250000 0.335396 0.162125
O O17 0.391405 0.387120 0.015613
O O18 0.750000 0.573302 0.151215
O O19 0.884421 0.500000 0.054060
#
# Coordination Sequence:
#
# PCOD8213124 Si02
#       7
#     8   8   8   8   8   8   8
#     4  10  21  36  53  74 105 143 178 216 264 316
#     4   9  17  32  54  79 107 135 169 216 265 313
#     4   9  18  34  55  77 103 138 180 221 261 307
#     4   9  19  36  58  81 105 138 178 219 261 307
#     4  10  21  35  52  78 112 146 178 215 260 310
#     4  11  21  33  54  81 106 135 173 217 265 316
#     4   9  18  33  53  77 104 135 174 219 264 311
#
# _framework density 19.119565000000001
#
# number of rings (size 3 to 8) (size 9 to 14) (size 15 to 20)
#    0.000    2.429    0.000    3.429    0.000    5.429 
#    0.000    7.857    0.000    3.429    0.000    0.000 
#    0.000    0.000    0.000    0.000    0.000    0.000 
#
# Total GULP energy -693931.772483 kJ/mol
# GULP energy per Si atom -12391.638794 kJ/mol
# Density = 1.907605 g / cm^3
# Si number density = 19.119565 Si / 1000 Ang^3
#
#
#
# Elastic Constant Matrix: (Units=GPa)
#
#
# Indices 1 2 3 4 5 6 
#
# 1 100.9170 53.2234 40.7411 0.0000 0.0000 0.0000
# 2 53.2234 101.5784 52.3112 0.0000 0.0000 0.0000
# 3 40.7411 52.3112 89.9034 0.0000 0.0000 0.0000
# 4 0.0000 0.0000 0.0000 9.7210 0.0000 0.0000
# 5 0.0000 0.0000 0.0000 0.0000 18.7368 0.0000
# 6 0.0000 0.0000 0.0000 0.0000 0.0000 34.5816
#
#
#
# Elastic Compliance Matrix: (Units=1/GPa)
#
#
# Indices 1 2 3 4 5 6 
#
# 1 0.014244 -0.005910 -0.003016 0.000000 0.000000 0.000000
# 2 -0.005910 0.016509 -0.006928 0.000000 0.000000 0.000000
# 3 -0.003016 -0.006928 0.016521 0.000000 0.000000 0.000000
# 4 0.000000 0.000000 0.000000 0.102870 0.000000 0.000000
# 5 0.000000 0.000000 0.000000 0.000000 0.053371 0.000000
# 6 0.000000 0.000000 0.000000 0.000000 0.000000 0.028917
#
#
# Mechanical properties :
#
#
# Convention : Reuss Voigt Hill
#
# Bulk Modulus (GPa) = 64.24241 64.99445 64.61843
# Shear Modulus (GPa) = 18.56478 22.34943 20.45710
#
# Velocity S-wave (km/s) = 3.11944 3.42267 3.27457
# Velocity P-wave (km/s) = 6.82992 7.04890 6.94028
#
# Compressibility (1/GPa) = 0.01556604
#
# Stress axis : x y z
#
# Youngs Moduli (GPa) = 70.20703 60.57366 60.53026
#
# Poissons Ratio (x) = 0.35799 0.18255
# Poissons Ratio (y) = 0.41492 0.41933
# Poissons Ratio (z) = 0.21174 0.41963
#
# Static dielectric constant tensor:
#      x y z
#    x 3.501740 0.000000 0.000000 
#    y 0.000000 3.589220 0.000000 
#    z 0.000000 0.000000 3.357900 
# 
# 
# High freq. dielectric constant tensor:
#      x y z
#    x 1.748470 0.000000 0.000000 
#    y 0.000000 1.740200 0.000000 
#    z 0.000000 0.000000 1.720040 
# 
# From -- ./inp_files/8492.got.cif
#   From: 2010.03.12/outbox.cif.g09.slc.cpg/sg51_5_cif.got.tgz:8492.got - 2010.04.16 13:43:02.
