data_PCOD8213973
_publ_section_title
;
Structure prediction by ZEFSAII (Michael W. Deem and Ramdas Pophale) SiO2 
 PCOD8213973
Probable space group: P M M A
;
_chemical_formula_sum "Si O2"
_cell_formula_units_Z 40
_cell_length_a 9.194054
_cell_length_b 9.012763
_cell_length_c 25.740219
_cell_angle_alpha 90.000000
_cell_angle_beta 90.000000
_cell_angle_gamma 90.000000
_cell_volume 2132.933124
_symmetry_space_group_name_H-M "P M M A"
_symmetry_group_IT_number 51
_symmetry_cell_setting 'orthorhombic'
loop_
_space_group_symop_operation_xyz
x,y,z
1/2-x,-y,z
1/2+x,-y,-z
-x,y,-z
-x,-y,-z
1/2+x,y,-z
1/2-x,y,z
x,-y,z
loop_
_atom_site_type_symbol
_atom_site_label
_atom_site_fract_x
_atom_site_fract_y
_atom_site_fract_z
Si Si1 0.089211 0.676013 0.646829
Si Si2 0.087215 0.322889 0.450314
Si Si3 0.580340 0.672747 0.236734
Si Si4 0.083564 0.175298 0.145586
Si Si5 0.418728 0.673509 0.947868
O O1 0.250000 0.741226 0.636540
O O2 0.096607 0.500000 0.642875
O O3 0.036644 0.719456 0.704597
O O4 0.982311 0.740546 0.602894
O O5 0.250000 0.261068 0.453984
O O6 0.085389 0.500000 0.449913
O O7 0.000000 0.261996 0.500000
O O8 0.750000 0.706635 0.226251
O O9 0.548645 0.500000 0.226627
O O10 0.479230 0.769577 0.200039
O O11 0.250000 0.229208 0.139651
O O12 0.987059 0.239799 0.099684
O O13 0.072820 0.000000 0.143827
O O14 0.250000 0.715806 0.953260
O O15 0.440137 0.500000 0.937397
O O16 0.500000 0.723974 0.000000
#
# Coordination Sequence:
#
# PCOD8213973 Si02
#       5
#     8   8   8   8   8
#     4   8  14  25  40  59  85 116 152 196 244 294
#     4   9  15  21  31  50  79 116 155 193 237 290
#     4   9  18  33  53  75  98 128 168 212 257 304
#     4  11  24  38  52  75 107 140 173 209 250 296
#     4  10  21  38  61  86 109 135 169 207 248 296
#
# _framework density 18.753516999999999
#
# number of rings (size 3 to 8) (size 9 to 14) (size 15 to 20)
#    0.000    2.600    0.000    3.600    0.000    9.200 
#    0.000    2.000    0.000    0.000    0.000    0.000 
#    0.000    0.800    0.000    2.600    0.000    5.800 
#
# Total GULP energy -495959.960494 kJ/mol
# GULP energy per Si atom -12398.999012 kJ/mol
# Density = 1.871083 g / cm^3
# Si number density = 18.753517 Si / 1000 Ang^3
#
#
#
# Elastic Constant Matrix: (Units=GPa)
#
#
# Indices 1 2 3 4 5 6 
#
# 1 152.5708 35.7348 97.3386 0.0000 0.0000 0.0000
# 2 35.7348 26.8240 34.8167 0.0000 0.0000 0.0000
# 3 97.3386 34.8167 167.5298 0.0000 0.0000 0.0000
# 4 0.0000 0.0000 0.0000 -6.8060 0.0000 0.0000
# 5 0.0000 0.0000 0.0000 0.0000 40.9407 0.0000
# 6 0.0000 0.0000 0.0000 0.0000 0.0000 19.8642
#
#
#
# Elastic Compliance Matrix: (Units=1/GPa)
#
#
# Indices 1 2 3 4 5 6 
#
# 1 0.011942 -0.009453 -0.004974 0.000000 0.000000 0.000000
# 2 -0.009453 0.058533 -0.006672 0.000000 0.000000 0.000000
# 3 -0.004974 -0.006672 0.010246 0.000000 0.000000 0.000000
# 4 0.000000 0.000000 0.000000 -0.146928 0.000000 0.000000
# 5 0.000000 0.000000 0.000000 0.000000 0.024426 0.000000
# 6 0.000000 0.000000 0.000000 0.000000 0.000000 0.050342
#
#
# Mechanical properties :
#
#
# Convention : Reuss Voigt Hill
#
# Bulk Modulus (GPa) = 25.95861 75.85607 50.90734
# Shear Modulus (GPa) = 78.61800 22.73540 50.67670
#
# Velocity S-wave (km/s) = 6.48172 3.48563 5.20396
# Velocity P-wave (km/s) = 8.35997 7.53235 7.95692
#
# Compressibility (1/GPa) = 0.03852286
#
# Stress axis : x y z
#
# Youngs Moduli (GPa) = 83.74120 17.08427 97.60193
#
# Poissons Ratio (x) = 0.16149 0.48546
# Poissons Ratio (y) = 0.79157 0.65124
# Poissons Ratio (z) = 0.41652 0.11399
#
# Static dielectric constant tensor:
#      x y z
#    x 3.672950 0.000000 0.000000 
#    y 0.000000 2.912760 0.000000 
#    z 0.000000 0.000000 3.706830 
# 
# 
# High freq. dielectric constant tensor:
#      x y z
#    x 1.737140 0.000000 0.000000 
#    y 0.000000 1.672920 0.000000 
#    z 0.000000 0.000000 1.747730 
# 
# From -- ./inp_files/34290.got.cif
#   From: 2010.03.12/outbox.cif.g09.slc.cpg/sg51_18_cif.got.tgz:34290.got - 2010.04.16 13:43:02.
