data_PCOD8213891
_publ_section_title
;
Structure prediction by ZEFSAII (Michael W. Deem and Ramdas Pophale) SiO2 
 PCOD8213891
Probable space group: P M M A
;
_chemical_formula_sum "Si O2"
_cell_formula_units_Z 48
_cell_length_a 9.146940
_cell_length_b 9.608952
_cell_length_c 29.299167
_cell_angle_alpha 90.000000
_cell_angle_beta 90.000000
_cell_angle_gamma 90.000000
_cell_volume 2575.177253
_symmetry_space_group_name_H-M "P M M A"
_symmetry_group_IT_number 51
_symmetry_cell_setting 'orthorhombic'
loop_
_space_group_symop_operation_xyz
x,y,z
1/2-x,-y,z
1/2+x,-y,-z
-x,y,-z
-x,-y,-z
1/2+x,y,-z
1/2-x,y,z
x,-y,z
loop_
_atom_site_type_symbol
_atom_site_label
_atom_site_fract_x
_atom_site_fract_y
_atom_site_fract_z
Si Si1 0.424197 0.657346 0.857196
Si Si2 0.079295 0.271656 0.603784
Si Si3 0.080034 0.161099 0.216851
Si Si4 0.080735 0.336978 0.306308
Si Si5 0.422508 0.500000 0.452076
Si Si6 0.089817 0.335744 0.958191
Si Si7 0.415163 0.000000 0.547320
O O1 0.250000 0.665289 0.855339
O O2 0.474711 0.500000 0.843808
O O3 0.490984 0.772596 0.824396
O O4 0.480116 0.694227 0.908395
O O5 0.250000 0.316076 0.601124
O O6 0.049293 0.126040 0.580402
O O7 0.026540 0.273009 0.655824
O O8 0.971757 0.368923 0.576218
O O9 0.250000 0.172707 0.205020
O O10 0.042098 0.249673 0.261583
O O11 0.033729 0.000000 0.223957
O O12 0.250000 0.316739 0.320603
O O13 0.046403 0.500000 0.298203
O O14 0.250000 0.500000 0.459488
O O15 0.500000 0.500000 0.500000
O O16 0.250000 0.267887 0.960480
O O17 0.101931 0.500000 0.965021
O O18 0.000000 0.268203 0.000000
O O19 0.500000 0.000000 0.500000
O O20 0.250000 0.000000 0.530695
#
# Coordination Sequence:
#
# PCOD8213891 Si02
#       7
#     8   8   8   8   4   8   4
#     4   9  18  33  53  79 111 146 186 231 280 332
#     4  11  23  40  61  88 119 150 187 231 276 327
#     4  10  22  38  56  81 112 146 186 231 279 334
#     4  10  21  38  59  84 113 145 185 228 277 334
#     4  12  24  40  62  90 120 152 190 230 275 326
#     4   8  14  25  43  71 106 140 177 224 275 329
#     4  10  24  42  60  86 118 152 190 228 269 322
#
# _framework density 18.639493000000002
#
# number of rings (size 3 to 8) (size 9 to 14) (size 15 to 20)
#    0.000    2.167    0.833    3.250    1.167    5.333 
#    0.000    1.667    0.000    0.500    0.000    0.000 
#    0.000    0.000    0.000    0.000    0.000    0.000 
#
# Total GULP energy -595009.902536 kJ/mol
# GULP energy per Si atom -12396.039636 kJ/mol
# Density = 1.859707 g / cm^3
# Si number density = 18.639493 Si / 1000 Ang^3
#
#
#
# Elastic Constant Matrix: (Units=GPa)
#
#
# Indices 1 2 3 4 5 6 
#
# 1 86.1705 47.6778 64.1305 0.0000 0.0000 0.0000
# 2 47.6778 118.8623 69.9780 0.0000 0.0000 0.0000
# 3 64.1305 69.9780 151.7924 0.0000 0.0000 0.0000
# 4 0.0000 0.0000 0.0000 29.2751 0.0000 0.0000
# 5 0.0000 0.0000 0.0000 0.0000 38.9339 0.0000
# 6 0.0000 0.0000 0.0000 0.0000 0.0000 27.1384
#
#
#
# Elastic Compliance Matrix: (Units=1/GPa)
#
#
# Indices 1 2 3 4 5 6 
#
# 1 0.018087 -0.003783 -0.005898 0.000000 0.000000 0.000000
# 2 -0.003783 0.012338 -0.004090 0.000000 0.000000 0.000000
# 3 -0.005898 -0.004090 0.010965 0.000000 0.000000 0.000000
# 4 0.000000 0.000000 0.000000 0.034159 0.000000 0.000000
# 5 0.000000 0.000000 0.000000 0.000000 0.025685 0.000000
# 6 0.000000 0.000000 0.000000 0.000000 0.000000 0.036848
#
#
# Mechanical properties :
#
#
# Convention : Reuss Voigt Hill
#
# Bulk Modulus (GPa) = 72.20370 80.04421 76.12395
# Shear Modulus (GPa) = 29.37037 30.73872 30.05454
#
# Velocity S-wave (km/s) = 3.97382 4.06534 4.01984
# Velocity P-wave (km/s) = 7.73796 8.06676 7.90407
#
# Compressibility (1/GPa) = 0.01384971
#
# Stress axis : x y z
#
# Youngs Moduli (GPa) = 55.28776 81.04816 91.19851
#
# Poissons Ratio (x) = 0.30660 0.53785
# Poissons Ratio (y) = 0.20915 0.37299
# Poissons Ratio (z) = 0.32607 0.33148
#
# Static dielectric constant tensor:
#      x y z
#    x 3.514830 0.000000 0.000000 
#    y 0.000000 3.294220 0.000000 
#    z 0.000000 0.000000 3.839840 
# 
# 
# High freq. dielectric constant tensor:
#      x y z
#    x 1.720540 0.000000 0.000000 
#    y 0.000000 1.709430 0.000000 
#    z 0.000000 0.000000 1.738160 
# 
# From -- ./inp_files/37181.got.cif
#   From: 2010.03.12/outbox.cif.g09.slc.cpg/sg51_19_cif.got.tgz:37181.got - 2010.04.16 13:43:02.
