data_PCOD8213025
_publ_section_title
;
Structure prediction by ZEFSAII (Michael W. Deem and Ramdas Pophale) SiO2 
 PCOD8213025
Probable space group: P M M A
;
_chemical_formula_sum "Si O2"
_cell_formula_units_Z 48
_cell_length_a 9.343070
_cell_length_b 9.501534
_cell_length_c 30.799390
_cell_angle_alpha 90.000000
_cell_angle_beta 90.000000
_cell_angle_gamma 90.000000
_cell_volume 2734.169564
_symmetry_space_group_name_H-M "P M M A"
_symmetry_group_IT_number 51
_symmetry_cell_setting 'orthorhombic'
loop_
_space_group_symop_operation_xyz
x,y,z
1/2-x,-y,z
1/2+x,-y,-z
-x,y,-z
-x,-y,-z
1/2+x,y,-z
1/2-x,y,z
x,-y,z
loop_
_atom_site_type_symbol
_atom_site_label
_atom_site_fract_x
_atom_site_fract_y
_atom_site_fract_z
Si Si1 0.411994 0.667545 0.959018
Si Si2 0.583955 0.835315 0.293238
Si Si3 0.407352 0.333335 0.461138
Si Si4 0.582745 0.663443 0.635688
Si Si5 0.915145 0.162923 0.791618
Si Si6 0.584543 0.663679 0.875381
O O1 0.250000 0.726344 0.960202
O O2 0.411292 0.500000 0.960863
O O3 0.489534 0.719170 0.915287
O O4 0.500000 0.728092 0.000000
O O5 0.750000 0.795742 0.290475
O O6 0.513265 0.755355 0.332981
O O7 0.509532 0.785930 0.248785
O O8 0.559283 0.000000 0.300750
O O9 0.500000 0.265785 0.500000
O O10 0.250000 0.267631 0.465762
O O11 0.398931 0.500000 0.466518
O O12 0.468097 0.298306 0.413278
O O13 0.750000 0.699523 0.641787
O O14 0.555434 0.500000 0.645701
O O15 0.750000 0.192661 0.780124
O O16 0.964756 0.251579 0.833106
O O17 0.941889 0.000000 0.802316
O O18 0.750000 0.692698 0.886828
O O19 0.557410 0.500000 0.866116
#
# Coordination Sequence:
#
# PCOD8213025 Si02
#       6
#     8   8   8   8   8   8
#     4   9  16  26  42  65  93 123 152 183 222 268
#     4  10  21  35  50  70  96 126 161 200 241 286
#     4   8  14  25  42  66  95 124 153 187 229 278
#     4   9  18  32  50  73  99 126 159 198 238 282
#     4   9  18  33  51  68  89 122 159 191 230 283
#     4   9  17  29  46  69  94 118 148 188 230 270
#
# _framework density 17.555603999999999
#
# number of rings (size 3 to 8) (size 9 to 14) (size 15 to 20)
#    0.000    3.000    0.000    2.000    0.000    5.333 
#    0.000    3.333    0.000    1.000    0.000    0.000 
#    0.000    0.000    0.000    0.000    0.000    0.000 
#
# Total GULP energy -595116.570554 kJ/mol
# GULP energy per Si atom -12398.261887 kJ/mol
# Density = 1.751565 g / cm^3
# Si number density = 17.555604 Si / 1000 Ang^3
#
#
#
# Elastic Constant Matrix: (Units=GPa)
#
#
# Indices 1 2 3 4 5 6 
#
# 1 114.9661 35.3350 99.6418 0.0000 0.0000 0.0000
# 2 35.3350 32.1740 50.9534 0.0000 0.0000 0.0000
# 3 99.6418 50.9534 183.3921 0.0000 0.0000 0.0000
# 4 0.0000 0.0000 0.0000 -6.4110 0.0000 0.0000
# 5 0.0000 0.0000 0.0000 0.0000 38.7187 0.0000
# 6 0.0000 0.0000 0.0000 0.0000 0.0000 19.1226
#
#
#
# Elastic Compliance Matrix: (Units=1/GPa)
#
#
# Indices 1 2 3 4 5 6 
#
# 1 0.017367 -0.007375 -0.007387 0.000000 0.000000 0.000000
# 2 -0.007375 0.058634 -0.012284 0.000000 0.000000 0.000000
# 3 -0.007387 -0.012284 0.012879 0.000000 0.000000 0.000000
# 4 0.000000 0.000000 0.000000 -0.155981 0.000000 0.000000
# 5 0.000000 0.000000 0.000000 0.000000 0.025827 0.000000
# 6 0.000000 0.000000 0.000000 0.000000 0.000000 0.052294
#
#
# Mechanical properties :
#
#
# Convention : Reuss Voigt Hill
#
# Bulk Modulus (GPa) = 28.74456 78.04362 53.39409
# Shear Modulus (GPa) = 65.18133 19.92619 42.55376
#
# Velocity S-wave (km/s) = 6.09993 3.37268 4.92870
# Velocity P-wave (km/s) = 8.12534 7.72776 7.92904
#
# Compressibility (1/GPa) = 0.03478919
#
# Stress axis : x y z
#
# Youngs Moduli (GPa) = 57.57930 17.05494 77.64348
#
# Poissons Ratio (x) = 0.12578 0.57357
# Poissons Ratio (y) = 0.42463 0.95376
# Poissons Ratio (z) = 0.42535 0.20950
#
# Static dielectric constant tensor:
#      x y z
#    x 3.436440 0.000000 0.000000 
#    y 0.000000 2.864380 0.000000 
#    z 0.000000 0.000000 3.430490 
# 
# 
# High freq. dielectric constant tensor:
#      x y z
#    x 1.680140 0.000000 0.000000 
#    y 0.000000 1.634180 0.000000 
#    z 0.000000 0.000000 1.692340 
# 
# From -- ./inp_files/36126.got.cif
#   From: 2010.03.12/outbox.cif.g09.slc.cpg/sg51_19_cif.got.tgz:36126.got - 2010.04.16 13:43:02.
