data_PCOD8213318
_publ_section_title
;
Structure prediction by ZEFSAII (Michael W. Deem and Ramdas Pophale) SiO2 
 PCOD8213318
Probable space group: P M M A
;
_chemical_formula_sum "Si O2"
_cell_formula_units_Z 48
_cell_length_a 9.167539
_cell_length_b 9.294776
_cell_length_c 30.781707
_cell_angle_alpha 90.000000
_cell_angle_beta 90.000000
_cell_angle_gamma 90.000000
_cell_volume 2622.916071
_symmetry_space_group_name_H-M "P M M A"
_symmetry_group_IT_number 51
_symmetry_cell_setting 'orthorhombic'
loop_
_space_group_symop_operation_xyz
x,y,z
1/2-x,-y,z
1/2+x,-y,-z
-x,y,-z
-x,-y,-z
1/2+x,y,-z
1/2-x,y,z
x,-y,z
loop_
_atom_site_type_symbol
_atom_site_label
_atom_site_fract_x
_atom_site_fract_y
_atom_site_fract_z
Si Si1 0.921525 0.834413 0.720497
Si Si2 0.080896 0.831091 0.880728
Si Si3 0.576668 0.840498 0.623754
Si Si4 0.579163 0.334673 0.205316
Si Si5 0.920060 0.666987 0.542348
Si Si6 0.420859 0.334830 0.044596
O O1 0.750000 0.814084 0.726334
O O2 0.971990 0.789606 0.671796
O O3 0.001211 0.727492 0.752688
O O4 0.965317 0.000000 0.729772
O O5 0.250000 0.796739 0.890563
O O6 0.028858 0.754640 0.836670
O O7 0.982780 0.770421 0.919142
O O8 0.052806 0.000000 0.875813
O O9 0.750000 0.841245 0.622565
O O10 0.514487 0.738318 0.585970
O O11 0.516127 0.000000 0.614794
O O12 0.750000 0.318351 0.212847
O O13 0.533069 0.500000 0.198579
O O14 0.750000 0.699998 0.537047
O O15 0.954103 0.500000 0.546946
O O16 0.000000 0.731222 0.500000
O O17 0.250000 0.306476 0.038696
O O18 0.452876 0.500000 0.057743
O O19 0.500000 0.295129 0.000000
#
# Coordination Sequence:
#
# PCOD8213318 Si02
#       6
#     8   8   8   8   8   8
#     4   9  18  33  53  76 101 130 166 208 253 301
#     4  10  21  37  57  79 104 138 177 214 255 303
#     4   8  15  29  48  69  93 122 157 197 240 288
#     4  10  21  36  54  77 105 137 172 210 254 303
#     4   9  17  29  45  65  90 121 156 194 238 287
#     4  10  21  37  58  83 110 141 176 214 257 303
#
# _framework density 18.300241
#
# number of rings (size 3 to 8) (size 9 to 14) (size 15 to 20)
#    0.000    2.667    0.000    2.500    0.000    5.333 
#    0.000    2.500    0.000    3.000    0.000    0.000 
#    0.000    0.000    0.000    0.000    0.000    0.000 
#
# Total GULP energy -595182.055090 kJ/mol
# GULP energy per Si atom -12399.626148 kJ/mol
# Density = 1.825859 g / cm^3
# Si number density = 18.300241 Si / 1000 Ang^3
#
#
#
# Elastic Constant Matrix: (Units=GPa)
#
#
# Indices 1 2 3 4 5 6 
#
# 1 48.7236 45.3681 56.8296 0.0000 0.0000 0.0000
# 2 45.3681 105.7259 88.8961 0.0000 0.0000 0.0000
# 3 56.8296 88.8961 169.6309 0.0000 0.0000 0.0000
# 4 0.0000 0.0000 0.0000 41.2207 0.0000 0.0000
# 5 0.0000 0.0000 0.0000 0.0000 33.7621 0.0000
# 6 0.0000 0.0000 0.0000 0.0000 0.0000 26.2041
#
#
#
# Elastic Compliance Matrix: (Units=1/GPa)
#
#
# Indices 1 2 3 4 5 6 
#
# 1 0.039098 -0.010304 -0.007699 0.000000 0.000000 0.000000
# 2 -0.010304 0.019625 -0.006832 0.000000 0.000000 0.000000
# 3 -0.007699 -0.006832 0.012055 0.000000 0.000000 0.000000
# 4 0.000000 0.000000 0.000000 0.024260 0.000000 0.000000
# 5 0.000000 0.000000 0.000000 0.000000 0.029619 0.000000
# 6 0.000000 0.000000 0.000000 0.000000 0.000000 0.038162
#
#
# Mechanical properties :
#
#
# Convention : Reuss Voigt Hill
#
# Bulk Modulus (GPa) = 47.37712 78.47422 62.92567
# Shear Modulus (GPa) = 22.77649 29.10316 25.93983
#
# Velocity S-wave (km/s) = 3.53172 3.99220 3.76900
# Velocity P-wave (km/s) = 6.52501 8.01404 7.30755
#
# Compressibility (1/GPa) = 0.02110724
#
# Stress axis : x y z
#
# Youngs Moduli (GPa) = 25.57679 50.95563 82.95406
#
# Poissons Ratio (x) = 0.52506 0.63862
# Poissons Ratio (y) = 0.26355 0.56678
# Poissons Ratio (z) = 0.19690 0.34815
#
# Static dielectric constant tensor:
#      x y z
#    x 3.122420 0.000000 0.000000 
#    y 0.000000 3.434970 0.000000 
#    z 0.000000 0.000000 3.643760 
# 
# 
# High freq. dielectric constant tensor:
#      x y z
#    x 1.686160 0.000000 0.000000 
#    y 0.000000 1.709420 0.000000 
#    z 0.000000 0.000000 1.723860 
# 
# From -- ./inp_files/36959.got.cif
#   From: 2010.03.12/outbox.cif.g09.slc.cpg/sg51_19_cif.got.tgz:36959.got - 2010.04.16 13:43:02.
