data_PCOD8213182
_publ_section_title
;
Structure prediction by ZEFSAII (Michael W. Deem and Ramdas Pophale) SiO2 
 PCOD8213182
Probable space group: P M M A
;
_chemical_formula_sum "Si O2"
_cell_formula_units_Z 56
_cell_length_a 15.257243
_cell_length_b 20.960519
_cell_length_c 9.289277
_cell_angle_alpha 90.000000
_cell_angle_beta 90.000000
_cell_angle_gamma 90.000000
_cell_volume 2970.708293
_symmetry_space_group_name_H-M "P M M A"
_symmetry_group_IT_number 51
_symmetry_cell_setting 'orthorhombic'
loop_
_space_group_symop_operation_xyz
x,y,z
1/2-x,-y,z
1/2+x,-y,-z
-x,y,-z
-x,-y,-z
1/2+x,y,-z
1/2-x,y,z
x,-y,z
loop_
_atom_site_type_symbol
_atom_site_label
_atom_site_fract_x
_atom_site_fract_y
_atom_site_fract_z
Si Si1 0.647755 0.206477 0.638654
Si Si2 0.151284 0.426112 0.638794
Si Si3 0.425787 0.111137 0.593819
Si Si4 0.648014 0.352991 0.651061
Si Si5 0.547221 0.871585 0.854245
Si Si6 0.155344 0.000000 0.739834
Si Si7 0.989880 0.425842 0.834393
Si Si8 0.642724 0.000000 0.941449
O O1 0.750000 0.196914 0.628187
O O2 0.607918 0.170874 0.499043
O O3 0.620262 0.279883 0.630911
O O4 0.616937 0.179311 0.793260
O O5 0.250000 0.409406 0.692278
O O6 0.144039 0.500000 0.597614
O O7 0.126154 0.387305 0.497681
O O8 0.082297 0.407304 0.761451
O O9 0.500000 0.075113 0.500000
O O10 0.467084 0.131233 0.744096
O O11 0.352182 0.060611 0.635421
O O12 0.750000 0.360200 0.693836
O O13 0.590283 0.384470 0.775337
O O14 0.500000 0.849338 0.000000
O O15 0.599978 0.938301 0.865825
O O16 0.250000 0.000000 0.807710
O O17 0.103175 0.000000 0.892637
O O18 0.967393 0.500000 0.810338
O O19 0.000000 0.408529 0.000000
O O20 0.750000 0.000000 0.924255
#
# Coordination Sequence:
#
# PCOD8213182 Si02
#       8
#     8   8   8   8   8   4   8   4
#     4  10  23  41  57  80 113 149 189 233 282 334
#     4   9  18  34  58  86 114 148 192 240 285 333
#     4  10  21  36  56  80 108 141 178 230 284 334
#     4  10  21  38  59  81 112 154 198 239 281 338
#     4  11  21  38  59  83 112 142 184 230 281 339
#     4  11  20  33  55  82 108 140 181 226 280 341
#     4  10  21  35  56  88 121 152 187 235 290 342
#     4  11  22  36  59  85 112 146 181 228 288 343
#
# _framework density 18.850722999999999
#
# number of rings (size 3 to 8) (size 9 to 14) (size 15 to 20)
#    0.000    1.857    1.429    2.571    0.000    8.286 
#    0.000    5.000    0.000    3.429    0.000    0.000 
#    0.000    0.000    0.000    0.000    0.000    0.000 
#
# Total GULP energy -694026.064980 kJ/mol
# GULP energy per Si atom -12393.322589 kJ/mol
# Density = 1.880782 g / cm^3
# Si number density = 18.850723 Si / 1000 Ang^3
#
#
#
# Elastic Constant Matrix: (Units=GPa)
#
#
# Indices 1 2 3 4 5 6 
#
# 1 101.3344 62.9767 67.9179 0.0000 0.0000 0.0000
# 2 62.9767 108.5486 70.4797 0.0000 0.0000 0.0000
# 3 67.9179 70.4797 147.3845 0.0000 0.0000 0.0000
# 4 0.0000 0.0000 0.0000 -21.6498 0.0000 0.0000
# 5 0.0000 0.0000 0.0000 0.0000 29.7181 0.0000
# 6 0.0000 0.0000 0.0000 0.0000 0.0000 24.6781
#
#
#
# Elastic Compliance Matrix: (Units=1/GPa)
#
#
# Indices 1 2 3 4 5 6 
#
# 1 0.017358 -0.007073 -0.004617 0.000000 0.000000 0.000000
# 2 -0.007073 0.016243 -0.004508 0.000000 0.000000 0.000000
# 3 -0.004617 -0.004508 0.011068 0.000000 0.000000 0.000000
# 4 0.000000 0.000000 0.000000 -0.046190 0.000000 0.000000
# 5 0.000000 0.000000 0.000000 0.000000 0.033649 0.000000
# 6 0.000000 0.000000 0.000000 0.000000 0.000000 0.040522
#
#
# Mechanical properties :
#
#
# Convention : Reuss Voigt Hill
#
# Bulk Modulus (GPa) = 81.47399 84.44623 82.96011
# Shear Modulus (GPa) = 45.81338 16.94218 31.37778
#
# Velocity S-wave (km/s) = 4.93518 3.00118 4.08430
# Velocity P-wave (km/s) = 8.70569 7.54347 8.14534
#
# Compressibility (1/GPa) = 0.01227386
#
# Stress axis : x y z
#
# Youngs Moduli (GPa) = 57.60883 61.56420 90.34903
#
# Poissons Ratio (x) = 0.43546 0.41711
# Poissons Ratio (y) = 0.40748 0.40730
# Poissons Ratio (z) = 0.26596 0.27753
#
# Static dielectric constant tensor:
#      x y z
#    x 3.654660 0.000000 0.000000 
#    y 0.000000 3.539970 0.000000 
#    z 0.000000 0.000000 3.650660 
# 
# 
# High freq. dielectric constant tensor:
#      x y z
#    x 1.746670 0.000000 0.000000 
#    y 0.000000 1.722010 0.000000 
#    z 0.000000 0.000000 1.736100 
# 
# From -- ./inp_files/8617.got.cif
#   From: 2010.03.12/outbox.cif.g09.slc.cpg/sg51_5_cif.got.tgz:8617.got - 2010.04.16 13:43:02.
