data_PCOD8213037
_publ_section_title
;
Structure prediction by ZEFSAII (Michael W. Deem and Ramdas Pophale) SiO2 
 PCOD8213037
Probable space group: P M M A
;
_chemical_formula_sum "Si O2"
_cell_formula_units_Z 48
_cell_length_a 9.295049
_cell_length_b 9.261913
_cell_length_c 30.965789
_cell_angle_alpha 90.000000
_cell_angle_beta 90.000000
_cell_angle_gamma 90.000000
_cell_volume 2665.842767
_symmetry_space_group_name_H-M "P M M A"
_symmetry_group_IT_number 51
_symmetry_cell_setting 'orthorhombic'
loop_
_space_group_symop_operation_xyz
x,y,z
1/2-x,-y,z
1/2+x,-y,-z
-x,y,-z
-x,-y,-z
1/2+x,y,-z
1/2-x,y,z
x,-y,z
loop_
_atom_site_type_symbol
_atom_site_label
_atom_site_fract_x
_atom_site_fract_y
_atom_site_fract_z
Si Si1 0.080109 0.664200 0.300599
Si Si2 0.909494 0.328690 0.795861
Si Si3 0.417435 0.666883 0.542139
Si Si4 0.411985 0.672263 0.876062
Si Si5 0.417213 0.168171 0.626733
Si Si6 0.586850 0.327940 0.958600
O O1 0.250000 0.675922 0.307063
O O2 0.028851 0.500000 0.309245
O O3 0.037412 0.713668 0.252097
O O4 0.002123 0.771916 0.332611
O O5 0.750000 0.265025 0.804713
O O6 0.900556 0.500000 0.799071
O O7 0.019191 0.267386 0.831638
O O8 0.500000 0.723884 0.500000
O O9 0.250000 0.693479 0.533915
O O10 0.452995 0.500000 0.551012
O O11 0.473494 0.755743 0.583246
O O12 0.250000 0.732542 0.880122
O O13 0.410462 0.500000 0.876065
O O14 0.506573 0.730185 0.915957
O O15 0.250000 0.202174 0.633853
O O16 0.448755 0.000000 0.622223
O O17 0.750000 0.268050 0.959542
O O18 0.589098 0.500000 0.958852
O O19 0.500000 0.269244 0.000000
#
# Coordination Sequence:
#
# PCOD8213037 Si02
#       6
#     8   8   8   8   8   8
#     4   9  18  32  50  71  93 119 155 197 238 282
#     4   8  14  25  39  55  76 101 131 172 221 267
#     4   9  18  33  52  73  97 126 160 197 235 275
#     4   9  15  21  30  46  67  91 124 167 213 262
#     4  10  21  35  50  71 100 131 161 193 232 280
#     4   9  15  21  28  38  56  86 124 166 212 261
#
# _framework density 18.005561
#
# number of rings (size 3 to 8) (size 9 to 14) (size 15 to 20)
#    0.000    3.000    0.000    2.500    0.000    7.000 
#    0.000    3.333    0.000    0.000    0.000    0.000 
#    0.000    0.000    0.000    0.000    0.000    0.833 
#
# Total GULP energy -595110.779057 kJ/mol
# GULP energy per Si atom -12398.141230 kJ/mol
# Density = 1.796458 g / cm^3
# Si number density = 18.005561 Si / 1000 Ang^3
#
#
#
# Elastic Constant Matrix: (Units=GPa)
#
#
# Indices 1 2 3 4 5 6 
#
# 1 107.8008 24.7629 86.0516 0.0000 0.0000 0.0000
# 2 24.7629 33.4440 40.5573 0.0000 0.0000 0.0000
# 3 86.0516 40.5573 181.6179 0.0000 0.0000 0.0000
# 4 0.0000 0.0000 0.0000 0.4049 0.0000 0.0000
# 5 0.0000 0.0000 0.0000 0.0000 38.6808 0.0000
# 6 0.0000 0.0000 0.0000 0.0000 0.0000 14.0094
#
#
#
# Elastic Compliance Matrix: (Units=1/GPa)
#
#
# Indices 1 2 3 4 5 6 
#
# 1 0.015205 -0.003458 -0.006432 0.000000 0.000000 0.000000
# 2 -0.003458 0.041792 -0.007694 0.000000 0.000000 0.000000
# 3 -0.006432 -0.007694 0.010272 0.000000 0.000000 0.000000
# 4 0.000000 0.000000 0.000000 2.469999 0.000000 0.000000
# 5 0.000000 0.000000 0.000000 0.000000 0.025853 0.000000
# 6 0.000000 0.000000 0.000000 0.000000 0.000000 0.071381
#
#
# Mechanical properties :
#
#
# Convention : Reuss Voigt Hill
#
# Bulk Modulus (GPa) = 31.15261 69.51182 50.33221
# Shear Modulus (GPa) = 1.86541 22.05173 11.95857
#
# Velocity S-wave (km/s) = 1.01896 3.50339 2.57993
# Velocity P-wave (km/s) = 4.32708 7.41988 6.07364
#
# Compressibility (1/GPa) = 0.03210004
#
# Stress axis : x y z
#
# Youngs Moduli (GPa) = 65.76748 23.92818 97.35447
#
# Poissons Ratio (x) = 0.08275 0.62618
# Poissons Ratio (y) = 0.22744 0.74905
# Poissons Ratio (z) = 0.42302 0.18410
#
# Static dielectric constant tensor:
#      x y z
#    x 3.466240 0.000000 0.000000 
#    y 0.000000 2.737410 0.000000 
#    z 0.000000 0.000000 3.588220 
# 
# 
# High freq. dielectric constant tensor:
#      x y z
#    x 1.699270 0.000000 0.000000 
#    y 0.000000 1.630360 0.000000 
#    z 0.000000 0.000000 1.714620 
# 
# From -- ./inp_files/37018.got.cif
#   From: 2010.03.12/outbox.cif.g09.slc.cpg/sg51_19_cif.got.tgz:37018.got - 2010.04.16 13:43:02.
