data_PCOD8213714
_publ_section_title
;
Structure prediction by ZEFSAII (Michael W. Deem and Ramdas Pophale) SiO2 
 PCOD8213714
Probable space group: P M M A
;
_chemical_formula_sum "Si O2"
_cell_formula_units_Z 48
_cell_length_a 8.899593
_cell_length_b 14.247090
_cell_length_c 20.669566
_cell_angle_alpha 90.000000
_cell_angle_beta 90.000000
_cell_angle_gamma 90.000000
_cell_volume 2620.762533
_symmetry_space_group_name_H-M "P M M A"
_symmetry_group_IT_number 51
_symmetry_cell_setting 'orthorhombic'
loop_
_space_group_symop_operation_xyz
x,y,z
1/2-x,-y,z
1/2+x,-y,-z
-x,y,-z
-x,-y,-z
1/2+x,y,-z
1/2-x,y,z
x,-y,z
loop_
_atom_site_type_symbol
_atom_site_label
_atom_site_fract_x
_atom_site_fract_y
_atom_site_fract_z
Si Si1 0.426471 0.392258 0.432698
Si Si2 0.427382 0.284220 0.684091
Si Si3 0.927117 0.281907 0.065576
Si Si4 0.576517 0.893737 0.881611
Si Si5 0.424052 0.893751 0.268148
Si Si6 0.928651 0.394378 0.189713
O O1 0.500000 0.361487 0.500000
O O2 0.250000 0.376169 0.437760
O O3 0.466659 0.500000 0.416491
O O4 0.493513 0.327079 0.377781
O O5 0.250000 0.293529 0.676036
O O6 0.473195 0.175337 0.689659
O O7 0.487214 0.339078 0.747439
O O8 0.750000 0.289319 0.059381
O O9 0.989511 0.343705 0.125220
O O10 0.973233 0.173769 0.075665
O O11 0.000000 0.321700 0.000000
O O12 0.750000 0.867215 0.892628
O O13 0.532666 0.882205 0.806761
O O14 0.545085 0.000000 0.904158
O O15 0.250000 0.868983 0.279057
O O16 0.457453 0.000000 0.290873
O O17 0.750000 0.394732 0.189131
O O18 0.992788 0.500000 0.191792
#
# Coordination Sequence:
#
# PCOD8213714 Si02
#       6
#     8   8   8   8   8   8
#     4  10  21  37  57  84 118 154 190 227 269 320
#     4  11  20  33  57  86 114 146 182 224 272 323
#     4  11  22  36  53  74 101 137 178 223 274 327
#     4   9  18  34  55  77 103 135 171 217 272 325
#     4   9  18  33  54  80 111 144 178 222 273 323
#     4   9  19  35  53  75 104 137 176 221 269 320
#
# _framework density 18.315280000000001
#
# number of rings (size 3 to 8) (size 9 to 14) (size 15 to 20)
#    0.000    2.167    1.667    3.000    0.000    3.000 
#    0.000    1.667    0.000    5.000    0.000    0.000 
#    0.000    0.000    0.000    0.000    0.000    0.000 
#
# Total GULP energy -595329.098231 kJ/mol
# GULP energy per Si atom -12402.689546 kJ/mol
# Density = 1.827359 g / cm^3
# Si number density = 18.315280 Si / 1000 Ang^3
#
#
#
# Elastic Constant Matrix: (Units=GPa)
#
#
# Indices 1 2 3 4 5 6 
#
# 1 58.6386 30.4279 40.3989 0.0000 0.0000 0.0000
# 2 30.4279 106.5469 57.7539 0.0000 0.0000 0.0000
# 3 40.3989 57.7539 124.7393 0.0000 0.0000 0.0000
# 4 0.0000 0.0000 0.0000 26.2100 0.0000 0.0000
# 5 0.0000 0.0000 0.0000 0.0000 28.7646 0.0000
# 6 0.0000 0.0000 0.0000 0.0000 0.0000 26.1405
#
#
#
# Elastic Compliance Matrix: (Units=1/GPa)
#
#
# Indices 1 2 3 4 5 6 
#
# 1 0.022814 -0.003351 -0.005837 0.000000 0.000000 0.000000
# 2 -0.003351 0.013023 -0.004944 0.000000 0.000000 0.000000
# 3 -0.005837 -0.004944 0.012196 0.000000 0.000000 0.000000
# 4 0.000000 0.000000 0.000000 0.038153 0.000000 0.000000
# 5 0.000000 0.000000 0.000000 0.000000 0.034765 0.000000
# 6 0.000000 0.000000 0.000000 0.000000 0.000000 0.038255
#
#
# Mechanical properties :
#
#
# Convention : Reuss Voigt Hill
#
# Bulk Modulus (GPa) = 50.58674 60.78738 55.68706
# Shear Modulus (GPa) = 25.76524 26.97931 26.37228
#
# Velocity S-wave (km/s) = 3.75475 3.84220 3.79873
# Velocity P-wave (km/s) = 6.81744 7.27632 7.05061
#
# Compressibility (1/GPa) = 0.01976802
#
# Stress axis : x y z
#
# Youngs Moduli (GPa) = 43.83263 76.79007 81.99271
#
# Poissons Ratio (x) = 0.25735 0.47860
# Poissons Ratio (y) = 0.14690 0.40537
# Poissons Ratio (z) = 0.25585 0.37965
#
# Static dielectric constant tensor:
#      x y z
#    x 3.193260 0.000000 0.000000 
#    y 0.000000 3.433380 0.000000 
#    z 0.000000 0.000000 3.323960 
# 
# 
# High freq. dielectric constant tensor:
#      x y z
#    x 1.699930 0.000000 0.000000 
#    y 0.000000 1.711390 0.000000 
#    z 0.000000 0.000000 1.700930 
# 
# From -- ./inp_files/27538.got.cif
#   From: 2010.03.12/outbox.cif.g09.slc.cpg/sg51_14_cif.got.tgz:27538.got - 2010.04.16 13:43:02.
