data_PCOD8213992
_publ_section_title
;
Structure prediction by ZEFSAII (Michael W. Deem and Ramdas Pophale) SiO2 
 PCOD8213992
Probable space group: P M M A
;
_chemical_formula_sum "Si O2"
_cell_formula_units_Z 32
_cell_length_a 17.744492
_cell_length_b 7.365720
_cell_length_c 12.023758
_cell_angle_alpha 90.000000
_cell_angle_beta 90.000000
_cell_angle_gamma 90.000000
_cell_volume 1571.516709
_symmetry_space_group_name_H-M "P M M A"
_symmetry_group_IT_number 51
_symmetry_cell_setting 'orthorhombic'
loop_
_space_group_symop_operation_xyz
x,y,z
1/2-x,-y,z
1/2+x,-y,-z
-x,y,-z
-x,-y,-z
1/2+x,y,-z
1/2-x,y,z
x,-y,z
loop_
_atom_site_type_symbol
_atom_site_label
_atom_site_fract_x
_atom_site_fract_y
_atom_site_fract_z
Si Si1 0.589178 0.500000 0.495189
Si Si2 0.575540 0.786153 0.866456
Si Si3 0.165025 0.500000 0.736747
Si Si4 0.661889 0.213140 0.650739
Si Si5 0.405604 0.214414 0.886622
O O1 0.500000 0.500000 0.500000
O O2 0.390376 0.500000 0.633318
O O3 0.622407 0.318471 0.550541
O O4 0.627156 0.712189 0.766552
O O5 0.489509 0.722222 0.850905
O O6 0.575927 0.000000 0.866566
O O7 0.608094 0.723296 0.985598
O O8 0.250000 0.500000 0.692349
O O9 0.152961 0.680427 0.809803
O O10 0.750000 0.257188 0.651881
O O11 0.646132 0.000000 0.633871
O O12 0.393359 0.000000 0.870642
#
# Coordination Sequence:
#
# PCOD8213992 Si02
#       5
#     4   8   4   8   8
#     4  12  26  43  62  81 108 151 201 245 281 334
#     4   8  16  34  61  90 115 146 191 231 272 334
#     4  12  26  38  52  82 116 148 192 232 276 346
#     4  10  21  38  61  88 117 147 185 240 296 339
#     4   9  19  37  59  84 118 154 186 227 275 328
#
# _framework density 20.362493000000001
#
# number of rings (size 3 to 8) (size 9 to 14) (size 15 to 20)
#    0.000    2.250    0.000    4.125    0.000    6.000 
#    0.000    2.500    0.000    0.000    0.000    0.000 
#    0.000    0.000    0.000    0.000    0.000    0.000 
#
# Total GULP energy -396785.190009 kJ/mol
# GULP energy per Si atom -12399.537188 kJ/mol
# Density = 2.031615 g / cm^3
# Si number density = 20.362493 Si / 1000 Ang^3
#
#
#
# Elastic Constant Matrix: (Units=GPa)
#
#
# Indices 1 2 3 4 5 6 
#
# 1 102.1021 34.3019 37.4899 0.0000 0.0000 0.0000
# 2 34.3019 90.6336 42.5054 0.0000 0.0000 0.0000
# 3 37.4899 42.5054 112.8228 0.0000 0.0000 0.0000
# 4 0.0000 0.0000 0.0000 30.8243 0.0000 0.0000
# 5 0.0000 0.0000 0.0000 0.0000 31.6624 0.0000
# 6 0.0000 0.0000 0.0000 0.0000 0.0000 30.5892
#
#
#
# Elastic Compliance Matrix: (Units=1/GPa)
#
#
# Indices 1 2 3 4 5 6 
#
# 1 0.011878 -0.003212 -0.002737 0.000000 0.000000 0.000000
# 2 -0.003212 0.014270 -0.004309 0.000000 0.000000 0.000000
# 3 -0.002737 -0.004309 0.011396 0.000000 0.000000 0.000000
# 4 0.000000 0.000000 0.000000 0.032442 0.000000 0.000000
# 5 0.000000 0.000000 0.000000 0.000000 0.031583 0.000000
# 6 0.000000 0.000000 0.000000 0.000000 0.000000 0.032691
#
#
# Mechanical properties :
#
#
# Convention : Reuss Voigt Hill
#
# Bulk Modulus (GPa) = 58.72370 59.35032 59.03701
# Shear Modulus (GPa) = 31.16196 31.36594 31.26395
#
# Velocity S-wave (km/s) = 3.91623 3.92902 3.92263
# Velocity P-wave (km/s) = 7.02502 7.05642 7.04074
#
# Compressibility (1/GPa) = 0.01702890
#
# Stress axis : x y z
#
# Youngs Moduli (GPa) = 84.18832 70.07815 87.74849
#
# Poissons Ratio (x) = 0.22509 0.24016
# Poissons Ratio (y) = 0.27041 0.37809
# Poissons Ratio (z) = 0.23042 0.30195
#
# Static dielectric constant tensor:
#      x y z
#    x 3.933370 0.000000 0.000000 
#    y 0.000000 3.567940 0.000000 
#    z 0.000000 0.000000 4.027850 
# 
# 
# High freq. dielectric constant tensor:
#      x y z
#    x 1.788910 0.000000 0.000000 
#    y 0.000000 1.797960 0.000000 
#    z 0.000000 0.000000 1.799650 
# 
# From -- ./inp_files/15923.got.cif
#   From: 2010.03.12/outbox.cif.g09.slc.cpg/sg51_8_cif.got.tgz:15923.got - 2010.04.16 13:43:02.
