data_PCOD8213628
_publ_section_title
;
Structure prediction by ZEFSAII (Michael W. Deem and Ramdas Pophale) SiO2 
 PCOD8213628
Probable space group: P M M A
;
_chemical_formula_sum "Si O2"
_cell_formula_units_Z 64
_cell_length_a 8.867126
_cell_length_b 28.151276
_cell_length_c 14.194687
_cell_angle_alpha 90.000000
_cell_angle_beta 90.000000
_cell_angle_gamma 90.000000
_cell_volume 3543.290705
_symmetry_space_group_name_H-M "P M M A"
_symmetry_group_IT_number 51
_symmetry_cell_setting 'orthorhombic'
loop_
_space_group_symop_operation_xyz
x,y,z
1/2-x,-y,z
1/2+x,-y,-z
-x,y,-z
-x,-y,-z
1/2+x,y,-z
1/2-x,y,z
x,-y,z
loop_
_atom_site_type_symbol
_atom_site_label
_atom_site_fract_x
_atom_site_fract_y
_atom_site_fract_z
Si Si1 0.926478 0.447351 0.100823
Si Si2 0.073999 0.946869 0.903480
Si Si3 0.927521 0.620860 0.756945
Si Si4 0.573945 0.140454 0.217154
Si Si5 0.071407 0.778832 0.101506
Si Si6 0.428585 0.279743 0.738918
Si Si7 0.425720 0.447152 0.409224
Si Si8 0.925490 0.195822 0.398336
O O1 0.750000 0.436046 0.093982
O O2 0.952560 0.500000 0.148156
O O3 0.007390 0.402528 0.149184
O O4 0.000000 0.449619 0.000000
O O5 0.250000 0.947165 0.923510
O O6 0.037952 0.913942 0.812254
O O7 0.014471 0.000000 0.880108
O O8 0.000000 0.927400 0.000000
O O9 0.750000 0.630871 0.767101
O O10 0.970986 0.582327 0.680411
O O11 0.012199 0.667691 0.721123
O O12 0.750000 0.153217 0.201839
O O13 0.475569 0.171144 0.145774
O O14 0.531040 0.152500 0.326130
O O15 0.250000 0.775472 0.094008
O O16 0.008804 0.736664 0.165763
O O17 0.000000 0.772673 0.000000
O O18 0.250000 0.278691 0.753402
O O19 0.474562 0.245390 0.651389
O O20 0.500000 0.422644 0.500000
O O21 0.250000 0.448236 0.425884
O O22 0.491811 0.500000 0.395086
O O23 0.750000 0.195753 0.418758
O O24 0.000000 0.188651 0.500000
#
# Coordination Sequence:
#
# PCOD8213628 Si02
#       8
#     8   8   8   8   8   8   8   8
#     4  10  21  37  57  80 105 136 174 213 252 297
#     4   9  17  29  47  73 107 145 181 217 259 307
#     4  11  22  36  55  79 106 135 167 205 252 303
#     4   9  18  33  51  75 105 137 177 219 259 305
#     4  11  21  34  53  76 102 134 170 208 253 302
#     4  10  22  39  54  74 103 132 167 209 253 304
#     4   9  19  35  54  76 102 131 163 200 242 291
#     4   9  19  35  55  75  98 130 169 217 265 311
#
# _framework density 18.062306
#
# number of rings (size 3 to 8) (size 9 to 14) (size 15 to 20)
#    0.000    2.250    0.000    3.750    0.000    7.250 
#    0.000    6.250    0.000    0.375    0.000    0.000 
#    0.000    0.000    0.000    0.000    0.000    0.250 
#
# Total GULP energy -793279.251616 kJ/mol
# GULP energy per Si atom -12394.988307 kJ/mol
# Density = 1.802120 g / cm^3
# Si number density = 18.062306 Si / 1000 Ang^3
#
#
#
# Elastic Constant Matrix: (Units=GPa)
#
#
# Indices 1 2 3 4 5 6 
#
# 1 71.4672 39.6535 49.2967 0.0000 0.0000 0.0000
# 2 39.6535 100.5999 53.6561 0.0000 0.0000 0.0000
# 3 49.2967 53.6561 127.3833 0.0000 0.0000 0.0000
# 4 0.0000 0.0000 0.0000 2.6886 0.0000 0.0000
# 5 0.0000 0.0000 0.0000 0.0000 33.5412 0.0000
# 6 0.0000 0.0000 0.0000 0.0000 0.0000 26.9875
#
#
#
# Elastic Compliance Matrix: (Units=1/GPa)
#
#
# Indices 1 2 3 4 5 6 
#
# 1 0.020914 -0.005065 -0.005960 0.000000 0.000000 0.000000
# 2 -0.005065 0.014047 -0.003957 0.000000 0.000000 0.000000
# 3 -0.005960 -0.003957 0.011824 0.000000 0.000000 0.000000
# 4 0.000000 0.000000 0.000000 0.371936 0.000000 0.000000
# 5 0.000000 0.000000 0.000000 0.000000 0.029814 0.000000
# 6 0.000000 0.000000 0.000000 0.000000 0.000000 0.037054
#
#
# Mechanical properties :
#
#
# Convention : Reuss Voigt Hill
#
# Bulk Modulus (GPa) = 59.44947 64.96256 62.20601
# Shear Modulus (GPa) = 9.59399 23.09976 16.34687
#
# Velocity S-wave (km/s) = 2.30719 3.58004 3.01163
# Velocity P-wave (km/s) = 6.33108 7.28923 6.82698
#
# Compressibility (1/GPa) = 0.01682101
#
# Stress axis : x y z
#
# Youngs Moduli (GPa) = 47.81537 71.18871 84.57648
#
# Poissons Ratio (x) = 0.36055 0.50409
# Poissons Ratio (y) = 0.24217 0.33466
# Poissons Ratio (z) = 0.28499 0.28169
#
# Static dielectric constant tensor:
#      x y z
#    x 3.341660 0.000000 0.000000 
#    y 0.000000 3.622600 0.000000 
#    z 0.000000 0.000000 3.364860 
# 
# 
# High freq. dielectric constant tensor:
#      x y z
#    x 1.704180 0.000000 0.000000 
#    y 0.000000 1.694970 0.000000 
#    z 0.000000 0.000000 1.694320 
# 
# From -- ./inp_files/14840.got.cif
#   From: 2010.03.12/outbox.cif.g09.slc.cpg/sg51_8_cif.got.tgz:14840.got - 2010.04.16 13:43:02.
