data_PCOD8213947
_publ_section_title
;
Structure prediction by ZEFSAII (Michael W. Deem and Ramdas Pophale) SiO2 
 PCOD8213947
Probable space group: P M M A
;
_chemical_formula_sum "Si O2"
_cell_formula_units_Z 48
_cell_length_a 9.465385
_cell_length_b 28.123373
_cell_length_c 9.516686
_cell_angle_alpha 90.000000
_cell_angle_beta 90.000000
_cell_angle_gamma 90.000000
_cell_volume 2533.328042
_symmetry_space_group_name_H-M "P M M A"
_symmetry_group_IT_number 51
_symmetry_cell_setting 'orthorhombic'
loop_
_space_group_symop_operation_xyz
x,y,z
1/2-x,-y,z
1/2+x,-y,-z
-x,y,-z
-x,-y,-z
1/2+x,y,-z
1/2-x,y,z
x,-y,z
loop_
_atom_site_type_symbol
_atom_site_label
_atom_site_fract_x
_atom_site_fract_y
_atom_site_fract_z
Si Si1 0.584510 0.736300 0.356428
Si Si2 0.750000 0.942273 0.329990
Si Si3 0.750000 0.947044 0.646450
Si Si4 0.413274 0.553606 0.861372
Si Si5 0.588914 0.370617 0.361538
Si Si6 0.083057 0.799314 0.139390
Si Si7 0.513635 0.908578 0.837480
O O1 0.500000 0.738931 0.500000
O O2 0.750000 0.751670 0.372529
O O3 0.575542 0.682470 0.297586
O O4 0.497602 0.771298 0.259060
O O5 0.750000 0.921981 0.491683
O O6 0.627807 0.916520 0.245712
O O7 0.750000 0.000000 0.314783
O O8 0.618512 0.939658 0.746292
O O9 0.750000 0.000000 0.591932
O O10 0.250000 0.562725 0.896404
O O11 0.438077 0.500000 0.805139
O O12 0.470017 0.591111 0.748276
O O13 0.500000 0.563456 0.000000
O O14 0.500000 0.376778 0.500000
O O15 0.750000 0.382025 0.400851
O O16 0.250000 0.786043 0.130077
O O17 0.068371 0.854929 0.168509
O O18 0.000000 0.784630 0.000000
O O19 0.500000 0.925688 0.000000
#
# Coordination Sequence:
#
# PCOD8213947 Si02
#       7
#     8   4   4   8   8   8   8
#     4  10  21  38  60  86 118 154 195 242 291 351
#     4  11  25  41  63  93 125 161 197 245 298 351
#     4  11  23  43  63  89 125 157 197 245 294 351
#     4   9  18  33  52  76 109 147 190 239 289 345
#     4   9  19  35  54  80 113 149 190 237 288 342
#     4  11  24  42  63  88 118 153 194 244 298 351
#     4  11  24  41  64  90 121 158 200 244 295 356
#
# _framework density 18.947407999999999
#
# number of rings (size 3 to 8) (size 9 to 14) (size 15 to 20)
#    0.000    1.833    0.833    2.500    4.667    7.000 
#    0.000    1.667    0.000    0.000    0.000    0.000 
#    0.000    0.000    0.000    0.000    0.000    0.000 
#
# Total GULP energy -594843.739370 kJ/mol
# GULP energy per Si atom -12392.577904 kJ/mol
# Density = 1.890428 g / cm^3
# Si number density = 18.947408 Si / 1000 Ang^3
#
#
#
# Elastic Constant Matrix: (Units=GPa)
#
#
# Indices 1 2 3 4 5 6 
#
# 1 127.8930 16.5481 47.5627 0.0000 0.0000 0.0000
# 2 16.5481 37.8463 31.7902 0.0000 0.0000 0.0000
# 3 47.5627 31.7902 115.3552 0.0000 0.0000 0.0000
# 4 0.0000 0.0000 0.0000 37.7351 0.0000 0.0000
# 5 0.0000 0.0000 0.0000 0.0000 25.8291 0.0000
# 6 0.0000 0.0000 0.0000 0.0000 0.0000 25.6918
#
#
#
# Elastic Compliance Matrix: (Units=1/GPa)
#
#
# Indices 1 2 3 4 5 6 
#
# 1 0.009270 -0.001097 -0.003520 0.000000 0.000000 0.000000
# 2 -0.001097 0.034511 -0.009059 0.000000 0.000000 0.000000
# 3 -0.003520 -0.009059 0.012617 0.000000 0.000000 0.000000
# 4 0.000000 0.000000 0.000000 0.026501 0.000000 0.000000
# 5 0.000000 0.000000 0.000000 0.000000 0.038716 0.000000
# 6 0.000000 0.000000 0.000000 0.000000 0.000000 0.038923
#
#
# Mechanical properties :
#
#
# Convention : Reuss Voigt Hill
#
# Bulk Modulus (GPa) = 34.42638 52.54405 43.48521
# Shear Modulus (GPa) = 25.30746 30.19743 27.75245
#
# Velocity S-wave (km/s) = 3.65865 3.99651 3.83130
# Velocity P-wave (km/s) = 6.00470 7.00627 6.52473
#
# Compressibility (1/GPa) = 0.02904749
#
# Stress axis : x y z
#
# Youngs Moduli (GPa) = 107.87519 28.97610 79.26034
#
# Poissons Ratio (x) = 0.03177 0.27899
# Poissons Ratio (y) = 0.11829 0.71799
# Poissons Ratio (z) = 0.37972 0.26249
#
# Static dielectric constant tensor:
#      x y z
#    x 3.472540 0.000000 0.000000 
#    y 0.000000 3.627050 0.000000 
#    z 0.000000 0.000000 3.159650 
# 
# 
# High freq. dielectric constant tensor:
#      x y z
#    x 1.753450 0.000000 0.000000 
#    y 0.000000 1.737160 0.000000 
#    z 0.000000 0.000000 1.740940 
# 
# From -- ./inp_files/6291.got.cif
#   From: 2010.03.12/outbox.cif.g09.slc.cpg/sg51_4_cif.got.tgz:6291.got - 2010.04.16 13:43:02.
