data_PCOD8213885
_publ_section_title
;
Structure prediction by ZEFSAII (Michael W. Deem and Ramdas Pophale) SiO2 
 PCOD8213885
Probable space group: P M M A
;
_chemical_formula_sum "Si O2"
_cell_formula_units_Z 40
_cell_length_a 8.702640
_cell_length_b 12.547039
_cell_length_c 19.442532
_cell_angle_alpha 90.000000
_cell_angle_beta 90.000000
_cell_angle_gamma 90.000000
_cell_volume 2122.976021
_symmetry_space_group_name_H-M "P M M A"
_symmetry_group_IT_number 51
_symmetry_cell_setting 'orthorhombic'
loop_
_space_group_symop_operation_xyz
x,y,z
1/2-x,-y,z
1/2+x,-y,-z
-x,y,-z
-x,-y,-z
1/2+x,y,-z
1/2-x,y,z
x,-y,z
loop_
_atom_site_type_symbol
_atom_site_label
_atom_site_fract_x
_atom_site_fract_y
_atom_site_fract_z
Si Si1 0.429434 0.000000 0.573735
Si Si2 0.931629 0.500000 0.924948
Si Si3 0.432125 0.230301 0.575429
Si Si4 0.929926 0.876561 0.927052
Si Si5 0.932386 0.619510 0.305750
Si Si6 0.431728 0.305199 0.842504
O O1 0.500000 0.000000 0.500000
O O2 0.478713 0.886810 0.607648
O O3 0.250000 0.000000 0.564370
O O4 0.750000 0.500000 0.929156
O O5 0.987196 0.605032 0.886880
O O6 0.000000 0.500000 0.000000
O O7 0.500000 0.250666 0.500000
O O8 0.250000 0.240617 0.569197
O O9 0.499203 0.317118 0.628492
O O10 0.750000 0.851728 0.928407
O O11 0.011565 0.810492 0.866781
O O12 0.964624 0.000000 0.911969
O O13 0.000000 0.841515 0.000000
O O14 0.750000 0.614707 0.309779
O O15 0.001092 0.500000 0.306120
O O16 0.982503 0.680207 0.236539
O O17 0.250000 0.315861 0.851609
#
# Coordination Sequence:
#
# PCOD8213885 Si02
#       6
#     4   4   8   8   8   8
#     4   8  14  26  46  72 100 128 165 210 259 306
#     4  12  24  38  58  84 111 144 185 230 277 328
#     4   9  17  31  52  77 104 137 175 220 264 316
#     4  10  21  38  59  83 113 146 182 226 276 330
#     4   9  18  34  54  75 105 143 179 220 272 321
#     4  11  21  37  58  81 111 147 187 229 275 330
#
# _framework density 18.841474999999999
#
# number of rings (size 3 to 8) (size 9 to 14) (size 15 to 20)
#    0.000    2.200    1.000    2.700    0.000    1.600 
#    1.800    2.000    0.000    0.000    0.000    0.000 
#    0.000    0.000    0.000    0.000    0.000    0.000 
#
# Total GULP energy -495796.482392 kJ/mol
# GULP energy per Si atom -12394.912060 kJ/mol
# Density = 1.879859 g / cm^3
# Si number density = 18.841475 Si / 1000 Ang^3
#
#
#
# Elastic Constant Matrix: (Units=GPa)
#
#
# Indices 1 2 3 4 5 6 
#
# 1 65.3595 37.9613 39.6085 0.0000 0.0000 0.0000
# 2 37.9613 141.9360 90.3193 0.0000 0.0000 0.0000
# 3 39.6085 90.3193 150.5457 0.0000 0.0000 0.0000
# 4 0.0000 0.0000 0.0000 21.7571 0.0000 0.0000
# 5 0.0000 0.0000 0.0000 0.0000 23.9459 0.0000
# 6 0.0000 0.0000 0.0000 0.0000 0.0000 26.3482
#
#
#
# Elastic Compliance Matrix: (Units=1/GPa)
#
#
# Indices 1 2 3 4 5 6 
#
# 1 0.018997 -0.003074 -0.003154 0.000000 0.000000 0.000000
# 2 -0.003074 0.011893 -0.006327 0.000000 0.000000 0.000000
# 3 -0.003154 -0.006327 0.011268 0.000000 0.000000 0.000000
# 4 0.000000 0.000000 0.000000 0.045962 0.000000 0.000000
# 5 0.000000 0.000000 0.000000 0.000000 0.041761 0.000000
# 6 0.000000 0.000000 0.000000 0.000000 0.000000 0.037953
#
#
# Mechanical properties :
#
#
# Convention : Reuss Voigt Hill
#
# Bulk Modulus (GPa) = 58.65368 77.06882 67.86125
# Shear Modulus (GPa) = 25.17296 27.07372 26.12334
#
# Velocity S-wave (km/s) = 3.65915 3.79479 3.72759
# Velocity P-wave (km/s) = 7.00358 7.75842 7.39065
#
# Compressibility (1/GPa) = 0.01704923
#
# Stress axis : x y z
#
# Youngs Moduli (GPa) = 52.64119 84.07990 88.74697
#
# Poissons Ratio (x) = 0.25844 0.27990
# Poissons Ratio (y) = 0.16181 0.56148
# Poissons Ratio (z) = 0.16603 0.53195
#
# Static dielectric constant tensor:
#      x y z
#    x 3.332510 0.000000 0.000000 
#    y 0.000000 6.323550 0.000000 
#    z 0.000000 0.000000 3.464190 
# 
# 
# High freq. dielectric constant tensor:
#      x y z
#    x 1.717490 0.000000 0.000000 
#    y 0.000000 1.749980 0.000000 
#    z 0.000000 0.000000 1.721420 
# 
# From -- ./inp_files/31424.got.cif
#   From: 2010.03.12/outbox.cif.g09.slc.cpg/sg51_16_cif.got.tgz:31424.got - 2010.04.16 13:43:02.
