data_PCOD8213613
_publ_section_title
;
Structure prediction by ZEFSAII (Michael W. Deem and Ramdas Pophale) SiO2 
 PCOD8213613
Probable space group: P M M A
;
_chemical_formula_sum "Si O2"
_cell_formula_units_Z 48
_cell_length_a 14.405394
_cell_length_b 13.499144
_cell_length_c 11.176298
_cell_angle_alpha 90.000000
_cell_angle_beta 90.000000
_cell_angle_gamma 90.000000
_cell_volume 2173.348363
_symmetry_space_group_name_H-M "P M M A"
_symmetry_group_IT_number 51
_symmetry_cell_setting 'orthorhombic'
loop_
_space_group_symop_operation_xyz
x,y,z
1/2-x,-y,z
1/2+x,-y,-z
-x,y,-z
-x,-y,-z
1/2+x,y,-z
1/2-x,y,z
x,-y,z
loop_
_atom_site_type_symbol
_atom_site_label
_atom_site_fract_x
_atom_site_fract_y
_atom_site_fract_z
Si Si1 0.599568 0.719699 0.952441
Si Si2 0.141945 0.110955 0.655540
Si Si3 0.852621 0.299015 0.208081
Si Si4 0.354565 0.105980 0.199535
Si Si5 0.861370 0.775044 0.579280
Si Si6 0.958094 0.385220 0.717303
O O1 0.645162 0.822937 0.914546
O O2 0.594926 0.643706 0.841268
O O3 0.500000 0.748503 0.000000
O O4 0.654617 0.676237 0.066355
O O5 0.250000 0.094543 0.633716
O O6 0.123781 0.181371 0.771143
O O7 0.103267 0.173962 0.542461
O O8 0.096786 0.000000 0.668805
O O9 0.750000 0.323011 0.263527
O O10 0.931459 0.364197 0.271965
O O11 0.250000 0.086576 0.238880
O O12 0.403031 0.156377 0.314005
O O13 0.402455 0.000000 0.170408
O O14 0.750000 0.760053 0.583728
O O15 0.911787 0.669692 0.603166
O O16 0.942725 0.500000 0.694187
#
# Coordination Sequence:
#
# PCOD8213613 Si02
#       6
#     8   8   8   8   8   8
#     4   9  19  34  52  75 105 138 179 231 277 326
#     4   9  18  35  60  87 118 157 192 223 271 338
#     4  10  21  37  56  82 116 150 186 228 275 335
#     4   9  16  27  47  74 103 136 172 215 271 328
#     4   9  18  35  57  82 112 144 186 238 282 325
#     4  10  22  40  60  82 108 143 191 243 292 336
#
# _framework density 22.085737999999999
#
# number of rings (size 3 to 8) (size 9 to 14) (size 15 to 20)
#    0.000    2.667    0.000    1.000    0.000    8.000 
#    0.000   11.667    0.000    3.000    0.000    0.000 
#    0.000    0.000    0.000    0.000    0.000    0.000 
#
# Total GULP energy -594711.630517 kJ/mol
# GULP energy per Si atom -12389.825636 kJ/mol
# Density = 2.203547 g / cm^3
# Si number density = 22.085738 Si / 1000 Ang^3
#
#
#
# Elastic Constant Matrix: (Units=GPa)
#
#
# Indices 1 2 3 4 5 6 
#
# 1 51.9900 26.2252 7.7524 0.0000 0.0000 0.0000
# 2 26.2252 152.8590 15.2884 0.0000 0.0000 0.0000
# 3 7.7524 15.2884 61.6622 0.0000 0.0000 0.0000
# 4 0.0000 0.0000 0.0000 16.1660 0.0000 0.0000
# 5 0.0000 0.0000 0.0000 0.0000 18.0888 0.0000
# 6 0.0000 0.0000 0.0000 0.0000 0.0000 25.9308
#
#
#
# Elastic Compliance Matrix: (Units=1/GPa)
#
#
# Indices 1 2 3 4 5 6 
#
# 1 0.021253 -0.003465 -0.001813 0.000000 0.000000 0.000000
# 2 -0.003465 0.007273 -0.001368 0.000000 0.000000 0.000000
# 3 -0.001813 -0.001368 0.016784 0.000000 0.000000 0.000000
# 4 0.000000 0.000000 0.000000 0.061858 0.000000 0.000000
# 5 0.000000 0.000000 0.000000 0.000000 0.055283 0.000000
# 6 0.000000 0.000000 0.000000 0.000000 0.000000 0.038564
#
#
# Mechanical properties :
#
#
# Convention : Reuss Voigt Hill
#
# Bulk Modulus (GPa) = 31.23114 40.56035 35.89574
# Shear Modulus (GPa) = 22.22427 26.52014 24.37221
#
# Velocity S-wave (km/s) = 3.17562 3.46899 3.32554
# Velocity P-wave (km/s) = 5.25525 5.86941 5.57080
#
# Compressibility (1/GPa) = 0.03201933
#
# Stress axis : x y z
#
# Youngs Moduli (GPa) = 47.05317 137.49069 59.57909
#
# Poissons Ratio (x) = 0.47639 0.10801
# Poissons Ratio (y) = 0.16303 0.08149
# Poissons Ratio (z) = 0.08530 0.18804
#
# Static dielectric constant tensor:
#      x y z
#    x 4.318080 0.000000 0.000000 
#    y 0.000000 3.932810 0.000000 
#    z 0.000000 0.000000 4.187120 
# 
# 
# High freq. dielectric constant tensor:
#      x y z
#    x 1.863560 0.000000 0.000000 
#    y 0.000000 1.850120 0.000000 
#    z 0.000000 0.000000 1.860210 
# 
# From -- ./inp_files/16433.got.cif
#   From: 2010.03.12/outbox.cif.g09.slc.cpg/sg51_9_cif.got.tgz:16433.got - 2010.04.16 13:43:02.
