data_PCOD8213191
_publ_section_title
;
Structure prediction by ZEFSAII (Michael W. Deem and Ramdas Pophale) SiO2 
 PCOD8213191
Probable space group: P M M A
;
_chemical_formula_sum "Si O2"
_cell_formula_units_Z 40
_cell_length_a 8.673859
_cell_length_b 26.108369
_cell_length_c 9.204270
_cell_angle_alpha 90.000000
_cell_angle_beta 90.000000
_cell_angle_gamma 90.000000
_cell_volume 2084.401851
_symmetry_space_group_name_H-M "P M M A"
_symmetry_group_IT_number 51
_symmetry_cell_setting 'orthorhombic'
loop_
_space_group_symop_operation_xyz
x,y,z
1/2-x,-y,z
1/2+x,-y,-z
-x,y,-z
-x,-y,-z
1/2+x,y,-z
1/2-x,y,z
x,-y,z
loop_
_atom_site_type_symbol
_atom_site_label
_atom_site_fract_x
_atom_site_fract_y
_atom_site_fract_z
Si Si1 0.066930 0.000000 0.658001
Si Si2 0.430029 0.094634 0.842049
Si Si3 0.932347 0.309172 0.838208
Si Si4 0.430693 0.206534 0.841694
Si Si5 0.431542 0.500000 0.840624
Si Si6 0.933094 0.401822 0.340488
O O1 0.002514 0.050654 0.738282
O O2 0.000000 0.000000 0.500000
O O3 0.250000 0.000000 0.651025
O O4 0.250000 0.087003 0.862883
O O5 0.463277 0.150824 0.769191
O O6 0.500000 0.088460 0.000000
O O7 0.750000 0.313773 0.846148
O O8 0.982227 0.254406 0.766622
O O9 0.998901 0.351521 0.732281
O O10 0.000000 0.315606 0.000000
O O11 0.250000 0.219180 0.848544
O O12 0.500000 0.201774 0.000000
O O13 0.250000 0.500000 0.855808
O O14 0.488578 0.549894 0.754314
O O15 0.500000 0.500000 0.000000
O O16 0.750000 0.397727 0.348465
O O17 0.000000 0.408713 0.500000
#
# Coordination Sequence:
#
# PCOD8213191 Si02
#       6
#     4   8   8   8   4   8
#     4  10  21  36  50  72 104 138 173 214 262 318
#     4   9  18  32  53  78 104 133 173 220 267 316
#     4  11  21  35  56  83 112 146 184 226 270 319
#     4   9  16  29  50  77 106 137 173 221 270 316
#     4  10  23  40  62  88 114 144 183 226 271 320
#     4  11  23  40  59  84 115 149 185 225 271 323
#
# _framework density 19.190156999999999
#
# number of rings (size 3 to 8) (size 9 to 14) (size 15 to 20)
#    0.000    2.000    0.000    5.400    0.000    4.800 
#    0.000    1.000    0.000    2.400    0.000    0.000 
#    0.000    0.000    0.000    0.000    0.000    0.000 
#
# Total GULP energy -495816.400594 kJ/mol
# GULP energy per Si atom -12395.410015 kJ/mol
# Density = 1.914648 g / cm^3
# Si number density = 19.190157 Si / 1000 Ang^3
#
#
#
# Elastic Constant Matrix: (Units=GPa)
#
#
# Indices 1 2 3 4 5 6 
#
# 1 83.5716 54.4334 40.6513 0.0000 0.0000 0.0000
# 2 54.4334 200.4623 88.1033 0.0000 0.0000 0.0000
# 3 40.6513 88.1033 122.0507 0.0000 0.0000 0.0000
# 4 0.0000 0.0000 0.0000 6.2836 0.0000 0.0000
# 5 0.0000 0.0000 0.0000 0.0000 31.2493 0.0000
# 6 0.0000 0.0000 0.0000 0.0000 0.0000 19.0783
#
#
#
# Elastic Compliance Matrix: (Units=1/GPa)
#
#
# Indices 1 2 3 4 5 6 
#
# 1 0.015283 -0.002802 -0.003068 0.000000 0.000000 0.000000
# 2 -0.002802 0.007820 -0.004712 0.000000 0.000000 0.000000
# 3 -0.003068 -0.004712 0.012616 0.000000 0.000000 0.000000
# 4 0.000000 0.000000 0.000000 0.159145 0.000000 0.000000
# 5 0.000000 0.000000 0.000000 0.000000 0.032001 0.000000
# 6 0.000000 0.000000 0.000000 0.000000 0.000000 0.052416
#
#
# Mechanical properties :
#
#
# Convention : Reuss Voigt Hill
#
# Bulk Modulus (GPa) = 68.69696 85.82897 77.26296
# Shear Modulus (GPa) = 16.37756 26.18201 21.27979
#
# Velocity S-wave (km/s) = 2.92453 3.69771 3.33361
# Velocity P-wave (km/s) = 6.87601 7.94062 7.42741
#
# Compressibility (1/GPa) = 0.01455669
#
# Stress axis : x y z
#
# Youngs Moduli (GPa) = 65.43282 127.87614 79.26157
#
# Poissons Ratio (x) = 0.35825 0.24317
# Poissons Ratio (y) = 0.18331 0.37347
# Poissons Ratio (z) = 0.20074 0.60254
#
# Static dielectric constant tensor:
#      x y z
#    x 3.547340 0.000000 0.000000 
#    y 0.000000 4.523710 0.000000 
#    z 0.000000 0.000000 3.190370 
# 
# 
# High freq. dielectric constant tensor:
#      x y z
#    x 1.752260 0.000000 0.000000 
#    y 0.000000 1.777500 0.000000 
#    z 0.000000 0.000000 1.714970 
# 
# From -- ./inp_files/5559.got.cif
#   From: 2010.03.12/outbox.cif.g09.slc.cpg/sg51_3_cif.got.tgz:5559.got - 2010.04.16 13:43:02.
