data_PCOD8213249
_publ_section_title
;
Structure prediction by ZEFSAII (Michael W. Deem and Ramdas Pophale) SiO2 
 PCOD8213249
Probable space group: P M M A
;
_chemical_formula_sum "Si O2"
_cell_formula_units_Z 40
_cell_length_a 9.499072
_cell_length_b 8.990008
_cell_length_c 25.843159
_cell_angle_alpha 90.000000
_cell_angle_beta 90.000000
_cell_angle_gamma 90.000000
_cell_volume 2206.921356
_symmetry_space_group_name_H-M "P M M A"
_symmetry_group_IT_number 51
_symmetry_cell_setting 'orthorhombic'
loop_
_space_group_symop_operation_xyz
x,y,z
1/2-x,-y,z
1/2+x,-y,-z
-x,y,-z
-x,-y,-z
1/2+x,y,-z
1/2-x,y,z
x,-y,z
loop_
_atom_site_type_symbol
_atom_site_label
_atom_site_fract_x
_atom_site_fract_y
_atom_site_fract_z
Si Si1 0.591713 0.323189 0.159871
Si Si2 0.413650 0.325795 0.550602
Si Si3 0.589450 0.824243 0.639221
Si Si4 0.912964 0.328338 0.745153
Si Si5 0.091882 0.677078 0.953759
O O1 0.750000 0.265101 0.168932
O O2 0.588311 0.500000 0.161561
O O3 0.494236 0.259594 0.205526
O O4 0.537160 0.270574 0.103060
O O5 0.500000 0.277292 0.500000
O O6 0.250000 0.281194 0.543704
O O7 0.430147 0.500000 0.561220
O O8 0.480135 0.239135 0.598241
O O9 0.750000 0.772781 0.626502
O O10 0.542324 0.763872 0.694902
O O11 0.578233 0.000000 0.639488
O O12 0.750000 0.309236 0.757754
O O13 0.952764 0.500000 0.735121
O O14 0.250000 0.734366 0.961794
O O15 0.086925 0.500000 0.956558
O O16 0.000000 0.747955 0.000000
#
# Coordination Sequence:
#
# PCOD8213249 Si02
#       5
#     8   8   8   8   8
#     4   8  14  24  37  55  81 113 149 188 230 277
#     4  10  21  37  58  82 105 131 164 200 238 282
#     4  10  21  36  53  74 102 134 165 200 243 288
#     4   9  17  29  46  67  90 119 157 198 236 277
#     4   8  13  20  30  47  74 108 143 179 222 273
#
# _framework density 18.124794999999999
#
# number of rings (size 3 to 8) (size 9 to 14) (size 15 to 20)
#    0.000    3.000    0.000    2.400    0.000    4.400 
#    0.000    6.000    0.000    0.000    0.000    0.000 
#    0.000    0.800    0.000    1.800    0.000    3.600 
#
# Total GULP energy -495825.281884 kJ/mol
# GULP energy per Si atom -12395.632047 kJ/mol
# Density = 1.808354 g / cm^3
# Si number density = 18.124795 Si / 1000 Ang^3
#
#
#
# Elastic Constant Matrix: (Units=GPa)
#
#
# Indices 1 2 3 4 5 6 
#
# 1 107.6936 32.2698 101.6256 0.0000 0.0000 0.0000
# 2 32.2698 26.4565 38.7213 0.0000 0.0000 0.0000
# 3 101.6256 38.7213 185.3223 0.0000 0.0000 0.0000
# 4 0.0000 0.0000 0.0000 -4.2912 0.0000 0.0000
# 5 0.0000 0.0000 0.0000 0.0000 43.7878 0.0000
# 6 0.0000 0.0000 0.0000 0.0000 0.0000 14.6048
#
#
#
# Elastic Compliance Matrix: (Units=1/GPa)
#
#
# Indices 1 2 3 4 5 6 
#
# 1 0.022059 -0.013255 -0.009327 0.000000 0.000000 0.000000
# 2 -0.013255 0.062413 -0.005772 0.000000 0.000000 0.000000
# 3 -0.009327 -0.005772 0.011717 0.000000 0.000000 0.000000
# 4 0.000000 0.000000 0.000000 -0.233037 0.000000 0.000000
# 5 0.000000 0.000000 0.000000 0.000000 0.022837 0.000000
# 6 0.000000 0.000000 0.000000 0.000000 0.000000 0.068471
#
#
# Mechanical properties :
#
#
# Convention : Reuss Voigt Hill
#
# Bulk Modulus (GPa) = 25.32878 73.85618 49.59248
# Shear Modulus (GPa) = 205.52716 20.61066 113.06891
#
# Velocity S-wave (km/s) = 10.66029 3.37583 7.90689
# Velocity P-wave (km/s) = 12.86574 7.48546 10.52519
#
# Compressibility (1/GPa) = 0.03948079
#
# Stress axis : x y z
#
# Youngs Moduli (GPa) = 45.33340 16.02227 85.34887
#
# Poissons Ratio (x) = 0.21238 0.79604
# Poissons Ratio (y) = 0.60090 0.49263
# Poissons Ratio (z) = 0.42282 0.09248
#
# Static dielectric constant tensor:
#      x y z
#    x 3.496580 0.000000 0.000000 
#    y 0.000000 2.859730 0.000000 
#    z 0.000000 0.000000 3.728450 
# 
# 
# High freq. dielectric constant tensor:
#      x y z
#    x 1.700470 0.000000 0.000000 
#    y 0.000000 1.650220 0.000000 
#    z 0.000000 0.000000 1.719270 
# 
# From -- ./inp_files/35975.got.cif
#   From: 2010.03.12/outbox.cif.g09.slc.cpg/sg51_18_cif.got.tgz:35975.got - 2010.04.16 13:43:02.
