data_PCOD8213105
_publ_section_title
;
Structure prediction by ZEFSAII (Michael W. Deem and Ramdas Pophale) SiO2 
 PCOD8213105
Probable space group: P M M A
;
_chemical_formula_sum "Si O2"
_cell_formula_units_Z 44
_cell_length_a 9.353101
_cell_length_b 7.822954
_cell_length_c 29.939707
_cell_angle_alpha 90.000000
_cell_angle_beta 90.000000
_cell_angle_gamma 90.000000
_cell_volume 2190.654795
_symmetry_space_group_name_H-M "P M M A"
_symmetry_group_IT_number 51
_symmetry_cell_setting 'orthorhombic'
loop_
_space_group_symop_operation_xyz
x,y,z
1/2-x,-y,z
1/2+x,-y,-z
-x,y,-z
-x,-y,-z
1/2+x,y,-z
1/2-x,y,z
x,-y,z
loop_
_atom_site_type_symbol
_atom_site_label
_atom_site_fract_x
_atom_site_fract_y
_atom_site_fract_z
Si Si1 0.593286 0.804059 0.304446
Si Si2 0.589262 0.303394 0.776582
Si Si3 0.588040 0.797602 0.873584
Si Si4 0.583567 0.197939 0.611599
Si Si5 0.416769 0.500000 0.454230
Si Si6 0.911694 0.796178 0.042288
O O1 0.750000 0.713999 0.302532
O O2 0.515050 0.790949 0.257158
O O3 0.498992 0.730041 0.344908
O O4 0.616061 0.000000 0.315293
O O5 0.750000 0.226567 0.772923
O O6 0.589605 0.500000 0.763425
O O7 0.531711 0.278043 0.826844
O O8 0.750000 0.735863 0.883114
O O9 0.486836 0.726711 0.912811
O O10 0.580635 0.000000 0.871097
O O11 0.750000 0.213935 0.623177
O O12 0.540726 0.325898 0.571759
O O13 0.545422 0.000000 0.599072
O O14 0.250000 0.500000 0.464940
O O15 0.500000 0.500000 0.500000
O O16 0.750000 0.725670 0.040134
O O17 0.912021 0.000000 0.041860
O O18 0.000000 0.725542 0.000000
#
# Coordination Sequence:
#
# PCOD8213105 Si02
#       6
#     8   8   8   8   4   8
#     4  10  21  36  55  81 110 140 178 225 275 323
#     4  10  21  35  52  75 104 140 178 215 260 318
#     4   9  17  30  48  69  95 128 165 206 253 306
#     4   9  19  37  59  82 112 150 190 233 279 332
#     4  10  22  38  58  86 116 150 192 234 281 336
#     4   9  16  26  43  68  95 122 156 202 255 308
#
# _framework density 20.085321
#
# number of rings (size 3 to 8) (size 9 to 14) (size 15 to 20)
#    0.000    2.545    0.000    1.636    1.273    6.182 
#    0.000    1.818    0.000    0.545    0.000    0.000 
#    0.000    0.000    0.000    0.000    0.000    0.000 
#
# Total GULP energy -545509.839943 kJ/mol
# GULP energy per Si atom -12397.950908 kJ/mol
# Density = 2.003961 g / cm^3
# Si number density = 20.085321 Si / 1000 Ang^3
#
#
#
# Elastic Constant Matrix: (Units=GPa)
#
#
# Indices 1 2 3 4 5 6 
#
# 1 129.4028 25.2723 98.3596 0.0000 0.0000 0.0000
# 2 25.2723 48.7578 36.6122 0.0000 0.0000 0.0000
# 3 98.3596 36.6122 171.9378 0.0000 0.0000 0.0000
# 4 0.0000 0.0000 0.0000 9.5358 0.0000 0.0000
# 5 0.0000 0.0000 0.0000 0.0000 42.5516 0.0000
# 6 0.0000 0.0000 0.0000 0.0000 0.0000 11.0916
#
#
#
# Elastic Compliance Matrix: (Units=1/GPa)
#
#
# Indices 1 2 3 4 5 6 
#
# 1 0.013759 -0.001454 -0.007562 0.000000 0.000000 0.000000
# 2 -0.001454 0.024567 -0.004400 0.000000 0.000000 0.000000
# 3 -0.007562 -0.004400 0.011079 0.000000 0.000000 0.000000
# 4 0.000000 0.000000 0.000000 0.104868 0.000000 0.000000
# 5 0.000000 0.000000 0.000000 0.000000 0.023501 0.000000
# 6 0.000000 0.000000 0.000000 0.000000 0.000000 0.090159
#
#
# Mechanical properties :
#
#
# Convention : Reuss Voigt Hill
#
# Bulk Modulus (GPa) = 44.29731 74.50961 59.40346
# Shear Modulus (GPa) = 16.54055 25.29274 20.91665
#
# Velocity S-wave (km/s) = 2.87281 3.55246 3.23056
# Velocity P-wave (km/s) = 5.75382 7.34872 6.59963
#
# Compressibility (1/GPa) = 0.02257474
#
# Stress axis : x y z
#
# Youngs Moduli (GPa) = 72.67745 40.70558 90.26336
#
# Poissons Ratio (x) = 0.05918 0.68255
# Poissons Ratio (y) = 0.10565 0.39712
# Poissons Ratio (z) = 0.54957 0.17909
#
# Static dielectric constant tensor:
#      x y z
#    x 3.978250 0.000000 0.000000 
#    y 0.000000 3.447460 0.000000 
#    z 0.000000 0.000000 3.606860 
# 
# 
# High freq. dielectric constant tensor:
#      x y z
#    x 1.781290 0.000000 0.000000 
#    y 0.000000 1.765260 0.000000 
#    z 0.000000 0.000000 1.784410 
# 
# From -- ./inp_files/36748.got.cif
#   From: 2010.03.12/outbox.cif.g09.slc.cpg/sg51_19_cif.got.tgz:36748.got - 2010.04.16 13:43:02.
