data_PCOD8213459
_publ_section_title
;
Structure prediction by ZEFSAII (Michael W. Deem and Ramdas Pophale) SiO2 
 PCOD8213459
Probable space group: P M M A
;
_chemical_formula_sum "Si O2"
_cell_formula_units_Z 56
_cell_length_a 18.929547
_cell_length_b 9.240487
_cell_length_c 16.349610
_cell_angle_alpha 90.000000
_cell_angle_beta 90.000000
_cell_angle_gamma 90.000000
_cell_volume 2859.844891
_symmetry_space_group_name_H-M "P M M A"
_symmetry_group_IT_number 51
_symmetry_cell_setting 'orthorhombic'
loop_
_space_group_symop_operation_xyz
x,y,z
1/2-x,-y,z
1/2+x,-y,-z
-x,y,-z
-x,-y,-z
1/2+x,y,-z
1/2-x,y,z
x,-y,z
loop_
_atom_site_type_symbol
_atom_site_label
_atom_site_fract_x
_atom_site_fract_y
_atom_site_fract_z
Si Si1 0.166635 0.662914 0.185200
Si Si2 0.830103 0.668158 0.368230
Si Si3 0.920534 0.164799 0.499672
Si Si4 0.083138 0.164821 0.314960
Si Si5 0.941107 0.332657 0.066491
Si Si6 0.167569 0.166965 0.025888
Si Si7 0.045589 0.666192 0.745967
O O1 0.250000 0.661800 0.190692
O O2 0.136083 0.500000 0.179748
O O3 0.138503 0.740611 0.265189
O O4 0.140400 0.748666 0.105834
O O5 0.750000 0.726561 0.355696
O O6 0.828616 0.500000 0.390250
O O7 0.867328 0.746048 0.443903
O O8 0.874229 0.695711 0.284518
O O9 0.891292 0.171821 0.591743
O O10 0.000000 0.229894 0.500000
O O11 0.923104 0.000000 0.466904
O O12 0.004683 0.229558 0.306063
O O13 0.082935 0.000000 0.283065
O O14 0.919716 0.500000 0.057600
O O15 0.965636 0.297951 0.158477
O O16 0.872327 0.234686 0.051418
O O17 0.000000 0.288941 0.000000
O O18 0.250000 0.189978 0.010804
O O19 0.147921 0.000000 0.036775
O O20 0.024721 0.500000 0.728642
#
# Coordination Sequence:
#
# PCOD8213459 Si02
#       7
#     8   8   8   8   8   8   8
#     4  10  21  37  57  82 114 151 190 234 287 346
#     4  10  22  39  59  86 118 153 197 245 291 342
#     4  10  21  39  60  84 115 151 192 235 285 350
#     4  11  22  36  59  86 115 149 189 235 285 343
#     4  10  21  36  56  84 116 151 195 242 288 344
#     4  10  21  37  57  82 113 149 190 236 287 343
#     4  10  21  37  58  84 116 154 193 239 291 343
#
# _framework density 19.581482000000001
#
# number of rings (size 3 to 8) (size 9 to 14) (size 15 to 20)
#    0.000    1.857    1.429    2.143    0.000    6.571 
#    0.000    4.286    0.000    0.000    0.000    0.000 
#    0.000    0.000    0.000    0.000    0.000    0.000 
#
# Total GULP energy -694542.280157 kJ/mol
# GULP energy per Si atom -12402.540717 kJ/mol
# Density = 1.953691 g / cm^3
# Si number density = 19.581482 Si / 1000 Ang^3
#
#
#
# Elastic Constant Matrix: (Units=GPa)
#
#
# Indices 1 2 3 4 5 6 
#
# 1 73.4883 37.6480 40.6810 0.0000 0.0000 0.0000
# 2 37.6480 98.7956 41.6603 0.0000 0.0000 0.0000
# 3 40.6810 41.6603 91.5667 0.0000 0.0000 0.0000
# 4 0.0000 0.0000 0.0000 30.5047 0.0000 0.0000
# 5 0.0000 0.0000 0.0000 0.0000 35.4497 0.0000
# 6 0.0000 0.0000 0.0000 0.0000 0.0000 33.6026
#
#
#
# Elastic Compliance Matrix: (Units=1/GPa)
#
#
# Indices 1 2 3 4 5 6 
#
# 1 0.019675 -0.004716 -0.006595 0.000000 0.000000 0.000000
# 2 -0.004716 0.013655 -0.004117 0.000000 0.000000 0.000000
# 3 -0.006595 -0.004117 0.015724 0.000000 0.000000 0.000000
# 4 0.000000 0.000000 0.000000 0.032782 0.000000 0.000000
# 5 0.000000 0.000000 0.000000 0.000000 0.028209 0.000000
# 6 0.000000 0.000000 0.000000 0.000000 0.000000 0.029760
#
#
# Mechanical properties :
#
#
# Convention : Reuss Voigt Hill
#
# Bulk Modulus (GPa) = 54.95562 55.98102 55.46832
# Shear Modulus (GPa) = 28.29197 29.50216 28.89706
#
# Velocity S-wave (km/s) = 3.80522 3.88575 3.84570
# Velocity P-wave (km/s) = 6.88711 6.98448 6.93596
#
# Compressibility (1/GPa) = 0.01819650
#
# Stress axis : x y z
#
# Youngs Moduli (GPa) = 50.82660 73.23097 63.59524
#
# Poissons Ratio (x) = 0.34538 0.41943
# Poissons Ratio (y) = 0.23972 0.26185
# Poissons Ratio (z) = 0.33521 0.30153
#
# Static dielectric constant tensor:
#      x y z
#    x 3.549210 0.000000 0.000000 
#    y 0.000000 3.626710 0.000000 
#    z 0.000000 0.000000 3.542090 
# 
# 
# High freq. dielectric constant tensor:
#      x y z
#    x 1.762160 0.000000 0.000000 
#    y 0.000000 1.764710 0.000000 
#    z 0.000000 0.000000 1.763650 
# 
# From -- ./inp_files/25638.got.cif
#   From: 2010.03.12/outbox.cif.g09.slc.cpg/sg51_13_cif.got.tgz:25638.got - 2010.04.16 13:43:02.
