data_PCOD8213717
_publ_section_title
;
Structure prediction by ZEFSAII (Michael W. Deem and Ramdas Pophale) SiO2 
 PCOD8213717
Probable space group: P M M A
;
_chemical_formula_sum "Si O2"
_cell_formula_units_Z 64
_cell_length_a 28.787830
_cell_length_b 8.905223
_cell_length_c 12.511886
_cell_angle_alpha 90.000000
_cell_angle_beta 90.000000
_cell_angle_gamma 90.000000
_cell_volume 3207.572692
_symmetry_space_group_name_H-M "P M M A"
_symmetry_group_IT_number 51
_symmetry_cell_setting 'orthorhombic'
loop_
_space_group_symop_operation_xyz
x,y,z
1/2-x,-y,z
1/2+x,-y,-z
-x,y,-z
-x,-y,-z
1/2+x,y,-z
1/2-x,y,z
x,-y,z
loop_
_atom_site_type_symbol
_atom_site_label
_atom_site_fract_x
_atom_site_fract_y
_atom_site_fract_z
Si Si1 0.804667 0.665941 0.840192
Si Si2 0.389713 0.323864 0.882558
Si Si3 0.396281 0.826730 0.465233
Si Si4 0.047761 0.822110 0.054864
Si Si5 0.544680 0.324500 0.715088
Si Si6 0.697141 0.823447 0.055322
Si Si7 0.560068 0.326520 0.334426
Si Si8 0.698012 0.172389 0.628876
O O1 0.750000 0.652301 0.833977
O O2 0.826889 0.500000 0.855986
O O3 0.822061 0.735968 0.729526
O O4 0.818704 0.773808 0.937012
O O5 0.388111 0.500000 0.901913
O O6 0.337511 0.260584 0.863013
O O7 0.420507 0.280927 0.780920
O O8 0.410158 0.244891 0.987133
O O9 0.418039 0.729588 0.370539
O O10 0.414541 0.775113 0.579245
O O11 0.340021 0.804738 0.464675
O O12 0.409679 0.000000 0.447481
O O13 0.051349 0.762613 0.174777
O O14 0.051839 0.000000 0.056444
O O15 0.000000 0.767994 0.000000
O O16 0.551036 0.500000 0.738250
O O17 0.494398 0.291292 0.664349
O O18 0.750000 0.773477 0.080487
O O19 0.691386 0.000000 0.066563
O O20 0.570216 0.500000 0.360962
O O21 0.750000 0.225543 0.592195
O O22 0.700557 0.000000 0.664918
#
# Coordination Sequence:
#
# PCOD8213717 Si02
#       8
#     8   8   8   8   8   8   8   8
#     4   9  17  30  51  79 110 147 190 236 289 349
#     4  11  23  40  63  88 120 162 206 250 299 363
#     4  11  24  39  61  91 119 153 202 254 302 357
#     4  11  23  39  62  93 126 158 196 245 300 363
#     4  11  23  41  64  88 122 161 199 245 300 364
#     4  10  21  37  57  84 120 160 201 249 304 360
#     4  10  23  43  63  85 116 158 202 246 302 362
#     4   9  19  37  57  79 113 154 193 239 296 354
#
# _framework density 19.952783
#
# number of rings (size 3 to 8) (size 9 to 14) (size 15 to 20)
#    0.000    1.750    1.250    2.625    1.750    7.250 
#    0.000    0.625    0.000    2.250    0.000    0.000 
#    0.000    0.000    0.000    0.000    0.000    0.000 
#
# Total GULP energy -793670.824302 kJ/mol
# GULP energy per Si atom -12401.106630 kJ/mol
# Density = 1.990737 g / cm^3
# Si number density = 19.952783 Si / 1000 Ang^3
#
#
#
# Elastic Constant Matrix: (Units=GPa)
#
#
# Indices 1 2 3 4 5 6 
#
# 1 113.5838 40.7130 34.5873 0.0000 0.0000 0.0000
# 2 40.7130 78.1965 29.2692 0.0000 0.0000 0.0000
# 3 34.5873 29.2692 58.3418 0.0000 0.0000 0.0000
# 4 0.0000 0.0000 0.0000 36.5374 0.0000 0.0000
# 5 0.0000 0.0000 0.0000 0.0000 25.7470 0.0000
# 6 0.0000 0.0000 0.0000 0.0000 0.0000 29.9120
#
#
#
# Elastic Compliance Matrix: (Units=1/GPa)
#
#
# Indices 1 2 3 4 5 6 
#
# 1 0.011836 -0.004354 -0.004833 0.000000 0.000000 0.000000
# 2 -0.004354 0.017346 -0.006121 0.000000 0.000000 0.000000
# 3 -0.004833 -0.006121 0.023076 0.000000 0.000000 0.000000
# 4 0.000000 0.000000 0.000000 0.027369 0.000000 0.000000
# 5 0.000000 0.000000 0.000000 0.000000 0.038840 0.000000
# 6 0.000000 0.000000 0.000000 0.000000 0.000000 0.033431
#
#
# Mechanical properties :
#
#
# Convention : Reuss Voigt Hill
#
# Bulk Modulus (GPa) = 46.20362 51.02901 48.61631
# Shear Modulus (GPa) = 26.35336 28.14278 27.24807
#
# Velocity S-wave (km/s) = 3.63821 3.75970 3.69945
# Velocity P-wave (km/s) = 6.39183 6.66914 6.53196
#
# Compressibility (1/GPa) = 0.02164333
#
# Stress axis : x y z
#
# Youngs Moduli (GPa) = 84.48655 57.64940 43.33415
#
# Poissons Ratio (x) = 0.25098 0.20943
# Poissons Ratio (y) = 0.36782 0.26527
# Poissons Ratio (z) = 0.40831 0.35289
#
# Static dielectric constant tensor:
#      x y z
#    x 3.880600 0.000000 0.000000 
#    y 0.000000 3.737850 0.000000 
#    z 0.000000 0.000000 3.503830 
# 
# 
# High freq. dielectric constant tensor:
#      x y z
#    x 1.791900 0.000000 0.000000 
#    y 0.000000 1.786640 0.000000 
#    z 0.000000 0.000000 1.758520 
# 
# From -- ./inp_files/19455.got.cif
#   From: 2010.03.12/outbox.cif.g09.slc.cpg/sg51_10_cif.got.tgz:19455.got - 2010.04.16 13:43:02.
