data_PCOD8213792
_publ_section_title
;
Structure prediction by ZEFSAII (Michael W. Deem and Ramdas Pophale) SiO2 
 PCOD8213792
Probable space group: P M M A
;
_chemical_formula_sum "Si O2"
_cell_formula_units_Z 64
_cell_length_a 14.598931
_cell_length_b 9.181647
_cell_length_c 24.040198
_cell_angle_alpha 90.000000
_cell_angle_beta 90.000000
_cell_angle_gamma 90.000000
_cell_volume 3222.401774
_symmetry_space_group_name_H-M "P M M A"
_symmetry_group_IT_number 51
_symmetry_cell_setting 'orthorhombic'
loop_
_space_group_symop_operation_xyz
x,y,z
1/2-x,-y,z
1/2+x,-y,-z
-x,y,-z
-x,-y,-z
1/2+x,y,-z
1/2-x,y,z
x,-y,z
loop_
_atom_site_type_symbol
_atom_site_label
_atom_site_fract_x
_atom_site_fract_y
_atom_site_fract_z
Si Si1 0.010703 0.326702 0.749302
Si Si2 0.357570 0.332901 0.545580
Si Si3 0.025502 0.830145 0.635959
Si Si4 0.641323 0.839428 0.931775
Si Si5 0.353799 0.833863 0.435108
Si Si6 0.352161 0.326408 0.844599
Si Si7 0.643962 0.829780 0.808379
Si Si8 0.359253 0.661026 0.965783
O O1 0.008691 0.500000 0.744027
O O2 0.910665 0.266320 0.764067
O O3 0.044333 0.258496 0.691880
O O4 0.080191 0.270808 0.796866
O O5 0.250000 0.319760 0.556310
O O6 0.390749 0.500000 0.550161
O O7 0.406407 0.231929 0.590136
O O8 0.382982 0.273748 0.484557
O O9 0.920451 0.805856 0.616900
O O10 0.046616 0.000000 0.645550
O O11 0.750000 0.846486 0.938049
O O12 0.617963 0.775142 0.870742
O O13 0.599448 0.000000 0.936722
O O14 0.597399 0.746944 0.981964
O O15 0.250000 0.802250 0.415151
O O16 0.363668 0.000000 0.456646
O O17 0.250000 0.267864 0.831116
O O18 0.350129 0.500000 0.847375
O O19 0.385438 0.268720 0.905588
O O20 0.750000 0.802454 0.795930
O O21 0.620017 0.000000 0.801377
O O22 0.250000 0.657065 0.970091
O O23 0.400303 0.500000 0.970295
#
# Coordination Sequence:
#
# PCOD8213792 Si02
#       8
#     8   8   8   8   8   8   8   8
#     4  11  23  37  55  80 107 139 185 235 274 314
#     4  10  21  37  59  88 119 148 179 221 272 318
#     4  11  23  38  57  81 112 151 189 225 268 321
#     4   8  14  26  46  72  99 128 165 210 263 322
#     4   9  19  37  60  85 113 146 182 218 263 323
#     4   8  16  33  54  74 101 138 175 215 270 330
#     4   9  19  37  57  74 101 143 181 217 270 331
#     4   8  13  24  46  73  97 125 164 209 260 321
#
# _framework density 19.860962000000001
#
# number of rings (size 3 to 8) (size 9 to 14) (size 15 to 20)
#    0.000    2.750    0.000    3.000    0.000    5.000 
#    0.000    5.625    0.000    6.375    0.000    0.000 
#    0.000    0.000    0.000    0.000    0.000    0.000 
#
# Total GULP energy -793442.748541 kJ/mol
# GULP energy per Si atom -12397.542946 kJ/mol
# Density = 1.981576 g / cm^3
# Si number density = 19.860962 Si / 1000 Ang^3
#
#
#
# Elastic Constant Matrix: (Units=GPa)
#
#
# Indices 1 2 3 4 5 6 
#
# 1 33.4043 18.1635 13.4539 0.0000 0.0000 0.0000
# 2 18.1635 73.6911 25.9554 0.0000 0.0000 0.0000
# 3 13.4539 25.9554 69.1424 0.0000 0.0000 0.0000
# 4 0.0000 0.0000 0.0000 37.8260 0.0000 0.0000
# 5 0.0000 0.0000 0.0000 0.0000 26.5705 0.0000
# 6 0.0000 0.0000 0.0000 0.0000 0.0000 23.1149
#
#
#
# Elastic Compliance Matrix: (Units=1/GPa)
#
#
# Indices 1 2 3 4 5 6 
#
# 1 0.035590 -0.007298 -0.004186 0.000000 0.000000 0.000000
# 2 -0.007298 0.017134 -0.005012 0.000000 0.000000 0.000000
# 3 -0.004186 -0.005012 0.017159 0.000000 0.000000 0.000000
# 4 0.000000 0.000000 0.000000 0.026437 0.000000 0.000000
# 5 0.000000 0.000000 0.000000 0.000000 0.037636 0.000000
# 6 0.000000 0.000000 0.000000 0.000000 0.000000 0.043262
#
#
# Mechanical properties :
#
#
# Convention : Reuss Voigt Hill
#
# Bulk Modulus (GPa) = 27.10609 32.37594 29.74101
# Shear Modulus (GPa) = 22.47119 25.41327 23.94223
#
# Velocity S-wave (km/s) = 3.36732 3.58097 3.47579
# Velocity P-wave (km/s) = 5.36619 5.78226 5.57810
#
# Compressibility (1/GPa) = 0.03689208
#
# Stress axis : x y z
#
# Youngs Moduli (GPa) = 28.09745 58.36232 58.27916
#
# Poissons Ratio (x) = 0.42594 0.24393
# Poissons Ratio (y) = 0.20506 0.29209
# Poissons Ratio (z) = 0.11760 0.29251
#
# Static dielectric constant tensor:
#      x y z
#    x 3.501310 0.000000 0.000000 
#    y 0.000000 3.595770 0.000000 
#    z 0.000000 0.000000 3.694620 
# 
# 
# High freq. dielectric constant tensor:
#      x y z
#    x 1.765910 0.000000 0.000000 
#    y 0.000000 1.760280 0.000000 
#    z 0.000000 0.000000 1.776010 
# 
# From -- ./inp_files/35672.got.cif
#   From: 2010.03.12/outbox.cif.g09.slc.cpg/sg51_18_cif.got.tgz:35672.got - 2010.04.16 13:43:02.
