data_PCOD8213140
_publ_section_title
;
Structure prediction by ZEFSAII (Michael W. Deem and Ramdas Pophale) SiO2 
 PCOD8213140
Probable space group: P M M A
;
_chemical_formula_sum "Si O2"
_cell_formula_units_Z 40
_cell_length_a 15.190630
_cell_length_b 10.511003
_cell_length_c 13.567934
_cell_angle_alpha 90.000000
_cell_angle_beta 90.000000
_cell_angle_gamma 90.000000
_cell_volume 2166.375164
_symmetry_space_group_name_H-M "P M M A"
_symmetry_group_IT_number 51
_symmetry_cell_setting 'orthorhombic'
loop_
_space_group_symop_operation_xyz
x,y,z
1/2-x,-y,z
1/2+x,-y,-z
-x,y,-z
-x,-y,-z
1/2+x,y,-z
1/2-x,y,z
x,-y,z
loop_
_atom_site_type_symbol
_atom_site_label
_atom_site_fract_x
_atom_site_fract_y
_atom_site_fract_z
Si Si1 0.974480 0.642146 0.685384
Si Si2 0.150721 0.865158 0.832177
Si Si3 0.044007 0.639245 0.894895
Si Si4 0.651139 0.751846 0.375688
Si Si5 0.351336 0.854437 0.410626
O O1 0.938455 0.500000 0.659907
O O2 0.977018 0.661036 0.803784
O O3 0.910830 0.751997 0.645887
O O4 0.072629 0.649274 0.637019
O O5 0.250000 0.876121 0.865632
O O6 0.142161 0.847270 0.715305
O O7 0.115380 0.748996 0.895533
O O8 0.103060 0.000000 0.857430
O O9 0.088554 0.500000 0.880990
O O10 0.000000 0.646262 0.000000
O O11 0.750000 0.688575 0.376361
O O12 0.636196 0.834056 0.473254
O O13 0.250000 0.832329 0.379544
O O14 0.379810 0.000000 0.385609
#
# Coordination Sequence:
#
# PCOD8213140 Si02
#       5
#     8   8   8   8   8
#     4  10  21  35  53  78 104 132 170 215 260 302
#     4   9  17  30  50  77 104 127 158 204 253 298
#     4   9  19  36  54  71  95 129 168 207 251 306
#     4   9  18  32  52  78 108 139 169 203 246 301
#     4  10  21  36  53  74 103 142 181 209 241 295
#
# _framework density 18.464023000000001
#
# number of rings (size 3 to 8) (size 9 to 14) (size 15 to 20)
#    0.000    2.600    0.000    1.200    0.000   10.400 
#    0.000    7.000    0.000    6.000    0.000    0.000 
#    0.000    0.000    0.000    0.000    0.000    0.000 
#
# Total GULP energy -495544.894753 kJ/mol
# GULP energy per Si atom -12388.622369 kJ/mol
# Density = 1.842200 g / cm^3
# Si number density = 18.464023 Si / 1000 Ang^3
#
#
#
# Elastic Constant Matrix: (Units=GPa)
#
#
# Indices 1 2 3 4 5 6 
#
# 1 82.8893 71.4749 42.0261 0.0000 0.0000 0.0000
# 2 71.4749 178.9666 59.3020 0.0000 0.0000 0.0000
# 3 42.0261 59.3020 77.6455 0.0000 0.0000 0.0000
# 4 0.0000 0.0000 0.0000 2.1635 0.0000 0.0000
# 5 0.0000 0.0000 0.0000 0.0000 17.2631 0.0000
# 6 0.0000 0.0000 0.0000 0.0000 0.0000 37.1327
#
#
#
# Elastic Compliance Matrix: (Units=1/GPa)
#
#
# Indices 1 2 3 4 5 6 
#
# 1 0.020600 -0.006068 -0.006515 0.000000 0.000000 0.000000
# 2 -0.006068 0.009268 -0.003794 0.000000 0.000000 0.000000
# 3 -0.006515 -0.003794 0.019303 0.000000 0.000000 0.000000
# 4 0.000000 0.000000 0.000000 0.462206 0.000000 0.000000
# 5 0.000000 0.000000 0.000000 0.000000 0.057927 0.000000
# 6 0.000000 0.000000 0.000000 0.000000 0.000000 0.026930
#
#
# Mechanical properties :
#
#
# Convention : Reuss Voigt Hill
#
# Bulk Modulus (GPa) = 60.91519 76.12306 68.51912
# Shear Modulus (GPa) = 7.88067 22.42510 15.15288
#
# Velocity S-wave (km/s) = 2.06818 3.48879 2.86784
# Velocity P-wave (km/s) = 6.22624 7.58592 6.93946
#
# Compressibility (1/GPa) = 0.01641627
#
# Stress axis : x y z
#
# Youngs Moduli (GPa) = 48.54274 107.89282 51.80434
#
# Poissons Ratio (x) = 0.65474 0.33752
# Poissons Ratio (y) = 0.29458 0.19656
# Poissons Ratio (z) = 0.31627 0.40937
#
# Static dielectric constant tensor:
#      x y z
#    x 3.411690 0.000000 0.000000 
#    y 0.000000 3.779300 0.000000 
#    z 0.000000 0.000000 3.320700 
# 
# 
# High freq. dielectric constant tensor:
#      x y z
#    x 1.695940 0.000000 0.000000 
#    y 0.000000 1.727930 0.000000 
#    z 0.000000 0.000000 1.704680 
# 
# From -- ./inp_files/16200.got.cif
#   From: 2010.03.12/outbox.cif.g09.slc.cpg/sg51_9_cif.got.tgz:16200.got - 2010.04.16 13:43:02.
