data_PCOD8213551
_publ_section_title
;
Structure prediction by ZEFSAII (Michael W. Deem and Ramdas Pophale) SiO2 
 PCOD8213551
Probable space group: P M M A
;
_chemical_formula_sum "Si O2"
_cell_formula_units_Z 30
_cell_length_a 14.555580
_cell_length_b 7.566445
_cell_length_c 13.448891
_cell_angle_alpha 90.000000
_cell_angle_beta 90.000000
_cell_angle_gamma 90.000000
_cell_volume 1481.180101
_symmetry_space_group_name_H-M "P M M A"
_symmetry_group_IT_number 51
_symmetry_cell_setting 'orthorhombic'
loop_
_space_group_symop_operation_xyz
x,y,z
1/2-x,-y,z
1/2+x,-y,-z
-x,y,-z
-x,-y,-z
1/2+x,y,-z
1/2-x,y,z
x,-y,z
loop_
_atom_site_type_symbol
_atom_site_label
_atom_site_fract_x
_atom_site_fract_y
_atom_site_fract_z
Si Si1 0.250000 0.203989 0.412523
Si Si2 0.358206 0.500000 0.922482
Si Si3 0.429774 0.797182 0.286854
Si Si4 0.143510 0.199879 0.072175
Si Si5 0.930874 0.500000 0.296164
Si Si6 0.250000 0.500000 0.573926
O O1 0.161426 0.249936 0.347303
O O2 0.250000 0.322620 0.510008
O O3 0.250000 0.000000 0.445895
O O4 0.250000 0.500000 0.901611
O O5 0.411889 0.500000 0.820461
O O6 0.388890 0.672992 0.983808
O O7 0.412914 0.756826 0.171116
O O8 0.511861 0.674392 0.325640
O O9 0.458620 0.000000 0.303804
O O10 0.250000 0.230582 0.097918
O O11 0.125730 0.000000 0.036050
O O12 0.838355 0.500000 0.357196
#
# Coordination Sequence:
#
# PCOD8213551 Si02
#       6
#     4   4   8   8   4   2
#     4  10  22  44  71  95 117 145 190 258 325 366
#     4  10  21  37  55  79 122 172 207 234 277 344
#     4  10  21  39  67  98 122 147 192 253 312 362
#     4   9  17  33  60  92 121 153 194 243 297 352
#     4  12  26  42  57  85 127 169 208 241 284 352
#     4  12  28  46  60  82 122 168 208 246 294 356
#
# _framework density 20.254118999999999
#
# number of rings (size 3 to 8) (size 9 to 14) (size 15 to 20)
#    0.000    1.867    2.000    1.600    0.000    6.400 
#    0.000    5.333    0.000    0.000    0.000    0.000 
#    0.000    0.000    0.000    0.000    0.000    0.000 
#
# Total GULP energy -372125.775953 kJ/mol
# GULP energy per Si atom -12404.192532 kJ/mol
# Density = 2.020802 g / cm^3
# Si number density = 20.254119 Si / 1000 Ang^3
#
#
#
# Elastic Constant Matrix: (Units=GPa)
#
#
# Indices 1 2 3 4 5 6 
#
# 1 128.5600 78.1129 63.6072 0.0000 0.0000 0.0000
# 2 78.1129 144.8865 70.8794 0.0000 0.0000 0.0000
# 3 63.6072 70.8794 102.0768 0.0000 0.0000 0.0000
# 4 0.0000 0.0000 0.0000 -8.4209 0.0000 0.0000
# 5 0.0000 0.0000 0.0000 0.0000 -51.0610 0.0000
# 6 0.0000 0.0000 0.0000 0.0000 0.0000 26.3829
#
#
#
# Elastic Compliance Matrix: (Units=1/GPa)
#
#
# Indices 1 2 3 4 5 6 
#
# 1 0.013007 -0.004615 -0.004901 0.000000 0.000000 0.000000
# 2 -0.004615 0.012090 -0.005519 0.000000 0.000000 0.000000
# 3 -0.004901 -0.005519 0.016683 0.000000 0.000000 0.000000
# 4 0.000000 0.000000 0.000000 -0.118753 0.000000 0.000000
# 5 0.000000 0.000000 0.000000 0.000000 -0.019584 0.000000
# 6 0.000000 0.000000 0.000000 0.000000 0.000000 0.037903
#
#
# Mechanical properties :
#
#
# Convention : Reuss Voigt Hill
#
# Bulk Modulus (GPa) = 85.39629 88.96915 87.18272
# Shear Modulus (GPa) = -202.59183 4.24181 -99.17501
#
# Velocity S-wave (km/s) = -10.01210 1.44874 -7.00512
# Velocity P-wave (km/s) = 9.56045 6.84253 4.72133
#
# Compressibility (1/GPa) = 0.01171011
#
# Stress axis : x y z
#
# Youngs Moduli (GPa) = 76.87972 82.71143 59.94266
#
# Poissons Ratio (x) = 0.38174 0.29375
# Poissons Ratio (y) = 0.35482 0.33084
# Poissons Ratio (z) = 0.37675 0.45650
#
# Static dielectric constant tensor:
#      x y z
#    x 3.604860 0.000000 0.000000 
#    y 0.000000 3.882460 0.000000 
#    z 0.000000 0.000000 3.505700 
# 
# 
# High freq. dielectric constant tensor:
#      x y z
#    x 1.792670 0.000000 0.000000 
#    y 0.000000 1.804130 0.000000 
#    z 0.000000 0.000000 1.778840 
# 
# From -- ./inp_files/15866.got.cif
#   From: 2010.03.12/outbox.cif.g09.slc.cpg/sg51_8_cif.got.tgz:15866.got - 2010.04.16 13:43:02.
