data_PCOD8213091
_publ_section_title
;
Structure prediction by ZEFSAII (Michael W. Deem and Ramdas Pophale) SiO2 
 PCOD8213091
Probable space group: P M M A
;
_chemical_formula_sum "Si O2"
_cell_formula_units_Z 56
_cell_length_a 9.012392
_cell_length_b 15.412815
_cell_length_c 19.759975
_cell_angle_alpha 90.000000
_cell_angle_beta 90.000000
_cell_angle_gamma 90.000000
_cell_volume 2744.785620
_symmetry_space_group_name_H-M "P M M A"
_symmetry_group_IT_number 51
_symmetry_cell_setting 'orthorhombic'
loop_
_space_group_symop_operation_xyz
x,y,z
1/2-x,-y,z
1/2+x,-y,-z
-x,y,-z
-x,-y,-z
1/2+x,y,-z
1/2-x,y,z
x,-y,z
loop_
_atom_site_type_symbol
_atom_site_label
_atom_site_fract_x
_atom_site_fract_y
_atom_site_fract_z
Si Si1 0.589257 0.656310 0.561913
Si Si2 0.582679 0.102299 0.302721
Si Si3 0.575857 0.101764 0.834139
Si Si4 0.413099 0.855494 0.437211
Si Si5 0.426259 0.596089 0.839300
Si Si6 0.572436 0.759127 0.072794
Si Si7 0.083311 0.399361 0.688732
O O1 0.500000 0.611186 0.500000
O O2 0.750000 0.610508 0.566289
O O3 0.610918 0.756153 0.543764
O O4 0.511648 0.651542 0.634269
O O5 0.750000 0.139387 0.296098
O O6 0.487814 0.132388 0.238054
O O7 0.507289 0.138672 0.369341
O O8 0.585762 0.000000 0.307524
O O9 0.750000 0.122644 0.836736
O O10 0.489651 0.155164 0.891234
O O11 0.545110 0.000000 0.847021
O O12 0.500000 0.900859 0.500000
O O13 0.250000 0.899458 0.428227
O O14 0.250000 0.593320 0.836130
O O15 0.483626 0.500000 0.862817
O O16 0.481522 0.671634 0.889025
O O17 0.484925 0.616469 0.763526
O O18 0.750000 0.765096 0.068220
O O19 0.500000 0.754134 0.000000
O O20 0.250000 0.362591 0.685274
O O21 0.080680 0.500000 0.670241
#
# Coordination Sequence:
#
# PCOD8213091 Si02
#       7
#     8   8   8   8   8   8   8
#     4  10  21  35  51  75 106 143 186 234 285 337
#     4  10  21  37  58  84 112 146 189 234 284 345
#     4  10  22  41  63  88 121 158 196 244 296 348
#     4  10  21  36  53  77 109 148 191 238 289 341
#     4   8  17  36  60  87 119 155 196 239 288 347
#     4  11  23  39  62  93 123 158 198 239 289 349
#     4   9  18  34  56  80 106 141 185 232 284 341
#
# _framework density 20.402321000000001
#
# number of rings (size 3 to 8) (size 9 to 14) (size 15 to 20)
#    0.000    2.286    0.000    3.000    2.000    4.857 
#    0.000    0.714    0.000    3.000    0.000    0.000 
#    0.000    0.000    0.000    0.000    0.000    0.000 
#
# Total GULP energy -694246.797021 kJ/mol
# GULP energy per Si atom -12397.264233 kJ/mol
# Density = 2.035588 g / cm^3
# Si number density = 20.402321 Si / 1000 Ang^3
#
#
#
# Elastic Constant Matrix: (Units=GPa)
#
#
# Indices 1 2 3 4 5 6 
#
# 1 132.5995 39.8230 67.5940 0.0000 0.0000 0.0000
# 2 39.8230 61.7300 54.0205 0.0000 0.0000 0.0000
# 3 67.5940 54.0205 166.1277 0.0000 0.0000 0.0000
# 4 0.0000 0.0000 0.0000 -109.1704 0.0000 0.0000
# 5 0.0000 0.0000 0.0000 0.0000 38.4071 0.0000
# 6 0.0000 0.0000 0.0000 0.0000 0.0000 16.8663
#
#
#
# Elastic Compliance Matrix: (Units=1/GPa)
#
#
# Indices 1 2 3 4 5 6 
#
# 1 0.010216 -0.004127 -0.002814 0.000000 0.000000 0.000000
# 2 -0.004127 0.024310 -0.006226 0.000000 0.000000 0.000000
# 3 -0.002814 -0.006226 0.009189 0.000000 0.000000 0.000000
# 4 0.000000 0.000000 0.000000 -0.009160 0.000000 0.000000
# 5 0.000000 0.000000 0.000000 0.000000 0.026037 0.000000
# 6 0.000000 0.000000 0.000000 0.000000 0.000000 0.059290
#
#
# Mechanical properties :
#
#
# Convention : Reuss Voigt Hill
#
# Bulk Modulus (GPa) = 57.53729 75.92579 66.73154
# Shear Modulus (GPa) = 32.89244 2.48858 17.69051
#
# Velocity S-wave (km/s) = 4.01957 1.10562 2.94782
# Velocity P-wave (km/s) = 7.05727 6.23899 6.66071
#
# Compressibility (1/GPa) = 0.01738003
#
# Stress axis : x y z
#
# Youngs Moduli (GPa) = 97.88779 41.13452 108.82473
#
# Poissons Ratio (x) = 0.16978 0.30628
# Poissons Ratio (y) = 0.40402 0.67752
# Poissons Ratio (z) = 0.27550 0.25609
#
# Static dielectric constant tensor:
#      x y z
#    x 3.940860 0.000000 0.000000 
#    y 0.000000 3.659100 0.000000 
#    z 0.000000 0.000000 3.788320 
# 
# 
# High freq. dielectric constant tensor:
#      x y z
#    x 1.794430 0.000000 0.000000 
#    y 0.000000 1.789700 0.000000 
#    z 0.000000 0.000000 1.799970 
# 
# From -- ./inp_files/31964.got.cif
#   From: 2010.03.12/outbox.cif.g09.slc.cpg/sg51_16_cif.got.tgz:31964.got - 2010.04.16 13:43:02.
