data_PCOD8213437
_publ_section_title
;
Structure prediction by ZEFSAII (Michael W. Deem and Ramdas Pophale) SiO2 
 PCOD8213437
Probable space group: P M M A
;
_chemical_formula_sum "Si O2"
_cell_formula_units_Z 40
_cell_length_a 20.217631
_cell_length_b 7.660083
_cell_length_c 13.397117
_cell_angle_alpha 90.000000
_cell_angle_beta 90.000000
_cell_angle_gamma 90.000000
_cell_volume 2074.794516
_symmetry_space_group_name_H-M "P M M A"
_symmetry_group_IT_number 51
_symmetry_cell_setting 'orthorhombic'
loop_
_space_group_symop_operation_xyz
x,y,z
1/2-x,-y,z
1/2+x,-y,-z
-x,y,-z
-x,-y,-z
1/2+x,y,-z
1/2-x,y,z
x,-y,z
loop_
_atom_site_type_symbol
_atom_site_label
_atom_site_fract_x
_atom_site_fract_y
_atom_site_fract_z
Si Si1 0.056059 0.697587 0.572834
Si Si2 0.175057 0.500000 0.081738
Si Si3 0.871772 0.203503 0.774969
Si Si4 0.561646 0.500000 0.074054
Si Si5 0.974387 0.805389 0.214965
Si Si6 0.324949 0.795451 0.443650
O O1 0.036055 0.500000 0.598940
O O2 0.058376 0.803635 0.675634
O O3 0.127679 0.699861 0.521660
O O4 0.000000 0.779914 0.500000
O O5 0.250000 0.500000 0.043857
O O6 0.163102 0.323513 0.143651
O O7 0.129821 0.500000 0.984568
O O8 0.843078 0.259780 0.668331
O O9 0.949156 0.246015 0.775536
O O10 0.856960 0.000000 0.798287
O O11 0.561641 0.327273 0.141362
O O12 0.500000 0.500000 0.000000
O O13 0.966052 0.000000 0.170689
O O14 0.250000 0.737561 0.466424
O O15 0.335111 0.000000 0.457206
#
# Coordination Sequence:
#
# PCOD8213437 Si02
#       6
#     8   4   8   4   8   8
#     4  11  22  35  59  90 127 163 202 246 291 352
#     4  12  26  42  65  90 122 161 197 251 318 365
#     4  10  21  38  63  95 127 156 197 252 308 366
#     4  12  24  44  64  89 124 150 206 261 299 368
#     4  11  22  39  66  95 122 158 202 253 305 351
#     4  10  21  36  55  86 127 165 201 243 295 361
#
# _framework density 19.279017
#
# number of rings (size 3 to 8) (size 9 to 14) (size 15 to 20)
#    0.000    1.200    5.000    1.200    1.400    3.600 
#    0.000    1.000    0.000    1.200    0.000    0.000 
#    0.000    0.000    0.000    0.000    0.000    0.000 
#
# Total GULP energy -496204.766507 kJ/mol
# GULP energy per Si atom -12405.119163 kJ/mol
# Density = 1.923514 g / cm^3
# Si number density = 19.279017 Si / 1000 Ang^3
#
#
#
# Elastic Constant Matrix: (Units=GPa)
#
#
# Indices 1 2 3 4 5 6 
#
# 1 140.7497 36.7219 61.9430 0.0000 0.0000 0.0000
# 2 36.7219 91.2019 46.0063 0.0000 0.0000 0.0000
# 3 61.9430 46.0063 116.6106 0.0000 0.0000 0.0000
# 4 0.0000 0.0000 0.0000 19.8932 0.0000 0.0000
# 5 0.0000 0.0000 0.0000 0.0000 14.9513 0.0000
# 6 0.0000 0.0000 0.0000 0.0000 0.0000 17.5682
#
#
#
# Elastic Compliance Matrix: (Units=1/GPa)
#
#
# Indices 1 2 3 4 5 6 
#
# 1 0.009454 -0.001590 -0.004395 0.000000 0.000000 0.000000
# 2 -0.001590 0.013956 -0.004662 0.000000 0.000000 0.000000
# 3 -0.004395 -0.004662 0.012749 0.000000 0.000000 0.000000
# 4 0.000000 0.000000 0.000000 0.050268 0.000000 0.000000
# 5 0.000000 0.000000 0.000000 0.000000 0.066884 0.000000
# 6 0.000000 0.000000 0.000000 0.000000 0.000000 0.056921
#
#
# Mechanical properties :
#
#
# Convention : Reuss Voigt Hill
#
# Bulk Modulus (GPa) = 67.26244 70.87828 69.07036
# Shear Modulus (GPa) = 21.14346 24.07528 22.60937
#
# Velocity S-wave (km/s) = 3.31525 3.53764 3.42825
# Velocity P-wave (km/s) = 7.04409 7.31648 7.18158
#
# Compressibility (1/GPa) = 0.01486714
#
# Stress axis : x y z
#
# Youngs Moduli (GPa) = 105.78036 71.65194 78.43675
#
# Poissons Ratio (x) = 0.11390 0.34469
# Poissons Ratio (y) = 0.16815 0.36566
# Poissons Ratio (z) = 0.46486 0.33403
#
# Static dielectric constant tensor:
#      x y z
#    x 3.461850 0.000000 0.000000 
#    y 0.000000 3.561830 0.000000 
#    z 0.000000 0.000000 3.437290 
# 
# 
# High freq. dielectric constant tensor:
#      x y z
#    x 1.741350 0.000000 0.000000 
#    y 0.000000 1.762590 0.000000 
#    z 0.000000 0.000000 1.738600 
# 
# From -- ./inp_files/17983.got.cif
#   From: 2010.03.12/outbox.cif.g09.slc.cpg/sg51_9_cif.got.tgz:17983.got - 2010.04.16 13:43:02.
