data_PCOD8213563
_publ_section_title
;
Structure prediction by ZEFSAII (Michael W. Deem and Ramdas Pophale) SiO2 
 PCOD8213563
Probable space group: P M M A
;
_chemical_formula_sum "Si O2"
_cell_formula_units_Z 48
_cell_length_a 18.951326
_cell_length_b 7.608177
_cell_length_c 16.831565
_cell_angle_alpha 90.000000
_cell_angle_beta 90.000000
_cell_angle_gamma 90.000000
_cell_volume 2426.859916
_symmetry_space_group_name_H-M "P M M A"
_symmetry_group_IT_number 51
_symmetry_cell_setting 'orthorhombic'
loop_
_space_group_symop_operation_xyz
x,y,z
1/2-x,-y,z
1/2+x,-y,-z
-x,y,-z
-x,-y,-z
1/2+x,y,-z
1/2-x,y,z
x,-y,z
loop_
_atom_site_type_symbol
_atom_site_label
_atom_site_fract_x
_atom_site_fract_y
_atom_site_fract_z
Si Si1 0.167116 0.000000 0.027405
Si Si2 0.434570 0.198134 0.452004
Si Si3 0.096843 0.290979 0.744844
Si Si4 0.665866 0.000000 0.150577
Si Si5 0.670563 0.705874 0.419382
Si Si6 0.331726 0.294756 0.147875
Si Si7 0.559879 0.301473 0.723301
O O1 0.143565 0.822348 0.073039
O O2 0.250000 0.000000 0.018684
O O3 0.135079 0.000000 0.939063
O O4 0.500000 0.287333 0.500000
O O5 0.364501 0.202469 0.504814
O O6 0.420319 0.294657 0.369317
O O7 0.455333 0.000000 0.430331
O O8 0.104245 0.500000 0.762883
O O9 0.138506 0.179925 0.810136
O O10 0.128922 0.243154 0.659575
O O11 0.016518 0.218433 0.742463
O O12 0.750000 0.000000 0.154424
O O13 0.750000 0.776806 0.411403
O O14 0.668777 0.500000 0.434544
O O15 0.250000 0.260410 0.169279
O O16 0.344488 0.500000 0.127557
O O17 0.377209 0.223149 0.222929
O O18 0.552421 0.500000 0.749561
#
# Coordination Sequence:
#
# PCOD8213563 Si02
#       7
#     4   8   8   4   8   8   8
#     4   9  20  39  61  88 116 152 191 233 299 359
#     4  11  23  35  53  83 115 151 195 240 288 345
#     4  10  22  39  59  86 120 157 195 239 295 350
#     4  11  24  39  63  91 116 150 195 242 291 352
#     4  10  21  37  56  77 108 153 199 243 291 340
#     4   9  19  37  61  88 118 152 194 243 292 348
#     4  10  21  37  60  85 115 157 198 239 291 349
#
# _framework density 19.778645000000001
#
# number of rings (size 3 to 8) (size 9 to 14) (size 15 to 20)
#    0.000    2.000    1.667    1.000    3.500    3.333 
#    0.000    5.000    0.000    3.000    0.000    0.000 
#    0.000    0.000    0.000    0.000    0.000    0.000 
#
# Total GULP energy -595102.750199 kJ/mol
# GULP energy per Si atom -12397.973962 kJ/mol
# Density = 1.973363 g / cm^3
# Si number density = 19.778645 Si / 1000 Ang^3
#
#
#
# Elastic Constant Matrix: (Units=GPa)
#
#
# Indices 1 2 3 4 5 6 
#
# 1 125.5569 35.6524 67.8834 0.0000 0.0000 0.0000
# 2 35.6524 70.0283 48.2475 0.0000 0.0000 0.0000
# 3 67.8834 48.2475 160.9537 0.0000 0.0000 0.0000
# 4 0.0000 0.0000 0.0000 28.0999 0.0000 0.0000
# 5 0.0000 0.0000 0.0000 0.0000 30.8520 0.0000
# 6 0.0000 0.0000 0.0000 0.0000 0.0000 21.3965
#
#
#
# Elastic Compliance Matrix: (Units=1/GPa)
#
#
# Indices 1 2 3 4 5 6 
#
# 1 0.010786 -0.002971 -0.003659 0.000000 0.000000 0.000000
# 2 -0.002971 0.018815 -0.004387 0.000000 0.000000 0.000000
# 3 -0.003659 -0.004387 0.009071 0.000000 0.000000 0.000000
# 4 0.000000 0.000000 0.000000 0.035587 0.000000 0.000000
# 5 0.000000 0.000000 0.000000 0.000000 0.032413 0.000000
# 6 0.000000 0.000000 0.000000 0.000000 0.000000 0.046737
#
#
# Mechanical properties :
#
#
# Convention : Reuss Voigt Hill
#
# Bulk Modulus (GPa) = 60.09835 73.34507 66.72171
# Shear Modulus (GPa) = 27.62613 29.72005 28.67309
#
# Velocity S-wave (km/s) = 3.74139 3.88059 3.81162
# Velocity P-wave (km/s) = 7.00824 7.56585 7.29238
#
# Compressibility (1/GPa) = 0.01663939
#
# Stress axis : x y z
#
# Youngs Moduli (GPa) = 92.71165 53.14928 110.24031
#
# Poissons Ratio (x) = 0.15789 0.40333
# Poissons Ratio (y) = 0.27542 0.48363
# Poissons Ratio (z) = 0.33920 0.23317
#
# Static dielectric constant tensor:
#      x y z
#    x 3.804340 0.000000 0.000000 
#    y 0.000000 3.561580 0.000000 
#    z 0.000000 0.000000 3.624120 
# 
# 
# High freq. dielectric constant tensor:
#      x y z
#    x 1.770800 0.000000 0.000000 
#    y 0.000000 1.772540 0.000000 
#    z 0.000000 0.000000 1.762320 
# 
# From -- ./inp_files/24957.got.cif
#   From: 2010.03.12/outbox.cif.g09.slc.cpg/sg51_13_cif.got.tgz:24957.got - 2010.04.16 13:43:02.
