data_PCOD8213752
_publ_section_title
;
Structure prediction by ZEFSAII (Michael W. Deem and Ramdas Pophale) SiO2 
 PCOD8213752
Probable space group: P M M A
;
_chemical_formula_sum "Si O2"
_cell_formula_units_Z 44
_cell_length_a 9.940213
_cell_length_b 7.937367
_cell_length_c 29.376379
_cell_angle_alpha 90.000000
_cell_angle_beta 90.000000
_cell_angle_gamma 90.000000
_cell_volume 2317.770412
_symmetry_space_group_name_H-M "P M M A"
_symmetry_group_IT_number 51
_symmetry_cell_setting 'orthorhombic'
loop_
_space_group_symop_operation_xyz
x,y,z
1/2-x,-y,z
1/2+x,-y,-z
-x,y,-z
-x,-y,-z
1/2+x,y,-z
1/2-x,y,z
x,-y,z
loop_
_atom_site_type_symbol
_atom_site_label
_atom_site_fract_x
_atom_site_fract_y
_atom_site_fract_z
Si Si1 0.604510 0.695313 0.215034
Si Si2 0.900208 0.799411 0.962302
Si Si3 0.906852 0.695507 0.315345
Si Si4 0.096711 0.189026 0.392212
Si Si5 0.406681 0.500000 0.456397
Si Si6 0.598277 0.801579 0.861070
O O1 0.750000 0.773301 0.200436
O O2 0.625165 0.500000 0.223201
O O3 0.560752 0.766532 0.264410
O O4 0.496479 0.721876 0.176189
O O5 0.750000 0.732454 0.972445
O O6 0.946005 0.742152 0.911727
O O7 0.900940 0.000000 0.964783
O O8 0.000000 0.720957 0.000000
O O9 0.750000 0.724335 0.326865
O O10 0.945741 0.500000 0.320426
O O11 0.998860 0.801838 0.349111
O O12 0.250000 0.220864 0.375961
O O13 0.056234 0.330824 0.428738
O O14 0.082362 0.000000 0.413226
O O15 0.250000 0.500000 0.470651
O O16 0.500000 0.500000 0.500000
O O17 0.750000 0.740414 0.851623
O O18 0.588378 0.000000 0.857363
#
# Coordination Sequence:
#
# PCOD8213752 Si02
#       6
#     8   8   8   8   4   8
#     4   9  19  34  50  71 100 134 171 210 251 301
#     4   8  14  25  41  62  88 117 152 197 248 302
#     4   9  18  34  55  77 104 139 179 221 266 317
#     4  10  21  37  58  85 115 147 185 228 273 323
#     4  10  22  40  60  84 116 152 188 230 275 320
#     4   9  18  31  46  68  98 127 159 204 254 306
#
# _framework density 18.983761000000001
#
# number of rings (size 3 to 8) (size 9 to 14) (size 15 to 20)
#    0.000    2.909    0.909    2.182    0.000    4.364 
#    0.000    7.273    0.000    0.545    0.000    0.000 
#    0.000    0.000    0.000    0.000    0.000    0.000 
#
# Total GULP energy -545311.848171 kJ/mol
# GULP energy per Si atom -12393.451095 kJ/mol
# Density = 1.894055 g / cm^3
# Si number density = 18.983761 Si / 1000 Ang^3
#
#
#
# Elastic Constant Matrix: (Units=GPa)
#
#
# Indices 1 2 3 4 5 6 
#
# 1 92.1153 29.7742 83.6137 0.0000 0.0000 0.0000
# 2 29.7742 64.7630 40.9750 0.0000 0.0000 0.0000
# 3 83.6137 40.9750 142.9064 0.0000 0.0000 0.0000
# 4 0.0000 0.0000 0.0000 20.2861 0.0000 0.0000
# 5 0.0000 0.0000 0.0000 0.0000 38.1545 0.0000
# 6 0.0000 0.0000 0.0000 0.0000 0.0000 20.8291
#
#
#
# Elastic Compliance Matrix: (Units=1/GPa)
#
#
# Indices 1 2 3 4 5 6 
#
# 1 0.023497 -0.002571 -0.013011 0.000000 0.000000 0.000000
# 2 -0.002571 0.019144 -0.003985 0.000000 0.000000 0.000000
# 3 -0.013011 -0.003985 0.015753 0.000000 0.000000 0.000000
# 4 0.000000 0.000000 0.000000 0.049295 0.000000 0.000000
# 5 0.000000 0.000000 0.000000 0.000000 0.026209 0.000000
# 6 0.000000 0.000000 0.000000 0.000000 0.000000 0.048010
#
#
# Mechanical properties :
#
#
# Convention : Reuss Voigt Hill
#
# Bulk Modulus (GPa) = 51.91920 67.61226 59.76573
# Shear Modulus (GPa) = 21.98183 25.54873 23.76528
#
# Velocity S-wave (km/s) = 3.40653 3.67252 3.54202
# Velocity P-wave (km/s) = 6.54837 7.32642 6.94829
#
# Compressibility (1/GPa) = 0.01926070
#
# Stress axis : x y z
#
# Youngs Moduli (GPa) = 42.55891 52.23562 63.48099
#
# Poissons Ratio (x) = 0.13428 0.82594
# Poissons Ratio (y) = 0.10940 0.25297
# Poissons Ratio (z) = 0.55373 0.20816
#
# Static dielectric constant tensor:
#      x y z
#    x 3.618100 0.000000 0.000000 
#    y 0.000000 3.293800 0.000000 
#    z 0.000000 0.000000 3.752270 
# 
# 
# High freq. dielectric constant tensor:
#      x y z
#    x 1.737870 0.000000 0.000000 
#    y 0.000000 1.721500 0.000000 
#    z 0.000000 0.000000 1.732300 
# 
# From -- ./inp_files/36798.got.cif
#   From: 2010.03.12/outbox.cif.g09.slc.cpg/sg51_19_cif.got.tgz:36798.got - 2010.04.16 13:43:02.
