data_PCOD8213805
_publ_section_title
;
Structure prediction by ZEFSAII (Michael W. Deem and Ramdas Pophale) SiO2 
 PCOD8213805
Probable space group: P M M A
;
_chemical_formula_sum "Si O2"
_cell_formula_units_Z 48
_cell_length_a 9.820031
_cell_length_b 8.787372
_cell_length_c 28.800111
_cell_angle_alpha 90.000000
_cell_angle_beta 90.000000
_cell_angle_gamma 90.000000
_cell_volume 2485.226823
_symmetry_space_group_name_H-M "P M M A"
_symmetry_group_IT_number 51
_symmetry_cell_setting 'orthorhombic'
loop_
_space_group_symop_operation_xyz
x,y,z
1/2-x,-y,z
1/2+x,-y,-z
-x,y,-z
-x,-y,-z
1/2+x,y,-z
1/2-x,y,z
x,-y,z
loop_
_atom_site_type_symbol
_atom_site_label
_atom_site_fract_x
_atom_site_fract_y
_atom_site_fract_z
Si Si1 0.409970 0.323578 0.769647
Si Si2 0.250000 0.821282 0.463814
Si Si3 0.911588 0.829305 0.136318
Si Si4 0.750000 0.178733 0.427932
Si Si5 0.597685 0.825664 0.694047
Si Si6 0.093769 0.320868 0.957857
Si Si7 0.527557 0.679800 0.599226
O O1 0.250000 0.291659 0.763402
O O2 0.444852 0.500000 0.763829
O O3 0.462122 0.269724 0.820095
O O4 0.488217 0.228739 0.731129
O O5 0.250000 0.782713 0.517879
O O6 0.385176 0.749349 0.442505
O O7 0.250000 0.000000 0.453795
O O8 0.750000 0.828847 0.135128
O O9 0.965318 0.756426 0.088597
O O10 0.969220 0.000000 0.141200
O O11 0.622456 0.253170 0.402819
O O12 0.750000 0.000000 0.418788
O O13 0.750000 0.810015 0.714920
O O14 0.592224 0.723308 0.648260
O O15 0.565626 0.000000 0.680783
O O16 0.250000 0.272978 0.967837
O O17 0.081806 0.500000 0.950764
O O18 0.000000 0.263430 0.000000
O O19 0.524926 0.500000 0.593696
#
# Coordination Sequence:
#
# PCOD8213805 Si02
#       7
#     8   4   8   4   8   8   8
#     4  10  21  37  60  88 116 146 188 240 291 342
#     4  11  23  43  67  91 121 161 201 235 288 353
#     4   9  17  31  52  78 108 143 185 230 280 336
#     4  11  25  43  65  91 123 159 197 243 290 343
#     4  11  24  42  63  85 116 156 195 233 287 353
#     4   9  17  30  49  73 103 140 182 227 277 332
#     4  12  25  41  64  92 123 156 196 244 292 344
#
# _framework density 19.314133999999999
#
# number of rings (size 3 to 8) (size 9 to 14) (size 15 to 20)
#    0.000    1.667    0.833    4.000    1.167    7.667 
#    0.000    0.833    0.000    3.000    0.000    0.000 
#    0.000    0.000    0.000    0.000    0.000    0.000 
#
# Total GULP energy -595395.940641 kJ/mol
# GULP energy per Si atom -12404.082097 kJ/mol
# Density = 1.927017 g / cm^3
# Si number density = 19.314134 Si / 1000 Ang^3
#
#
#
# Elastic Constant Matrix: (Units=GPa)
#
#
# Indices 1 2 3 4 5 6 
#
# 1 79.3471 35.7688 29.4596 0.0000 0.0000 0.0000
# 2 35.7688 93.0352 43.0463 0.0000 0.0000 0.0000
# 3 29.4596 43.0463 99.7163 0.0000 0.0000 0.0000
# 4 0.0000 0.0000 0.0000 37.5034 0.0000 0.0000
# 5 0.0000 0.0000 0.0000 0.0000 33.6013 0.0000
# 6 0.0000 0.0000 0.0000 0.0000 0.0000 82.5023
#
#
#
# Elastic Compliance Matrix: (Units=1/GPa)
#
#
# Indices 1 2 3 4 5 6 
#
# 1 0.015746 -0.004875 -0.002547 0.000000 0.000000 0.000000
# 2 -0.004875 0.014941 -0.005009 0.000000 0.000000 0.000000
# 3 -0.002547 -0.005009 0.012944 0.000000 0.000000 0.000000
# 4 0.000000 0.000000 0.000000 0.026664 0.000000 0.000000
# 5 0.000000 0.000000 0.000000 0.000000 0.029761 0.000000
# 6 0.000000 0.000000 0.000000 0.000000 0.000000 0.012121
#
#
# Mechanical properties :
#
#
# Convention : Reuss Voigt Hill
#
# Bulk Modulus (GPa) = 53.28655 54.29424 53.79040
# Shear Modulus (GPa) = 34.89271 41.64298 38.26785
#
# Velocity S-wave (km/s) = 4.25501 4.64841 4.45605
# Velocity P-wave (km/s) = 7.19649 7.54867 7.37468
#
# Compressibility (1/GPa) = 0.01876646
#
# Stress axis : x y z
#
# Youngs Moduli (GPa) = 63.50669 66.93079 77.25850
#
# Poissons Ratio (x) = 0.32631 0.19681
# Poissons Ratio (y) = 0.30961 0.38702
# Poissons Ratio (z) = 0.16178 0.33529
#
# Static dielectric constant tensor:
#      x y z
#    x 3.478090 0.000000 0.000000 
#    y 0.000000 3.658360 0.000000 
#    z 0.000000 0.000000 3.646690 
# 
# 
# High freq. dielectric constant tensor:
#      x y z
#    x 1.737720 0.000000 0.000000 
#    y 0.000000 1.764200 0.000000 
#    z 0.000000 0.000000 1.758680 
# 
# From -- ./inp_files/37158.got.cif
#   From: 2010.03.12/outbox.cif.g09.slc.cpg/sg51_19_cif.got.tgz:37158.got - 2010.04.16 13:43:02.
