data_PCOD8213376
_publ_section_title
;
Structure prediction by ZEFSAII (Michael W. Deem and Ramdas Pophale) SiO2 
 PCOD8213376
Probable space group: P M M A
;
_chemical_formula_sum "Si O2"
_cell_formula_units_Z 64
_cell_length_a 28.396878
_cell_length_b 9.367972
_cell_length_c 12.415177
_cell_angle_alpha 90.000000
_cell_angle_beta 90.000000
_cell_angle_gamma 90.000000
_cell_volume 3302.699762
_symmetry_space_group_name_H-M "P M M A"
_symmetry_group_IT_number 51
_symmetry_cell_setting 'orthorhombic'
loop_
_space_group_symop_operation_xyz
x,y,z
1/2-x,-y,z
1/2+x,-y,-z
-x,y,-z
-x,-y,-z
1/2+x,y,-z
1/2-x,y,z
x,-y,z
loop_
_atom_site_type_symbol
_atom_site_label
_atom_site_fract_x
_atom_site_fract_y
_atom_site_fract_z
Si Si1 0.805408 0.655915 0.818493
Si Si2 0.387120 0.163536 0.865526
Si Si3 0.386127 0.666903 0.471302
Si Si4 0.045929 0.836634 0.060916
Si Si5 0.546936 0.335447 0.723147
Si Si6 0.696226 0.666988 0.059303
Si Si7 0.560047 0.335412 0.312725
Si Si8 0.695317 0.167118 0.615293
O O1 0.750000 0.637919 0.820151
O O2 0.827491 0.500000 0.788325
O O3 0.820767 0.773857 0.732183
O O4 0.820798 0.702583 0.937833
O O5 0.336787 0.242778 0.861284
O O6 0.422134 0.235497 0.781961
O O7 0.379482 0.000000 0.832188
O O8 0.409168 0.177113 0.983900
O O9 0.374278 0.500000 0.470355
O O10 0.416228 0.713259 0.367495
O O11 0.415216 0.709631 0.576661
O O12 0.336956 0.754284 0.473215
O O13 0.057140 0.751008 0.168730
O O14 0.035679 0.000000 0.093260
O O15 0.000000 0.773329 0.000000
O O16 0.553642 0.500000 0.752995
O O17 0.495351 0.307690 0.674577
O O18 0.750000 0.715020 0.078836
O O19 0.690290 0.500000 0.083943
O O20 0.570640 0.500000 0.283854
O O21 0.750000 0.201820 0.591028
O O22 0.685474 0.000000 0.613365
#
# Coordination Sequence:
#
# PCOD8213376 Si02
#       8
#     8   8   8   8   8   8   8   8
#     4   8  15  30  52  76 105 142 181 225 277 330
#     4  11  23  37  57  84 118 157 194 235 282 338
#     4  10  22  39  60  87 114 145 189 239 290 342
#     4  10  21  38  56  81 120 157 186 224 277 340
#     4  10  21  37  61  89 115 145 187 239 288 339
#     4   9  19  36  57  82 113 150 194 241 287 339
#     4  10  21  40  62  83 112 150 192 239 289 339
#     4  10  21  36  54  80 114 149 187 232 280 334
#
# _framework density 19.378084999999999
#
# number of rings (size 3 to 8) (size 9 to 14) (size 15 to 20)
#    0.000    2.250    1.250    1.875    1.750    5.250 
#    0.000    1.875    0.000    3.000    0.000    0.000 
#    0.000    0.000    0.000    0.000    0.000    0.000 
#
# Total GULP energy -793647.380721 kJ/mol
# GULP energy per Si atom -12400.740324 kJ/mol
# Density = 1.933398 g / cm^3
# Si number density = 19.378085 Si / 1000 Ang^3
#
#
#
# Elastic Constant Matrix: (Units=GPa)
#
#
# Indices 1 2 3 4 5 6 
#
# 1 95.3308 47.7941 24.7449 0.0000 0.0000 0.0000
# 2 47.7941 82.7143 41.1432 0.0000 0.0000 0.0000
# 3 24.7449 41.1432 75.9503 0.0000 0.0000 0.0000
# 4 0.0000 0.0000 0.0000 -50.9870 0.0000 0.0000
# 5 0.0000 0.0000 0.0000 0.0000 24.7992 0.0000
# 6 0.0000 0.0000 0.0000 0.0000 0.0000 22.1560
#
#
#
# Elastic Compliance Matrix: (Units=1/GPa)
#
#
# Indices 1 2 3 4 5 6 
#
# 1 0.014772 -0.008407 -0.000259 0.000000 0.000000 0.000000
# 2 -0.008407 0.021333 -0.008818 0.000000 0.000000 0.000000
# 3 -0.000259 -0.008818 0.018027 0.000000 0.000000 0.000000
# 4 0.000000 0.000000 0.000000 -0.019613 0.000000 0.000000
# 5 0.000000 0.000000 0.000000 0.000000 0.040324 0.000000
# 6 0.000000 0.000000 0.000000 0.000000 0.000000 0.045135
#
#
# Mechanical properties :
#
#
# Convention : Reuss Voigt Hill
#
# Bulk Modulus (GPa) = 52.17446 53.48443 52.82944
# Shear Modulus (GPa) = 30.99181 8.54783 19.76982
#
# Velocity S-wave (km/s) = 4.00349 2.10254 3.19755
# Velocity P-wave (km/s) = 6.95367 5.79263 6.39954
#
# Compressibility (1/GPa) = 0.01916646
#
# Stress axis : x y z
#
# Youngs Moduli (GPa) = 67.69727 46.87481 55.47119
#
# Poissons Ratio (x) = 0.39406 0.01435
# Poissons Ratio (y) = 0.56911 0.48912
# Poissons Ratio (z) = 0.01751 0.41332
#
# Static dielectric constant tensor:
#      x y z
#    x 3.560890 0.000000 0.000000 
#    y 0.000000 3.459440 0.000000 
#    z 0.000000 0.000000 3.440710 
# 
# 
# High freq. dielectric constant tensor:
#      x y z
#    x 1.763070 0.000000 0.000000 
#    y 0.000000 1.747350 0.000000 
#    z 0.000000 0.000000 1.738070 
# 
# From -- ./inp_files/19454.got.cif
#   From: 2010.03.12/outbox.cif.g09.slc.cpg/sg51_10_cif.got.tgz:19454.got - 2010.04.16 13:43:02.
