data_PCOD8213172
_publ_section_title
;
Structure prediction by ZEFSAII (Michael W. Deem and Ramdas Pophale) SiO2 
 PCOD8213172
Probable space group: P M M A
;
_chemical_formula_sum "Si O2"
_cell_formula_units_Z 64
_cell_length_a 24.040863
_cell_length_b 9.270600
_cell_length_c 15.160973
_cell_angle_alpha 90.000000
_cell_angle_beta 90.000000
_cell_angle_gamma 90.000000
_cell_volume 3378.974939
_symmetry_space_group_name_H-M "P M M A"
_symmetry_group_IT_number 51
_symmetry_cell_setting 'orthorhombic'
loop_
_space_group_symop_operation_xyz
x,y,z
1/2-x,-y,z
1/2+x,-y,-z
-x,y,-z
-x,-y,-z
1/2+x,y,-z
1/2-x,y,z
x,-y,z
loop_
_atom_site_type_symbol
_atom_site_label
_atom_site_fract_x
_atom_site_fract_y
_atom_site_fract_z
Si Si1 0.394771 0.333804 0.332277
Si Si2 0.687066 0.665533 0.208651
Si Si3 0.999633 0.168280 0.600064
Si Si4 0.484246 0.840698 0.898915
Si Si5 0.375178 0.830379 0.644582
Si Si6 0.314313 0.330149 0.486313
Si Si7 0.088247 0.333926 0.140720
Si Si8 0.383359 0.335884 0.949639
O O1 0.408545 0.500000 0.350273
O O2 0.451386 0.248127 0.347651
O O3 0.344475 0.283597 0.395229
O O4 0.375827 0.309203 0.229922
O O5 0.750000 0.714448 0.224485
O O6 0.678085 0.500000 0.238932
O O7 0.647571 0.769703 0.263832
O O8 0.674307 0.680967 0.103628
O O9 0.059220 0.203721 0.643068
O O10 0.000000 0.224879 0.500000
O O11 0.985783 0.000000 0.602885
O O12 0.532137 0.757217 0.847010
O O13 0.426673 0.756409 0.892634
O O14 0.477287 0.000000 0.856496
O O15 0.500000 0.853288 0.000000
O O16 0.343461 0.754111 0.564874
O O17 0.363757 0.000000 0.637420
O O18 0.250000 0.283998 0.479256
O O19 0.319808 0.500000 0.504417
O O20 0.070574 0.500000 0.131901
O O21 0.122328 0.285477 0.052364
O O22 0.404646 0.500000 0.948271
#
# Coordination Sequence:
#
# PCOD8213172 Si02
#       8
#     8   8   8   8   8   8   8   8
#     4  10  21  35  55  83 113 146 184 221 265 325
#     4  10  22  39  57  79 108 144 187 231 276 327
#     4  10  21  38  56  79 113 146 177 223 278 327
#     4   9  17  29  47  73 102 133 171 214 260 312
#     4  11  23  38  58  83 110 142 181 225 277 333
#     4  10  21  38  58  80 109 144 181 224 270 319
#     4   9  18  33  52  77 108 141 177 217 263 316
#     4   9  18  34  54  74 103 140 178 220 266 316
#
# _framework density 18.940657000000002
#
# number of rings (size 3 to 8) (size 9 to 14) (size 15 to 20)
#    0.000    2.250    1.250    1.125    1.750    5.750 
#    0.000    0.625    0.000    3.750    0.000    0.000 
#    0.000    5.000    0.000    0.000    0.000    0.000 
#
# Total GULP energy -793385.505666 kJ/mol
# GULP energy per Si atom -12396.648526 kJ/mol
# Density = 1.889755 g / cm^3
# Si number density = 18.940657 Si / 1000 Ang^3
#
#
#
# Elastic Constant Matrix: (Units=GPa)
#
#
# Indices 1 2 3 4 5 6 
#
# 1 92.0426 36.9703 43.6089 0.0000 0.0000 0.0000
# 2 36.9703 60.9336 32.4408 0.0000 0.0000 0.0000
# 3 43.6089 32.4408 118.5765 0.0000 0.0000 0.0000
# 4 0.0000 0.0000 0.0000 16.9204 0.0000 0.0000
# 5 0.0000 0.0000 0.0000 0.0000 24.2088 0.0000
# 6 0.0000 0.0000 0.0000 0.0000 0.0000 16.8718
#
#
#
# Elastic Compliance Matrix: (Units=1/GPa)
#
#
# Indices 1 2 3 4 5 6 
#
# 1 0.015635 -0.007520 -0.003693 0.000000 0.000000 0.000000
# 2 -0.007520 0.022826 -0.003479 0.000000 0.000000 0.000000
# 3 -0.003693 -0.003479 0.010743 0.000000 0.000000 0.000000
# 4 0.000000 0.000000 0.000000 0.059100 0.000000 0.000000
# 5 0.000000 0.000000 0.000000 0.000000 0.041307 0.000000
# 6 0.000000 0.000000 0.000000 0.000000 0.000000 0.059271
#
#
# Mechanical properties :
#
#
# Convention : Reuss Voigt Hill
#
# Bulk Modulus (GPa) = 50.45322 55.28806 52.87064
# Shear Modulus (GPa) = 20.41877 22.16906 21.29391
#
# Velocity S-wave (km/s) = 3.28691 3.42489 3.35661
# Velocity P-wave (km/s) = 6.41096 6.70025 6.55720
#
# Compressibility (1/GPa) = 0.01982034
#
# Stress axis : x y z
#
# Youngs Moduli (GPa) = 63.96083 43.80911 93.08164
#
# Poissons Ratio (x) = 0.32945 0.34371
# Poissons Ratio (y) = 0.48099 0.32386
# Poissons Ratio (z) = 0.23618 0.15242
#
# Static dielectric constant tensor:
#      x y z
#    x 3.359870 0.000000 0.000000 
#    y 0.000000 3.562160 0.000000 
#    z 0.000000 0.000000 3.642480 
# 
# 
# High freq. dielectric constant tensor:
#      x y z
#    x 1.715130 0.000000 0.000000 
#    y 0.000000 1.731690 0.000000 
#    z 0.000000 0.000000 1.748590 
# 
# From -- ./inp_files/26177.got.cif
#   From: 2010.03.12/outbox.cif.g09.slc.cpg/sg51_14_cif.got.tgz:26177.got - 2010.04.16 13:43:02.
