data_PCOD8213507
_publ_section_title
;
Structure prediction by ZEFSAII (Michael W. Deem and Ramdas Pophale) SiO2 
 PCOD8213507
Probable space group: P M M A
;
_chemical_formula_sum "Si O2"
_cell_formula_units_Z 64
_cell_length_a 18.942925
_cell_length_b 9.057579
_cell_length_c 20.481556
_cell_angle_alpha 90.000000
_cell_angle_beta 90.000000
_cell_angle_gamma 90.000000
_cell_volume 3514.164746
_symmetry_space_group_name_H-M "P M M A"
_symmetry_group_IT_number 51
_symmetry_cell_setting 'orthorhombic'
loop_
_space_group_symop_operation_xyz
x,y,z
1/2-x,-y,z
1/2+x,-y,-z
-x,y,-z
-x,-y,-z
1/2+x,y,-z
1/2-x,y,z
x,-y,z
loop_
_atom_site_type_symbol
_atom_site_label
_atom_site_fract_x
_atom_site_fract_y
_atom_site_fract_z
Si Si1 0.913771 0.329671 0.749150
Si Si2 0.669432 0.174067 0.141345
Si Si3 0.327812 0.174921 0.999314
Si Si4 0.831550 0.670613 0.506546
Si Si5 0.924771 0.331948 0.245501
Si Si6 0.937341 0.672369 0.392497
Si Si7 0.834280 0.167415 0.860263
Si Si8 0.918033 0.175147 0.613762
O O1 0.898571 0.500000 0.732372
O O2 0.862700 0.278345 0.806440
O O3 0.898354 0.234128 0.685151
O O4 0.993745 0.307348 0.772922
O O5 0.750000 0.230787 0.148378
O O6 0.636672 0.223053 0.069952
O O7 0.622586 0.234976 0.199027
O O8 0.667696 0.000000 0.147320
O O9 0.250000 0.245239 0.998197
O O10 0.320933 0.000000 0.000648
O O11 0.364673 0.220607 0.068132
O O12 0.750000 0.703287 0.491631
O O13 0.843967 0.500000 0.525463
O O14 0.874865 0.712464 0.441677
O O15 0.856296 0.773180 0.565586
O O16 0.901671 0.500000 0.235673
O O17 0.911791 0.282220 0.320231
O O18 0.957943 0.500000 0.393858
O O19 0.007501 0.761521 0.412043
O O20 0.750000 0.174721 0.861383
O O21 0.859246 0.000000 0.844799
O O22 0.921739 0.000000 0.615392
#
# Coordination Sequence:
#
# PCOD8213507 Si02
#       8
#     8   8   8   8   8   8   8   8
#     4  10  21  37  54  73 101 136 172 209 250 301
#     4   9  17  30  50  75 101 132 170 209 251 301
#     4   7  12  26  47  70  98 131 166 204 247 299
#     4  10  21  37  57  80 106 137 171 207 249 298
#     4   9  19  34  51  73 101 133 169 209 251 293
#     4   9  19  37  58  77 101 136 175 209 245 299
#     4   9  17  31  53  78 101 128 166 212 258 302
#     4  11  22  36  56  79 103 134 171 210 253 301
#
# _framework density 18.212009999999999
#
# number of rings (size 3 to 8) (size 9 to 14) (size 15 to 20)
#    0.000    2.750    0.000    4.125    0.000    6.250 
#    0.000    2.500    0.000    6.000    0.000    0.000 
#    0.000    0.000    0.000    0.000    0.000    0.000 
#
# Total GULP energy -793199.214669 kJ/mol
# GULP energy per Si atom -12393.737729 kJ/mol
# Density = 1.817056 g / cm^3
# Si number density = 18.212010 Si / 1000 Ang^3
#
#
#
# Elastic Constant Matrix: (Units=GPa)
#
#
# Indices 1 2 3 4 5 6 
#
# 1 64.6580 31.9928 53.6545 0.0000 0.0000 0.0000
# 2 31.9928 66.3046 41.9423 0.0000 0.0000 0.0000
# 3 53.6545 41.9423 116.5626 0.0000 0.0000 0.0000
# 4 0.0000 0.0000 0.0000 26.6084 0.0000 0.0000
# 5 0.0000 0.0000 0.0000 0.0000 -8.3381 0.0000
# 6 0.0000 0.0000 0.0000 0.0000 0.0000 26.7666
#
#
#
# Elastic Compliance Matrix: (Units=1/GPa)
#
#
# Indices 1 2 3 4 5 6 
#
# 1 0.027161 -0.006728 -0.010081 0.000000 0.000000 0.000000
# 2 -0.006728 0.021193 -0.004529 0.000000 0.000000 0.000000
# 3 -0.010081 -0.004529 0.014849 0.000000 0.000000 0.000000
# 4 0.000000 0.000000 0.000000 0.037582 0.000000 0.000000
# 5 0.000000 0.000000 0.000000 0.000000 -0.119931 0.000000
# 6 0.000000 0.000000 0.000000 0.000000 0.000000 0.037360
#
#
# Mechanical properties :
#
#
# Convention : Reuss Voigt Hill
#
# Bulk Modulus (GPa) = 48.71777 55.85604 52.28690
# Shear Modulus (GPa) = 73.81915 17.00309 45.41112
#
# Velocity S-wave (km/s) = 6.37348 3.05883 4.99888
# Velocity P-wave (km/s) = 8.99834 6.57357 7.87978
#
# Compressibility (1/GPa) = 0.02052639
#
# Stress axis : x y z
#
# Youngs Moduli (GPa) = 36.81777 47.18500 67.34394
#
# Poissons Ratio (x) = 0.31747 0.67891
# Poissons Ratio (y) = 0.24772 0.30499
# Poissons Ratio (z) = 0.37117 0.21369
#
# Static dielectric constant tensor:
#      x y z
#    x 3.179800 0.000000 0.000000 
#    y 0.000000 3.162080 0.000000 
#    z 0.000000 0.000000 3.685890 
# 
# 
# High freq. dielectric constant tensor:
#      x y z
#    x 1.683040 0.000000 0.000000 
#    y 0.000000 1.687080 0.000000 
#    z 0.000000 0.000000 1.724820 
# 
# From -- ./inp_files/33841.got.cif
#   From: 2010.03.12/outbox.cif.g09.slc.cpg/sg51_17_cif.got.tgz:33841.got - 2010.04.16 13:43:02.
