data_PCOD8213594
_publ_section_title
;
Structure prediction by ZEFSAII (Michael W. Deem and Ramdas Pophale) SiO2 
 PCOD8213594
Probable space group: P M M A
;
_chemical_formula_sum "Si O2"
_cell_formula_units_Z 48
_cell_length_a 17.388253
_cell_length_b 9.118084
_cell_length_c 15.177376
_cell_angle_alpha 90.000000
_cell_angle_beta 90.000000
_cell_angle_gamma 90.000000
_cell_volume 2406.335802
_symmetry_space_group_name_H-M "P M M A"
_symmetry_group_IT_number 51
_symmetry_cell_setting 'orthorhombic'
loop_
_space_group_symop_operation_xyz
x,y,z
1/2-x,-y,z
1/2+x,-y,-z
-x,y,-z
-x,-y,-z
1/2+x,y,-z
1/2-x,y,z
x,-y,z
loop_
_atom_site_type_symbol
_atom_site_label
_atom_site_fract_x
_atom_site_fract_y
_atom_site_fract_z
Si Si1 0.161874 0.332366 0.859901
Si Si2 0.088881 0.328826 0.678266
Si Si3 0.660926 0.829177 0.481159
Si Si4 0.839090 0.168376 0.803137
Si Si5 0.914250 0.826643 0.983285
Si Si6 0.912651 0.672173 0.643140
O O1 0.250000 0.308051 0.832866
O O2 0.145156 0.500000 0.885032
O O3 0.109610 0.283388 0.777721
O O4 0.143090 0.235771 0.944307
O O5 0.105685 0.500000 0.661289
O O6 0.142554 0.234438 0.614633
O O7 0.000398 0.288588 0.663657
O O8 0.750000 0.802427 0.503658
O O9 0.608434 0.746238 0.551307
O O10 0.640329 0.000000 0.483250
O O11 0.750000 0.186172 0.826718
O O12 0.887557 0.225147 0.886750
O O13 0.858559 0.267366 0.719799
O O14 0.859130 0.000000 0.780256
O O15 0.910333 0.000000 0.990620
O O16 0.000000 0.766571 0.000000
O O17 0.899048 0.500000 0.634386
#
# Coordination Sequence:
#
# PCOD8213594 Si02
#       6
#     8   8   8   8   8   8
#     4  10  21  37  58  84 114 149 187 230 282 334
#     4  10  22  40  60  84 115 149 186 230 280 333
#     4  11  24  40  59  85 115 148 187 230 278 333
#     4  10  21  37  56  80 113 151 189 232 282 333
#     4  10  21  37  58  84 114 150 190 232 281 334
#     4  11  23  38  59  86 113 146 189 233 279 333
#
# _framework density 19.947340000000001
#
# number of rings (size 3 to 8) (size 9 to 14) (size 15 to 20)
#    0.000    1.667    0.000    4.000    0.000   10.333 
#    0.000    0.000    0.000    0.000    0.000    0.000 
#    0.000    0.000    0.000    0.000    0.000    0.000 
#
# Total GULP energy -595539.430984 kJ/mol
# GULP energy per Si atom -12407.071479 kJ/mol
# Density = 1.990194 g / cm^3
# Si number density = 19.947340 Si / 1000 Ang^3
#
#
#
# Elastic Constant Matrix: (Units=GPa)
#
#
# Indices 1 2 3 4 5 6 
#
# 1 63.3124 25.4953 12.1041 0.0000 0.0000 0.0000
# 2 25.4953 61.0846 32.2692 0.0000 0.0000 0.0000
# 3 12.1041 32.2692 91.3385 0.0000 0.0000 0.0000
# 4 0.0000 0.0000 0.0000 36.6658 0.0000 0.0000
# 5 0.0000 0.0000 0.0000 0.0000 44.0949 0.0000
# 6 0.0000 0.0000 0.0000 0.0000 0.0000 28.2747
#
#
#
# Elastic Compliance Matrix: (Units=1/GPa)
#
#
# Indices 1 2 3 4 5 6 
#
# 1 0.018995 -0.008112 0.000349 0.000000 0.000000 0.000000
# 2 -0.008112 0.023592 -0.007260 0.000000 0.000000 0.000000
# 3 0.000349 -0.007260 0.013467 0.000000 0.000000 0.000000
# 4 0.000000 0.000000 0.000000 0.027273 0.000000 0.000000
# 5 0.000000 0.000000 0.000000 0.000000 0.022678 0.000000
# 6 0.000000 0.000000 0.000000 0.000000 0.000000 0.035367
#
#
# Mechanical properties :
#
#
# Convention : Reuss Voigt Hill
#
# Bulk Modulus (GPa) = 38.45120 39.49698 38.97409
# Shear Modulus (GPa) = 27.76429 31.53155 29.64792
#
# Velocity S-wave (km/s) = 3.73484 3.98017 3.85945
# Velocity P-wave (km/s) = 6.15767 6.40046 6.28024
#
# Compressibility (1/GPa) = 0.02600699
#
# Stress axis : x y z
#
# Youngs Moduli (GPa) = 52.64627 42.38784 74.25635
#
# Poissons Ratio (x) = 0.34386 -0.02590
# Poissons Ratio (y) = 0.42708 0.53908
# Poissons Ratio (z) = -0.01836 0.30772
#
# Static dielectric constant tensor:
#      x y z
#    x 3.750570 0.000000 0.000000 
#    y 0.000000 3.573390 0.000000 
#    z 0.000000 0.000000 3.639560 
# 
# 
# High freq. dielectric constant tensor:
#      x y z
#    x 1.791330 0.000000 0.000000 
#    y 0.000000 1.773620 0.000000 
#    z 0.000000 0.000000 1.789990 
# 
# From -- ./inp_files/24787.got.cif
#   From: 2010.03.12/outbox.cif.g09.slc.cpg/sg51_13_cif.got.tgz:24787.got - 2010.04.16 13:43:02.
