data_PCOD8213383
_publ_section_title
;
Structure prediction by ZEFSAII (Michael W. Deem and Ramdas Pophale) SiO2 
 PCOD8213383
Probable space group: P M M A
;
_chemical_formula_sum "Si O2"
_cell_formula_units_Z 48
_cell_length_a 15.227231
_cell_length_b 8.869437
_cell_length_c 18.550250
_cell_angle_alpha 90.000000
_cell_angle_beta 90.000000
_cell_angle_gamma 90.000000
_cell_volume 2505.340484
_symmetry_space_group_name_H-M "P M M A"
_symmetry_group_IT_number 51
_symmetry_cell_setting 'orthorhombic'
loop_
_space_group_symop_operation_xyz
x,y,z
1/2-x,-y,z
1/2+x,-y,-z
-x,y,-z
-x,-y,-z
1/2+x,y,-z
1/2-x,y,z
x,-y,z
loop_
_atom_site_type_symbol
_atom_site_label
_atom_site_fract_x
_atom_site_fract_y
_atom_site_fract_z
Si Si1 0.149856 0.174510 0.949844
Si Si2 0.155405 0.320525 0.390358
Si Si3 0.479229 0.680509 0.679350
Si Si4 0.594518 0.663649 0.464974
Si Si5 0.486968 0.822135 0.828024
Si Si6 0.149776 0.677430 0.100484
O O1 0.250000 0.203060 0.924296
O O2 0.083868 0.227859 0.887671
O O3 0.134819 0.000000 0.969695
O O4 0.126715 0.271431 0.019829
O O5 0.250000 0.275091 0.357091
O O6 0.145776 0.500000 0.398807
O O7 0.149933 0.250413 0.472478
O O8 0.078873 0.263474 0.337625
O O9 0.474396 0.500000 0.685830
O O10 0.416236 0.741628 0.613999
O O11 0.449745 0.757139 0.753217
O O12 0.500000 0.641047 0.500000
O O13 0.637041 0.500000 0.449798
O O14 0.583075 0.755245 0.844218
O O15 0.494745 0.000000 0.822928
O O16 0.250000 0.724196 0.120019
O O17 0.137093 0.500000 0.106556
#
# Coordination Sequence:
#
# PCOD8213383 Si02
#       6
#     8   8   8   8   8   8
#     4   9  19  37  57  74  96 130 172 213 251 297
#     4   8  13  23  43  69  92 118 158 205 249 294
#     4   9  17  29  45  67  97 129 160 200 249 297
#     4   7  11  22  40  60  83 113 148 187 233 282
#     4  11  22  34  51  75 103 138 173 204 247 301
#     4  10  21  36  55  79 104 130 163 206 254 301
#
# _framework density 19.159071999999998
#
# number of rings (size 3 to 8) (size 9 to 14) (size 15 to 20)
#    0.000    3.000    0.000    3.500    0.000    5.000 
#    0.000    2.500    0.000    5.500    0.000    0.000 
#    0.000    0.000    0.000    0.000    0.000    0.000 
#
# Total GULP energy -594636.952382 kJ/mol
# GULP energy per Si atom -12388.269841 kJ/mol
# Density = 1.911547 g / cm^3
# Si number density = 19.159072 Si / 1000 Ang^3
#
#
#
# Elastic Constant Matrix: (Units=GPa)
#
#
# Indices 1 2 3 4 5 6 
#
# 1 41.5228 8.9002 6.2518 0.0000 0.0000 0.0000
# 2 8.9002 36.5238 20.6799 0.0000 0.0000 0.0000
# 3 6.2518 20.6799 88.5199 0.0000 0.0000 0.0000
# 4 0.0000 0.0000 0.0000 -4.2333 0.0000 0.0000
# 5 0.0000 0.0000 0.0000 0.0000 20.7080 0.0000
# 6 0.0000 0.0000 0.0000 0.0000 0.0000 14.5446
#
#
#
# Elastic Compliance Matrix: (Units=1/GPa)
#
#
# Indices 1 2 3 4 5 6 
#
# 1 0.025423 -0.005968 -0.000401 0.000000 0.000000 0.000000
# 2 -0.005968 0.032954 -0.007277 0.000000 0.000000 0.000000
# 3 -0.000401 -0.007277 0.013025 0.000000 0.000000 0.000000
# 4 0.000000 0.000000 0.000000 -0.236224 0.000000 0.000000
# 5 0.000000 0.000000 0.000000 0.000000 0.048291 0.000000
# 6 0.000000 0.000000 0.000000 0.000000 0.000000 0.068754
#
#
# Mechanical properties :
#
#
# Convention : Reuss Voigt Hill
#
# Bulk Modulus (GPa) = 22.67091 26.47004 24.57048
# Shear Modulus (GPa) = -864.74004 14.91951 -424.91026
#
# Velocity S-wave (km/s) = -21.26799 2.79358 -14.90844
# Velocity P-wave (km/s) = 24.31552 4.92457 16.83736
#
# Compressibility (1/GPa) = 0.04410938
#
# Stress axis : x y z
#
# Youngs Moduli (GPa) = 39.33483 30.34534 76.77355
#
# Poissons Ratio (x) = 0.18110 0.03081
# Poissons Ratio (y) = 0.23474 0.55869
# Poissons Ratio (z) = 0.01579 0.22083
#
# Static dielectric constant tensor:
#      x y z
#    x 3.672070 0.000000 0.000000 
#    y 0.000000 3.053610 0.000000 
#    z 0.000000 0.000000 3.625140 
# 
# 
# High freq. dielectric constant tensor:
#      x y z
#    x 1.738410 0.000000 0.000000 
#    y 0.000000 1.696710 0.000000 
#    z 0.000000 0.000000 1.748800 
# 
# From -- ./inp_files/29475.got.cif
#   From: 2010.03.12/outbox.cif.g09.slc.cpg/sg51_15_cif.got.tgz:29475.got - 2010.04.16 13:43:02.
