data_PCOD8213807
_publ_section_title
;
Structure prediction by ZEFSAII (Michael W. Deem and Ramdas Pophale) SiO2 
 PCOD8213807
Probable space group: P M M A
;
_chemical_formula_sum "Si O2"
_cell_formula_units_Z 48
_cell_length_a 9.600828
_cell_length_b 8.680896
_cell_length_c 29.324854
_cell_angle_alpha 90.000000
_cell_angle_beta 90.000000
_cell_angle_gamma 90.000000
_cell_volume 2444.044455
_symmetry_space_group_name_H-M "P M M A"
_symmetry_group_IT_number 51
_symmetry_cell_setting 'orthorhombic'
loop_
_space_group_symop_operation_xyz
x,y,z
1/2-x,-y,z
1/2+x,-y,-z
-x,y,-z
-x,-y,-z
1/2+x,y,-z
1/2-x,y,z
x,-y,z
loop_
_atom_site_type_symbol
_atom_site_label
_atom_site_fract_x
_atom_site_fract_y
_atom_site_fract_z
Si Si1 0.750000 0.815891 0.942380
Si Si2 0.410492 0.817231 0.542903
Si Si3 0.587535 0.672638 0.203850
Si Si4 0.750000 0.180746 0.045912
Si Si5 0.011147 0.681604 0.894936
Si Si6 0.911669 0.318695 0.624476
Si Si7 0.910725 0.820541 0.297672
O O1 0.629767 0.737545 0.914949
O O2 0.750000 0.000000 0.938862
O O3 0.750000 0.755905 0.994294
O O4 0.500000 0.755439 0.500000
O O5 0.250000 0.754241 0.541418
O O6 0.491935 0.762151 0.587195
O O7 0.405970 0.000000 0.543216
O O8 0.750000 0.670560 0.193663
O O9 0.535577 0.500000 0.216176
O O10 0.516896 0.735677 0.157794
O O11 0.550920 0.786349 0.245282
O O12 0.618621 0.235630 0.072952
O O13 0.750000 0.000000 0.042774
O O14 0.034980 0.500000 0.897458
O O15 0.750000 0.261754 0.622051
O O16 0.917677 0.500000 0.616988
O O17 0.980093 0.276079 0.672661
O O18 0.750000 0.770979 0.307977
O O19 0.930892 0.000000 0.307946
#
# Coordination Sequence:
#
# PCOD8213807 Si02
#       7
#     4   8   8   4   8   8   8
#     4  11  25  41  55  83 121 157 193 237 298 355
#     4  10  21  38  62  91 122 159 202 248 299 352
#     4   9  18  36  60  86 115 147 187 236 290 348
#     4  11  23  39  61  85 117 155 193 241 294 351
#     4  11  22  39  62  88 115 151 197 243 292 352
#     4  11  24  40  58  84 119 160 202 244 294 349
#     4  10  21  37  60  89 115 145 190 240 291 350
#
# _framework density 19.639576999999999
#
# number of rings (size 3 to 8) (size 9 to 14) (size 15 to 20)
#    0.000    1.667    0.833    3.500    0.000   10.333 
#    1.500    0.000    0.000    0.000    0.000    0.000 
#    0.000    0.000    0.000    0.000    0.000    0.000 
#
# Total GULP energy -595080.244506 kJ/mol
# GULP energy per Si atom -12397.505094 kJ/mol
# Density = 1.959488 g / cm^3
# Si number density = 19.639577 Si / 1000 Ang^3
#
#
#
# Elastic Constant Matrix: (Units=GPa)
#
#
# Indices 1 2 3 4 5 6 
#
# 1 140.2207 7.8766 65.3677 0.0000 0.0000 0.0000
# 2 7.8766 15.2022 11.0978 0.0000 0.0000 0.0000
# 3 65.3677 11.0978 120.7480 0.0000 0.0000 0.0000
# 4 0.0000 0.0000 0.0000 142.4513 0.0000 0.0000
# 5 0.0000 0.0000 0.0000 0.0000 48.6635 0.0000
# 6 0.0000 0.0000 0.0000 0.0000 0.0000 33.9171
#
#
#
# Elastic Compliance Matrix: (Units=1/GPa)
#
#
# Indices 1 2 3 4 5 6 
#
# 1 0.009561 -0.001260 -0.005060 0.000000 0.000000 0.000000
# 2 -0.001260 0.070677 -0.005814 0.000000 0.000000 0.000000
# 3 -0.005060 -0.005814 0.011555 0.000000 0.000000 0.000000
# 4 0.000000 0.000000 0.000000 0.007020 0.000000 0.000000
# 5 0.000000 0.000000 0.000000 0.000000 0.020549 0.000000
# 6 0.000000 0.000000 0.000000 0.000000 0.000000 0.029484
#
#
# Mechanical properties :
#
#
# Convention : Reuss Voigt Hill
#
# Bulk Modulus (GPa) = 14.80912 49.42833 32.11873
# Shear Modulus (GPa) = 25.55931 57.79497 41.67714
#
# Velocity S-wave (km/s) = 3.61143 5.43063 4.61162
# Velocity P-wave (km/s) = 4.99467 8.03397 6.68922
#
# Compressibility (1/GPa) = 0.06752595
#
# Stress axis : x y z
#
# Youngs Moduli (GPa) = 104.58732 14.14886 86.53897
#
# Poissons Ratio (x) = 0.01783 0.43792
# Poissons Ratio (y) = 0.13177 0.50312
# Poissons Ratio (z) = 0.52925 0.08226
#
# Static dielectric constant tensor:
#      x y z
#    x 3.647220 0.000000 0.000000 
#    y 0.000000 3.570570 0.000000 
#    z 0.000000 0.000000 3.299660 
# 
# 
# High freq. dielectric constant tensor:
#      x y z
#    x 1.768230 0.000000 0.000000 
#    y 0.000000 1.762080 0.000000 
#    z 0.000000 0.000000 1.782510 
# 
# From -- ./inp_files/37162.got.cif
#   From: 2010.03.12/outbox.cif.g09.slc.cpg/sg51_19_cif.got.tgz:37162.got - 2010.04.16 13:43:02.
