data_PCOD8213047
_publ_section_title
;
Structure prediction by ZEFSAII (Michael W. Deem and Ramdas Pophale) SiO2 
 PCOD8213047
Probable space group: P M M A
;
_chemical_formula_sum "Si O2"
_cell_formula_units_Z 48
_cell_length_a 9.352811
_cell_length_b 9.517679
_cell_length_c 30.718805
_cell_angle_alpha 90.000000
_cell_angle_beta 90.000000
_cell_angle_gamma 90.000000
_cell_volume 2734.497488
_symmetry_space_group_name_H-M "P M M A"
_symmetry_group_IT_number 51
_symmetry_cell_setting 'orthorhombic'
loop_
_space_group_symop_operation_xyz
x,y,z
1/2-x,-y,z
1/2+x,-y,-z
-x,y,-z
-x,-y,-z
1/2+x,y,-z
1/2-x,y,z
x,-y,z
loop_
_atom_site_type_symbol
_atom_site_label
_atom_site_fract_x
_atom_site_fract_y
_atom_site_fract_z
Si Si1 0.083555 0.836145 0.789551
Si Si2 0.589273 0.667658 0.458880
Si Si3 0.416158 0.662215 0.042280
Si Si4 0.084739 0.837006 0.125184
Si Si5 0.908235 0.333327 0.621118
Si Si6 0.584082 0.663767 0.718978
O O1 0.250000 0.800493 0.793336
O O2 0.007706 0.786636 0.833845
O O3 0.017368 0.752628 0.749667
O O4 0.055707 0.000000 0.781342
O O5 0.500000 0.724391 0.500000
O O6 0.750000 0.726621 0.461922
O O7 0.589953 0.500000 0.458703
O O8 0.518482 0.726897 0.414493
O O9 0.250000 0.688159 0.033350
O O10 0.450504 0.500000 0.051853
O O11 0.469479 0.750452 0.083604
O O12 0.500000 0.716334 0.000000
O O13 0.250000 0.804258 0.135603
O O14 0.059868 0.000000 0.114874
O O15 0.750000 0.272868 0.611121
O O16 0.901449 0.500000 0.617925
O O17 0.956074 0.290844 0.669727
O O18 0.750000 0.697319 0.728552
O O19 0.552940 0.500000 0.726575
#
# Coordination Sequence:
#
# PCOD8213047 Si02
#       6
#     8   8   8   8   8   8
#     4  10  21  35  50  71  99 128 159 198 242 285
#     4   9  15  21  31  49  75 110 149 185 224 272
#     4   9  18  32  49  70  96 124 153 187 228 274
#     4   9  18  33  51  69  91 122 158 193 231 276
#     4   8  14  25  39  56  81 111 144 185 230 275
#     4   9  18  32  50  71  94 123 159 197 239 288
#
# _framework density 17.5535
#
# number of rings (size 3 to 8) (size 9 to 14) (size 15 to 20)
#    0.000    3.000    0.000    2.000    0.000    5.667 
#    0.000    3.333    0.000    0.000    0.000    0.000 
#    0.000    0.667    0.000    2.167    0.000    4.833 
#
# Total GULP energy -595154.103083 kJ/mol
# GULP energy per Si atom -12399.043814 kJ/mol
# Density = 1.751355 g / cm^3
# Si number density = 17.553500 Si / 1000 Ang^3
#
#
#
# Elastic Constant Matrix: (Units=GPa)
#
#
# Indices 1 2 3 4 5 6 
#
# 1 118.7240 36.0580 99.1265 0.0000 0.0000 0.0000
# 2 36.0580 32.7117 49.7503 0.0000 0.0000 0.0000
# 3 99.1265 49.7503 177.6558 0.0000 0.0000 0.0000
# 4 0.0000 0.0000 0.0000 -3.8906 0.0000 0.0000
# 5 0.0000 0.0000 0.0000 0.0000 38.8427 0.0000
# 6 0.0000 0.0000 0.0000 0.0000 0.0000 18.9431
#
#
#
# Elastic Compliance Matrix: (Units=1/GPa)
#
#
# Indices 1 2 3 4 5 6 
#
# 1 0.016737 -0.007396 -0.007268 0.000000 0.000000 0.000000
# 2 -0.007396 0.056517 -0.011700 0.000000 0.000000 0.000000
# 3 -0.007268 -0.011700 0.012960 0.000000 0.000000 0.000000
# 4 0.000000 0.000000 0.000000 -0.257032 0.000000 0.000000
# 5 0.000000 0.000000 0.000000 0.000000 0.025745 0.000000
# 6 0.000000 0.000000 0.000000 0.000000 0.000000 0.052790
#
#
# Mechanical properties :
#
#
# Convention : Reuss Voigt Hill
#
# Bulk Modulus (GPa) = 29.86237 77.66235 53.76236
# Shear Modulus (GPa) = -176.10508 20.38949 -77.85779
#
# Velocity S-wave (km/s) = -10.02709 3.41187 -6.66715
# Velocity P-wave (km/s) = 10.81701 7.73695 5.34543
#
# Compressibility (1/GPa) = 0.03348696
#
# Stress axis : x y z
#
# Youngs Moduli (GPa) = 59.74719 17.69373 77.15796
#
# Poissons Ratio (x) = 0.13087 0.56075
# Poissons Ratio (y) = 0.44190 0.90275
# Poissons Ratio (z) = 0.43422 0.20702
#
# Static dielectric constant tensor:
#      x y z
#    x 3.391220 0.000000 0.000000 
#    y 0.000000 2.855650 0.000000 
#    z 0.000000 0.000000 3.457470 
# 
# 
# High freq. dielectric constant tensor:
#      x y z
#    x 1.680590 0.000000 0.000000 
#    y 0.000000 1.631920 0.000000 
#    z 0.000000 0.000000 1.691580 
# 
# From -- ./inp_files/36124.got.cif
#   From: 2010.03.12/outbox.cif.g09.slc.cpg/sg51_19_cif.got.tgz:36124.got - 2010.04.16 13:43:02.
