data_PCOD8213385
_publ_section_title
;
Structure prediction by ZEFSAII (Michael W. Deem and Ramdas Pophale) SiO2 
 PCOD8213385
Probable space group: P M M A
;
_chemical_formula_sum "Si O2"
_cell_formula_units_Z 64
_cell_length_a 8.938271
_cell_length_b 20.020870
_cell_length_c 18.578385
_cell_angle_alpha 90.000000
_cell_angle_beta 90.000000
_cell_angle_gamma 90.000000
_cell_volume 3324.638441
_symmetry_space_group_name_H-M "P M M A"
_symmetry_group_IT_number 51
_symmetry_cell_setting 'orthorhombic'
loop_
_space_group_symop_operation_xyz
x,y,z
1/2-x,-y,z
1/2+x,-y,-z
-x,y,-z
-x,-y,-z
1/2+x,y,-z
1/2-x,y,z
x,-y,z
loop_
_atom_site_type_symbol
_atom_site_label
_atom_site_fract_x
_atom_site_fract_y
_atom_site_fract_z
Si Si1 0.424946 0.698462 0.831540
Si Si2 0.424334 0.425606 0.572330
Si Si3 0.923960 0.922246 0.162991
Si Si4 0.923028 0.076352 0.689753
Si Si5 0.072743 0.189160 0.075885
Si Si6 0.424974 0.574882 0.926337
Si Si7 0.923675 0.302607 0.334815
Si Si8 0.074668 0.813057 0.422833
O O1 0.250000 0.714094 0.844216
O O2 0.525029 0.754770 0.867720
O O3 0.468477 0.625834 0.862926
O O4 0.467841 0.699390 0.748245
O O5 0.500000 0.397954 0.500000
O O6 0.250000 0.426999 0.556726
O O7 0.483422 0.500000 0.591704
O O8 0.463170 0.376910 0.638064
O O9 0.750000 0.904167 0.156973
O O10 0.979250 0.900790 0.242079
O O11 0.014558 0.882715 0.102297
O O12 0.955354 0.000000 0.149387
O O13 0.750000 0.086656 0.710710
O O14 0.969253 0.120734 0.621647
O O15 0.957476 0.000000 0.668792
O O16 0.250000 0.187212 0.067941
O O17 0.000000 0.207329 0.000000
O O18 0.250000 0.575318 0.940456
O O19 0.479539 0.500000 0.905145
O O20 0.500000 0.599500 0.000000
O O21 0.750000 0.285508 0.347014
O O22 0.021358 0.250927 0.379174
O O23 0.250000 0.807222 0.434701
O O24 0.000000 0.817845 0.500000
#
# Coordination Sequence:
#
# PCOD8213385 Si02
#       8
#     8   8   8   8   8   8   8   8
#     4  10  21  37  57  82 112 145 184 230 277 327
#     4   9  18  33  53  77 105 139 179 221 267 319
#     4  10  21  38  61  88 116 146 181 222 270 325
#     4   9  19  37  59  83 112 146 183 222 267 320
#     4  12  25  40  59  82 111 147 186 229 276 326
#     4   9  18  33  54  80 110 145 183 223 270 324
#     4  10  21  36  55  79 108 142 179 223 272 323
#     4  11  23  37  55  79 108 143 182 226 273 322
#
# _framework density 19.250214
#
# number of rings (size 3 to 8) (size 9 to 14) (size 15 to 20)
#    0.000    2.000    0.000    3.375    0.000    8.250 
#    0.000    2.500    0.000    0.000    0.000    5.250 
#    0.000    0.000    0.000    0.000    0.000    0.000 
#
# Total GULP energy -793830.783401 kJ/mol
# GULP energy per Si atom -12403.605991 kJ/mol
# Density = 1.920640 g / cm^3
# Si number density = 19.250214 Si / 1000 Ang^3
#
#
#
# Elastic Constant Matrix: (Units=GPa)
#
#
# Indices 1 2 3 4 5 6 
#
# 1 82.1995 44.7073 52.5846 0.0000 0.0000 0.0000
# 2 44.7073 96.9716 58.5241 0.0000 0.0000 0.0000
# 3 52.5846 58.5241 127.8855 0.0000 0.0000 0.0000
# 4 0.0000 0.0000 0.0000 39.1840 0.0000 0.0000
# 5 0.0000 0.0000 0.0000 0.0000 27.2794 0.0000
# 6 0.0000 0.0000 0.0000 0.0000 0.0000 28.6922
#
#
#
# Elastic Compliance Matrix: (Units=1/GPa)
#
#
# Indices 1 2 3 4 5 6 
#
# 1 0.018347 -0.005396 -0.005075 0.000000 0.000000 0.000000
# 2 -0.005396 0.015834 -0.005027 0.000000 0.000000 0.000000
# 3 -0.005075 -0.005027 0.012207 0.000000 0.000000 0.000000
# 4 0.000000 0.000000 0.000000 0.025521 0.000000 0.000000
# 5 0.000000 0.000000 0.000000 0.000000 0.036658 0.000000
# 6 0.000000 0.000000 0.000000 0.000000 0.000000 0.034853
#
#
# Mechanical properties :
#
#
# Convention : Reuss Voigt Hill
#
# Bulk Modulus (GPa) = 64.96971 68.74316 66.85644
# Shear Modulus (GPa) = 27.84823 29.11383 28.48103
#
# Velocity S-wave (km/s) = 3.80761 3.89316 3.85062
# Velocity P-wave (km/s) = 7.29067 7.48310 7.38751
#
# Compressibility (1/GPa) = 0.01539179
#
# Stress axis : x y z
#
# Youngs Moduli (GPa) = 54.50623 63.15472 81.92163
#
# Poissons Ratio (x) = 0.34077 0.41571
# Poissons Ratio (y) = 0.29411 0.41186
# Poissons Ratio (z) = 0.27659 0.31751
#
# Static dielectric constant tensor:
#      x y z
#    x 3.499170 0.000000 0.000000 
#    y 0.000000 3.818450 0.000000 
#    z 0.000000 0.000000 3.561300 
# 
# 
# High freq. dielectric constant tensor:
#      x y z
#    x 1.746350 0.000000 0.000000 
#    y 0.000000 1.762380 0.000000 
#    z 0.000000 0.000000 1.749610 
# 
# From -- ./inp_files/28471.got.cif
#   From: 2010.03.12/outbox.cif.g09.slc.cpg/sg51_15_cif.got.tgz:28471.got - 2010.04.16 13:43:02.
