data_PCOD8213886
_publ_section_title
;
Structure prediction by ZEFSAII (Michael W. Deem and Ramdas Pophale) SiO2 
 PCOD8213886
Probable space group: P M M A
;
_chemical_formula_sum "Si O2"
_cell_formula_units_Z 48
_cell_length_a 8.649070
_cell_length_b 30.145141
_cell_length_c 9.396522
_cell_angle_alpha 90.000000
_cell_angle_beta 90.000000
_cell_angle_gamma 90.000000
_cell_volume 2449.931076
_symmetry_space_group_name_H-M "P M M A"
_symmetry_group_IT_number 51
_symmetry_cell_setting 'orthorhombic'
loop_
_space_group_symop_operation_xyz
x,y,z
1/2-x,-y,z
1/2+x,-y,-z
-x,y,-z
-x,-y,-z
1/2+x,y,-z
1/2-x,y,z
x,-y,z
loop_
_atom_site_type_symbol
_atom_site_label
_atom_site_fract_x
_atom_site_fract_y
_atom_site_fract_z
Si Si1 0.430398 0.448287 0.149847
Si Si2 0.568573 0.123368 0.347092
Si Si3 0.432448 0.298584 0.156692
Si Si4 0.431568 0.215272 0.346394
Si Si5 0.432768 0.376826 0.656187
Si Si6 0.927505 0.050006 0.846002
O O1 0.250000 0.437071 0.149926
O O2 0.463800 0.500000 0.171913
O O3 0.512284 0.423763 0.280648
O O4 0.500000 0.431676 0.000000
O O5 0.500000 0.112919 0.500000
O O6 0.750000 0.128896 0.359134
O O7 0.499380 0.169210 0.285938
O O8 0.527836 0.082194 0.249570
O O9 0.250000 0.306341 0.151009
O O10 0.476985 0.253142 0.235244
O O11 0.509211 0.338655 0.240204
O O12 0.500000 0.296264 0.000000
O O13 0.500000 0.227556 0.500000
O O14 0.250000 0.210224 0.364347
O O15 0.500000 0.369487 0.500000
O O16 0.250000 0.375840 0.645889
O O17 0.750000 0.065809 0.850498
O O18 0.939780 0.000000 0.785224
O O19 0.000000 0.052191 0.000000
#
# Coordination Sequence:
#
# PCOD8213886 Si02
#       6
#     8   8   8   8   8   8
#     4  10  21  39  63  90 121 157 197 241 290 344
#     4  11  22  37  59  85 116 152 191 236 285 340
#     4  11  24  41  62  88 118 153 194 239 287 341
#     4  10  21  38  60  85 115 150 190 236 287 343
#     4  12  25  41  62  87 119 156 196 242 291 346
#     4  10  21  38  59  83 113 149 190 236 286 341
#
# _framework density 19.592386999999999
#
# number of rings (size 3 to 8) (size 9 to 14) (size 15 to 20)
#    0.000    1.333    0.000    7.000    0.000    7.333 
#    0.000    1.667    0.000    0.000    0.000    0.000 
#    0.000    0.000    0.000    0.000    0.000    0.000 
#
# Total GULP energy -595435.539551 kJ/mol
# GULP energy per Si atom -12404.907074 kJ/mol
# Density = 1.954779 g / cm^3
# Si number density = 19.592387 Si / 1000 Ang^3
#
#
#
# Elastic Constant Matrix: (Units=GPa)
#
#
# Indices 1 2 3 4 5 6 
#
# 1 123.2703 58.3838 56.7988 0.0000 0.0000 0.0000
# 2 58.3838 115.7979 73.1395 0.0000 0.0000 0.0000
# 3 56.7988 73.1395 122.0863 0.0000 0.0000 0.0000
# 4 0.0000 0.0000 0.0000 65.2176 0.0000 0.0000
# 5 0.0000 0.0000 0.0000 0.0000 38.8894 0.0000
# 6 0.0000 0.0000 0.0000 0.0000 0.0000 42.3680
#
#
#
# Elastic Compliance Matrix: (Units=1/GPa)
#
#
# Indices 1 2 3 4 5 6 
#
# 1 0.011286 -0.003819 -0.002963 0.000000 0.000000 0.000000
# 2 -0.003819 0.015185 -0.007320 0.000000 0.000000 0.000000
# 3 -0.002963 -0.007320 0.013955 0.000000 0.000000 0.000000
# 4 0.000000 0.000000 0.000000 0.015333 0.000000 0.000000
# 5 0.000000 0.000000 0.000000 0.000000 0.025714 0.000000
# 6 0.000000 0.000000 0.000000 0.000000 0.000000 0.023603
#
#
# Mechanical properties :
#
#
# Convention : Reuss Voigt Hill
#
# Bulk Modulus (GPa) = 81.82191 81.97763 81.89977
# Shear Modulus (GPa) = 36.40245 40.81716 38.60981
#
# Velocity S-wave (km/s) = 4.31512 4.56929 4.44402
# Velocity P-wave (km/s) = 8.16577 8.35286 8.25984
#
# Compressibility (1/GPa) = 0.01222166
#
# Stress axis : x y z
#
# Youngs Moduli (GPa) = 88.60373 65.85570 71.66044
#
# Poissons Ratio (x) = 0.25150 0.21232
# Poissons Ratio (y) = 0.33838 0.52456
# Poissons Ratio (z) = 0.26252 0.48207
#
# Static dielectric constant tensor:
#      x y z
#    x 3.777500 0.000000 0.000000 
#    y 0.000000 3.839700 0.000000 
#    z 0.000000 0.000000 3.577310 
# 
# 
# High freq. dielectric constant tensor:
#      x y z
#    x 1.785380 0.000000 0.000000 
#    y 0.000000 1.777460 0.000000 
#    z 0.000000 0.000000 1.763830 
# 
# From -- ./inp_files/6088.got.cif
#   From: 2010.03.12/outbox.cif.g09.slc.cpg/sg51_4_cif.got.tgz:6088.got - 2010.04.16 13:43:02.
