data_PCOD8213809
_publ_section_title
;
Structure prediction by ZEFSAII (Michael W. Deem and Ramdas Pophale) SiO2 
 PCOD8213809
Probable space group: P M M A
;
_chemical_formula_sum "Si O2"
_cell_formula_units_Z 64
_cell_length_a 8.762088
_cell_length_b 23.769799
_cell_length_c 15.443519
_cell_angle_alpha 90.000000
_cell_angle_beta 90.000000
_cell_angle_gamma 90.000000
_cell_volume 3216.469123
_symmetry_space_group_name_H-M "P M M A"
_symmetry_group_IT_number 51
_symmetry_cell_setting 'orthorhombic'
loop_
_space_group_symop_operation_xyz
x,y,z
1/2-x,-y,z
1/2+x,-y,-z
-x,y,-z
-x,-y,-z
1/2+x,y,-z
1/2-x,y,z
x,-y,z
loop_
_atom_site_type_symbol
_atom_site_label
_atom_site_fract_x
_atom_site_fract_y
_atom_site_fract_z
Si Si1 0.431394 0.063094 0.246149
Si Si2 0.431468 0.131916 0.411733
Si Si3 0.072850 0.434898 0.247720
Si Si4 0.569130 0.637008 0.588381
Si Si5 0.071016 0.749840 0.846150
Si Si6 0.430214 0.752305 0.645374
Si Si7 0.930364 0.861440 0.911083
Si Si8 0.429735 0.627896 0.908858
O O1 0.250000 0.061984 0.243494
O O2 0.488161 0.091542 0.334677
O O3 0.494990 0.099434 0.165922
O O4 0.498022 0.000000 0.240508
O O5 0.500000 0.106209 0.500000
O O6 0.250000 0.135349 0.416231
O O7 0.499618 0.193452 0.399291
O O8 0.250000 0.422592 0.230751
O O9 0.040517 0.500000 0.265200
O O10 0.013728 0.401300 0.331700
O O11 0.980825 0.415983 0.163634
O O12 0.500000 0.611253 0.500000
O O13 0.750000 0.638278 0.581570
O O14 0.505164 0.699328 0.599573
O O15 0.250000 0.759395 0.860337
O O16 0.025795 0.752349 0.745979
O O17 0.014743 0.690368 0.883612
O O18 0.979949 0.797304 0.897327
O O19 0.250000 0.750699 0.630719
O O20 0.750000 0.864429 0.916214
O O21 0.000000 0.884908 0.000000
O O22 0.250000 0.625627 0.916481
O O23 0.500000 0.609404 0.000000
#
# Coordination Sequence:
#
# PCOD8213809 Si02
#       8
#     8   8   8   8   8   8   8   8
#     4   9  20  39  60  82 113 154 198 242 289 345
#     4  11  22  38  60  88 118 154 195 238 292 349
#     4  10  23  43  64  87 117 156 201 247 293 344
#     4  11  23  39  62  90 122 157 196 241 292 351
#     4  10  21  37  60  89 121 153 190 238 293 350
#     4  11  21  37  61  89 122 154 191 240 292 350
#     4  11  22  37  60  88 118 154 195 237 290 348
#     4  11  23  40  62  91 121 156 196 240 295 351
#
# _framework density 19.897594999999999
#
# number of rings (size 3 to 8) (size 9 to 14) (size 15 to 20)
#    0.000    1.500    2.500    2.625    0.000    4.250 
#    0.000    0.000    0.000    5.250    0.000    0.000 
#    0.000    0.000    0.000    0.000    0.000    0.000 
#
# Total GULP energy -793959.987066 kJ/mol
# GULP energy per Si atom -12405.624798 kJ/mol
# Density = 1.985231 g / cm^3
# Si number density = 19.897595 Si / 1000 Ang^3
#
#
#
# Elastic Constant Matrix: (Units=GPa)
#
#
# Indices 1 2 3 4 5 6 
#
# 1 53.8631 19.5691 38.3863 0.0000 0.0000 0.0000
# 2 19.5691 101.9306 44.2684 0.0000 0.0000 0.0000
# 3 38.3863 44.2684 162.9211 0.0000 0.0000 0.0000
# 4 0.0000 0.0000 0.0000 11.1296 0.0000 0.0000
# 5 0.0000 0.0000 0.0000 0.0000 34.1229 0.0000
# 6 0.0000 0.0000 0.0000 0.0000 0.0000 5.5710
#
#
#
# Elastic Compliance Matrix: (Units=1/GPa)
#
#
# Indices 1 2 3 4 5 6 
#
# 1 0.022784 -0.002316 -0.004739 0.000000 0.000000 0.000000
# 2 -0.002316 0.011359 -0.002541 0.000000 0.000000 0.000000
# 3 -0.004739 -0.002541 0.007945 0.000000 0.000000 0.000000
# 4 0.000000 0.000000 0.000000 0.089851 0.000000 0.000000
# 5 0.000000 0.000000 0.000000 0.000000 0.029306 0.000000
# 6 0.000000 0.000000 0.000000 0.000000 0.000000 0.179501
#
#
# Mechanical properties :
#
#
# Convention : Reuss Voigt Hill
#
# Bulk Modulus (GPa) = 43.67495 58.12916 50.90206
# Shear Modulus (GPa) = 13.60287 24.59741 19.10014
#
# Velocity S-wave (km/s) = 2.61750 3.51978 3.10162
# Velocity P-wave (km/s) = 5.57966 6.76728 6.20196
#
# Compressibility (1/GPa) = 0.02289642
#
# Stress axis : x y z
#
# Youngs Moduli (GPa) = 43.88977 88.03864 125.86794
#
# Poissons Ratio (x) = 0.20391 0.59648
# Poissons Ratio (y) = 0.10165 0.31978
# Poissons Ratio (z) = 0.20799 0.22367
#
# Static dielectric constant tensor:
#      x y z
#    x 3.481800 0.000000 0.000000 
#    y 0.000000 3.640030 0.000000 
#    z 0.000000 0.000000 3.922390 
# 
# 
# High freq. dielectric constant tensor:
#      x y z
#    x 1.767830 0.000000 0.000000 
#    y 0.000000 1.771880 0.000000 
#    z 0.000000 0.000000 1.796830 
# 
# From -- ./inp_files/22406.got.cif
#   From: 2010.03.12/outbox.cif.g09.slc.cpg/sg51_12_cif.got.tgz:22406.got - 2010.04.16 13:43:02.
