data_PCOD8213034
_publ_section_title
;
Structure prediction by ZEFSAII (Michael W. Deem and Ramdas Pophale) SiO2 
 PCOD8213034
Probable space group: P M M A
;
_chemical_formula_sum "Si O2"
_cell_formula_units_Z 64
_cell_length_a 8.981164
_cell_length_b 14.336720
_cell_length_c 27.968409
_cell_angle_alpha 90.000000
_cell_angle_beta 90.000000
_cell_angle_gamma 90.000000
_cell_volume 3601.224468
_symmetry_space_group_name_H-M "P M M A"
_symmetry_group_IT_number 51
_symmetry_cell_setting 'orthorhombic'
loop_
_space_group_symop_operation_xyz
x,y,z
1/2-x,-y,z
1/2+x,-y,-z
-x,y,-z
-x,-y,-z
1/2+x,y,-z
1/2-x,y,z
x,-y,z
loop_
_atom_site_type_symbol
_atom_site_label
_atom_site_fract_x
_atom_site_fract_y
_atom_site_fract_z
Si Si1 0.425121 0.394165 0.323346
Si Si2 0.079375 0.607280 0.774084
Si Si3 0.924860 0.606900 0.950211
Si Si4 0.574522 0.893555 0.451615
Si Si5 0.925579 0.776317 0.361290
Si Si6 0.922938 0.893620 0.828401
Si Si7 0.920386 0.892512 0.718295
Si Si8 0.925132 0.278797 0.132988
O O1 0.250000 0.382477 0.326570
O O2 0.475334 0.500000 0.334618
O O3 0.476686 0.364495 0.270396
O O4 0.501768 0.326459 0.361905
O O5 0.250000 0.627579 0.759855
O O6 0.056188 0.500000 0.788401
O O7 0.027684 0.667805 0.818922
O O8 0.750000 0.623412 0.954831
O O9 0.962057 0.500000 0.936543
O O10 0.990290 0.674535 0.910585
O O11 0.000000 0.634154 0.000000
O O12 0.500000 0.855624 0.500000
O O13 0.750000 0.885560 0.457507
O O14 0.516004 0.831277 0.407773
O O15 0.525304 0.000000 0.441667
O O16 0.750000 0.765834 0.362121
O O17 0.971392 0.830958 0.313700
O O18 0.750000 0.870708 0.836547
O O19 0.965898 0.876940 0.773195
O O20 0.022924 0.828126 0.862017
O O21 0.957529 0.000000 0.842922
O O22 0.750000 0.861743 0.709517
O O23 0.941861 0.000000 0.704097
O O24 0.750000 0.284169 0.123532
#
# Coordination Sequence:
#
# PCOD8213034 Si02
#       8
#     8   8   8   8   8   8   8   8
#     4  10  21  35  50  70  98 133 173 214 251 291
#     4   9  18  32  49  72 104 138 169 204 249 299
#     4  10  21  37  57  80 106 135 166 203 249 300
#     4   9  19  35  53  75 102 129 158 195 242 296
#     4  11  21  32  50  75 102 132 166 205 250 301
#     4   9  19  35  51  69  99 138 177 215 251 290
#     4   9  18  32  50  74 104 137 172 208 247 294
#     4  11  21  32  51  78 105 134 170 210 252 301
#
# _framework density 17.771732
#
# number of rings (size 3 to 8) (size 9 to 14) (size 15 to 20)
#    0.000    2.250    0.000    3.750    0.000    7.500 
#    0.000    3.750    0.000    0.750    0.000    0.000 
#    0.000    0.000    0.000    0.000    0.000    0.000 
#
# Total GULP energy -793809.244971 kJ/mol
# GULP energy per Si atom -12403.269453 kJ/mol
# Density = 1.773128 g / cm^3
# Si number density = 17.771732 Si / 1000 Ang^3
#
#
#
# Elastic Constant Matrix: (Units=GPa)
#
#
# Indices 1 2 3 4 5 6 
#
# 1 66.8145 44.6202 46.7836 0.0000 0.0000 0.0000
# 2 44.6202 106.9792 70.3774 0.0000 0.0000 0.0000
# 3 46.7836 70.3774 95.2849 0.0000 0.0000 0.0000
# 4 0.0000 0.0000 0.0000 28.6778 0.0000 0.0000
# 5 0.0000 0.0000 0.0000 0.0000 30.7972 0.0000
# 6 0.0000 0.0000 0.0000 0.0000 0.0000 30.6108
#
#
#
# Elastic Compliance Matrix: (Units=1/GPa)
#
#
# Indices 1 2 3 4 5 6 
#
# 1 0.023808 -0.004357 -0.008471 0.000000 0.000000 0.000000
# 2 -0.004357 0.018980 -0.011879 0.000000 0.000000 0.000000
# 3 -0.008471 -0.011879 0.023428 0.000000 0.000000 0.000000
# 4 0.000000 0.000000 0.000000 0.034870 0.000000 0.000000
# 5 0.000000 0.000000 0.000000 0.000000 0.032470 0.000000
# 6 0.000000 0.000000 0.000000 0.000000 0.000000 0.032668
#
#
# Mechanical properties :
#
#
# Convention : Reuss Voigt Hill
#
# Bulk Modulus (GPa) = 59.52101 65.84898 62.68500
# Shear Modulus (GPa) = 22.59983 25.17031 23.88507
#
# Velocity S-wave (km/s) = 3.56992 3.76747 3.67003
# Velocity P-wave (km/s) = 7.11035 7.48721 7.30121
#
# Compressibility (1/GPa) = 0.01680079
#
# Stress axis : x y z
#
# Youngs Moduli (GPa) = 42.00208 52.68757 42.68407
#
# Poissons Ratio (x) = 0.22958 0.36159
# Poissons Ratio (y) = 0.18302 0.50705
# Poissons Ratio (z) = 0.35581 0.62588
#
# Static dielectric constant tensor:
#      x y z
#    x 3.251430 0.000000 0.000000 
#    y 0.000000 3.422430 0.000000 
#    z 0.000000 0.000000 3.186380 
# 
# 
# High freq. dielectric constant tensor:
#      x y z
#    x 1.691610 0.000000 0.000000 
#    y 0.000000 1.691270 0.000000 
#    z 0.000000 0.000000 1.666750 
# 
# From -- ./inp_files/34883.got.cif
#   From: 2010.03.12/outbox.cif.g09.slc.cpg/sg51_18_cif.got.tgz:34883.got - 2010.04.16 13:43:02.
