data_PCOD8213846
_publ_section_title
;
Structure prediction by ZEFSAII (Michael W. Deem and Ramdas Pophale) SiO2 
 PCOD8213846
Probable space group: P M M A
;
_chemical_formula_sum "Si O2"
_cell_formula_units_Z 48
_cell_length_a 8.772125
_cell_length_b 30.092850
_cell_length_c 9.664781
_cell_angle_alpha 90.000000
_cell_angle_beta 90.000000
_cell_angle_gamma 90.000000
_cell_volume 2551.291896
_symmetry_space_group_name_H-M "P M M A"
_symmetry_group_IT_number 51
_symmetry_cell_setting 'orthorhombic'
loop_
_space_group_symop_operation_xyz
x,y,z
1/2-x,-y,z
1/2+x,-y,-z
-x,y,-z
-x,-y,-z
1/2+x,y,-z
1/2-x,y,z
x,-y,z
loop_
_atom_site_type_symbol
_atom_site_label
_atom_site_fract_x
_atom_site_fract_y
_atom_site_fract_z
Si Si1 0.930325 0.635449 0.652015
Si Si2 0.426557 0.806796 0.855646
Si Si3 0.069626 0.126003 0.349106
Si Si4 0.929458 0.949997 0.856684
Si Si5 0.426701 0.702800 0.856339
Si Si6 0.571686 0.548181 0.349477
O O1 0.750000 0.635450 0.644298
O O2 0.000000 0.638521 0.500000
O O3 0.986451 0.678072 0.734494
O O4 0.989251 0.589696 0.726883
O O5 0.250000 0.819834 0.859156
O O6 0.508338 0.830626 0.728372
O O7 0.451759 0.754792 0.831678
O O8 0.500000 0.822436 0.000000
O O9 0.250000 0.129408 0.360541
O O10 0.016459 0.082025 0.266522
O O11 0.000000 0.123198 0.500000
O O12 0.750000 0.948432 0.874339
O O13 0.986342 0.000000 0.822774
O O14 0.000000 0.932703 0.000000
O O15 0.250000 0.689742 0.856651
O O16 0.500000 0.687426 0.000000
O O17 0.500000 0.544949 0.500000
O O18 0.750000 0.558702 0.361872
O O19 0.545187 0.500000 0.274636
#
# Coordination Sequence:
#
# PCOD8213846 Si02
#       6
#     8   8   8   8   8   8
#     4  11  21  33  52  78 108 141 177 220 267 315
#     4  10  21  38  60  82 106 138 177 220 264 316
#     4  11  23  37  55  80 112 146 180 222 271 321
#     4   9  19  36  57  81 108 141 182 224 266 315
#     4  10  21  38  58  80 106 138 176 217 264 319
#     4   9  16  27  45  70 101 136 174 217 263 312
#
# _framework density 18.813998000000002
#
# number of rings (size 3 to 8) (size 9 to 14) (size 15 to 20)
#    0.000    2.000    0.000    5.000    0.000    6.667 
#    0.000    0.000    0.000    0.500    0.000    0.000 
#    0.000    0.000    0.000    0.000    0.000    0.000 
#
# Total GULP energy -595159.345963 kJ/mol
# GULP energy per Si atom -12399.153041 kJ/mol
# Density = 1.877118 g / cm^3
# Si number density = 18.813998 Si / 1000 Ang^3
#
#
#
# Elastic Constant Matrix: (Units=GPa)
#
#
# Indices 1 2 3 4 5 6 
#
# 1 131.1782 60.9614 59.7588 0.0000 0.0000 0.0000
# 2 60.9614 96.2086 66.9862 0.0000 0.0000 0.0000
# 3 59.7588 66.9862 123.2011 0.0000 0.0000 0.0000
# 4 0.0000 0.0000 0.0000 15.6681 0.0000 0.0000
# 5 0.0000 0.0000 0.0000 0.0000 33.9363 0.0000
# 6 0.0000 0.0000 0.0000 0.0000 0.0000 31.1483
#
#
#
# Elastic Compliance Matrix: (Units=1/GPa)
#
#
# Indices 1 2 3 4 5 6 
#
# 1 0.011282 -0.005372 -0.002551 0.000000 0.000000 0.000000
# 2 -0.005372 0.019284 -0.007879 0.000000 0.000000 0.000000
# 3 -0.002551 -0.007879 0.013638 0.000000 0.000000 0.000000
# 4 0.000000 0.000000 0.000000 0.063824 0.000000 0.000000
# 5 0.000000 0.000000 0.000000 0.000000 0.029467 0.000000
# 6 0.000000 0.000000 0.000000 0.000000 0.000000 0.032105
#
#
# Mechanical properties :
#
#
# Convention : Reuss Voigt Hill
#
# Bulk Modulus (GPa) = 79.37255 80.66673 80.01964
# Shear Modulus (GPa) = 24.34204 27.00930 25.67567
#
# Velocity S-wave (km/s) = 3.60088 3.79304 3.69821
# Velocity P-wave (km/s) = 7.71804 7.88364 7.80128
#
# Compressibility (1/GPa) = 0.01259881
#
# Stress axis : x y z
#
# Youngs Moduli (GPa) = 88.63536 51.85590 73.32234
#
# Poissons Ratio (x) = 0.27859 0.18707
# Poissons Ratio (y) = 0.47618 0.57772
# Poissons Ratio (z) = 0.22614 0.40858
#
# Static dielectric constant tensor:
#      x y z
#    x 3.580240 0.000000 0.000000 
#    y 0.000000 4.006480 0.000000 
#    z 0.000000 0.000000 3.247290 
# 
# 
# High freq. dielectric constant tensor:
#      x y z
#    x 1.746570 0.000000 0.000000 
#    y 0.000000 1.748850 0.000000 
#    z 0.000000 0.000000 1.701950 
# 
# From -- ./inp_files/5957.got.cif
#   From: 2010.03.12/outbox.cif.g09.slc.cpg/sg51_3_cif.got.tgz:5957.got - 2010.04.16 13:43:02.
