data_PCOD8213920
_publ_section_title
;
Structure prediction by ZEFSAII (Michael W. Deem and Ramdas Pophale) SiO2 
 PCOD8213920
Probable space group: P M M A
;
_chemical_formula_sum "Si O2"
_cell_formula_units_Z 48
_cell_length_a 9.713288
_cell_length_b 9.035898
_cell_length_c 28.733414
_cell_angle_alpha 90.000000
_cell_angle_beta 90.000000
_cell_angle_gamma 90.000000
_cell_volume 2521.882314
_symmetry_space_group_name_H-M "P M M A"
_symmetry_group_IT_number 51
_symmetry_cell_setting 'orthorhombic'
loop_
_space_group_symop_operation_xyz
x,y,z
1/2-x,-y,z
1/2+x,-y,-z
-x,y,-z
-x,-y,-z
1/2+x,y,-z
1/2-x,y,z
x,-y,z
loop_
_atom_site_type_symbol
_atom_site_label
_atom_site_fract_x
_atom_site_fract_y
_atom_site_fract_z
Si Si1 0.750000 0.831417 0.970008
Si Si2 0.591931 0.826091 0.643991
Si Si3 0.985209 0.172064 0.896861
Si Si4 0.750000 0.674628 0.066903
Si Si5 0.908084 0.674812 0.279796
Si Si6 0.095110 0.330631 0.194696
Si Si7 0.401827 0.175696 0.460605
O O1 0.615557 0.799029 0.939885
O O2 0.750000 0.000000 0.988327
O O3 0.750000 0.724103 0.013623
O O4 0.750000 0.777878 0.654218
O O5 0.484099 0.743797 0.676333
O O6 0.550054 0.781488 0.591345
O O7 0.576631 0.000000 0.652047
O O8 0.914426 0.225650 0.849766
O O9 0.120232 0.266270 0.905204
O O10 0.021972 0.000000 0.892465
O O11 0.750000 0.500000 0.068555
O O12 0.750000 0.730175 0.277352
O O13 0.915551 0.500000 0.285110
O O14 0.986832 0.725705 0.233120
O O15 0.250000 0.317112 0.215016
O O16 0.063368 0.500000 0.180250
O O17 0.500000 0.246089 0.500000
O O18 0.250000 0.240021 0.469757
O O19 0.398729 0.000000 0.464983
#
# Coordination Sequence:
#
# PCOD8213920 Si02
#       7
#     4   8   8   4   8   8   8
#     4  10  22  42  64  88 120 154 190 232 281 338
#     4   9  18  33  53  79 110 144 186 233 279 333
#     4  11  23  41  63  89 119 153 189 230 284 338
#     4  12  26  40  60  90 122 156 194 236 277 322
#     4  10  22  38  56  81 113 147 184 228 280 333
#     4  10  21  38  60  84 111 145 187 231 276 335
#     4   8  14  25  43  70 104 140 178 224 278 332
#
# _framework density 19.033401999999999
#
# number of rings (size 3 to 8) (size 9 to 14) (size 15 to 20)
#    0.000    2.167    0.833    3.250    1.167    6.000 
#    0.000    1.667    0.000    0.500    0.000    0.000 
#    0.000    0.000    0.000    0.000    0.000    0.000 
#
# Total GULP energy -595226.150835 kJ/mol
# GULP energy per Si atom -12400.544809 kJ/mol
# Density = 1.899008 g / cm^3
# Si number density = 19.033402 Si / 1000 Ang^3
#
#
#
# Elastic Constant Matrix: (Units=GPa)
#
#
# Indices 1 2 3 4 5 6 
#
# 1 129.3879 40.4536 58.7343 0.0000 0.0000 0.0000
# 2 40.4536 60.4647 35.7658 0.0000 0.0000 0.0000
# 3 58.7343 35.7658 113.0638 0.0000 0.0000 0.0000
# 4 0.0000 0.0000 0.0000 302.0918 0.0000 0.0000
# 5 0.0000 0.0000 0.0000 0.0000 27.9613 0.0000
# 6 0.0000 0.0000 0.0000 0.0000 0.0000 26.7144
#
#
#
# Elastic Compliance Matrix: (Units=1/GPa)
#
#
# Indices 1 2 3 4 5 6 
#
# 1 0.011218 -0.004992 -0.004248 0.000000 0.000000 0.000000
# 2 -0.004992 0.022567 -0.004545 0.000000 0.000000 0.000000
# 3 -0.004248 -0.004545 0.012489 0.000000 0.000000 0.000000
# 4 0.000000 0.000000 0.000000 0.003310 0.000000 0.000000
# 5 0.000000 0.000000 0.000000 0.000000 0.035764 0.000000
# 6 0.000000 0.000000 0.000000 0.000000 0.000000 0.037433
#
#
# Mechanical properties :
#
#
# Convention : Reuss Voigt Hill
#
# Bulk Modulus (GPa) = 53.46845 63.64708 58.55777
# Shear Modulus (GPa) = 31.93093 82.55101 57.24097
#
# Velocity S-wave (km/s) = 4.10033 6.59286 5.48992
# Velocity P-wave (km/s) = 7.11124 9.56382 8.42723
#
# Compressibility (1/GPa) = 0.01870262
#
# Stress axis : x y z
#
# Youngs Moduli (GPa) = 89.14184 44.31177 80.06855
#
# Poissons Ratio (x) = 0.22122 0.34015
# Poissons Ratio (y) = 0.44504 0.36394
# Poissons Ratio (z) = 0.37870 0.20141
#
# Static dielectric constant tensor:
#      x y z
#    x 3.779750 0.000000 0.000000 
#    y 0.000000 3.242010 0.000000 
#    z 0.000000 0.000000 3.534160 
# 
# 
# High freq. dielectric constant tensor:
#      x y z
#    x 1.752040 0.000000 0.000000 
#    y 0.000000 1.716550 0.000000 
#    z 0.000000 0.000000 1.746480 
# 
# From -- ./inp_files/37132.got.cif
#   From: 2010.03.12/outbox.cif.g09.slc.cpg/sg51_19_cif.got.tgz:37132.got - 2010.04.16 13:43:02.
