data_PCOD8213281
_publ_section_title
;
Structure prediction by ZEFSAII (Michael W. Deem and Ramdas Pophale) SiO2 
 PCOD8213281
Probable space group: P M M A
;
_chemical_formula_sum "Si O2"
_cell_formula_units_Z 48
_cell_length_a 9.043371
_cell_length_b 9.761256
_cell_length_c 28.989085
_cell_angle_alpha 90.000000
_cell_angle_beta 90.000000
_cell_angle_gamma 90.000000
_cell_volume 2559.001606
_symmetry_space_group_name_H-M "P M M A"
_symmetry_group_IT_number 51
_symmetry_cell_setting 'orthorhombic'
loop_
_space_group_symop_operation_xyz
x,y,z
1/2-x,-y,z
1/2+x,-y,-z
-x,y,-z
-x,-y,-z
1/2+x,y,-z
1/2-x,y,z
x,-y,z
loop_
_atom_site_type_symbol
_atom_site_label
_atom_site_fract_x
_atom_site_fract_y
_atom_site_fract_z
Si Si1 0.425229 0.657477 0.868546
Si Si2 0.077599 0.266180 0.604880
Si Si3 0.077558 0.155838 0.204909
Si Si4 0.080078 0.158322 0.310980
Si Si5 0.075068 0.500000 0.450371
Si Si6 0.076264 0.156108 0.952730
Si Si7 0.082120 0.000000 0.547698
O O1 0.250000 0.662821 0.865089
O O2 0.481173 0.500000 0.871024
O O3 0.489138 0.732563 0.823998
O O4 0.480951 0.740318 0.913460
O O5 0.250000 0.308270 0.603338
O O6 0.041389 0.127706 0.578727
O O7 0.026643 0.252166 0.657929
O O8 0.974958 0.371632 0.578935
O O9 0.250000 0.168218 0.193476
O O10 0.046348 0.192596 0.257962
O O11 0.024176 0.000000 0.194149
O O12 0.250000 0.191548 0.322885
O O13 0.045198 0.000000 0.320707
O O14 0.250000 0.500000 0.457582
O O15 0.000000 0.500000 0.500000
O O16 0.250000 0.169271 0.959935
O O17 0.032280 0.000000 0.939247
O O18 0.000000 0.201366 0.000000
O O19 0.000000 0.000000 0.500000
O O20 0.250000 0.000000 0.532804
#
# Coordination Sequence:
#
# PCOD8213281 Si02
#       7
#     8   8   8   8   4   8   4
#     4  10  21  36  53  78 113 150 189 231 279 334
#     4  11  22  39  60  87 117 149 188 233 280 336
#     4   9  19  36  58  83 110 143 187 233 278 333
#     4   9  18  35  59  86 114 146 185 231 283 337
#     4  12  26  44  62  84 114 154 194 232 279 334
#     4   9  18  33  53  77 106 142 186 234 281 333
#     4  10  22  36  56  86 116 144 182 226 275 328
#
# _framework density 18.757317
#
# number of rings (size 3 to 8) (size 9 to 14) (size 15 to 20)
#    0.000    2.167    0.833    3.250    0.000    5.667 
#    1.500    3.333    0.000    0.000    0.000    0.000 
#    0.000    0.000    0.000    0.000    0.000    0.000 
#
# Total GULP energy -595205.718244 kJ/mol
# GULP energy per Si atom -12400.119130 kJ/mol
# Density = 1.871462 g / cm^3
# Si number density = 18.757317 Si / 1000 Ang^3
#
#
#
# Elastic Constant Matrix: (Units=GPa)
#
#
# Indices 1 2 3 4 5 6 
#
# 1 67.9309 48.8269 51.5869 0.0000 0.0000 0.0000
# 2 48.8269 123.8981 70.8144 0.0000 0.0000 0.0000
# 3 51.5869 70.8144 134.7904 0.0000 0.0000 0.0000
# 4 0.0000 0.0000 0.0000 29.9441 0.0000 0.0000
# 5 0.0000 0.0000 0.0000 0.0000 40.0689 0.0000
# 6 0.0000 0.0000 0.0000 0.0000 0.0000 29.4902
#
#
#
# Elastic Compliance Matrix: (Units=1/GPa)
#
#
# Indices 1 2 3 4 5 6 
#
# 1 0.023395 -0.005863 -0.005874 0.000000 0.000000 0.000000
# 2 -0.005863 0.013004 -0.004588 0.000000 0.000000 0.000000
# 3 -0.005874 -0.004588 0.012077 0.000000 0.000000 0.000000
# 4 0.000000 0.000000 0.000000 0.033396 0.000000 0.000000
# 5 0.000000 0.000000 0.000000 0.000000 0.024957 0.000000
# 6 0.000000 0.000000 0.000000 0.000000 0.000000 0.033910
#
#
# Mechanical properties :
#
#
# Convention : Reuss Voigt Hill
#
# Bulk Modulus (GPa) = 63.18098 74.34175 68.76136
# Shear Modulus (GPa) = 27.98556 30.26005 29.12281
#
# Velocity S-wave (km/s) = 3.86681 4.02087 3.94459
# Velocity P-wave (km/s) = 7.32753 7.82790 7.58185
#
# Compressibility (1/GPa) = 0.01582755
#
# Stress axis : x y z
#
# Youngs Moduli (GPa) = 42.74356 76.90010 82.79960
#
# Poissons Ratio (x) = 0.45084 0.48635
# Poissons Ratio (y) = 0.25059 0.37989
# Poissons Ratio (z) = 0.25107 0.35282
#
# Static dielectric constant tensor:
#      x y z
#    x 3.277330 0.000000 0.000000 
#    y 0.000000 3.495740 0.000000 
#    z 0.000000 0.000000 3.475220 
# 
# 
# High freq. dielectric constant tensor:
#      x y z
#    x 1.723530 0.000000 0.000000 
#    y 0.000000 1.725710 0.000000 
#    z 0.000000 0.000000 1.739320 
# 
# From -- ./inp_files/37186.got.cif
#   From: 2010.03.12/outbox.cif.g09.slc.cpg/sg51_19_cif.got.tgz:37186.got - 2010.04.16 13:43:02.
