data_PCOD8213028
_publ_section_title
;
Structure prediction by ZEFSAII (Michael W. Deem and Ramdas Pophale) SiO2 
 PCOD8213028
Probable space group: P M M A
;
_chemical_formula_sum "Si O2"
_cell_formula_units_Z 48
_cell_length_a 9.332538
_cell_length_b 9.224373
_cell_length_c 30.930199
_cell_angle_alpha 90.000000
_cell_angle_beta 90.000000
_cell_angle_gamma 90.000000
_cell_volume 2662.682212
_symmetry_space_group_name_H-M "P M M A"
_symmetry_group_IT_number 51
_symmetry_cell_setting 'orthorhombic'
loop_
_space_group_symop_operation_xyz
x,y,z
1/2-x,-y,z
1/2+x,-y,-z
-x,y,-z
-x,-y,-z
1/2+x,y,-z
1/2-x,y,z
x,-y,z
loop_
_atom_site_type_symbol
_atom_site_label
_atom_site_fract_x
_atom_site_fract_y
_atom_site_fract_z
Si Si1 0.088842 0.327023 0.959038
Si Si2 0.912228 0.672644 0.540903
Si Si3 0.591139 0.672043 0.879134
Si Si4 0.084394 0.330892 0.624196
Si Si5 0.084158 0.168841 0.710117
Si Si6 0.919297 0.335260 0.782623
O O1 0.250000 0.266308 0.961896
O O2 0.089389 0.500000 0.958810
O O3 0.017162 0.265880 0.915102
O O4 0.000000 0.268488 0.000000
O O5 0.750000 0.732872 0.539674
O O6 0.911945 0.500000 0.539326
O O7 0.000000 0.734663 0.500000
O O8 0.989836 0.726684 0.584373
O O9 0.750000 0.735914 0.887868
O O10 0.599775 0.500000 0.882357
O O11 0.537811 0.714548 0.831148
O O12 0.250000 0.298230 0.613428
O O13 0.058837 0.500000 0.632685
O O14 0.031666 0.246710 0.666531
O O15 0.250000 0.203207 0.718638
O O16 0.995739 0.226938 0.750344
O O17 0.054040 0.000000 0.704730
O O18 0.750000 0.324097 0.776366
O O19 0.970711 0.500000 0.773947
#
# Coordination Sequence:
#
# PCOD8213028 Si02
#       6
#     8   8   8   8   8   8
#     4   9  15  21  31  50  78 113 149 182 220 269
#     4   9  16  26  43  69  98 124 151 187 230 274
#     4   8  14  25  39  56  81 112 146 186 230 274
#     4   9  17  30  48  69  94 125 159 194 233 276
#     4  10  21  35  50  70  97 128 161 198 241 288
#     4   9  18  32  50  71  94 122 158 200 244 288
#
# _framework density 18.026935999999999
#
# number of rings (size 3 to 8) (size 9 to 14) (size 15 to 20)
#    0.000    3.000    0.000    2.500    0.000    6.667 
#    0.000    3.333    0.000    0.500    0.000    0.000 
#    0.000    0.667    0.000    2.167    0.000    4.833 
#
# Total GULP energy -595116.876629 kJ/mol
# GULP energy per Si atom -12398.268263 kJ/mol
# Density = 1.798591 g / cm^3
# Si number density = 18.026936 Si / 1000 Ang^3
#
#
#
# Elastic Constant Matrix: (Units=GPa)
#
#
# Indices 1 2 3 4 5 6 
#
# 1 111.7480 23.7157 90.6660 0.0000 0.0000 0.0000
# 2 23.7157 30.8122 37.7156 0.0000 0.0000 0.0000
# 3 90.6660 37.7156 180.3144 0.0000 0.0000 0.0000
# 4 0.0000 0.0000 0.0000 -0.0301 0.0000 0.0000
# 5 0.0000 0.0000 0.0000 0.0000 38.7439 0.0000
# 6 0.0000 0.0000 0.0000 0.0000 0.0000 14.0917
#
#
#
# Elastic Compliance Matrix: (Units=1/GPa)
#
#
# Indices 1 2 3 4 5 6 
#
# 1 0.015343 -0.003180 -0.007050 0.000000 0.000000 0.000000
# 2 -0.003180 0.044283 -0.007663 0.000000 0.000000 0.000000
# 3 -0.007050 -0.007663 0.010694 0.000000 0.000000 0.000000
# 4 0.000000 0.000000 0.000000-33.264806 0.000000 0.000000
# 5 0.000000 0.000000 0.000000 0.000000 0.025811 0.000000
# 6 0.000000 0.000000 0.000000 0.000000 0.000000 0.070964
#
#
# Mechanical properties :
#
#
# Convention : Reuss Voigt Hill
#
# Bulk Modulus (GPa) = 28.95790 69.67438 49.31614
# Shear Modulus (GPa) = -0.15128 21.94626 10.89749
#
# Velocity S-wave (km/s) = -0.29001 3.49293 2.46135
# Velocity P-wave (km/s) = 3.99830 7.41630 5.95768
#
# Compressibility (1/GPa) = 0.03453290
#
# Stress axis : x y z
#
# Youngs Moduli (GPa) = 65.17431 22.58216 93.51413
#
# Poissons Ratio (x) = 0.07182 0.65926
# Poissons Ratio (y) = 0.20728 0.71663
# Poissons Ratio (z) = 0.45947 0.17305
#
# Static dielectric constant tensor:
#      x y z
#    x 3.480060 0.000000 0.000000 
#    y 0.000000 2.746760 0.000000 
#    z 0.000000 0.000000 3.570470 
# 
# 
# High freq. dielectric constant tensor:
#      x y z
#    x 1.700050 0.000000 0.000000 
#    y 0.000000 1.633080 0.000000 
#    z 0.000000 0.000000 1.714960 
# 
# From -- ./inp_files/37048.got.cif
#   From: 2010.03.12/outbox.cif.g09.slc.cpg/sg51_19_cif.got.tgz:37048.got - 2010.04.16 13:43:02.
