data_PCOD8213848
_publ_section_title
;
Structure prediction by ZEFSAII (Michael W. Deem and Ramdas Pophale) SiO2 
 PCOD8213848
Probable space group: P M M A
;
_chemical_formula_sum "Si O2"
_cell_formula_units_Z 40
_cell_length_a 8.502586
_cell_length_b 16.202682
_cell_length_c 14.716048
_cell_angle_alpha 90.000000
_cell_angle_beta 90.000000
_cell_angle_gamma 90.000000
_cell_volume 2027.351896
_symmetry_space_group_name_H-M "P M M A"
_symmetry_group_IT_number 51
_symmetry_cell_setting 'orthorhombic'
loop_
_space_group_symop_operation_xyz
x,y,z
1/2-x,-y,z
1/2+x,-y,-z
-x,y,-z
-x,-y,-z
1/2+x,y,-z
1/2-x,y,z
x,-y,z
loop_
_atom_site_type_symbol
_atom_site_label
_atom_site_fract_x
_atom_site_fract_y
_atom_site_fract_z
Si Si1 0.563221 0.000000 0.176756
Si Si2 0.936134 0.406477 0.597823
Si Si3 0.566723 0.831018 0.410000
Si Si4 0.931994 0.727724 0.739478
Si Si5 0.065883 0.823459 0.902339
Si Si6 0.935892 0.000000 0.625952
O O1 0.511822 0.916645 0.123528
O O2 0.750000 0.000000 0.198360
O O3 0.460993 0.000000 0.266683
O O4 0.750000 0.398644 0.594112
O O5 0.991818 0.500000 0.616771
O O6 0.001279 0.350911 0.682222
O O7 0.000000 0.376187 0.500000
O O8 0.500000 0.784792 0.500000
O O9 0.750000 0.811678 0.395000
O O10 0.463221 0.805947 0.323819
O O11 0.529794 0.926393 0.421226
O O12 0.750000 0.714452 0.759706
O O13 0.013489 0.749470 0.834746
O O14 0.250000 0.821163 0.906012
O O15 0.000000 0.799940 0.000000
O O16 0.750000 0.000000 0.603672
#
# Coordination Sequence:
#
# PCOD8213848 Si02
#       6
#     4   8   8   8   8   4
#     4  10  21  38  58  81 110 148 189 238 289 340
#     4   9  19  36  59  88 121 154 188 229 277 335
#     4  12  24  38  54  76 110 149 191 233 281 335
#     4  11  22  37  58  85 115 148 189 233 285 341
#     4  11  23  39  60  84 114 149 192 240 293 343
#     4  12  23  36  55  77 106 146 190 234 281 334
#
# _framework density 19.730170999999999
#
# number of rings (size 3 to 8) (size 9 to 14) (size 15 to 20)
#    0.000    1.200    2.000    5.100    0.000    4.000 
#    0.000    0.000    0.000    0.600    0.000    0.000 
#    0.000    0.000    0.000    0.000    0.000    0.000 
#
# Total GULP energy -495781.626999 kJ/mol
# GULP energy per Si atom -12394.540675 kJ/mol
# Density = 1.968526 g / cm^3
# Si number density = 19.730171 Si / 1000 Ang^3
#
#
#
# Elastic Constant Matrix: (Units=GPa)
#
#
# Indices 1 2 3 4 5 6 
#
# 1 49.0044 19.7791 27.3577 0.0000 0.0000 0.0000
# 2 19.7791 107.3376 52.5641 0.0000 0.0000 0.0000
# 3 27.3577 52.5641 161.3492 0.0000 0.0000 0.0000
# 4 0.0000 0.0000 0.0000 29.4327 0.0000 0.0000
# 5 0.0000 0.0000 0.0000 0.0000 36.2684 0.0000
# 6 0.0000 0.0000 0.0000 0.0000 0.0000 19.2687
#
#
#
# Elastic Compliance Matrix: (Units=1/GPa)
#
#
# Indices 1 2 3 4 5 6 
#
# 1 0.023225 -0.002798 -0.003027 0.000000 0.000000 0.000000
# 2 -0.002798 0.011422 -0.003247 0.000000 0.000000 0.000000
# 3 -0.003027 -0.003247 0.007769 0.000000 0.000000 0.000000
# 4 0.000000 0.000000 0.000000 0.033976 0.000000 0.000000
# 5 0.000000 0.000000 0.000000 0.000000 0.027572 0.000000
# 6 0.000000 0.000000 0.000000 0.000000 0.000000 0.051898
#
#
# Mechanical properties :
#
#
# Convention : Reuss Voigt Hill
#
# Bulk Modulus (GPa) = 41.19635 57.45477 49.32556
# Shear Modulus (GPa) = 27.45837 31.52667 29.49252
#
# Velocity S-wave (km/s) = 3.73459 4.00170 3.87045
# Velocity P-wave (km/s) = 6.28661 7.10879 6.71030
#
# Compressibility (1/GPa) = 0.02427400
#
# Stress axis : x y z
#
# Youngs Moduli (GPa) = 43.05686 87.55180 128.72332
#
# Poissons Ratio (x) = 0.24493 0.38959
# Poissons Ratio (y) = 0.12045 0.41792
# Poissons Ratio (z) = 0.13031 0.28425
#
# Static dielectric constant tensor:
#      x y z
#    x 3.695630 0.000000 0.000000 
#    y 0.000000 3.804310 0.000000 
#    z 0.000000 0.000000 3.612900 
# 
# 
# High freq. dielectric constant tensor:
#      x y z
#    x 1.767230 0.000000 0.000000 
#    y 0.000000 1.757240 0.000000 
#    z 0.000000 0.000000 1.769650 
# 
# From -- ./inp_files/20530.got.cif
#   From: 2010.03.12/outbox.cif.g09.slc.cpg/sg51_11_cif.got.tgz:20530.got - 2010.04.16 13:43:02.
