data_PCOD8213949
_publ_section_title
;
Structure prediction by ZEFSAII (Michael W. Deem and Ramdas Pophale) SiO2 
 PCOD8213949
Probable space group: P M M A
;
_chemical_formula_sum "Si O2"
_cell_formula_units_Z 40
_cell_length_a 16.753905
_cell_length_b 8.705528
_cell_length_c 14.361176
_cell_angle_alpha 90.000000
_cell_angle_beta 90.000000
_cell_angle_gamma 90.000000
_cell_volume 2094.600341
_symmetry_space_group_name_H-M "P M M A"
_symmetry_group_IT_number 51
_symmetry_cell_setting 'orthorhombic'
loop_
_space_group_symop_operation_xyz
x,y,z
1/2-x,-y,z
1/2+x,-y,-z
-x,y,-z
-x,-y,-z
1/2+x,y,-z
1/2-x,y,z
x,-y,z
loop_
_atom_site_type_symbol
_atom_site_label
_atom_site_fract_x
_atom_site_fract_y
_atom_site_fract_z
Si Si1 0.338348 0.325709 0.635944
Si Si2 0.395088 0.320523 0.158387
Si Si3 0.940027 0.179008 0.208706
Si Si4 0.750000 0.817478 0.519039
Si Si5 0.250000 0.181229 0.269620
Si Si6 0.341716 0.179545 0.972899
O O1 0.250000 0.323555 0.683542
O O2 0.370411 0.500000 0.627637
O O3 0.398977 0.223126 0.694501
O O4 0.329120 0.250368 0.532698
O O5 0.381111 0.500000 0.166339
O O6 0.480597 0.277496 0.198981
O O7 0.328261 0.237182 0.217993
O O8 0.390410 0.270422 0.051013
O O9 0.879568 0.221354 0.126034
O O10 0.961930 0.000000 0.208728
O O11 0.750000 0.757880 0.624660
O O12 0.750000 0.000000 0.511959
O O13 0.250000 0.000000 0.267569
O O14 0.250000 0.233091 0.972602
O O15 0.349121 0.000000 0.994852
#
# Coordination Sequence:
#
# PCOD8213949 Si02
#       6
#     8   8   8   4   4   8
#     4   9  19  35  58  89 123 152 184 235 293 346
#     4  12  25  39  58  86 120 156 196 243 295 347
#     4  11  22  37  60  88 120 160 199 240 286 339
#     4   9  19  37  64  89 112 149 193 238 290 353
#     4  11  23  43  66  85 110 151 199 244 290 349
#     4  10  21  38  60  86 118 158 200 238 282 339
#
# _framework density 19.096722
#
# number of rings (size 3 to 8) (size 9 to 14) (size 15 to 20)
#    0.600    1.000    1.000    4.500    0.000    6.400 
#    0.000    1.000    0.000    6.000    0.000    0.000 
#    0.000    0.000    0.000    0.000    0.000    0.000 
#
# Total GULP energy -496039.888211 kJ/mol
# GULP energy per Si atom -12400.997205 kJ/mol
# Density = 1.905326 g / cm^3
# Si number density = 19.096722 Si / 1000 Ang^3
#
#
#
# Elastic Constant Matrix: (Units=GPa)
#
#
# Indices 1 2 3 4 5 6 
#
# 1 67.9885 14.3774 12.3470 0.0000 0.0000 0.0000
# 2 14.3774 64.5256 32.8426 0.0000 0.0000 0.0000
# 3 12.3470 32.8426 97.5699 0.0000 0.0000 0.0000
# 4 0.0000 0.0000 0.0000 6.5222 0.0000 0.0000
# 5 0.0000 0.0000 0.0000 0.0000 -6.7391 0.0000
# 6 0.0000 0.0000 0.0000 0.0000 0.0000 28.4153
#
#
#
# Elastic Compliance Matrix: (Units=1/GPa)
#
#
# Indices 1 2 3 4 5 6 
#
# 1 0.015511 -0.002965 -0.000965 0.000000 0.000000 0.000000
# 2 -0.002965 0.019269 -0.006111 0.000000 0.000000 0.000000
# 3 -0.000965 -0.006111 0.012428 0.000000 0.000000 0.000000
# 4 0.000000 0.000000 0.000000 0.153322 0.000000 0.000000
# 5 0.000000 0.000000 0.000000 0.000000 -0.148389 0.000000
# 6 0.000000 0.000000 0.000000 0.000000 0.000000 0.035192
#
#
# Mechanical properties :
#
#
# Convention : Reuss Voigt Hill
#
# Bulk Modulus (GPa) = 36.86453 38.80199 37.83326
# Shear Modulus (GPa) = 42.93452 17.00748 29.97100
#
# Velocity S-wave (km/s) = 4.74673 2.98752 3.96590
# Velocity P-wave (km/s) = 7.02766 5.68007 6.38949
#
# Compressibility (1/GPa) = 0.02712634
#
# Stress axis : x y z
#
# Youngs Moduli (GPa) = 64.47211 51.89781 80.46307
#
# Poissons Ratio (x) = 0.15388 0.07763
# Poissons Ratio (y) = 0.19116 0.49169
# Poissons Ratio (z) = 0.06220 0.31713
#
# Static dielectric constant tensor:
#      x y z
#    x 3.842300 0.000000 0.000000 
#    y 0.000000 3.500180 0.000000 
#    z 0.000000 0.000000 3.512010 
# 
# 
# High freq. dielectric constant tensor:
#      x y z
#    x 1.736130 0.000000 0.000000 
#    y 0.000000 1.751630 0.000000 
#    z 0.000000 0.000000 1.740650 
# 
# From -- ./inp_files/23823.got.cif
#   From: 2010.03.12/outbox.cif.g09.slc.cpg/sg51_12_cif.got.tgz:23823.got - 2010.04.16 13:43:02.
