data_PCOD8213929
_publ_section_title
;
Structure prediction by ZEFSAII (Michael W. Deem and Ramdas Pophale) SiO2 
 PCOD8213929
Probable space group: P M M A
;
_chemical_formula_sum "Si O2"
_cell_formula_units_Z 48
_cell_length_a 9.033636
_cell_length_b 30.046910
_cell_length_c 9.472820
_cell_angle_alpha 90.000000
_cell_angle_beta 90.000000
_cell_angle_gamma 90.000000
_cell_volume 2571.234510
_symmetry_space_group_name_H-M "P M M A"
_symmetry_group_IT_number 51
_symmetry_cell_setting 'orthorhombic'
loop_
_space_group_symop_operation_xyz
x,y,z
1/2-x,-y,z
1/2+x,-y,-z
-x,y,-z
-x,-y,-z
1/2+x,y,-z
1/2-x,y,z
x,-y,z
loop_
_atom_site_type_symbol
_atom_site_label
_atom_site_fract_x
_atom_site_fract_y
_atom_site_fract_z
Si Si1 0.579277 0.447434 0.856599
Si Si2 0.576468 0.775808 0.353192
Si Si3 0.576501 0.876209 0.355436
Si Si4 0.574963 0.383569 0.349501
Si Si5 0.577214 0.300974 0.149613
Si Si6 0.922300 0.049352 0.146969
O O1 0.750000 0.431877 0.861717
O O2 0.566436 0.500000 0.840164
O O3 0.496363 0.427022 0.721861
O O4 0.500000 0.431036 0.000000
O O5 0.500000 0.762855 0.500000
O O6 0.750000 0.769390 0.378463
O O7 0.536408 0.826119 0.306392
O O8 0.520115 0.743570 0.228633
O O9 0.500000 0.888109 0.500000
O O10 0.750000 0.881889 0.376566
O O11 0.512673 0.912210 0.246478
O O12 0.500000 0.375089 0.500000
O O13 0.750000 0.390536 0.369347
O O14 0.537337 0.342164 0.249438
O O15 0.750000 0.298061 0.119572
O O16 0.500000 0.306512 0.000000
O O17 0.750000 0.056766 0.122055
O O18 0.953872 0.000000 0.210392
O O19 0.000000 0.055360 0.000000
#
# Coordination Sequence:
#
# PCOD8213929 Si02
#       6
#     8   8   8   8   8   8
#     4  10  21  38  60  85 113 145 180 219 263 310
#     4   9  18  34  53  74 101 132 167 206 251 302
#     4   9  18  32  50  72  99 130 164 205 251 300
#     4  11  23  38  57  81 109 142 179 219 264 312
#     4  10  22  37  54  78 106 136 171 212 257 306
#     4   9  18  32  48  68  96 129 165 206 251 298
#
# _framework density 18.668074000000001
#
# number of rings (size 3 to 8) (size 9 to 14) (size 15 to 20)
#    0.000    2.333    0.000    2.000    0.000    6.333 
#    0.000    0.000    0.000    0.000    0.000    0.000 
#    0.000    0.000    0.000    0.000    0.000    0.000 
#
# Total GULP energy -595239.301313 kJ/mol
# GULP energy per Si atom -12400.818777 kJ/mol
# Density = 1.862559 g / cm^3
# Si number density = 18.668074 Si / 1000 Ang^3
#
#
#
# Elastic Constant Matrix: (Units=GPa)
#
#
# Indices 1 2 3 4 5 6 
#
# 1 71.5259 48.1619 62.9442 0.0000 0.0000 0.0000
# 2 48.1619 95.6006 73.4044 0.0000 0.0000 0.0000
# 3 62.9442 73.4044 139.2646 0.0000 0.0000 0.0000
# 4 0.0000 0.0000 0.0000 45.2605 0.0000 0.0000
# 5 0.0000 0.0000 0.0000 0.0000 37.5893 0.0000
# 6 0.0000 0.0000 0.0000 0.0000 0.0000 24.9676
#
#
#
# Elastic Compliance Matrix: (Units=1/GPa)
#
#
# Indices 1 2 3 4 5 6 
#
# 1 0.025555 -0.006729 -0.008004 0.000000 0.000000 0.000000
# 2 -0.006729 0.019343 -0.007154 0.000000 0.000000 0.000000
# 3 -0.008004 -0.007154 0.014569 0.000000 0.000000 0.000000
# 4 0.000000 0.000000 0.000000 0.022094 0.000000 0.000000
# 5 0.000000 0.000000 0.000000 0.000000 0.026603 0.000000
# 6 0.000000 0.000000 0.000000 0.000000 0.000000 0.040052
#
#
# Mechanical properties :
#
#
# Convention : Reuss Voigt Hill
#
# Bulk Modulus (GPa) = 63.71926 75.04578 69.38252
# Shear Modulus (GPa) = 25.35217 29.68887 27.52052
#
# Velocity S-wave (km/s) = 3.68917 3.99225 3.84370
# Velocity P-wave (km/s) = 7.23557 7.84462 7.54624
#
# Compressibility (1/GPa) = 0.01569384
#
# Stress axis : x y z
#
# Youngs Moduli (GPa) = 39.13102 51.69743 68.63913
#
# Poissons Ratio (x) = 0.34787 0.54936
# Poissons Ratio (y) = 0.26331 0.49107
# Poissons Ratio (z) = 0.31319 0.36986
#
# Static dielectric constant tensor:
#      x y z
#    x 3.425030 0.000000 0.000000 
#    y 0.000000 3.711100 0.000000 
#    z 0.000000 0.000000 3.419550 
# 
# 
# High freq. dielectric constant tensor:
#      x y z
#    x 1.723720 0.000000 0.000000 
#    y 0.000000 1.737790 0.000000 
#    z 0.000000 0.000000 1.722310 
# 
# From -- ./inp_files/6007.got.cif
#   From: 2010.03.12/outbox.cif.g09.slc.cpg/sg51_4_cif.got.tgz:6007.got - 2010.04.16 13:43:02.
