data_PCOD8213733
_publ_section_title
;
Structure prediction by ZEFSAII (Michael W. Deem and Ramdas Pophale) SiO2 
 PCOD8213733
Probable space group: P M M A
;
_chemical_formula_sum "Si O2"
_cell_formula_units_Z 48
_cell_length_a 9.255520
_cell_length_b 8.944452
_cell_length_c 30.715231
_cell_angle_alpha 90.000000
_cell_angle_beta 90.000000
_cell_angle_gamma 90.000000
_cell_volume 2542.777426
_symmetry_space_group_name_H-M "P M M A"
_symmetry_group_IT_number 51
_symmetry_cell_setting 'orthorhombic'
loop_
_space_group_symop_operation_xyz
x,y,z
1/2-x,-y,z
1/2+x,-y,-z
-x,y,-z
-x,-y,-z
1/2+x,y,-z
1/2-x,y,z
x,-y,z
loop_
_atom_site_type_symbol
_atom_site_label
_atom_site_fract_x
_atom_site_fract_y
_atom_site_fract_z
Si Si1 0.918470 0.673433 0.543516
Si Si2 0.581659 0.826488 0.787435
Si Si3 0.091307 0.676968 0.960560
Si Si4 0.414617 0.175833 0.620264
Si Si5 0.579152 0.328172 0.136197
Si Si6 0.084475 0.675364 0.710046
O O1 0.750000 0.707666 0.537437
O O2 0.947972 0.500000 0.553390
O O3 0.000000 0.724741 0.500000
O O4 0.978864 0.769417 0.582998
O O5 0.750000 0.789826 0.791326
O O6 0.505567 0.781330 0.832174
O O7 0.517088 0.731879 0.748187
O O8 0.552668 0.000000 0.778396
O O9 0.250000 0.747869 0.964159
O O10 0.101127 0.500000 0.966125
O O11 0.026715 0.712662 0.912793
O O12 0.000000 0.748653 0.000000
O O13 0.250000 0.223578 0.609152
O O14 0.465313 0.248607 0.665335
O O15 0.429092 0.000000 0.625202
O O16 0.750000 0.302579 0.140904
O O17 0.541418 0.500000 0.147492
O O18 0.250000 0.717262 0.721226
O O19 0.064190 0.500000 0.704614
#
# Coordination Sequence:
#
# PCOD8213733 Si02
#       6
#     8   8   8   8   8   8
#     4  10  21  37  58  83 111 146 187 229 272 316
#     4  11  24  38  52  75 107 140 175 217 264 313
#     4   8  14  25  43  70 102 132 164 206 255 306
#     4  10  21  37  58  84 113 145 180 218 264 318
#     4   9  18  33  53  77 104 135 174 217 260 311
#     4  10  21  38  61  85 107 136 176 219 263 315
#
# _framework density 18.876996999999999
#
# number of rings (size 3 to 8) (size 9 to 14) (size 15 to 20)
#    0.000    2.333    0.000    3.500    0.000    8.333 
#    0.000    1.667    0.000    0.500    0.000    0.000 
#    0.000    0.000    0.000    0.000    0.000    0.000 
#
# Total GULP energy -595263.304192 kJ/mol
# GULP energy per Si atom -12401.318837 kJ/mol
# Density = 1.883403 g / cm^3
# Si number density = 18.876997 Si / 1000 Ang^3
#
#
#
# Elastic Constant Matrix: (Units=GPa)
#
#
# Indices 1 2 3 4 5 6 
#
# 1 83.4794 34.5287 64.4674 0.0000 0.0000 0.0000
# 2 34.5287 55.8504 44.0548 0.0000 0.0000 0.0000
# 3 64.4674 44.0548 146.8141 0.0000 0.0000 0.0000
# 4 0.0000 0.0000 0.0000 -14.5011 0.0000 0.0000
# 5 0.0000 0.0000 0.0000 0.0000 35.9282 0.0000
# 6 0.0000 0.0000 0.0000 0.0000 0.0000 27.6654
#
#
#
# Elastic Compliance Matrix: (Units=1/GPa)
#
#
# Indices 1 2 3 4 5 6 
#
# 1 0.020095 -0.007157 -0.006676 0.000000 0.000000 0.000000
# 2 -0.007157 0.026006 -0.004661 0.000000 0.000000 0.000000
# 3 -0.006676 -0.004661 0.011142 0.000000 0.000000 0.000000
# 4 0.000000 0.000000 0.000000 -0.068960 0.000000 0.000000
# 5 0.000000 0.000000 0.000000 0.000000 0.027833 0.000000
# 6 0.000000 0.000000 0.000000 0.000000 0.000000 0.036146
#
#
# Mechanical properties :
#
#
# Convention : Reuss Voigt Hill
#
# Bulk Modulus (GPa) = 49.37270 63.58286 56.47778
# Shear Modulus (GPa) = 52.08170 19.35802 35.71986
#
# Velocity S-wave (km/s) = 5.25832 3.20579 4.35471
# Velocity P-wave (km/s) = 7.94219 6.88902 7.43428
#
# Compressibility (1/GPa) = 0.02025411
#
# Stress axis : x y z
#
# Youngs Moduli (GPa) = 49.76312 38.45197 89.75393
#
# Poissons Ratio (x) = 0.27521 0.59922
# Poissons Ratio (y) = 0.35617 0.41834
# Poissons Ratio (z) = 0.33223 0.17922
#
# Static dielectric constant tensor:
#      x y z
#    x 3.544490 0.000000 0.000000 
#    y 0.000000 3.277020 0.000000 
#    z 0.000000 0.000000 3.662040 
# 
# 
# High freq. dielectric constant tensor:
#      x y z
#    x 1.730140 0.000000 0.000000 
#    y 0.000000 1.716790 0.000000 
#    z 0.000000 0.000000 1.748840 
# 
# From -- ./inp_files/36922.got.cif
#   From: 2010.03.12/outbox.cif.g09.slc.cpg/sg51_19_cif.got.tgz:36922.got - 2010.04.16 13:43:02.
