data_PCOD8213799
_publ_section_title
;
Structure prediction by ZEFSAII (Michael W. Deem and Ramdas Pophale) SiO2 
 PCOD8213799
Probable space group: P M M A
;
_chemical_formula_sum "Si O2"
_cell_formula_units_Z 48
_cell_length_a 15.600600
_cell_length_b 7.800060
_cell_length_c 18.819703
_cell_angle_alpha 90.000000
_cell_angle_beta 90.000000
_cell_angle_gamma 90.000000
_cell_volume 2290.087153
_symmetry_space_group_name_H-M "P M M A"
_symmetry_group_IT_number 51
_symmetry_cell_setting 'orthorhombic'
loop_
_space_group_symop_operation_xyz
x,y,z
1/2-x,-y,z
1/2+x,-y,-z
-x,y,-z
-x,-y,-z
1/2+x,y,-z
1/2-x,y,z
x,-y,z
loop_
_atom_site_type_symbol
_atom_site_label
_atom_site_fract_x
_atom_site_fract_y
_atom_site_fract_z
Si Si1 0.351686 0.000000 0.279692
Si Si2 0.845258 0.805314 0.169511
Si Si3 0.845368 0.000000 0.565911
Si Si4 0.095172 0.691230 0.526875
Si Si5 0.495183 0.203125 0.081695
Si Si6 0.652351 0.303139 0.322202
Si Si7 0.348632 0.306656 0.180613
O O1 0.382513 0.172717 0.239722
O O2 0.250000 0.000000 0.281173
O O3 0.395669 0.000000 0.358474
O O4 0.750000 0.717229 0.160639
O O5 0.874756 0.800424 0.252019
O O6 0.919584 0.720986 0.120996
O O7 0.836267 0.000000 0.145218
O O8 0.857332 0.170917 0.520731
O O9 0.750000 0.000000 0.592974
O O10 0.137342 0.500000 0.520126
O O11 0.096316 0.750809 0.609248
O O12 0.000000 0.683960 0.500000
O O13 0.408965 0.288489 0.111959
O O14 0.488863 0.000000 0.092390
O O15 0.500000 0.256601 0.000000
O O16 0.750000 0.262918 0.343477
O O17 0.638200 0.500000 0.302451
O O18 0.250000 0.267735 0.158270
O O19 0.356198 0.500000 0.211333
#
# Coordination Sequence:
#
# PCOD8213799 Si02
#       7
#     4   8   4   8   8   8   8
#     4   9  20  39  58  84 118 151 196 250 294 347
#     4   9  19  35  55  83 116 151 197 246 293 354
#     4  11  23  37  59  86 113 151 196 244 300 351
#     4  10  22  39  56  82 120 156 194 243 300 361
#     4  10  21  37  59  89 123 158 195 242 304 364
#     4   9  18  34  56  80 109 149 194 239 291 351
#     4  10  21  39  63  88 118 161 207 250 300 358
#
# _framework density 20.959902
#
# number of rings (size 3 to 8) (size 9 to 14) (size 15 to 20)
#    0.000    2.333    0.833    0.750    1.167    4.667 
#    0.000    5.000    0.000    2.000    0.000    0.000 
#    0.000    0.000    0.000    0.000    0.000    0.000 
#
# Total GULP energy -594895.770690 kJ/mol
# GULP energy per Si atom -12393.661889 kJ/mol
# Density = 2.091220 g / cm^3
# Si number density = 20.959902 Si / 1000 Ang^3
#
#
#
# Elastic Constant Matrix: (Units=GPa)
#
#
# Indices 1 2 3 4 5 6 
#
# 1 97.9812 24.5938 70.5503 0.0000 0.0000 0.0000
# 2 24.5938 96.2184 45.7254 0.0000 0.0000 0.0000
# 3 70.5503 45.7254 161.7111 0.0000 0.0000 0.0000
# 4 0.0000 0.0000 0.0000 13.2214 0.0000 0.0000
# 5 0.0000 0.0000 0.0000 0.0000 36.1616 0.0000
# 6 0.0000 0.0000 0.0000 0.0000 0.0000 9.1512
#
#
#
# Elastic Compliance Matrix: (Units=1/GPa)
#
#
# Indices 1 2 3 4 5 6 
#
# 1 0.014938 -0.000833 -0.006282 0.000000 0.000000 0.000000
# 2 -0.000833 0.012053 -0.003045 0.000000 0.000000 0.000000
# 3 -0.006282 -0.003045 0.009785 0.000000 0.000000 0.000000
# 4 0.000000 0.000000 0.000000 0.075635 0.000000 0.000000
# 5 0.000000 0.000000 0.000000 0.000000 0.027654 0.000000
# 6 0.000000 0.000000 0.000000 0.000000 0.000000 0.109275
#
#
# Mechanical properties :
#
#
# Convention : Reuss Voigt Hill
#
# Bulk Modulus (GPa) = 60.76181 70.84997 65.80589
# Shear Modulus (GPa) = 18.17228 26.04293 22.10761
#
# Velocity S-wave (km/s) = 2.94768 3.52875 3.25123
# Velocity P-wave (km/s) = 6.37476 7.10484 6.74968
#
# Compressibility (1/GPa) = 0.01645771
#
# Stress axis : x y z
#
# Youngs Moduli (GPa) = 66.94290 82.96805 102.19487
#
# Poissons Ratio (x) = 0.06912 0.64194
# Poissons Ratio (y) = 0.05577 0.31114
# Poissons Ratio (z) = 0.42050 0.25260
#
# Static dielectric constant tensor:
#      x y z
#    x 3.769340 0.000000 0.000000 
#    y 0.000000 4.475030 0.000000 
#    z 0.000000 0.000000 3.813480 
# 
# 
# High freq. dielectric constant tensor:
#      x y z
#    x 1.813980 0.000000 0.000000 
#    y 0.000000 1.814820 0.000000 
#    z 0.000000 0.000000 1.816570 
# 
# From -- ./inp_files/29624.got.cif
#   From: 2010.03.12/outbox.cif.g09.slc.cpg/sg51_15_cif.got.tgz:29624.got - 2010.04.16 13:43:02.
