data_PCOD8213754
_publ_section_title
;
Structure prediction by ZEFSAII (Michael W. Deem and Ramdas Pophale) SiO2 
 PCOD8213754
Probable space group: P M M A
;
_chemical_formula_sum "Si O2"
_cell_formula_units_Z 64
_cell_length_a 28.633323
_cell_length_b 9.078235
_cell_length_c 12.562561
_cell_angle_alpha 90.000000
_cell_angle_beta 90.000000
_cell_angle_gamma 90.000000
_cell_volume 3265.512546
_symmetry_space_group_name_H-M "P M M A"
_symmetry_group_IT_number 51
_symmetry_cell_setting 'orthorhombic'
loop_
_space_group_symop_operation_xyz
x,y,z
1/2-x,-y,z
1/2+x,-y,-z
-x,y,-z
-x,-y,-z
1/2+x,y,-z
1/2-x,y,z
x,-y,z
loop_
_atom_site_type_symbol
_atom_site_label
_atom_site_fract_x
_atom_site_fract_y
_atom_site_fract_z
Si Si1 0.153419 0.171384 0.783484
Si Si2 0.020732 0.674985 0.110295
Si Si3 0.126397 0.330229 0.396520
Si Si4 0.562861 0.325638 0.255679
Si Si5 0.196211 0.330429 0.582723
Si Si6 0.697452 0.170816 0.994943
Si Si7 0.875623 0.327855 0.845040
Si Si8 0.553500 0.169501 0.474427
O O1 0.105339 0.255832 0.811013
O O2 0.176550 0.229216 0.675696
O O3 0.142387 0.000000 0.768842
O O4 0.188281 0.201451 0.880739
O O5 0.022567 0.500000 0.105548
O O6 0.072511 0.738081 0.132375
O O7 0.986230 0.725654 0.205117
O O8 0.000000 0.738349 0.000000
O O9 0.110371 0.500000 0.406174
O O10 0.170228 0.295128 0.472050
O O11 0.140109 0.293075 0.275430
O O12 0.082839 0.226866 0.425527
O O13 0.568295 0.500000 0.254371
O O14 0.567967 0.268337 0.374988
O O15 0.250000 0.292566 0.562870
O O16 0.188861 0.500000 0.616195
O O17 0.750000 0.224190 0.969877
O O18 0.661643 0.257639 0.922629
O O19 0.691295 0.000000 0.968640
O O20 0.876148 0.500000 0.868480
O O21 0.500000 0.193707 0.500000
O O22 0.565253 0.000000 0.450244
#
# Coordination Sequence:
#
# PCOD8213754 Si02
#       8
#     8   8   8   8   8   8   8   8
#     4  11  22  38  60  87 120 155 197 249 303 358
#     4   9  18  33  54  83 117 153 194 242 295 350
#     4  10  21  38  59  85 118 155 196 245 300 355
#     4  11  21  35  59  87 118 156 197 245 301 356
#     4  10  21  37  58  85 116 152 196 247 303 360
#     4  10  23  42  61  84 117 157 198 244 302 364
#     4  10  21  38  61  88 117 152 200 250 296 353
#     4  11  23  37  55  83 119 158 199 242 289 348
#
# _framework density 19.598761
#
# number of rings (size 3 to 8) (size 9 to 14) (size 15 to 20)
#    0.000    1.750    1.250    3.000    0.000    6.000 
#    0.000    2.500    0.000    3.375    0.000    0.000 
#    0.000    0.000    0.000    0.000    0.000    0.000 
#
# Total GULP energy -793804.270917 kJ/mol
# GULP energy per Si atom -12403.191733 kJ/mol
# Density = 1.955415 g / cm^3
# Si number density = 19.598761 Si / 1000 Ang^3
#
#
#
# Elastic Constant Matrix: (Units=GPa)
#
#
# Indices 1 2 3 4 5 6 
#
# 1 152.7648 55.2242 60.6315 0.0000 0.0000 0.0000
# 2 55.2242 72.8531 41.2833 0.0000 0.0000 0.0000
# 3 60.6315 41.2833 114.2734 0.0000 0.0000 0.0000
# 4 0.0000 0.0000 0.0000 22.4476 0.0000 0.0000
# 5 0.0000 0.0000 0.0000 0.0000 32.0778 0.0000
# 6 0.0000 0.0000 0.0000 0.0000 0.0000 23.8889
#
#
#
# Elastic Compliance Matrix: (Units=1/GPa)
#
#
# Indices 1 2 3 4 5 6 
#
# 1 0.009859 -0.005670 -0.003183 0.000000 0.000000 0.000000
# 2 -0.005670 0.020520 -0.004405 0.000000 0.000000 0.000000
# 3 -0.003183 -0.004405 0.012031 0.000000 0.000000 0.000000
# 4 0.000000 0.000000 0.000000 0.044548 0.000000 0.000000
# 5 0.000000 0.000000 0.000000 0.000000 0.031174 0.000000
# 6 0.000000 0.000000 0.000000 0.000000 0.000000 0.041860
#
#
# Mechanical properties :
#
#
# Convention : Reuss Voigt Hill
#
# Bulk Modulus (GPa) = 62.91191 72.68548 67.79870
# Shear Modulus (GPa) = 26.06802 27.86633 26.96717
#
# Velocity S-wave (km/s) = 3.65099 3.77482 3.71342
# Velocity P-wave (km/s) = 7.06701 7.49442 7.28385
#
# Compressibility (1/GPa) = 0.01589524
#
# Stress axis : x y z
#
# Youngs Moduli (GPa) = 101.43280 48.73256 83.11870
#
# Poissons Ratio (x) = 0.27630 0.26454
# Poissons Ratio (y) = 0.57509 0.36614
# Poissons Ratio (z) = 0.32282 0.21467
#
# Static dielectric constant tensor:
#      x y z
#    x 3.951070 0.000000 0.000000 
#    y 0.000000 3.446330 0.000000 
#    z 0.000000 0.000000 3.626400 
# 
# 
# High freq. dielectric constant tensor:
#      x y z
#    x 1.776580 0.000000 0.000000 
#    y 0.000000 1.747540 0.000000 
#    z 0.000000 0.000000 1.769230 
# 
# From -- ./inp_files/19592.got.cif
#   From: 2010.03.12/outbox.cif.g09.slc.cpg/sg51_10_cif.got.tgz:19592.got - 2010.04.16 13:43:02.
