data_PCOD8213133
_publ_section_title
;
Structure prediction by ZEFSAII (Michael W. Deem and Ramdas Pophale) SiO2 
 PCOD8213133
Probable space group: P M M A
;
_chemical_formula_sum "Si O2"
_cell_formula_units_Z 64
_cell_length_a 14.323609
_cell_length_b 9.372094
_cell_length_c 25.820359
_cell_angle_alpha 90.000000
_cell_angle_beta 90.000000
_cell_angle_gamma 90.000000
_cell_volume 3466.182054
_symmetry_space_group_name_H-M "P M M A"
_symmetry_group_IT_number 51
_symmetry_cell_setting 'orthorhombic'
loop_
_space_group_symop_operation_xyz
x,y,z
1/2-x,-y,z
1/2+x,-y,-z
-x,y,-z
-x,-y,-z
1/2+x,y,-z
1/2-x,y,z
x,-y,z
loop_
_atom_site_type_symbol
_atom_site_label
_atom_site_fract_x
_atom_site_fract_y
_atom_site_fract_z
Si Si1 0.356256 0.333889 0.596431
Si Si2 0.142061 0.834053 0.127934
Si Si3 0.502757 0.331930 0.681849
Si Si4 0.360677 0.841568 0.500216
Si Si5 0.640518 0.836037 0.614501
Si Si6 0.997932 0.664894 0.938949
Si Si7 0.142664 0.836060 0.875937
Si Si8 0.996478 0.161576 0.214803
O O1 0.250000 0.284753 0.606376
O O2 0.362926 0.500000 0.585215
O O3 0.413799 0.289440 0.647023
O O4 0.399814 0.259200 0.545482
O O5 0.250000 0.789600 0.133735
O O6 0.094722 0.741686 0.082723
O O7 0.089835 0.803419 0.182081
O O8 0.131124 0.000000 0.112942
O O9 0.516343 0.500000 0.685815
O O10 0.594688 0.265089 0.656867
O O11 0.487204 0.271203 0.738677
O O12 0.250000 0.842068 0.500665
O O13 0.393287 0.789857 0.443244
O O14 0.399156 0.000000 0.511042
O O15 0.750000 0.814955 0.620443
O O16 0.612712 0.000000 0.624897
O O17 0.995603 0.500000 0.921974
O O18 0.092062 0.736573 0.917596
O O19 0.000000 0.682362 0.000000
O O20 0.250000 0.788773 0.871496
O O21 0.094975 0.816354 0.820193
O O22 0.133017 0.000000 0.894223
O O23 0.001281 0.000000 0.236165
#
# Coordination Sequence:
#
# PCOD8213133 Si02
#       8
#     8   8   8   8   8   8   8   8
#     4   9  19  35  51  69  99 136 167 199 247 306
#     4   9  19  37  60  82 104 138 184 227 268 314
#     4  11  23  35  50  76 105 133 170 212 254 306
#     4   8  15  30  52  75  96 122 162 208 251 301
#     4   9  19  36  55  74  99 131 165 205 256 310
#     4  10  21  35  52  81 121 155 181 215 259 308
#     4   9  19  37  60  83 106 138 183 228 267 311
#     4   9  19  36  55  76 104 135 170 217 269 314
#
# _framework density 18.464120000000001
#
# number of rings (size 3 to 8) (size 9 to 14) (size 15 to 20)
#    0.000    2.750    0.000    2.250    0.000    7.250 
#    0.000    7.500    0.000    0.000    0.000    0.000 
#    0.000    0.000    0.000    0.000    0.000    0.000 
#
# Total GULP energy -793564.415422 kJ/mol
# GULP energy per Si atom -12399.443991 kJ/mol
# Density = 1.842209 g / cm^3
# Si number density = 18.464120 Si / 1000 Ang^3
#
#
#
# Elastic Constant Matrix: (Units=GPa)
#
#
# Indices 1 2 3 4 5 6 
#
# 1 115.7222 45.7779 46.6412 0.0000 0.0000 0.0000
# 2 45.7779 84.0332 62.2229 0.0000 0.0000 0.0000
# 3 46.6412 62.2229 110.2182 0.0000 0.0000 0.0000
# 4 0.0000 0.0000 0.0000 50.1300 0.0000 0.0000
# 5 0.0000 0.0000 0.0000 0.0000 18.3125 0.0000
# 6 0.0000 0.0000 0.0000 0.0000 0.0000 15.9876
#
#
#
# Elastic Compliance Matrix: (Units=1/GPa)
#
#
# Indices 1 2 3 4 5 6 
#
# 1 0.011331 -0.004506 -0.002251 0.000000 0.000000 0.000000
# 2 -0.004506 0.022239 -0.010648 0.000000 0.000000 0.000000
# 3 -0.002251 -0.010648 0.016037 0.000000 0.000000 0.000000
# 4 0.000000 0.000000 0.000000 0.019948 0.000000 0.000000
# 5 0.000000 0.000000 0.000000 0.000000 0.054607 0.000000
# 6 0.000000 0.000000 0.000000 0.000000 0.000000 0.062549
#
#
# Mechanical properties :
#
#
# Convention : Reuss Voigt Hill
#
# Bulk Modulus (GPa) = 67.58281 68.80640 68.19461
# Shear Modulus (GPa) = 22.07950 27.24146 24.66048
#
# Velocity S-wave (km/s) = 3.46179 3.84522 3.65854
# Velocity P-wave (km/s) = 7.25675 7.55382 7.40677
#
# Compressibility (1/GPa) = 0.01479666
#
# Stress axis : x y z
#
# Youngs Moduli (GPa) = 88.25202 44.96571 62.35578
#
# Poissons Ratio (x) = 0.20260 0.14038
# Poissons Ratio (y) = 0.39764 0.66398
# Poissons Ratio (z) = 0.19869 0.47881
#
# Static dielectric constant tensor:
#      x y z
#    x 3.471330 0.000000 0.000000 
#    y 0.000000 3.467780 0.000000 
#    z 0.000000 0.000000 3.338620 
# 
# 
# High freq. dielectric constant tensor:
#      x y z
#    x 1.719740 0.000000 0.000000 
#    y 0.000000 1.713500 0.000000 
#    z 0.000000 0.000000 1.711700 
# 
# From -- ./inp_files/35744.got.cif
#   From: 2010.03.12/outbox.cif.g09.slc.cpg/sg51_18_cif.got.tgz:35744.got - 2010.04.16 13:43:02.
