data_PCOD8213291
_publ_section_title
;
Structure prediction by ZEFSAII (Michael W. Deem and Ramdas Pophale) SiO2 
 PCOD8213291
Probable space group: P M M A
;
_chemical_formula_sum "Si O2"
_cell_formula_units_Z 48
_cell_length_a 9.237236
_cell_length_b 9.271823
_cell_length_c 30.799986
_cell_angle_alpha 90.000000
_cell_angle_beta 90.000000
_cell_angle_gamma 90.000000
_cell_volume 2637.896131
_symmetry_space_group_name_H-M "P M M A"
_symmetry_group_IT_number 51
_symmetry_cell_setting 'orthorhombic'
loop_
_space_group_symop_operation_xyz
x,y,z
1/2-x,-y,z
1/2+x,-y,-z
-x,y,-z
-x,-y,-z
1/2+x,y,-z
1/2-x,y,z
x,-y,z
loop_
_atom_site_type_symbol
_atom_site_label
_atom_site_fract_x
_atom_site_fract_y
_atom_site_fract_z
Si Si1 0.582258 0.333575 0.374238
Si Si2 0.413347 0.671736 0.458696
Si Si3 0.420227 0.666437 0.213014
Si Si4 0.416415 0.332043 0.873130
Si Si5 0.582932 0.169234 0.287598
Si Si6 0.918291 0.832752 0.042275
O O1 0.750000 0.313529 0.386146
O O2 0.546747 0.500000 0.363767
O O3 0.490240 0.275164 0.414774
O O4 0.536550 0.239457 0.333029
O O5 0.500000 0.734493 0.500000
O O6 0.250000 0.731768 0.459810
O O7 0.414432 0.500000 0.460401
O O8 0.250000 0.690366 0.210201
O O9 0.460194 0.500000 0.222429
O O10 0.489475 0.717905 0.167814
O O11 0.483366 0.764731 0.250660
O O12 0.250000 0.291003 0.863563
O O13 0.435236 0.500000 0.882437
O O14 0.475863 0.249415 0.915281
O O15 0.750000 0.204855 0.277084
O O16 0.554595 0.000000 0.290500
O O17 0.750000 0.802383 0.035067
O O18 0.952992 0.000000 0.049278
O O19 0.000000 0.772324 0.000000
#
# Coordination Sequence:
#
# PCOD8213291 Si02
#       6
#     8   8   8   8   8   8
#     4   9  17  30  49  72  98 129 164 202 246 295
#     4   9  16  26  43  69  99 128 160 201 247 293
#     4  10  21  36  54  77 104 133 167 209 256 304
#     4   9  18  33  52  73  98 129 164 202 246 296
#     4  10  21  36  54  76 102 134 171 209 251 302
#     4   9  18  32  49  70  97 129 164 201 242 290
#
# _framework density 18.19632
#
# number of rings (size 3 to 8) (size 9 to 14) (size 15 to 20)
#    0.000    2.667    0.000    1.500    0.000    6.333 
#    0.000    3.333    0.000    0.500    0.000    0.000 
#    0.000    0.000    0.000    0.000    0.000    0.000 
#
# Total GULP energy -595321.816371 kJ/mol
# GULP energy per Si atom -12402.537841 kJ/mol
# Density = 1.815490 g / cm^3
# Si number density = 18.196320 Si / 1000 Ang^3
#
#
#
# Elastic Constant Matrix: (Units=GPa)
#
#
# Indices 1 2 3 4 5 6 
#
# 1 94.0841 40.3118 88.8486 0.0000 0.0000 0.0000
# 2 40.3118 56.2697 66.2819 0.0000 0.0000 0.0000
# 3 88.8486 66.2819 187.6337 0.0000 0.0000 0.0000
# 4 0.0000 0.0000 0.0000 -3.9638 0.0000 0.0000
# 5 0.0000 0.0000 0.0000 0.0000 38.9412 0.0000
# 6 0.0000 0.0000 0.0000 0.0000 0.0000 18.9399
#
#
#
# Elastic Compliance Matrix: (Units=1/GPa)
#
#
# Indices 1 2 3 4 5 6 
#
# 1 0.020166 -0.005479 -0.007614 0.000000 0.000000 0.000000
# 2 -0.005479 0.031925 -0.008683 0.000000 0.000000 0.000000
# 3 -0.007614 -0.008683 0.012002 0.000000 0.000000 0.000000
# 4 0.000000 0.000000 0.000000 -0.252286 0.000000 0.000000
# 5 0.000000 0.000000 0.000000 0.000000 0.025680 0.000000
# 6 0.000000 0.000000 0.000000 0.000000 0.000000 0.052799
#
#
# Mechanical properties :
#
#
# Convention : Reuss Voigt Hill
#
# Bulk Modulus (GPa) = 48.68102 80.98577 64.83340
# Shear Modulus (GPa) = -84.29482 20.28648 -32.00417
#
# Velocity S-wave (km/s) = -6.81365 3.34259 -4.19839
# Velocity P-wave (km/s) = 5.92366 7.71365 3.49362
#
# Compressibility (1/GPa) = 0.02054189
#
# Stress axis : x y z
#
# Youngs Moduli (GPa) = 49.58753 31.32370 83.31791
#
# Poissons Ratio (x) = 0.17161 0.63437
# Poissons Ratio (y) = 0.27167 0.72347
# Poissons Ratio (z) = 0.37755 0.27199
#
# Static dielectric constant tensor:
#      x y z
#    x 3.378510 0.000000 0.000000 
#    y 0.000000 3.124740 0.000000 
#    z 0.000000 0.000000 3.530020 
# 
# 
# High freq. dielectric constant tensor:
#      x y z
#    x 1.703450 0.000000 0.000000 
#    y 0.000000 1.678550 0.000000 
#    z 0.000000 0.000000 1.718120 
# 
# From -- ./inp_files/36897.got.cif
#   From: 2010.03.12/outbox.cif.g09.slc.cpg/sg51_19_cif.got.tgz:36897.got - 2010.04.16 13:43:02.
