data_PCOD8213615
_publ_section_title
;
Structure prediction by ZEFSAII (Michael W. Deem and Ramdas Pophale) SiO2 
 PCOD8213615
Probable space group: P M M A
;
_chemical_formula_sum "Si O2"
_cell_formula_units_Z 48
_cell_length_a 18.907120
_cell_length_b 8.677936
_cell_length_c 14.730580
_cell_angle_alpha 90.000000
_cell_angle_beta 90.000000
_cell_angle_gamma 90.000000
_cell_volume 2416.916633
_symmetry_space_group_name_H-M "P M M A"
_symmetry_group_IT_number 51
_symmetry_cell_setting 'orthorhombic'
loop_
_space_group_symop_operation_xyz
x,y,z
1/2-x,-y,z
1/2+x,-y,-z
-x,y,-z
-x,-y,-z
1/2+x,y,-z
1/2-x,y,z
x,-y,z
loop_
_atom_site_type_symbol
_atom_site_label
_atom_site_fract_x
_atom_site_fract_y
_atom_site_fract_z
Si Si1 0.095827 0.179721 0.048159
Si Si2 0.670590 0.323210 0.796721
Si Si3 0.331403 0.822466 0.528634
Si Si4 0.436569 0.822721 0.685610
Si Si5 0.045861 0.680675 0.876125
Si Si6 0.422055 0.319075 0.372066
O O1 0.161530 0.222923 0.112170
O O2 0.026030 0.229366 0.102675
O O3 0.094333 0.000000 0.027223
O O4 0.102978 0.269171 0.952219
O O5 0.750000 0.301393 0.760549
O O6 0.654387 0.500000 0.820927
O O7 0.618508 0.264403 0.718347
O O8 0.250000 0.767707 0.532692
O O9 0.365423 0.798979 0.627716
O O10 0.374258 0.719575 0.458066
O O11 0.337000 0.000000 0.498234
O O12 0.426981 0.723159 0.776415
O O13 0.503128 0.767859 0.625019
O O14 0.447709 0.000000 0.712303
O O15 0.031126 0.500000 0.881442
O O16 0.436758 0.500000 0.370924
#
# Coordination Sequence:
#
# PCOD8213615 Si02
#       6
#     8   8   8   8   8   8
#     4  11  21  35  57  85 116 152 194 239 288 346
#     4  10  21  37  56  82 120 161 197 240 295 352
#     4  10  23  42  61  83 117 158 197 242 297 352
#     4  11  22  38  61  89 117 152 199 249 295 349
#     4  11  21  36  59  85 115 151 191 240 294 345
#     4  11  22  37  60  89 119 154 196 244 296 353
#
# _framework density 19.860014
#
# number of rings (size 3 to 8) (size 9 to 14) (size 15 to 20)
#    0.000    1.333    1.667    6.000    0.000    5.333 
#    0.000    0.833    0.000    3.000    0.000    0.000 
#    0.000    0.000    0.000    0.000    0.000    0.000 
#
# Total GULP energy -595394.404497 kJ/mol
# GULP energy per Si atom -12404.050094 kJ/mol
# Density = 1.981481 g / cm^3
# Si number density = 19.860014 Si / 1000 Ang^3
#
#
#
# Elastic Constant Matrix: (Units=GPa)
#
#
# Indices 1 2 3 4 5 6 
#
# 1 70.6865 17.7630 30.3476 0.0000 0.0000 0.0000
# 2 17.7630 72.4029 26.3642 0.0000 0.0000 0.0000
# 3 30.3476 26.3642 103.5208 0.0000 0.0000 0.0000
# 4 0.0000 0.0000 0.0000 37.5251 0.0000 0.0000
# 5 0.0000 0.0000 0.0000 0.0000 22.8412 0.0000
# 6 0.0000 0.0000 0.0000 0.0000 0.0000 21.4892
#
#
#
# Elastic Compliance Matrix: (Units=1/GPa)
#
#
# Indices 1 2 3 4 5 6 
#
# 1 0.016596 -0.002535 -0.004219 0.000000 0.000000 0.000000
# 2 -0.002535 0.015611 -0.003232 0.000000 0.000000 0.000000
# 3 -0.004219 -0.003232 0.011720 0.000000 0.000000 0.000000
# 4 0.000000 0.000000 0.000000 0.026649 0.000000 0.000000
# 5 0.000000 0.000000 0.000000 0.000000 0.043781 0.000000
# 6 0.000000 0.000000 0.000000 0.000000 0.000000 0.046535
#
#
# Mechanical properties :
#
#
# Convention : Reuss Voigt Hill
#
# Bulk Modulus (GPa) = 41.74966 43.95108 42.85037
# Shear Modulus (GPa) = 26.47625 27.84680 27.16152
#
# Velocity S-wave (km/s) = 3.65518 3.74860 3.70219
# Velocity P-wave (km/s) = 6.23550 6.39644 6.31648
#
# Compressibility (1/GPa) = 0.02395229
#
# Stress axis : x y z
#
# Youngs Moduli (GPa) = 60.25718 64.05908 85.32365
#
# Poissons Ratio (x) = 0.16239 0.36002
# Poissons Ratio (y) = 0.15275 0.27581
# Poissons Ratio (z) = 0.25425 0.20707
#
# Static dielectric constant tensor:
#      x y z
#    x 3.523850 0.000000 0.000000 
#    y 0.000000 3.663880 0.000000 
#    z 0.000000 0.000000 3.782600 
# 
# 
# High freq. dielectric constant tensor:
#      x y z
#    x 1.756690 0.000000 0.000000 
#    y 0.000000 1.780360 0.000000 
#    z 0.000000 0.000000 1.783190 
# 
# From -- ./inp_files/24819.got.cif
#   From: 2010.03.12/outbox.cif.g09.slc.cpg/sg51_13_cif.got.tgz:24819.got - 2010.04.16 13:43:02.
