data_PCOD8213454
_publ_section_title
;
Structure prediction by ZEFSAII (Michael W. Deem and Ramdas Pophale) SiO2 
 PCOD8213454
Probable space group: P M M A
;
_chemical_formula_sum "Si O2"
_cell_formula_units_Z 56
_cell_length_a 14.731705
_cell_length_b 8.948196
_cell_length_c 21.560758
_cell_angle_alpha 90.000000
_cell_angle_beta 90.000000
_cell_angle_gamma 90.000000
_cell_volume 2842.186203
_symmetry_space_group_name_H-M "P M M A"
_symmetry_group_IT_number 51
_symmetry_cell_setting 'orthorhombic'
loop_
_space_group_symop_operation_xyz
x,y,z
1/2-x,-y,z
1/2+x,-y,-z
-x,y,-z
-x,-y,-z
1/2+x,y,-z
1/2-x,y,z
x,-y,z
loop_
_atom_site_type_symbol
_atom_site_label
_atom_site_fract_x
_atom_site_fract_y
_atom_site_fract_z
Si Si1 0.501619 0.826873 0.349571
Si Si2 0.646304 0.675344 0.575338
Si Si3 0.855184 0.324132 0.864170
Si Si4 0.142418 0.831722 0.010569
Si Si5 0.509948 0.825157 0.206908
Si Si6 0.643599 0.325364 0.113824
Si Si7 0.352921 0.824674 0.550745
O O1 0.412139 0.735005 0.367326
O O2 0.527649 0.794076 0.278963
O O3 0.586203 0.773524 0.391361
O O4 0.479853 0.000000 0.360414
O O5 0.750000 0.723188 0.587605
O O6 0.635291 0.500000 0.570260
O O7 0.610332 0.745954 0.511252
O O8 0.750000 0.284989 0.852392
O O9 0.872277 0.500000 0.864063
O O10 0.890655 0.259827 0.929619
O O11 0.913105 0.246576 0.810401
O O12 0.250000 0.833696 0.009058
O O13 0.103218 0.000000 0.013233
O O14 0.106000 0.749944 0.949132
O O15 0.592326 0.747085 0.171411
O O16 0.508338 0.000000 0.191174
O O17 0.750000 0.294568 0.122914
O O18 0.621789 0.500000 0.110301
O O19 0.250000 0.774324 0.565335
O O20 0.359430 0.000000 0.539239
#
# Coordination Sequence:
#
# PCOD8213454 Si02
#       7
#     8   8   8   8   8   8   8
#     4  10  22  38  56  80 110 146 186 226 269 319
#     4  10  21  36  56  84 114 143 178 222 272 323
#     4  10  21  38  59  82 111 146 184 230 283 337
#     4   9  17  32  57  86 112 140 179 229 283 333
#     4  11  24  39  56  81 112 148 191 233 274 326
#     4  10  21  38  59  83 113 147 184 228 278 333
#     4   9  18  35  59  84 110 141 178 221 270 323
#
# _framework density 19.703143000000001
#
# number of rings (size 3 to 8) (size 9 to 14) (size 15 to 20)
#    0.000    2.143    0.000    2.571    0.000    9.429 
#    0.000    7.143    0.000    1.714    0.000    0.000 
#    0.000    0.000    0.000    0.000    0.000    0.000 
#
# Total GULP energy -694629.888650 kJ/mol
# GULP energy per Si atom -12404.105154 kJ/mol
# Density = 1.965830 g / cm^3
# Si number density = 19.703143 Si / 1000 Ang^3
#
#
#
# Elastic Constant Matrix: (Units=GPa)
#
#
# Indices 1 2 3 4 5 6 
#
# 1 57.8564 24.3711 17.5741 0.0000 0.0000 0.0000
# 2 24.3711 87.4409 29.2134 0.0000 0.0000 0.0000
# 3 17.5741 29.2134 74.1439 0.0000 0.0000 0.0000
# 4 0.0000 0.0000 0.0000 13.5621 0.0000 0.0000
# 5 0.0000 0.0000 0.0000 0.0000 28.1901 0.0000
# 6 0.0000 0.0000 0.0000 0.0000 0.0000 29.6442
#
#
#
# Elastic Compliance Matrix: (Units=1/GPa)
#
#
# Indices 1 2 3 4 5 6 
#
# 1 0.020128 -0.004625 -0.002949 0.000000 0.000000 0.000000
# 2 -0.004625 0.014233 -0.004512 0.000000 0.000000 0.000000
# 3 -0.002949 -0.004512 0.015964 0.000000 0.000000 0.000000
# 4 0.000000 0.000000 0.000000 0.073735 0.000000 0.000000
# 5 0.000000 0.000000 0.000000 0.000000 0.035473 0.000000
# 6 0.000000 0.000000 0.000000 0.000000 0.000000 0.033733
#
#
# Mechanical properties :
#
#
# Convention : Reuss Voigt Hill
#
# Bulk Modulus (GPa) = 38.23469 40.19537 39.21503
# Shear Modulus (GPa) = 22.10881 24.16479 23.13680
#
# Velocity S-wave (km/s) = 3.35340 3.50586 3.43048
# Velocity P-wave (km/s) = 5.86867 6.06901 5.96968
#
# Compressibility (1/GPa) = 0.02615426
#
# Stress axis : x y z
#
# Youngs Moduli (GPa) = 49.68204 70.26125 62.64178
#
# Poissons Ratio (x) = 0.32495 0.18471
# Poissons Ratio (y) = 0.22977 0.28261
# Poissons Ratio (z) = 0.14649 0.31699
#
# Static dielectric constant tensor:
#      x y z
#    x 3.607800 0.000000 0.000000 
#    y 0.000000 3.648390 0.000000 
#    z 0.000000 0.000000 3.587340 
# 
# 
# High freq. dielectric constant tensor:
#      x y z
#    x 1.771500 0.000000 0.000000 
#    y 0.000000 1.774580 0.000000 
#    z 0.000000 0.000000 1.764150 
# 
# From -- ./inp_files/33359.got.cif
#   From: 2010.03.12/outbox.cif.g09.slc.cpg/sg51_17_cif.got.tgz:33359.got - 2010.04.16 13:43:02.
