data_PCOD8213979
_publ_section_title
;
Structure prediction by ZEFSAII (Michael W. Deem and Ramdas Pophale) SiO2 
 PCOD8213979
Probable space group: P M M A
;
_chemical_formula_sum "Si O2"
_cell_formula_units_Z 48
_cell_length_a 9.256056
_cell_length_b 9.297893
_cell_length_c 30.636637
_cell_angle_alpha 90.000000
_cell_angle_beta 90.000000
_cell_angle_gamma 90.000000
_cell_volume 2636.644687
_symmetry_space_group_name_H-M "P M M A"
_symmetry_group_IT_number 51
_symmetry_cell_setting 'orthorhombic'
loop_
_space_group_symop_operation_xyz
x,y,z
1/2-x,-y,z
1/2+x,-y,-z
-x,y,-z
-x,-y,-z
1/2+x,y,-z
1/2-x,y,z
x,-y,z
loop_
_atom_site_type_symbol
_atom_site_label
_atom_site_fract_x
_atom_site_fract_y
_atom_site_fract_z
Si Si1 0.411020 0.828878 0.540087
Si Si2 0.918088 0.830108 0.120110
Si Si3 0.583806 0.331812 0.806891
Si Si4 0.918516 0.334005 0.955272
Si Si5 0.418271 0.660093 0.292538
Si Si6 0.914209 0.169197 0.364093
O O1 0.500000 0.760275 0.500000
O O2 0.250000 0.768275 0.535548
O O3 0.473395 0.784272 0.587787
O O4 0.410175 0.000000 0.536629
O O5 0.750000 0.790238 0.113959
O O6 0.974946 0.763120 0.165007
O O7 0.011155 0.765886 0.080957
O O8 0.941578 0.000000 0.121425
O O9 0.750000 0.296874 0.819319
O O10 0.553680 0.500000 0.814997
O O11 0.552364 0.289490 0.756887
O O12 0.750000 0.295494 0.960704
O O13 0.938366 0.500000 0.941416
O O14 0.000000 0.300694 0.000000
O O15 0.250000 0.661674 0.302363
O O16 0.480496 0.500000 0.299264
O O17 0.492144 0.765721 0.325969
O O18 0.750000 0.222072 0.359123
O O19 0.923778 0.000000 0.359104
#
# Coordination Sequence:
#
# PCOD8213979 Si02
#       6
#     8   8   8   8   8   8
#     4   8  14  25  41  63  92 124 158 198 243 291
#     4  11  24  38  53  79 113 144 174 211 257 306
#     4   9  19  37  58  77  99 131 172 215 257 302
#     4  10  21  38  61  86 110 140 179 219 258 302
#     4   9  19  35  53  74 100 130 167 210 253 300
#     4   9  18  31  47  71 102 131 161 202 251 301
#
# _framework density 18.204954000000001
#
# number of rings (size 3 to 8) (size 9 to 14) (size 15 to 20)
#    0.000    2.667    0.000    3.500    0.000    7.667 
#    0.000    6.667    0.000    0.500    0.000    0.000 
#    0.000    0.000    0.000    0.000    0.000    0.000 
#
# Total GULP energy -595057.800330 kJ/mol
# GULP energy per Si atom -12397.037507 kJ/mol
# Density = 1.816352 g / cm^3
# Si number density = 18.204954 Si / 1000 Ang^3
#
#
#
# Elastic Constant Matrix: (Units=GPa)
#
#
# Indices 1 2 3 4 5 6 
#
# 1 100.5253 41.1645 75.2091 0.0000 0.0000 0.0000
# 2 41.1645 45.8359 49.1387 0.0000 0.0000 0.0000
# 3 75.2091 49.1387 136.9183 0.0000 0.0000 0.0000
# 4 0.0000 0.0000 0.0000 39.1400 0.0000 0.0000
# 5 0.0000 0.0000 0.0000 0.0000 40.4867 0.0000
# 6 0.0000 0.0000 0.0000 0.0000 0.0000 27.8758
#
#
#
# Elastic Compliance Matrix: (Units=1/GPa)
#
#
# Indices 1 2 3 4 5 6 
#
# 1 0.019197 -0.009648 -0.007083 0.000000 0.000000 0.000000
# 2 -0.009648 0.040309 -0.009167 0.000000 0.000000 0.000000
# 3 -0.007083 -0.009167 0.014484 0.000000 0.000000 0.000000
# 4 0.000000 0.000000 0.000000 0.025549 0.000000 0.000000
# 5 0.000000 0.000000 0.000000 0.000000 0.024699 0.000000
# 6 0.000000 0.000000 0.000000 0.000000 0.000000 0.035873
#
#
# Mechanical properties :
#
#
# Convention : Reuss Voigt Hill
#
# Bulk Modulus (GPa) = 45.05404 68.25602 56.65503
# Shear Modulus (GPa) = 22.79916 29.35165 26.07540
#
# Velocity S-wave (km/s) = 3.54271 4.01969 3.78871
# Velocity P-wave (km/s) = 6.44487 7.68885 7.09418
#
# Compressibility (1/GPa) = 0.02219557
#
# Stress axis : x y z
#
# Youngs Moduli (GPa) = 52.09020 24.80828 69.04178
#
# Poissons Ratio (x) = 0.23935 0.48899
# Poissons Ratio (y) = 0.50257 0.63290
# Poissons Ratio (z) = 0.36893 0.22742
#
# Static dielectric constant tensor:
#      x y z
#    x 3.213960 0.000000 0.000000 
#    y 0.000000 3.137030 0.000000 
#    z 0.000000 0.000000 3.562830 
# 
# 
# High freq. dielectric constant tensor:
#      x y z
#    x 1.705350 0.000000 0.000000 
#    y 0.000000 1.680300 0.000000 
#    z 0.000000 0.000000 1.722320 
# 
# From -- ./inp_files/37016.got.cif
#   From: 2010.03.12/outbox.cif.g09.slc.cpg/sg51_19_cif.got.tgz:37016.got - 2010.04.16 13:43:02.
