data_PCOD8213827
_publ_section_title
;
Structure prediction by ZEFSAII (Michael W. Deem and Ramdas Pophale) SiO2 
 PCOD8213827
Probable space group: P M M A
;
_chemical_formula_sum "Si O2"
_cell_formula_units_Z 32
_cell_length_a 14.153489
_cell_length_b 20.495629
_cell_length_c 5.022955
_cell_angle_alpha 90.000000
_cell_angle_beta 90.000000
_cell_angle_gamma 90.000000
_cell_volume 1457.082191
_symmetry_space_group_name_H-M "P M M A"
_symmetry_group_IT_number 51
_symmetry_cell_setting 'orthorhombic'
loop_
_space_group_symop_operation_xyz
x,y,z
1/2-x,-y,z
1/2+x,-y,-z
-x,y,-z
-x,-y,-z
1/2+x,y,-z
1/2-x,y,z
x,-y,z
loop_
_atom_site_type_symbol
_atom_site_label
_atom_site_fract_x
_atom_site_fract_y
_atom_site_fract_z
Si Si1 0.111379 0.651207 0.015777
Si Si2 0.937142 0.926620 0.241508
Si Si3 0.250000 0.759308 0.189726
Si Si4 0.388376 0.572237 0.512015
Si Si5 0.250000 0.154852 0.705229
O O1 0.156910 0.718772 0.108797
O O2 0.145344 0.596834 0.225872
O O3 0.147856 0.623849 0.732642
O O4 0.000000 0.662947 0.000000
O O5 0.844451 0.886924 0.324508
O O6 0.000000 0.927271 0.500000
O O7 0.906327 0.000000 0.159368
O O8 0.000000 0.895900 0.000000
O O9 0.250000 0.784142 0.495973
O O10 0.250000 0.822708 0.009074
O O11 0.500000 0.568838 0.500000
O O12 0.346988 0.500000 0.568240
#
# Coordination Sequence:
#
# PCOD8213827 Si02
#       5
#     8   8   4   8   4
#     4  10  21  38  56  79 115 154 196 252 307 361
#     4  10  22  42  69 100 130 161 203 256 313 366
#     4  12  26  40  58  86 122 168 214 244 292 368
#     4   9  17  33  59  84 107 143 193 252 318 375
#     4  12  25  42  64  92 129 170 210 256 300 360
#
# _framework density 21.961698999999999
#
# number of rings (size 3 to 8) (size 9 to 14) (size 15 to 20)
#    0.000    1.750    0.000    4.125    0.000    6.000 
#    0.000    8.750    0.000    0.000    0.000    0.000 
#    0.000    0.000    0.000    0.000    0.000    0.000 
#
# Total GULP energy -396638.944357 kJ/mol
# GULP energy per Si atom -12394.967011 kJ/mol
# Density = 2.191171 g / cm^3
# Si number density = 21.961699 Si / 1000 Ang^3
#
#
#
# Elastic Constant Matrix: (Units=GPa)
#
#
# Indices 1 2 3 4 5 6 
#
# 1 118.1745 48.6955 27.7616 0.0000 0.0000 0.0000
# 2 48.6955 99.2786 25.9864 0.0000 0.0000 0.0000
# 3 27.7616 25.9864 123.6779 0.0000 0.0000 0.0000
# 4 0.0000 0.0000 0.0000 64.4684 0.0000 0.0000
# 5 0.0000 0.0000 0.0000 0.0000 18.4315 0.0000
# 6 0.0000 0.0000 0.0000 0.0000 0.0000 -27.8179
#
#
#
# Elastic Compliance Matrix: (Units=1/GPa)
#
#
# Indices 1 2 3 4 5 6 
#
# 1 0.010827 -0.004947 -0.001391 0.000000 0.000000 0.000000
# 2 -0.004947 0.012919 -0.001604 0.000000 0.000000 0.000000
# 3 -0.001391 -0.001604 0.008735 0.000000 0.000000 0.000000
# 4 0.000000 0.000000 0.000000 0.015511 0.000000 0.000000
# 5 0.000000 0.000000 0.000000 0.000000 0.054255 0.000000
# 6 0.000000 0.000000 0.000000 0.000000 0.000000 -0.035948
#
#
# Mechanical properties :
#
#
# Convention : Reuss Voigt Hill
#
# Bulk Modulus (GPa) = 60.25012 60.66866 60.45939
# Shear Modulus (GPa) = 57.00293 26.92890 41.96592
#
# Velocity S-wave (km/s) = 5.10019 3.50548 4.37609
# Velocity P-wave (km/s) = 7.88520 6.63847 7.28854
#
# Compressibility (1/GPa) = 0.01659748
#
# Stress axis : x y z
#
# Youngs Moduli (GPa) = 92.36060 77.40667 114.48473
#
# Poissons Ratio (x) = 0.38290 0.15925
# Poissons Ratio (y) = 0.45687 0.18364
# Poissons Ratio (z) = 0.12847 0.12417
#
# Static dielectric constant tensor:
#      x y z
#    x 4.938330 0.000000 0.000000 
#    y 0.000000 3.972070 0.000000 
#    z 0.000000 0.000000 4.305860 
# 
# 
# High freq. dielectric constant tensor:
#      x y z
#    x 1.868390 0.000000 0.000000 
#    y 0.000000 1.854960 0.000000 
#    z 0.000000 0.000000 1.879630 
# 
# From -- ./inp_files/1327.got.cif
#   From: 2010.03.12/outbox.cif.g09.slc.cpg/sg51_1_cif.got.tgz:1327.got - 2010.04.16 13:43:02.
