data_PCOD8213246
_publ_section_title
;
Structure prediction by ZEFSAII (Michael W. Deem and Ramdas Pophale) SiO2 
 PCOD8213246
Probable space group: P M M A
;
_chemical_formula_sum "Si O2"
_cell_formula_units_Z 56
_cell_length_a 14.195348
_cell_length_b 9.116591
_cell_length_c 23.573670
_cell_angle_alpha 90.000000
_cell_angle_beta 90.000000
_cell_angle_gamma 90.000000
_cell_volume 3050.743642
_symmetry_space_group_name_H-M "P M M A"
_symmetry_group_IT_number 51
_symmetry_cell_setting 'orthorhombic'
loop_
_space_group_symop_operation_xyz
x,y,z
1/2-x,-y,z
1/2+x,-y,-z
-x,y,-z
-x,-y,-z
1/2+x,y,-z
1/2-x,y,z
x,-y,z
loop_
_atom_site_type_symbol
_atom_site_label
_atom_site_fract_x
_atom_site_fract_y
_atom_site_fract_z
Si Si1 0.989486 0.328264 0.063591
Si Si2 0.642307 0.668468 0.450204
Si Si3 0.358416 0.329145 0.155545
Si Si4 0.856855 0.170517 0.144962
Si Si5 0.638702 0.166772 0.561690
Si Si6 0.507939 0.671793 0.643635
Si Si7 0.508766 0.827848 0.761942
O O1 0.970111 0.500000 0.062887
O O2 0.897975 0.254597 0.090922
O O3 0.084002 0.289146 0.098616
O O4 0.000000 0.266644 0.000000
O O5 0.750000 0.706527 0.435612
O O6 0.630127 0.500000 0.468768
O O7 0.604011 0.765624 0.502129
O O8 0.583343 0.705291 0.394397
O O9 0.250000 0.286319 0.145129
O O10 0.369623 0.500000 0.170681
O O11 0.397881 0.235958 0.208185
O O12 0.750000 0.222108 0.155917
O O13 0.917034 0.208392 0.200662
O O14 0.862429 0.000000 0.130693
O O15 0.750000 0.177267 0.566184
O O16 0.599146 0.259855 0.613868
O O17 0.602762 0.000000 0.565383
O O18 0.524673 0.500000 0.652912
O O19 0.490679 0.749008 0.702993
O O20 0.523422 0.000000 0.752356
#
# Coordination Sequence:
#
# PCOD8213246 Si02
#       7
#     8   8   8   8   8   8   8
#     4   9  18  32  52  81 112 138 170 212 254 300
#     4   9  19  36  55  76 104 135 166 203 250 305
#     4   9  18  34  54  74 101 138 174 209 253 303
#     4   9  19  36  55  75 103 140 177 212 255 305
#     4  10  21  36  54  77 104 134 169 209 253 302
#     4  11  22  35  54  78 103 134 170 208 255 308
#     4  10  21  36  53  74 101 132 170 217 260 300
#
# _framework density 18.356179000000001
#
# number of rings (size 3 to 8) (size 9 to 14) (size 15 to 20)
#    0.000    2.429    0.000    1.714    0.000    6.857 
#    0.000    1.429    0.000    0.000    0.000    0.000 
#    0.000    0.000    0.000    0.000    0.000    0.000 
#
# Total GULP energy -694593.296934 kJ/mol
# GULP energy per Si atom -12403.451731 kJ/mol
# Density = 1.831440 g / cm^3
# Si number density = 18.356179 Si / 1000 Ang^3
#
#
#
# Elastic Constant Matrix: (Units=GPa)
#
#
# Indices 1 2 3 4 5 6 
#
# 1 107.8724 47.9010 55.7786 0.0000 0.0000 0.0000
# 2 47.9010 86.3660 67.8216 0.0000 0.0000 0.0000
# 3 55.7786 67.8216 148.9587 0.0000 0.0000 0.0000
# 4 0.0000 0.0000 0.0000 29.3610 0.0000 0.0000
# 5 0.0000 0.0000 0.0000 0.0000 15.9145 0.0000
# 6 0.0000 0.0000 0.0000 0.0000 0.0000 26.9589
#
#
#
# Elastic Compliance Matrix: (Units=1/GPa)
#
#
# Indices 1 2 3 4 5 6 
#
# 1 0.012844 -0.005209 -0.002438 0.000000 0.000000 0.000000
# 2 -0.005209 0.020135 -0.007217 0.000000 0.000000 0.000000
# 3 -0.002438 -0.007217 0.010912 0.000000 0.000000 0.000000
# 4 0.000000 0.000000 0.000000 0.034059 0.000000 0.000000
# 5 0.000000 0.000000 0.000000 0.000000 0.062836 0.000000
# 6 0.000000 0.000000 0.000000 0.000000 0.000000 0.037094
#
#
# Mechanical properties :
#
#
# Convention : Reuss Voigt Hill
#
# Bulk Modulus (GPa) = 70.60572 76.24438 73.42505
# Shear Modulus (GPa) = 23.54844 25.89327 24.72086
#
# Velocity S-wave (km/s) = 3.58559 3.75987 3.67377
# Velocity P-wave (km/s) = 7.46256 7.77658 7.62118
#
# Compressibility (1/GPa) = 0.01416316
#
# Stress axis : x y z
#
# Youngs Moduli (GPa) = 77.85804 49.66415 91.64233
#
# Poissons Ratio (x) = 0.25872 0.22339
# Poissons Ratio (y) = 0.40559 0.66138
# Poissons Ratio (z) = 0.18979 0.35843
#
# Static dielectric constant tensor:
#      x y z
#    x 3.477080 0.000000 0.000000 
#    y 0.000000 3.458700 0.000000 
#    z 0.000000 0.000000 3.391370 
# 
# 
# High freq. dielectric constant tensor:
#      x y z
#    x 1.715550 0.000000 0.000000 
#    y 0.000000 1.715250 0.000000 
#    z 0.000000 0.000000 1.710080 
# 
# From -- ./inp_files/33319.got.cif
#   From: 2010.03.12/outbox.cif.g09.slc.cpg/sg51_17_cif.got.tgz:33319.got - 2010.04.16 13:43:02.
