data_PCOD8213844
_publ_section_title
;
Structure prediction by ZEFSAII (Michael W. Deem and Ramdas Pophale) SiO2 
 PCOD8213844
Probable space group: P M M A
;
_chemical_formula_sum "Si O2"
_cell_formula_units_Z 40
_cell_length_a 8.778538
_cell_length_b 25.214147
_cell_length_c 9.989204
_cell_angle_alpha 90.000000
_cell_angle_beta 90.000000
_cell_angle_gamma 90.000000
_cell_volume 2211.043853
_symmetry_space_group_name_H-M "P M M A"
_symmetry_group_IT_number 51
_symmetry_cell_setting 'orthorhombic'
loop_
_space_group_symop_operation_xyz
x,y,z
1/2-x,-y,z
1/2+x,-y,-z
-x,y,-z
-x,-y,-z
1/2+x,y,-z
1/2-x,y,z
x,-y,z
loop_
_atom_site_type_symbol
_atom_site_label
_atom_site_fract_x
_atom_site_fract_y
_atom_site_fract_z
Si Si1 0.428075 0.758868 0.355236
Si Si2 0.430401 0.136468 0.647802
Si Si3 0.570072 0.560103 0.860334
Si Si4 0.425525 0.937489 0.138595
Si Si5 0.427727 0.642254 0.355591
O O1 0.500000 0.755137 0.500000
O O2 0.250000 0.772014 0.364043
O O3 0.512334 0.808186 0.282624
O O4 0.458104 0.700839 0.290601
O O5 0.500000 0.130156 0.500000
O O6 0.250000 0.135929 0.637743
O O7 0.485911 0.088135 0.737980
O O8 0.750000 0.565385 0.871862
O O9 0.520282 0.500000 0.825924
O O10 0.504234 0.598532 0.745267
O O11 0.500000 0.578806 0.000000
O O12 0.250000 0.919816 0.139740
O O13 0.443628 0.000000 0.155703
O O14 0.500000 0.918132 0.000000
O O15 0.500000 0.634409 0.500000
O O16 0.250000 0.633355 0.376216
#
# Coordination Sequence:
#
# PCOD8213844 Si02
#       5
#     8   8   8   8   8
#     4   9  16  29  48  70  99 131 164 203 250 299
#     4  11  21  34  54  79 106 136 172 212 254 299
#     4   9  18  33  50  69  96 129 164 202 246 295
#     4  10  21  38  58  79 105 137 171 208 253 303
#     4   9  18  31  49  73  99 128 162 204 249 295
#
# _framework density 18.091002
#
# number of rings (size 3 to 8) (size 9 to 14) (size 15 to 20)
#    0.000    2.400    0.000    4.200    0.000    3.600 
#    0.000    1.000    0.000    2.400    0.000    0.000 
#    0.000    0.000    0.000    0.000    0.000    0.000 
#
# Total GULP energy -495804.337683 kJ/mol
# GULP energy per Si atom -12395.108442 kJ/mol
# Density = 1.804983 g / cm^3
# Si number density = 18.091002 Si / 1000 Ang^3
#
#
#
# Elastic Constant Matrix: (Units=GPa)
#
#
# Indices 1 2 3 4 5 6 
#
# 1 108.7909 49.8323 46.8694 0.0000 0.0000 0.0000
# 2 49.8323 91.1137 62.8274 0.0000 0.0000 0.0000
# 3 46.8694 62.8274 98.3882 0.0000 0.0000 0.0000
# 4 0.0000 0.0000 0.0000 12.3889 0.0000 0.0000
# 5 0.0000 0.0000 0.0000 0.0000 28.8923 0.0000
# 6 0.0000 0.0000 0.0000 0.0000 0.0000 24.0184
#
#
#
# Elastic Compliance Matrix: (Units=1/GPa)
#
#
# Indices 1 2 3 4 5 6 
#
# 1 0.012707 -0.004960 -0.002886 0.000000 0.000000 0.000000
# 2 -0.004960 0.021546 -0.011396 0.000000 0.000000 0.000000
# 3 -0.002886 -0.011396 0.018816 0.000000 0.000000 0.000000
# 4 0.000000 0.000000 0.000000 0.080718 0.000000 0.000000
# 5 0.000000 0.000000 0.000000 0.000000 0.034611 0.000000
# 6 0.000000 0.000000 0.000000 0.000000 0.000000 0.041635
#
#
# Mechanical properties :
#
#
# Convention : Reuss Voigt Hill
#
# Bulk Modulus (GPa) = 68.56219 68.59454 68.57836
# Shear Modulus (GPa) = 19.73339 22.31083 21.02211
#
# Velocity S-wave (km/s) = 3.30629 3.51558 3.41254
# Velocity P-wave (km/s) = 7.24956 7.38091 7.31553
#
# Compressibility (1/GPa) = 0.01458530
#
# Stress axis : x y z
#
# Youngs Moduli (GPa) = 78.69538 46.41273 53.14697
#
# Poissons Ratio (x) = 0.23019 0.15340
# Poissons Ratio (y) = 0.39030 0.60565
# Poissons Ratio (z) = 0.22714 0.52891
#
# Static dielectric constant tensor:
#      x y z
#    x 3.345750 0.000000 0.000000 
#    y 0.000000 4.051230 0.000000 
#    z 0.000000 0.000000 3.171180 
# 
# 
# High freq. dielectric constant tensor:
#      x y z
#    x 1.709330 0.000000 0.000000 
#    y 0.000000 1.714850 0.000000 
#    z 0.000000 0.000000 1.672250 
# 
# From -- ./inp_files/5490.got.cif
#   From: 2010.03.12/outbox.cif.g09.slc.cpg/sg51_3_cif.got.tgz:5490.got - 2010.04.16 13:43:02.
