data_PCOD8213838
_publ_section_title
;
Structure prediction by ZEFSAII (Michael W. Deem and Ramdas Pophale) SiO2 
 PCOD8213838
Probable space group: P M M A
;
_chemical_formula_sum "Si O2"
_cell_formula_units_Z 64
_cell_length_a 9.098735
_cell_length_b 20.505515
_cell_length_c 19.837492
_cell_angle_alpha 90.000000
_cell_angle_beta 90.000000
_cell_angle_gamma 90.000000
_cell_volume 3701.165133
_symmetry_space_group_name_H-M "P M M A"
_symmetry_group_IT_number 51
_symmetry_cell_setting 'orthorhombic'
loop_
_space_group_symop_operation_xyz
x,y,z
1/2-x,-y,z
1/2+x,-y,-z
-x,y,-z
-x,-y,-z
1/2+x,y,-z
1/2-x,y,z
x,-y,z
loop_
_atom_site_type_symbol
_atom_site_label
_atom_site_fract_x
_atom_site_fract_y
_atom_site_fract_z
Si Si1 0.414038 0.570169 0.177781
Si Si2 0.078276 0.074506 0.933476
Si Si3 0.915528 0.572158 0.662028
Si Si4 0.914787 0.696402 0.335475
Si Si5 0.926241 0.828567 0.672290
Si Si6 0.578969 0.923883 0.430253
Si Si7 0.589194 0.309491 0.175288
Si Si8 0.924596 0.832381 0.186056
O O1 0.250000 0.571701 0.149641
O O2 0.486669 0.500000 0.157969
O O3 0.414795 0.577070 0.257767
O O4 0.494345 0.631793 0.144178
O O5 0.250000 0.082351 0.945348
O O6 0.027538 0.113748 0.867780
O O7 0.031526 0.000000 0.920944
O O8 0.000000 0.102568 0.000000
O O9 0.750000 0.581878 0.634925
O O10 0.974092 0.500000 0.640133
O O11 0.016719 0.630185 0.632209
O O12 0.750000 0.706012 0.364447
O O13 0.908787 0.688544 0.255749
O O14 0.014460 0.758730 0.354244
O O15 0.750000 0.828423 0.669982
O O16 0.992161 0.885312 0.626754
O O17 0.981791 0.844642 0.747201
O O18 0.500000 0.906917 0.500000
O O19 0.750000 0.902765 0.433478
O O20 0.564926 0.000000 0.413009
O O21 0.750000 0.320947 0.145444
O O22 0.531878 0.237931 0.154013
O O23 0.750000 0.834195 0.203486
#
# Coordination Sequence:
#
# PCOD8213838 Si02
#       8
#     8   8   8   8   8   8   8   8
#     4   8  13  20  30  46  71 104 140 177 218 266
#     4   9  18  33  52  71  93 122 154 190 233 280
#     4   8  13  21  33  51  78 113 152 192 234 280
#     4   9  16  26  39  57  85 120 157 195 236 282
#     4  11  21  32  49  73 100 129 162 200 241 285
#     4  10  21  38  58  77  99 127 158 194 237 285
#     4   8  14  23  35  52  77 110 146 184 223 266
#     4   9  18  32  47  67  96 127 159 195 237 282
#
# _framework density 17.291851999999999
#
# number of rings (size 3 to 8) (size 9 to 14) (size 15 to 20)
#    0.000    3.000    0.000    3.375    0.000    5.250 
#    0.000    3.750    0.000    0.000    0.000    0.000 
#    0.000    1.000    0.000    3.000    0.000    8.875 
#
# Total GULP energy -793104.428812 kJ/mol
# GULP energy per Si atom -12392.256700 kJ/mol
# Density = 1.725249 g / cm^3
# Si number density = 17.291852 Si / 1000 Ang^3
#
#
#
# Elastic Constant Matrix: (Units=GPa)
#
#
# Indices 1 2 3 4 5 6 
#
# 1 111.2155 67.4107 42.4758 0.0000 0.0000 0.0000
# 2 67.4107 126.1539 51.6577 0.0000 0.0000 0.0000
# 3 42.4758 51.6577 47.1730 0.0000 0.0000 0.0000
# 4 0.0000 0.0000 0.0000 -0.0023 0.0000 0.0000
# 5 0.0000 0.0000 0.0000 0.0000 18.4244 0.0000
# 6 0.0000 0.0000 0.0000 0.0000 0.0000 32.3321
#
#
#
# Elastic Compliance Matrix: (Units=1/GPa)
#
#
# Indices 1 2 3 4 5 6 
#
# 1 0.014994 -0.004503 -0.008570 0.000000 0.000000 0.000000
# 2 -0.004503 0.015723 -0.013163 0.000000 0.000000 0.000000
# 3 -0.008570 -0.013163 0.043330 0.000000 0.000000 0.000000
# 4 0.000000 0.000000 0.000000********** 0.000000 0.000000
# 5 0.000000 0.000000 0.000000 0.000000 0.054276 0.000000
# 6 0.000000 0.000000 0.000000 0.000000 0.000000 0.030929
#
#
# Mechanical properties :
#
#
# Convention : Reuss Voigt Hill
#
# Bulk Modulus (GPa) = 46.35086 67.51455 56.93270
# Shear Modulus (GPa) = -0.01175 18.35069 9.16947
#
# Velocity S-wave (km/s) = -0.08251 3.26119 2.30527
# Velocity P-wave (km/s) = 5.18210 7.30133 6.33102
#
# Compressibility (1/GPa) = 0.02157457
#
# Stress axis : x y z
#
# Youngs Moduli (GPa) = 66.69375 63.60081 23.07862
#
# Poissons Ratio (x) = 0.28638 0.19779
# Poissons Ratio (y) = 0.30031 0.30379
# Poissons Ratio (z) = 0.57157 0.83721
#
# Static dielectric constant tensor:
#      x y z
#    x 3.391250 0.000000 0.000000 
#    y 0.000000 3.625610 0.000000 
#    z 0.000000 0.000000 2.697790 
# 
# 
# High freq. dielectric constant tensor:
#      x y z
#    x 1.669710 0.000000 0.000000 
#    y 0.000000 1.686370 0.000000 
#    z 0.000000 0.000000 1.599740 
# 
# From -- ./inp_files/32576.got.cif
#   From: 2010.03.12/outbox.cif.g09.slc.cpg/sg51_17_cif.got.tgz:32576.got - 2010.04.16 13:43:02.
