data_PCOD8213154
_publ_section_title
;
Structure prediction by ZEFSAII (Michael W. Deem and Ramdas Pophale) SiO2 
 PCOD8213154
Probable space group: P M M A
;
_chemical_formula_sum "Si O2"
_cell_formula_units_Z 40
_cell_length_a 9.080282
_cell_length_b 9.857628
_cell_length_c 24.059787
_cell_angle_alpha 90.000000
_cell_angle_beta 90.000000
_cell_angle_gamma 90.000000
_cell_volume 2153.592547
_symmetry_space_group_name_H-M "P M M A"
_symmetry_group_IT_number 51
_symmetry_cell_setting 'orthorhombic'
loop_
_space_group_symop_operation_xyz
x,y,z
1/2-x,-y,z
1/2+x,-y,-z
-x,y,-z
-x,-y,-z
1/2+x,y,-z
1/2-x,y,z
x,-y,z
loop_
_atom_site_type_symbol
_atom_site_label
_atom_site_fract_x
_atom_site_fract_y
_atom_site_fract_z
Si Si1 0.915505 0.339017 0.446490
Si Si2 0.076441 0.656111 0.334654
Si Si3 0.921720 0.000000 0.941699
Si Si4 0.418296 0.771566 0.879093
Si Si5 0.919010 0.841710 0.246801
Si Si6 0.080926 0.500000 0.941463
O O1 0.750000 0.279683 0.444860
O O2 0.910824 0.500000 0.450839
O O3 0.000000 0.278404 0.500000
O O4 0.001074 0.293892 0.391361
O O5 0.250000 0.669928 0.342100
O O6 0.032638 0.500000 0.320759
O O7 0.023396 0.756333 0.286742
O O8 0.966176 0.130319 0.907186
O O9 0.750000 0.000000 0.952584
O O10 0.000000 0.000000 0.000000
O O11 0.250000 0.813207 0.893821
O O12 0.441177 0.775694 0.813378
O O13 0.460335 0.625786 0.902799
O O14 0.750000 0.826689 0.266140
O O15 0.965576 0.000000 0.246229
O O16 0.250000 0.500000 0.957953
O O17 0.000000 0.500000 0.000000
#
# Coordination Sequence:
#
# PCOD8213154 Si02
#       6
#     8   8   4   8   8   4
#     4   9  16  28  49  78 112 149 188 232 281 332
#     4  10  21  35  53  82 117 151 189 234 279 330
#     4  12  24  38  60  86 112 146 185 228 275 328
#     4  10  21  40  61  84 112 145 186 230 278 334
#     4  10  21  38  60  82 108 145 189 236 282 334
#     4  10  22  38  60  86 114 146 179 222 279 336
#
# _framework density 18.573616999999999
#
# number of rings (size 3 to 8) (size 9 to 14) (size 15 to 20)
#    0.000    2.000    1.000    2.700    1.400    7.200 
#    0.000    0.000    0.000    0.600    0.000    0.000 
#    0.000    0.000    0.000    0.000    0.000    0.000 
#
# Total GULP energy -496037.322968 kJ/mol
# GULP energy per Si atom -12400.933074 kJ/mol
# Density = 1.853134 g / cm^3
# Si number density = 18.573617 Si / 1000 Ang^3
#
#
#
# Elastic Constant Matrix: (Units=GPa)
#
#
# Indices 1 2 3 4 5 6 
#
# 1 122.4205 51.8595 71.2750 0.0000 0.0000 0.0000
# 2 51.8595 106.4458 62.2017 0.0000 0.0000 0.0000
# 3 71.2750 62.2017 138.1252 0.0000 0.0000 0.0000
# 4 0.0000 0.0000 0.0000 20.0729 0.0000 0.0000
# 5 0.0000 0.0000 0.0000 0.0000 40.0073 0.0000
# 6 0.0000 0.0000 0.0000 0.0000 0.0000 32.5713
#
#
#
# Elastic Compliance Matrix: (Units=1/GPa)
#
#
# Indices 1 2 3 4 5 6 
#
# 1 0.012397 -0.003124 -0.004991 0.000000 0.000000 0.000000
# 2 -0.003124 0.013537 -0.004484 0.000000 0.000000 0.000000
# 3 -0.004991 -0.004484 0.011834 0.000000 0.000000 0.000000
# 4 0.000000 0.000000 0.000000 0.049819 0.000000 0.000000
# 5 0.000000 0.000000 0.000000 0.000000 0.024995 0.000000
# 6 0.000000 0.000000 0.000000 0.000000 0.000000 0.030702
#
#
# Mechanical properties :
#
#
# Convention : Reuss Voigt Hill
#
# Bulk Modulus (GPa) = 79.54378 81.96268 80.75323
# Shear Modulus (GPa) = 28.95678 30.64065 29.79871
#
# Velocity S-wave (km/s) = 3.95274 4.06604 4.00979
# Velocity P-wave (km/s) = 7.98444 8.14051 8.06286
#
# Compressibility (1/GPa) = 0.01257169
#
# Stress axis : x y z
#
# Youngs Moduli (GPa) = 80.66205 73.87429 84.49992
#
# Poissons Ratio (x) = 0.23076 0.42171
# Poissons Ratio (y) = 0.25196 0.37890
# Poissons Ratio (z) = 0.40255 0.33125
#
# Static dielectric constant tensor:
#      x y z
#    x 3.418060 0.000000 0.000000 
#    y 0.000000 3.243460 0.000000 
#    z 0.000000 0.000000 3.555920 
# 
# 
# High freq. dielectric constant tensor:
#      x y z
#    x 1.725090 0.000000 0.000000 
#    y 0.000000 1.701120 0.000000 
#    z 0.000000 0.000000 1.733460 
# 
# From -- ./inp_files/36091.got.cif
#   From: 2010.03.12/outbox.cif.g09.slc.cpg/sg51_19_cif.got.tgz:36091.got - 2010.04.16 13:43:02.
