data_PCOD8213695
_publ_section_title
;
Structure prediction by ZEFSAII (Michael W. Deem and Ramdas Pophale) SiO2 
 PCOD8213695
Probable space group: P M M A
;
_chemical_formula_sum "Si O2"
_cell_formula_units_Z 48
_cell_length_a 16.858973
_cell_length_b 27.387553
_cell_length_c 5.045655
_cell_angle_alpha 90.000000
_cell_angle_beta 90.000000
_cell_angle_gamma 90.000000
_cell_volume 2329.710184
_symmetry_space_group_name_H-M "P M M A"
_symmetry_group_IT_number 51
_symmetry_cell_setting 'orthorhombic'
loop_
_space_group_symop_operation_xyz
x,y,z
1/2-x,-y,z
1/2+x,-y,-z
-x,y,-z
-x,-y,-z
1/2+x,y,-z
1/2-x,y,z
x,-y,z
loop_
_atom_site_type_symbol
_atom_site_label
_atom_site_fract_x
_atom_site_fract_y
_atom_site_fract_z
Si Si1 0.843070 0.293924 0.336075
Si Si2 0.052920 0.945349 0.257597
Si Si3 0.090147 0.190379 0.590837
Si Si4 0.658153 0.355563 0.845281
Si Si5 0.157768 0.141154 0.100996
Si Si6 0.947280 0.554313 0.742924
O O1 0.750000 0.282215 0.294408
O O2 0.893277 0.244789 0.307012
O O3 0.861825 0.317039 0.618165
O O4 0.874530 0.332009 0.116105
O O5 0.128519 0.910892 0.212904
O O6 0.000000 0.924775 0.500000
O O7 0.083918 0.000000 0.325194
O O8 0.000000 0.946329 0.000000
O O9 0.145695 0.180353 0.336191
O O10 0.000000 0.183235 0.500000
O O11 0.108603 0.154608 0.836999
O O12 0.750000 0.365750 0.870708
O O13 0.623427 0.408389 0.786510
O O14 0.250000 0.138180 0.026260
O O15 0.912731 0.500000 0.682602
O O16 0.000000 0.573103 0.500000
O O17 0.000000 0.552490 0.000000
#
# Coordination Sequence:
#
# PCOD8213695 Si02
#       6
#     8   8   8   8   8   8
#     4  10  21  38  58  84 117 150 189 238 294 347
#     4  10  21  39  63  89 120 157 196 243 297 351
#     4  12  25  41  62  89 120 159 206 251 298 359
#     4  10  21  37  59  84 113 149 187 234 288 346
#     4  12  24  40  63  90 123 161 201 250 305 358
#     4  10  21  37  57  82 113 148 186 232 283 336
#
# _framework density 20.60342
#
# number of rings (size 3 to 8) (size 9 to 14) (size 15 to 20)
#    0.000    1.333    0.000    6.500    0.000    4.000 
#    0.000    0.000    0.000   11.000    0.000    0.000 
#    0.000    0.000    0.000    0.000    0.000    0.000 
#
# Total GULP energy -595390.631913 kJ/mol
# GULP energy per Si atom -12403.971498 kJ/mol
# Density = 2.055653 g / cm^3
# Si number density = 20.603420 Si / 1000 Ang^3
#
#
#
# Elastic Constant Matrix: (Units=GPa)
#
#
# Indices 1 2 3 4 5 6 
#
# 1 88.1558 63.4335 43.5929 0.0000 0.0000 0.0000
# 2 63.4335 123.5296 29.1439 0.0000 0.0000 0.0000
# 3 43.5929 29.1439 129.6529 0.0000 0.0000 0.0000
# 4 0.0000 0.0000 0.0000 21.8944 0.0000 0.0000
# 5 0.0000 0.0000 0.0000 0.0000 29.2102 0.0000
# 6 0.0000 0.0000 0.0000 0.0000 0.0000 37.3658
#
#
#
# Elastic Compliance Matrix: (Units=1/GPa)
#
#
# Indices 1 2 3 4 5 6 
#
# 1 0.020447 -0.009375 -0.004767 0.000000 0.000000 0.000000
# 2 -0.009375 0.012847 0.000264 0.000000 0.000000 0.000000
# 3 -0.004767 0.000264 0.009256 0.000000 0.000000 0.000000
# 4 0.000000 0.000000 0.000000 0.045674 0.000000 0.000000
# 5 0.000000 0.000000 0.000000 0.000000 0.034235 0.000000
# 6 0.000000 0.000000 0.000000 0.000000 0.000000 0.026762
#
#
# Mechanical properties :
#
#
# Convention : Reuss Voigt Hill
#
# Bulk Modulus (GPa) = 67.59420 68.18653 67.89037
# Shear Modulus (GPa) = 27.48632 31.37193 29.42913
#
# Velocity S-wave (km/s) = 3.65645 3.90636 3.78347
# Velocity P-wave (km/s) = 7.12072 7.31524 7.21864
#
# Compressibility (1/GPa) = 0.01479417
#
# Stress axis : x y z
#
# Youngs Moduli (GPa) = 48.90730 77.83962 108.03278
#
# Poissons Ratio (x) = 0.72973 0.51504
# Poissons Ratio (y) = 0.45850 -0.02855
# Poissons Ratio (z) = 0.23316 -0.02057
#
# Static dielectric constant tensor:
#      x y z
#    x 3.461950 0.000000 0.000000 
#    y 0.000000 4.051950 0.000000 
#    z 0.000000 0.000000 4.147780 
# 
# 
# High freq. dielectric constant tensor:
#      x y z
#    x 1.784590 0.000000 0.000000 
#    y 0.000000 1.817600 0.000000 
#    z 0.000000 0.000000 1.829540 
# 
# From -- ./inp_files/1446.got.cif
#   From: 2010.03.12/outbox.cif.g09.slc.cpg/sg51_1_cif.got.tgz:1446.got - 2010.04.16 13:43:02.
