data_PCOD8213187
_publ_section_title
;
Structure prediction by ZEFSAII (Michael W. Deem and Ramdas Pophale) SiO2 
 PCOD8213187
Probable space group: P M M A
;
_chemical_formula_sum "Si O2"
_cell_formula_units_Z 48
_cell_length_a 18.514298
_cell_length_b 21.418103
_cell_length_c 5.542956
_cell_angle_alpha 90.000000
_cell_angle_beta 90.000000
_cell_angle_gamma 90.000000
_cell_volume 2198.010100
_symmetry_space_group_name_H-M "P M M A"
_symmetry_group_IT_number 51
_symmetry_cell_setting 'orthorhombic'
loop_
_space_group_symop_operation_xyz
x,y,z
1/2-x,-y,z
1/2+x,-y,-z
-x,y,-z
-x,-y,-z
1/2+x,y,-z
1/2-x,y,z
x,-y,z
loop_
_atom_site_type_symbol
_atom_site_label
_atom_site_fract_x
_atom_site_fract_y
_atom_site_fract_z
Si Si1 0.668175 0.690747 0.732737
Si Si2 0.431704 0.359213 0.646327
Si Si3 0.573365 0.760202 0.087635
Si Si4 0.335823 0.862406 0.705919
Si Si5 0.664844 0.069611 0.792322
Si Si6 0.169884 0.569275 0.951581
O O1 0.750000 0.711517 0.687782
O O2 0.628139 0.682889 0.483526
O O3 0.632042 0.747116 0.879286
O O4 0.662022 0.622163 0.849382
O O5 0.500000 0.385084 0.500000
O O6 0.459160 0.307140 0.831901
O O7 0.392615 0.419907 0.754963
O O8 0.616084 0.799466 0.291405
O O9 0.500000 0.795990 0.000000
O O10 0.250000 0.848280 0.703204
O O11 0.359703 0.897024 0.458121
O O12 0.358682 0.897643 0.955656
O O13 0.750000 0.065036 0.789244
O O14 0.631260 0.000000 0.791485
O O15 0.250000 0.573784 0.832533
O O16 0.158534 0.500000 0.063739
#
# Coordination Sequence:
#
# PCOD8213187 Si02
#       6
#     8   8   8   8   8   8
#     4  10  21  38  60  83 112 153 196 246 301 363
#     4  11  22  37  59  84 115 156 199 246 305 366
#     4  11  23  39  57  82 120 158 196 248 306 366
#     4  10  21  35  59  92 121 159 210 257 306 367
#     4   9  18  35  59  89 124 160 203 258 310 358
#     4   9  20  38  58  84 116 150 194 247 304 367
#
# _framework density 21.837935000000002
#
# number of rings (size 3 to 8) (size 9 to 14) (size 15 to 20)
#    0.000    2.000    1.667    1.500    2.333    5.000 
#    0.000    2.500    0.000    3.000    0.000    0.000 
#    0.000    0.000    0.000    0.000    0.000    0.000 
#
# Total GULP energy -594699.813766 kJ/mol
# GULP energy per Si atom -12389.579453 kJ/mol
# Density = 2.178823 g / cm^3
# Si number density = 21.837935 Si / 1000 Ang^3
#
#
#
# Elastic Constant Matrix: (Units=GPa)
#
#
# Indices 1 2 3 4 5 6 
#
# 1 102.3315 16.3837 16.5423 0.0000 0.0000 0.0000
# 2 16.3837 90.1093 16.5034 0.0000 0.0000 0.0000
# 3 16.5423 16.5034 93.2021 0.0000 0.0000 0.0000
# 4 0.0000 0.0000 0.0000 38.6750 0.0000 0.0000
# 5 0.0000 0.0000 0.0000 0.0000 29.0242 0.0000
# 6 0.0000 0.0000 0.0000 0.0000 0.0000 13.4224
#
#
#
# Elastic Compliance Matrix: (Units=1/GPa)
#
#
# Indices 1 2 3 4 5 6 
#
# 1 0.010275 -0.001586 -0.001543 0.000000 0.000000 0.000000
# 2 -0.001586 0.011714 -0.001793 0.000000 0.000000 0.000000
# 3 -0.001543 -0.001793 0.011321 0.000000 0.000000 0.000000
# 4 0.000000 0.000000 0.000000 0.025857 0.000000 0.000000
# 5 0.000000 0.000000 0.000000 0.000000 0.034454 0.000000
# 6 0.000000 0.000000 0.000000 0.000000 0.000000 0.074502
#
#
# Mechanical properties :
#
#
# Convention : Reuss Voigt Hill
#
# Bulk Modulus (GPa) = 42.61224 42.72242 42.66733
# Shear Modulus (GPa) = 26.91230 31.97188 29.44209
#
# Velocity S-wave (km/s) = 3.51431 3.83044 3.67578
# Velocity P-wave (km/s) = 6.00188 6.25851 6.13154
#
# Compressibility (1/GPa) = 0.02346744
#
# Stress axis : x y z
#
# Youngs Moduli (GPa) = 97.31913 85.36581 88.33382
#
# Poissons Ratio (x) = 0.13536 0.13630
# Poissons Ratio (y) = 0.15432 0.15837
# Poissons Ratio (z) = 0.15016 0.15305
#
# Static dielectric constant tensor:
#      x y z
#    x 3.845600 0.000000 0.000000 
#    y 0.000000 3.928520 0.000000 
#    z 0.000000 0.000000 4.093720 
# 
# 
# High freq. dielectric constant tensor:
#      x y z
#    x 1.849260 0.000000 0.000000 
#    y 0.000000 1.849590 0.000000 
#    z 0.000000 0.000000 1.855850 
# 
# From -- ./inp_files/2049.got.cif
#   From: 2010.03.12/outbox.cif.g09.slc.cpg/sg51_2_cif.got.tgz:2049.got - 2010.04.16 13:43:02.
