data_PCOD8213670
_publ_section_title
;
Structure prediction by ZEFSAII (Michael W. Deem and Ramdas Pophale) SiO2 
 PCOD8213670
Probable space group: P M M A
;
_chemical_formula_sum "Si O2"
_cell_formula_units_Z 64
_cell_length_a 30.925478
_cell_length_b 9.017586
_cell_length_c 11.985983
_cell_angle_alpha 90.000000
_cell_angle_beta 90.000000
_cell_angle_gamma 90.000000
_cell_volume 3342.568924
_symmetry_space_group_name_H-M "P M M A"
_symmetry_group_IT_number 51
_symmetry_cell_setting 'orthorhombic'
loop_
_space_group_symop_operation_xyz
x,y,z
1/2-x,-y,z
1/2+x,-y,-z
-x,y,-z
-x,-y,-z
1/2+x,y,-z
1/2-x,y,z
x,-y,z
loop_
_atom_site_type_symbol
_atom_site_label
_atom_site_fract_x
_atom_site_fract_y
_atom_site_fract_z
Si Si1 0.702391 0.670167 0.526841
Si Si2 0.318052 0.824365 0.250001
Si Si3 0.415604 0.824342 0.250002
Si Si4 0.049109 0.175774 0.482523
Si Si5 0.877465 0.675071 0.377863
Si Si6 0.950891 0.824228 0.982518
Si Si7 0.702392 0.670167 0.973155
Si Si8 0.877465 0.675071 0.122131
O O1 0.750000 0.685254 0.469955
O O2 0.692640 0.500000 0.557518
O O3 0.704513 0.763851 0.639759
O O4 0.665359 0.730663 0.443569
O O5 0.366987 0.766231 0.249996
O O6 0.295485 0.763849 0.139763
O O7 0.314378 0.000000 0.250001
O O8 0.438624 0.762766 0.360409
O O9 0.417600 0.000000 0.250006
O O10 0.438627 0.762767 0.139599
O O11 0.079670 0.248570 0.574716
O O12 0.000000 0.225645 0.500000
O O13 0.054783 0.000000 0.492150
O O14 0.883024 0.500000 0.388650
O O15 0.871895 0.724167 0.249997
O O16 0.920329 0.751429 0.074709
O O17 0.945215 0.000000 0.992141
O O18 0.000000 0.774363 0.000000
O O19 0.750000 0.685253 0.030044
O O20 0.692641 0.500000 0.942478
O O21 0.665359 0.730665 0.056425
O O22 0.883024 0.500000 0.111344
#
# Coordination Sequence:
#
# PCOD8213670 Si02
#       8
#     8   8   8   8   8   8   8   8
#     4  10  21  37  57  81 110 146 187 228 274 331
#     4  11  20  34  57  84 116 146 178 227 281 329
#     4   9  18  34  54  83 114 140 177 225 272 322
#     4  10  21  37  60  85 111 145 185 227 272 328
#     4  10  22  39  57  80 112 146 184 231 278 326
#     4  10  21  37  60  85 111 145 185 227 272 328
#     4  10  21  37  57  81 110 146 187 228 274 331
#     4  10  22  39  57  80 112 146 184 231 278 326
#
# _framework density 19.146948999999999
#
# number of rings (size 3 to 8) (size 9 to 14) (size 15 to 20)
#    0.000    2.000    2.500    0.750    1.750    3.500 
#    0.000    3.125    0.000    0.000    0.000    3.500 
#    0.000    0.000    0.000    0.000    0.000    0.000 
#
# Total GULP energy -793631.291867 kJ/mol
# GULP energy per Si atom -12400.488935 kJ/mol
# Density = 1.910337 g / cm^3
# Si number density = 19.146949 Si / 1000 Ang^3
#
#
#
# Elastic Constant Matrix: (Units=GPa)
#
#
# Indices 1 2 3 4 5 6 
#
# 1 164.0829 34.3213 71.4052 0.0000 0.0000 0.0000
# 2 34.3213 36.4369 33.7350 0.0000 0.0000 0.0000
# 3 71.4052 33.7350 141.9339 0.0000 0.0000 0.0000
# 4 0.0000 0.0000 0.0000 22.5766 0.0000 0.0000
# 5 0.0000 0.0000 0.0000 0.0000 15.7232 0.0000
# 6 0.0000 0.0000 0.0000 0.0000 0.0000 25.4657
#
#
#
# Elastic Compliance Matrix: (Units=1/GPa)
#
#
# Indices 1 2 3 4 5 6 
#
# 1 0.008506 -0.005193 -0.003045 0.000000 0.000000 0.000000
# 2 -0.005193 0.038358 -0.006505 0.000000 0.000000 0.000000
# 3 -0.003045 -0.006505 0.010123 0.000000 0.000000 0.000000
# 4 0.000000 0.000000 0.000000 0.044294 0.000000 0.000000
# 5 0.000000 0.000000 0.000000 0.000000 0.063600 0.000000
# 6 0.000000 0.000000 0.000000 0.000000 0.000000 0.039268
#
#
# Mechanical properties :
#
#
# Convention : Reuss Voigt Hill
#
# Bulk Modulus (GPa) = 36.35994 69.04186 52.70090
# Shear Modulus (GPa) = 20.59293 26.28593 23.43943
#
# Velocity S-wave (km/s) = 3.28307 3.70922 3.50263
# Velocity P-wave (km/s) = 5.77950 7.38117 6.62888
#
# Compressibility (1/GPa) = 0.02750280
#
# Stress axis : x y z
#
# Youngs Moduli (GPa) = 117.56799 26.07007 98.78086
#
# Poissons Ratio (x) = 0.13537 0.30078
# Poissons Ratio (y) = 0.61050 0.64253
# Poissons Ratio (z) = 0.35798 0.16958
#
# Static dielectric constant tensor:
#      x y z
#    x 3.694210 0.000000 0.000000 
#    y 0.000000 3.232590 0.000000 
#    z 0.000000 0.000000 3.617020 
# 
# 
# High freq. dielectric constant tensor:
#      x y z
#    x 1.762740 0.000000 0.000000 
#    y 0.000000 1.721540 0.000000 
#    z 0.000000 0.000000 1.745620 
# 
# From -- ./inp_files/19508.got.cif
#   From: 2010.03.12/outbox.cif.g09.slc.cpg/sg51_10_cif.got.tgz:19508.got - 2010.04.16 13:43:02.
