data_PCOD8213504
_publ_section_title
;
Structure prediction by ZEFSAII (Michael W. Deem and Ramdas Pophale) SiO2 
 PCOD8213504
Probable space group: P M M A
;
_chemical_formula_sum "Si O2"
_cell_formula_units_Z 36
_cell_length_a 8.815055
_cell_length_b 12.555436
_cell_length_c 20.018228
_cell_angle_alpha 90.000000
_cell_angle_beta 90.000000
_cell_angle_gamma 90.000000
_cell_volume 2215.554596
_symmetry_space_group_name_H-M "P M M A"
_symmetry_group_IT_number 51
_symmetry_cell_setting 'orthorhombic'
loop_
_space_group_symop_operation_xyz
x,y,z
1/2-x,-y,z
1/2+x,-y,-z
-x,y,-z
-x,-y,-z
1/2+x,y,-z
1/2-x,y,z
x,-y,z
loop_
_atom_site_type_symbol
_atom_site_label
_atom_site_fract_x
_atom_site_fract_y
_atom_site_fract_z
Si Si1 0.569090 0.000000 0.073315
Si Si2 0.070115 0.881851 0.291807
Si Si3 0.926528 0.376403 0.070145
Si Si4 0.070250 0.197182 0.151302
Si Si5 0.581996 0.127256 0.564695
O O1 0.513319 0.104819 0.111084
O O2 0.750000 0.000000 0.069099
O O3 0.500000 0.000000 0.000000
O O4 0.250000 0.889406 0.299483
O O5 0.024702 0.807574 0.229659
O O6 0.006578 0.838675 0.363595
O O7 0.005378 0.000000 0.276910
O O8 0.750000 0.346317 0.068017
O O9 0.952437 0.500000 0.086042
O O10 0.012424 0.311615 0.127400
O O11 0.000000 0.344009 0.000000
O O12 0.250000 0.184616 0.141020
O O13 0.500000 0.176446 0.500000
O O14 0.750000 0.173865 0.560588
O O15 0.581735 0.000000 0.561765
#
# Coordination Sequence:
#
# PCOD8213504 Si02
#       5
#     4   8   8   8   8
#     4  12  24  36  48  66  93 124 157 190 229 278
#     4   8  14  26  43  62  88 122 154 182 222 269
#     4  10  21  37  54  71  92 118 151 193 239 283
#     4  11  20  33  52  71  93 122 157 193 231 277
#     4   8  13  22  37  56  81 115 152 185 214 254
#
# _framework density 16.248753000000001
#
# number of rings (size 3 to 8) (size 9 to 14) (size 15 to 20)
#    0.000    2.444    1.111    4.333    0.000    1.333 
#    0.000    2.222    0.000    0.000    0.000    0.000 
#    0.000    0.889    0.000    2.000    0.000    3.556 
#
# Total GULP energy -446138.213734 kJ/mol
# GULP energy per Si atom -12392.728159 kJ/mol
# Density = 1.621177 g / cm^3
# Si number density = 16.248753 Si / 1000 Ang^3
#
#
#
# Elastic Constant Matrix: (Units=GPa)
#
#
# Indices 1 2 3 4 5 6 
#
# 1 82.3458 26.6916 55.8185 0.0000 0.0000 0.0000
# 2 26.6916 51.8652 51.4028 0.0000 0.0000 0.0000
# 3 55.8185 51.4028 179.9261 0.0000 0.0000 0.0000
# 4 0.0000 0.0000 0.0000 10.4251 0.0000 0.0000
# 5 0.0000 0.0000 0.0000 0.0000 24.8363 0.0000
# 6 0.0000 0.0000 0.0000 0.0000 0.0000 21.7496
#
#
#
# Elastic Compliance Matrix: (Units=1/GPa)
#
#
# Indices 1 2 3 4 5 6 
#
# 1 0.016149 -0.004667 -0.003677 0.000000 0.000000 0.000000
# 2 -0.004667 0.028245 -0.006621 0.000000 0.000000 0.000000
# 3 -0.003677 -0.006621 0.008590 0.000000 0.000000 0.000000
# 4 0.000000 0.000000 0.000000 0.095923 0.000000 0.000000
# 5 0.000000 0.000000 0.000000 0.000000 0.040264 0.000000
# 6 0.000000 0.000000 0.000000 0.000000 0.000000 0.045978
#
#
# Mechanical properties :
#
#
# Convention : Reuss Voigt Hill
#
# Bulk Modulus (GPa) = 43.37653 64.66255 54.01954
# Shear Modulus (GPa) = 18.33096 23.41714 20.87405
#
# Velocity S-wave (km/s) = 3.36243 3.80039 3.58810
# Velocity P-wave (km/s) = 6.46745 7.69019 7.10517
#
# Compressibility (1/GPa) = 0.02305394
#
# Stress axis : x y z
#
# Youngs Moduli (GPa) = 61.92400 35.40462 116.41342
#
# Poissons Ratio (x) = 0.16523 0.42800
# Poissons Ratio (y) = 0.28900 0.77082
# Poissons Ratio (z) = 0.22767 0.23443
#
# Static dielectric constant tensor:
#      x y z
#    x 3.059870 0.000000 0.000000 
#    y 0.000000 2.745750 0.000000 
#    z 0.000000 0.000000 3.746830 
# 
# 
# High freq. dielectric constant tensor:
#      x y z
#    x 1.617450 0.000000 0.000000 
#    y 0.000000 1.573890 0.000000 
#    z 0.000000 0.000000 1.642060 
# 
# From -- ./inp_files/31298.got.cif
#   From: 2010.03.12/outbox.cif.g09.slc.cpg/sg51_16_cif.got.tgz:31298.got - 2010.04.16 13:43:02.
