data_PCOD8213674
_publ_section_title
;
Structure prediction by ZEFSAII (Michael W. Deem and Ramdas Pophale) SiO2 
 PCOD8213674
Probable space group: P M M A
;
_chemical_formula_sum "Si O2"
_cell_formula_units_Z 40
_cell_length_a 8.741547
_cell_length_b 16.281654
_cell_length_c 14.625582
_cell_angle_alpha 90.000000
_cell_angle_beta 90.000000
_cell_angle_gamma 90.000000
_cell_volume 2081.612923
_symmetry_space_group_name_H-M "P M M A"
_symmetry_group_IT_number 51
_symmetry_cell_setting 'orthorhombic'
loop_
_space_group_symop_operation_xyz
x,y,z
1/2-x,-y,z
1/2+x,-y,-z
-x,y,-z
-x,-y,-z
1/2+x,y,-z
1/2-x,y,z
x,-y,z
loop_
_atom_site_type_symbol
_atom_site_label
_atom_site_fract_x
_atom_site_fract_y
_atom_site_fract_z
Si Si1 0.929758 0.500000 0.341089
Si Si2 0.571547 0.908078 0.905191
Si Si3 0.571972 0.328734 0.593492
Si Si4 0.573705 0.236169 0.774048
Si Si5 0.573363 0.500000 0.852636
Si Si6 0.573197 0.656872 0.085306
O O1 0.750000 0.500000 0.359852
O O2 0.999027 0.583211 0.382813
O O3 0.962024 0.500000 0.234019
O O4 0.750000 0.908969 0.923203
O O5 0.534148 0.854571 0.813570
O O6 0.509055 0.000000 0.885381
O O7 0.500000 0.873335 0.000000
O O8 0.500000 0.294845 0.500000
O O9 0.750000 0.345272 0.580750
O O10 0.544628 0.254537 0.666896
O O11 0.750000 0.258385 0.798384
O O12 0.452307 0.295385 0.821466
O O13 0.750000 0.500000 0.821232
O O14 0.534244 0.577278 0.914314
O O15 0.750000 0.636017 0.072490
O O16 0.500000 0.708073 0.000000
#
# Coordination Sequence:
#
# PCOD8213674 Si02
#       6
#     4   8   8   8   4   8
#     4  12  23  38  59  83 109 143 190 236 289 340
#     4   9  18  34  57  86 117 149 185 224 272 332
#     4  11  23  39  59  81 110 146 189 239 290 339
#     4  10  21  37  57  81 111 146 184 231 282 334
#     4  12  23  38  55  75 107 145 186 230 275 328
#     4  12  24  37  54  77 108 147 188 229 275 330
#
# _framework density 19.215866999999999
#
# number of rings (size 3 to 8) (size 9 to 14) (size 15 to 20)
#    0.000    1.200    2.000    5.400    0.000    3.200 
#    0.000    0.000    0.000    0.600    0.000    0.000 
#    0.000    0.000    0.000    0.000    0.000    0.200 
#
# Total GULP energy -495692.906197 kJ/mol
# GULP energy per Si atom -12392.322655 kJ/mol
# Density = 1.917213 g / cm^3
# Si number density = 19.215867 Si / 1000 Ang^3
#
#
#
# Elastic Constant Matrix: (Units=GPa)
#
#
# Indices 1 2 3 4 5 6 
#
# 1 105.1008 37.5468 48.2329 0.0000 0.0000 0.0000
# 2 37.5468 103.6594 55.3005 0.0000 0.0000 0.0000
# 3 48.2329 55.3005 141.8870 0.0000 0.0000 0.0000
# 4 0.0000 0.0000 0.0000 18.8166 0.0000 0.0000
# 5 0.0000 0.0000 0.0000 0.0000 33.6466 0.0000
# 6 0.0000 0.0000 0.0000 0.0000 0.0000 30.9022
#
#
#
# Elastic Compliance Matrix: (Units=1/GPa)
#
#
# Indices 1 2 3 4 5 6 
#
# 1 0.011845 -0.002705 -0.002972 0.000000 0.000000 0.000000
# 2 -0.002705 0.012797 -0.004068 0.000000 0.000000 0.000000
# 3 -0.002972 -0.004068 0.009644 0.000000 0.000000 0.000000
# 4 0.000000 0.000000 0.000000 0.053144 0.000000 0.000000
# 5 0.000000 0.000000 0.000000 0.000000 0.029721 0.000000
# 6 0.000000 0.000000 0.000000 0.000000 0.000000 0.032360
#
#
# Mechanical properties :
#
#
# Convention : Reuss Voigt Hill
#
# Bulk Modulus (GPa) = 67.58924 70.31196 68.95060
# Shear Modulus (GPa) = 28.74661 30.64421 29.69541
#
# Velocity S-wave (km/s) = 3.87199 3.99775 3.93537
# Velocity P-wave (km/s) = 7.43235 7.61441 7.52393
#
# Compressibility (1/GPa) = 0.01479525
#
# Stress axis : x y z
#
# Youngs Moduli (GPa) = 84.42370 78.14354 103.69260
#
# Poissons Ratio (x) = 0.21135 0.30822
# Poissons Ratio (y) = 0.22834 0.42184
# Poissons Ratio (z) = 0.25094 0.31790
#
# Static dielectric constant tensor:
#      x y z
#    x 3.510040 0.000000 0.000000 
#    y 0.000000 3.708600 0.000000 
#    z 0.000000 0.000000 3.663990 
# 
# 
# High freq. dielectric constant tensor:
#      x y z
#    x 1.754460 0.000000 0.000000 
#    y 0.000000 1.726980 0.000000 
#    z 0.000000 0.000000 1.747730 
# 
# From -- ./inp_files/20549.got.cif
#   From: 2010.03.12/outbox.cif.g09.slc.cpg/sg51_11_cif.got.tgz:20549.got - 2010.04.16 13:43:02.
