data_PCOD8213642
_publ_section_title
;
Structure prediction by ZEFSAII (Michael W. Deem and Ramdas Pophale) SiO2 
 PCOD8213642
Probable space group: P M M A
;
_chemical_formula_sum "Si O2"
_cell_formula_units_Z 48
_cell_length_a 29.881582
_cell_length_b 9.116742
_cell_length_c 9.478904
_cell_angle_alpha 90.000000
_cell_angle_beta 90.000000
_cell_angle_gamma 90.000000
_cell_volume 2582.268371
_symmetry_space_group_name_H-M "P M M A"
_symmetry_group_IT_number 51
_symmetry_cell_setting 'orthorhombic'
loop_
_space_group_symop_operation_xyz
x,y,z
1/2-x,-y,z
1/2+x,-y,-z
-x,y,-z
-x,-y,-z
1/2+x,y,-z
1/2-x,y,z
x,-y,z
loop_
_atom_site_type_symbol
_atom_site_label
_atom_site_fract_x
_atom_site_fract_y
_atom_site_fract_z
Si Si1 0.378147 0.172111 0.347983
Si Si2 0.697931 0.330214 0.145793
Si Si3 0.553200 0.670066 0.156177
Si Si4 0.049839 0.669042 0.166453
Si Si5 0.698992 0.829541 0.860055
Si Si6 0.372455 0.826004 0.668581
O O1 0.421557 0.238200 0.274953
O O2 0.332623 0.219080 0.268537
O O3 0.375193 0.228406 0.507651
O O4 0.384513 0.000000 0.343746
O O5 0.750000 0.306463 0.176688
O O6 0.684281 0.500000 0.145283
O O7 0.671716 0.246534 0.267548
O O8 0.684381 0.264202 0.995003
O O9 0.565419 0.500000 0.181396
O O10 0.502055 0.700691 0.197472
O O11 0.583319 0.773506 0.251775
O O12 0.561753 0.712956 0.993635
O O13 0.060928 0.500000 0.191368
O O14 0.750000 0.795116 0.815367
O O15 0.692888 0.000000 0.898651
O O16 0.368303 0.000000 0.680795
#
# Coordination Sequence:
#
# PCOD8213642 Si02
#       6
#     8   8   8   8   8   8
#     4  10  22  36  51  77 111 143 176 216 261 311
#     4  10  21  37  57  81 107 136 174 220 265 310
#     4   9  19  37  58  80 105 135 176 222 265 312
#     4   9  19  36  58  80 103 136 177 221 267 313
#     4   9  18  35  58  80 103 136 177 217 259 309
#     4  11  23  36  52  78 111 145 177 213 261 313
#
# _framework density 18.588307
#
# number of rings (size 3 to 8) (size 9 to 14) (size 15 to 20)
#    0.000    2.333    0.000    3.000    0.000    8.333 
#    0.000    6.667    0.000    2.000    0.000    0.000 
#    0.000    0.000    0.000    0.000    0.000    0.000 
#
# Total GULP energy -595345.961861 kJ/mol
# GULP energy per Si atom -12403.040872 kJ/mol
# Density = 1.854600 g / cm^3
# Si number density = 18.588307 Si / 1000 Ang^3
#
#
#
# Elastic Constant Matrix: (Units=GPa)
#
#
# Indices 1 2 3 4 5 6 
#
# 1 101.7272 43.0104 75.7260 0.0000 0.0000 0.0000
# 2 43.0104 62.7205 56.7626 0.0000 0.0000 0.0000
# 3 75.7260 56.7626 146.8480 0.0000 0.0000 0.0000
# 4 0.0000 0.0000 0.0000 19.9048 0.0000 0.0000
# 5 0.0000 0.0000 0.0000 0.0000 12.5654 0.0000
# 6 0.0000 0.0000 0.0000 0.0000 0.0000 35.2679
#
#
#
# Elastic Compliance Matrix: (Units=1/GPa)
#
#
# Indices 1 2 3 4 5 6 
#
# 1 0.017227 -0.005804 -0.006640 0.000000 0.000000 0.000000
# 2 -0.005804 0.026478 -0.007242 0.000000 0.000000 0.000000
# 3 -0.006640 -0.007242 0.013033 0.000000 0.000000 0.000000
# 4 0.000000 0.000000 0.000000 0.050239 0.000000 0.000000
# 5 0.000000 0.000000 0.000000 0.000000 0.079584 0.000000
# 6 0.000000 0.000000 0.000000 0.000000 0.000000 0.028354
#
#
# Mechanical properties :
#
#
# Convention : Reuss Voigt Hill
#
# Bulk Modulus (GPa) = 57.58321 73.58819 65.58570
# Shear Modulus (GPa) = 19.22520 22.60073 20.91297
#
# Velocity S-wave (km/s) = 3.21948 3.49070 3.35783
# Velocity P-wave (km/s) = 6.69818 7.47803 7.09882
#
# Compressibility (1/GPa) = 0.01736617
#
# Stress axis : x y z
#
# Youngs Moduli (GPa) = 58.04804 37.76779 76.72794
#
# Poissons Ratio (x) = 0.21921 0.50948
# Poissons Ratio (y) = 0.33692 0.55563
# Poissons Ratio (z) = 0.38544 0.27350
#
# Static dielectric constant tensor:
#      x y z
#    x 3.463780 0.000000 0.000000 
#    y 0.000000 3.369830 0.000000 
#    z 0.000000 0.000000 3.474610 
# 
# 
# High freq. dielectric constant tensor:
#      x y z
#    x 1.734470 0.000000 0.000000 
#    y 0.000000 1.719970 0.000000 
#    z 0.000000 0.000000 1.718770 
# 
# From -- ./inp_files/12726.got.cif
#   From: 2010.03.12/outbox.cif.g09.slc.cpg/sg51_7_cif.got.tgz:12726.got - 2010.04.16 13:43:02.
