data_PCOD8213767
_publ_section_title
;
Structure prediction by ZEFSAII (Michael W. Deem and Ramdas Pophale) SiO2 
 PCOD8213767
Probable space group: P M M A
;
_chemical_formula_sum "Si O2"
_cell_formula_units_Z 56
_cell_length_a 19.029787
_cell_length_b 8.666985
_cell_length_c 16.341822
_cell_angle_alpha 90.000000
_cell_angle_beta 90.000000
_cell_angle_gamma 90.000000
_cell_volume 2695.271058
_symmetry_space_group_name_H-M "P M M A"
_symmetry_group_IT_number 51
_symmetry_cell_setting 'orthorhombic'
loop_
_space_group_symop_operation_xyz
x,y,z
1/2-x,-y,z
1/2+x,-y,-z
-x,y,-z
-x,-y,-z
1/2+x,y,-z
1/2-x,y,z
x,-y,z
loop_
_atom_site_type_symbol
_atom_site_label
_atom_site_fract_x
_atom_site_fract_y
_atom_site_fract_z
Si Si1 0.171740 0.176157 0.472035
Si Si2 0.425692 0.179330 0.173604
Si Si3 0.832722 0.675640 0.693311
Si Si4 0.544752 0.822580 0.422620
Si Si5 0.581268 0.318380 0.992363
Si Si6 0.831535 0.818227 0.141497
Si Si7 0.441924 0.319662 0.749238
O O1 0.250000 0.225830 0.497001
O O2 0.142899 0.281436 0.398320
O O3 0.126074 0.198377 0.553385
O O4 0.168304 0.000000 0.441130
O O5 0.370026 0.209921 0.244630
O O6 0.390177 0.234959 0.089207
O O7 0.497298 0.274881 0.187004
O O8 0.444645 0.000000 0.170823
O O9 0.750000 0.700996 0.701866
O O10 0.855108 0.500000 0.711683
O O11 0.500000 0.761296 0.500000
O O12 0.531197 0.724968 0.341256
O O13 0.524686 0.000000 0.404104
O O14 0.589773 0.500000 0.983000
O O15 0.500000 0.268688 0.000000
O O16 0.628811 0.264277 0.067308
O O17 0.750000 0.766556 0.144614
O O18 0.869918 0.767541 0.225874
O O19 0.837914 0.000000 0.130465
O O20 0.427831 0.500000 0.754497
#
# Coordination Sequence:
#
# PCOD8213767 Si02
#       7
#     8   8   8   8   8   8   8
#     4   9  18  34  56  81 113 155 200 246 301 366
#     4  12  24  39  64  91 122 163 208 253 302 366
#     4  10  21  37  58  87 124 161 200 252 311 368
#     4  10  21  37  58  86 120 159 206 256 309 368
#     4  11  23  41  67  96 126 162 203 252 311 371
#     4  11  25  45  69  97 129 168 214 260 308 369
#     4  12  25  41  63  92 126 165 207 257 317 372
#
# _framework density 20.777131000000001
#
# number of rings (size 3 to 8) (size 9 to 14) (size 15 to 20)
#    0.000    1.286    1.429    4.714    0.000    5.714 
#    0.000    1.429    0.000    0.000    0.000    0.000 
#    0.000    0.000    0.000    0.000    0.000    0.000 
#
# Total GULP energy -694631.232079 kJ/mol
# GULP energy per Si atom -12404.129144 kJ/mol
# Density = 2.072984 g / cm^3
# Si number density = 20.777131 Si / 1000 Ang^3
#
#
#
# Elastic Constant Matrix: (Units=GPa)
#
#
# Indices 1 2 3 4 5 6 
#
# 1 65.2451 22.1622 29.3240 0.0000 0.0000 0.0000
# 2 22.1622 83.4157 24.4676 0.0000 0.0000 0.0000
# 3 29.3240 24.4676 94.3047 0.0000 0.0000 0.0000
# 4 0.0000 0.0000 0.0000 34.9653 0.0000 0.0000
# 5 0.0000 0.0000 0.0000 0.0000 33.8467 0.0000
# 6 0.0000 0.0000 0.0000 0.0000 0.0000 26.4853
#
#
#
# Elastic Compliance Matrix: (Units=1/GPa)
#
#
# Indices 1 2 3 4 5 6 
#
# 1 0.018734 -0.003538 -0.004907 0.000000 0.000000 0.000000
# 2 -0.003538 0.013644 -0.002440 0.000000 0.000000 0.000000
# 3 -0.004907 -0.002440 0.012763 0.000000 0.000000 0.000000
# 4 0.000000 0.000000 0.000000 0.028600 0.000000 0.000000
# 5 0.000000 0.000000 0.000000 0.000000 0.029545 0.000000
# 6 0.000000 0.000000 0.000000 0.000000 0.000000 0.037757
#
#
# Mechanical properties :
#
#
# Convention : Reuss Voigt Hill
#
# Bulk Modulus (GPa) = 42.78894 43.87478 43.33186
# Shear Modulus (GPa) = 29.30782 30.19358 29.75070
#
# Velocity S-wave (km/s) = 3.75984 3.81624 3.78815
# Velocity P-wave (km/s) = 6.28391 6.37032 6.32726
#
# Compressibility (1/GPa) = 0.02337053
#
# Stress axis : x y z
#
# Youngs Moduli (GPa) = 53.37834 73.29356 78.35207
#
# Poissons Ratio (x) = 0.25931 0.38451
# Poissons Ratio (y) = 0.18885 0.19116
# Poissons Ratio (z) = 0.26195 0.17882
#
# Static dielectric constant tensor:
#      x y z
#    x 3.906330 0.000000 0.000000 
#    y 0.000000 3.699760 0.000000 
#    z 0.000000 0.000000 3.790590 
# 
# 
# High freq. dielectric constant tensor:
#      x y z
#    x 1.814910 0.000000 0.000000 
#    y 0.000000 1.813610 0.000000 
#    z 0.000000 0.000000 1.816950 
# 
# From -- ./inp_files/25778.got.cif
#   From: 2010.03.12/outbox.cif.g09.slc.cpg/sg51_13_cif.got.tgz:25778.got - 2010.04.16 13:43:02.
