data_PCOD8213046
_publ_section_title
;
Structure prediction by ZEFSAII (Michael W. Deem and Ramdas Pophale) SiO2 
 PCOD8213046
Probable space group: P M M A
;
_chemical_formula_sum "Si O2"
_cell_formula_units_Z 64
_cell_length_a 14.319023
_cell_length_b 8.826808
_cell_length_c 27.912045
_cell_angle_alpha 90.000000
_cell_angle_beta 90.000000
_cell_angle_gamma 90.000000
_cell_volume 3527.838726
_symmetry_space_group_name_H-M "P M M A"
_symmetry_group_IT_number 51
_symmetry_cell_setting 'orthorhombic'
loop_
_space_group_symop_operation_xyz
x,y,z
1/2-x,-y,z
1/2+x,-y,-z
-x,y,-z
-x,-y,-z
1/2+x,y,-z
1/2-x,y,z
x,-y,z
loop_
_atom_site_type_symbol
_atom_site_label
_atom_site_fract_x
_atom_site_fract_y
_atom_site_fract_z
Si Si1 0.468148 0.676246 0.385677
Si Si2 0.857096 0.824102 0.699279
Si Si3 0.142353 0.824896 0.025911
Si Si4 0.641847 0.172422 0.532844
Si Si5 0.143357 0.678196 0.200922
Si Si6 0.643366 0.678153 0.073167
Si Si7 0.526258 0.821046 0.882648
Si Si8 0.644007 0.176028 0.422059
O O1 0.459010 0.500000 0.373920
O O2 0.421793 0.772479 0.343849
O O3 0.418128 0.712710 0.435780
O O4 0.576710 0.722547 0.389306
O O5 0.750000 0.792305 0.684789
O O6 0.885167 0.729882 0.746100
O O7 0.873975 0.000000 0.710074
O O8 0.250000 0.797093 0.038617
O O9 0.084181 0.765712 0.071119
O O10 0.121407 0.000000 0.014710
O O11 0.111355 0.730853 0.979551
O O12 0.750000 0.194738 0.545376
O O13 0.622525 0.209401 0.477591
O O14 0.611413 0.000000 0.544537
O O15 0.250000 0.727618 0.189735
O O16 0.130841 0.500000 0.196679
O O17 0.073915 0.757843 0.164548
O O18 0.750000 0.728905 0.082846
O O19 0.631564 0.500000 0.076979
O O20 0.578734 0.756931 0.113082
O O21 0.523443 0.000000 0.878927
O O22 0.750000 0.221857 0.409653
O O23 0.627053 0.000000 0.410921
#
# Coordination Sequence:
#
# PCOD8213046 Si02
#       8
#     8   8   8   8   8   8   8   8
#     4  12  23  32  49  78 109 139 171 211 261 313
#     4  10  21  38  59  80 104 136 173 211 251 301
#     4   9  18  32  49  72 104 139 174 212 254 304
#     4   9  18  33  52  74 102 138 179 218 255 301
#     4  10  21  37  57  82 111 137 163 204 258 310
#     4  10  21  35  50  71 102 139 178 221 266 307
#     4  11  21  33  53  78 104 138 178 214 252 306
#     4   9  19  36  55  73  98 137 182 222 257 299
#
# _framework density 18.141418000000002
#
# number of rings (size 3 to 8) (size 9 to 14) (size 15 to 20)
#    0.000    2.000    0.000    4.875    0.000    9.250 
#    0.000    2.500    0.000    0.750    0.000    0.000 
#    0.000    0.000    0.000    0.000    0.000    0.000 
#
# Total GULP energy -793864.040264 kJ/mol
# GULP energy per Si atom -12404.125629 kJ/mol
# Density = 1.810013 g / cm^3
# Si number density = 18.141418 Si / 1000 Ang^3
#
#
#
# Elastic Constant Matrix: (Units=GPa)
#
#
# Indices 1 2 3 4 5 6 
#
# 1 92.0838 30.2319 54.1874 0.0000 0.0000 0.0000
# 2 30.2319 56.3393 22.7459 0.0000 0.0000 0.0000
# 3 54.1874 22.7459 71.5566 0.0000 0.0000 0.0000
# 4 0.0000 0.0000 0.0000 -34.4307 0.0000 0.0000
# 5 0.0000 0.0000 0.0000 0.0000 31.2578 0.0000
# 6 0.0000 0.0000 0.0000 0.0000 0.0000 27.2652
#
#
#
# Elastic Compliance Matrix: (Units=1/GPa)
#
#
# Indices 1 2 3 4 5 6 
#
# 1 0.021006 -0.005564 -0.014139 0.000000 0.000000 0.000000
# 2 -0.005564 0.021837 -0.002728 0.000000 0.000000 0.000000
# 3 -0.014139 -0.002728 0.025549 0.000000 0.000000 0.000000
# 4 0.000000 0.000000 0.000000 -0.029044 0.000000 0.000000
# 5 0.000000 0.000000 0.000000 0.000000 0.031992 0.000000
# 6 0.000000 0.000000 0.000000 0.000000 0.000000 0.036677
#
#
# Mechanical properties :
#
#
# Convention : Reuss Voigt Hill
#
# Bulk Modulus (GPa) = 42.49776 48.25669 45.37722
# Shear Modulus (GPa) = 31.10966 12.33943 21.72454
#
# Velocity S-wave (km/s) = 4.14556 2.61086 3.46426
# Velocity P-wave (km/s) = 6.81108 5.97886 6.40850
#
# Compressibility (1/GPa) = 0.02353065
#
# Stress axis : x y z
#
# Youngs Moduli (GPa) = 47.60438 45.79484 39.14053
#
# Poissons Ratio (x) = 0.25480 0.55340
# Poissons Ratio (y) = 0.26487 0.10677
# Poissons Ratio (z) = 0.67307 0.12492
#
# Static dielectric constant tensor:
#      x y z
#    x 3.468210 0.000000 0.000000 
#    y 0.000000 3.315500 0.000000 
#    z 0.000000 0.000000 3.194190 
# 
# 
# High freq. dielectric constant tensor:
#      x y z
#    x 1.707180 0.000000 0.000000 
#    y 0.000000 1.705060 0.000000 
#    z 0.000000 0.000000 1.683330 
# 
# From -- ./inp_files/35633.got.cif
#   From: 2010.03.12/outbox.cif.g09.slc.cpg/sg51_18_cif.got.tgz:35633.got - 2010.04.16 13:43:02.
