data_PCOD8213956
_publ_section_title
;
Structure prediction by ZEFSAII (Michael W. Deem and Ramdas Pophale) SiO2 
 PCOD8213956
Probable space group: P M M A
;
_chemical_formula_sum "Si O2"
_cell_formula_units_Z 48
_cell_length_a 30.788680
_cell_length_b 8.888103
_cell_length_c 8.876847
_cell_angle_alpha 90.000000
_cell_angle_beta 90.000000
_cell_angle_gamma 90.000000
_cell_volume 2429.175449
_symmetry_space_group_name_H-M "P M M A"
_symmetry_group_IT_number 51
_symmetry_cell_setting 'orthorhombic'
loop_
_space_group_symop_operation_xyz
x,y,z
1/2-x,-y,z
1/2+x,-y,-z
-x,y,-z
-x,-y,-z
1/2+x,y,-z
1/2-x,y,z
x,-y,z
loop_
_atom_site_type_symbol
_atom_site_label
_atom_site_fract_x
_atom_site_fract_y
_atom_site_fract_z
Si Si1 0.921807 0.326940 0.174209
Si Si2 0.333509 0.326467 0.652776
Si Si3 0.250000 0.821585 0.165892
Si Si4 0.417120 0.675619 0.174575
Si Si5 0.750000 0.676315 0.158169
Si Si6 0.664249 0.822292 0.666943
Si Si7 0.998446 0.825934 0.675987
O O1 0.936360 0.500000 0.195648
O O2 0.875001 0.296721 0.244206
O O3 0.955497 0.217648 0.254472
O O4 0.919730 0.282973 0.000095
O O5 0.329709 0.500000 0.604479
O O6 0.291933 0.274428 0.747474
O O7 0.336797 0.226972 0.505143
O O8 0.292311 0.759865 0.253207
O O9 0.250000 0.000000 0.162444
O O10 0.250000 0.763220 0.997352
O O11 0.409844 0.500000 0.201063
O O12 0.377191 0.761552 0.246486
O O13 0.461564 0.723764 0.252094
O O14 0.750000 0.500000 0.122603
O O15 0.662660 0.000000 0.672860
O O16 0.000000 0.792326 0.500000
O O17 0.988588 0.000000 0.709866
#
# Coordination Sequence:
#
# PCOD8213956 Si02
#       7
#     8   8   4   8   4   8   8
#     4  10  22  39  59  85 116 151 192 238 290 345
#     4  10  21  38  60  87 118 152 192 240 291 340
#     4  10  23  40  58  84 120 158 193 236 290 342
#     4  11  23  40  62  87 116 151 192 240 292 344
#     4  10  21  38  62  90 118 152 199 246 286 340
#     4  11  23  39  59  86 119 155 196 238 285 345
#     4  11  24  40  59  86 118 152 192 237 286 344
#
# _framework density 19.759792000000001
#
# number of rings (size 3 to 8) (size 9 to 14) (size 15 to 20)
#    0.000    1.500    0.000    4.500    0.000   11.333 
#    0.000    0.000    0.000    0.000    0.000    0.000 
#    0.000    0.000    0.000    0.000    0.000    0.000 
#
# Total GULP energy -595520.069550 kJ/mol
# GULP energy per Si atom -12406.668116 kJ/mol
# Density = 1.971482 g / cm^3
# Si number density = 19.759792 Si / 1000 Ang^3
#
#
#
# Elastic Constant Matrix: (Units=GPa)
#
#
# Indices 1 2 3 4 5 6 
#
# 1 133.1590 36.5963 60.4677 0.0000 0.0000 0.0000
# 2 36.5963 46.5035 48.5655 0.0000 0.0000 0.0000
# 3 60.4677 48.5655 143.0170 0.0000 0.0000 0.0000
# 4 0.0000 0.0000 0.0000 68.4542 0.0000 0.0000
# 5 0.0000 0.0000 0.0000 0.0000 47.3131 0.0000
# 6 0.0000 0.0000 0.0000 0.0000 0.0000 36.4526
#
#
#
# Elastic Compliance Matrix: (Units=1/GPa)
#
#
# Indices 1 2 3 4 5 6 
#
# 1 0.010101 -0.005406 -0.002435 0.000000 0.000000 0.000000
# 2 -0.005406 0.036214 -0.010012 0.000000 0.000000 0.000000
# 3 -0.002435 -0.010012 0.011421 0.000000 0.000000 0.000000
# 4 0.000000 0.000000 0.000000 0.014608 0.000000 0.000000
# 5 0.000000 0.000000 0.000000 0.000000 0.021136 0.000000
# 6 0.000000 0.000000 0.000000 0.000000 0.000000 0.027433
#
#
# Mechanical properties :
#
#
# Convention : Reuss Voigt Hill
#
# Bulk Modulus (GPa) = 45.39126 68.21537 56.80332
# Shear Modulus (GPa) = 30.49463 42.24731 36.37097
#
# Velocity S-wave (km/s) = 3.93271 4.62892 4.29494
# Velocity P-wave (km/s) = 6.60628 7.94773 7.30785
#
# Compressibility (1/GPa) = 0.02203067
#
# Stress axis : x y z
#
# Youngs Moduli (GPa) = 98.99619 27.61373 87.55488
#
# Poissons Ratio (x) = 0.14929 0.21319
# Poissons Ratio (y) = 0.53522 0.87657
# Poissons Ratio (z) = 0.24105 0.27646
#
# Static dielectric constant tensor:
#      x y z
#    x 3.841800 0.000000 0.000000 
#    y 0.000000 3.581600 0.000000 
#    z 0.000000 0.000000 3.700640 
# 
# 
# High freq. dielectric constant tensor:
#      x y z
#    x 1.791320 0.000000 0.000000 
#    y 0.000000 1.769720 0.000000 
#    z 0.000000 0.000000 1.787900 
# 
# From -- ./inp_files/12910.got.cif
#   From: 2010.03.12/outbox.cif.g09.slc.cpg/sg51_7_cif.got.tgz:12910.got - 2010.04.16 13:43:02.
