data_PCOD8213484
_publ_section_title
;
Structure prediction by ZEFSAII (Michael W. Deem and Ramdas Pophale) SiO2 
 PCOD8213484
Probable space group: P M M A
;
_chemical_formula_sum "Si O2"
_cell_formula_units_Z 40
_cell_length_a 13.876418
_cell_length_b 13.979665
_cell_length_c 9.503151
_cell_angle_alpha 90.000000
_cell_angle_beta 90.000000
_cell_angle_gamma 90.000000
_cell_volume 1843.494168
_symmetry_space_group_name_H-M "P M M A"
_symmetry_group_IT_number 51
_symmetry_cell_setting 'orthorhombic'
loop_
_space_group_symop_operation_xyz
x,y,z
1/2-x,-y,z
1/2+x,-y,-z
-x,y,-z
-x,-y,-z
1/2+x,y,-z
1/2-x,y,z
x,-y,z
loop_
_atom_site_type_symbol
_atom_site_label
_atom_site_fract_x
_atom_site_fract_y
_atom_site_fract_z
Si Si1 0.888441 0.891499 0.477401
Si Si2 0.250000 0.387569 0.561154
Si Si3 0.541820 0.613398 0.354616
Si Si4 0.250000 0.888451 0.772668
Si Si5 0.250000 0.739145 0.030597
Si Si6 0.250000 0.226457 0.350061
Si Si7 0.417042 0.396299 0.104671
O O1 0.845619 0.865880 0.321973
O O2 0.844351 0.825015 0.594973
O O3 0.000000 0.873783 0.500000
O O4 0.859417 0.000000 0.509677
O O5 0.250000 0.500000 0.526884
O O6 0.155572 0.356897 0.652958
O O7 0.250000 0.336304 0.407600
O O8 0.500000 0.652482 0.500000
O O9 0.535066 0.500000 0.342124
O O10 0.469818 0.656535 0.236918
O O11 0.250000 0.000000 0.821692
O O12 0.250000 0.820111 0.909766
O O13 0.250000 0.785696 0.183933
O O14 0.156232 0.672465 0.023342
O O15 0.369171 0.500000 0.145905
O O16 0.500000 0.422373 0.000000
#
# Coordination Sequence:
#
# PCOD8213484 Si02
#       7
#     8   4   8   4   4   4   8
#     4   9  20  43  71  93 117 152 196 250 308 366
#     4  10  21  36  57  87 124 169 218 268 319 363
#     4   9  18  34  56  80 109 150 204 261 309 357
#     4   9  21  42  67  96 126 157 196 245 305 373
#     4  12  25  38  60  91 128 167 197 246 314 373
#     4  11  23  34  58  94 124 159 203 251 300 365
#     4  10  23  41  58  81 118 164 211 254 297 355
#
# _framework density 21.697925000000001
#
# number of rings (size 3 to 8) (size 9 to 14) (size 15 to 20)
#    0.000    2.200    0.000    2.400    0.000   11.200 
#    0.000    3.000    0.000    4.200    0.000    0.000 
#    0.000    0.000    0.000    0.000    0.000    0.000 
#
# Total GULP energy -495534.934651 kJ/mol
# GULP energy per Si atom -12388.373366 kJ/mol
# Density = 2.164854 g / cm^3
# Si number density = 21.697925 Si / 1000 Ang^3
#
#
#
# Elastic Constant Matrix: (Units=GPa)
#
#
# Indices 1 2 3 4 5 6 
#
# 1 150.0297 57.8008 48.8114 0.0000 0.0000 0.0000
# 2 57.8008 105.1837 60.1234 0.0000 0.0000 0.0000
# 3 48.8114 60.1234 129.8464 0.0000 0.0000 0.0000
# 4 0.0000 0.0000 0.0000 37.3465 0.0000 0.0000
# 5 0.0000 0.0000 0.0000 0.0000 26.6111 0.0000
# 6 0.0000 0.0000 0.0000 0.0000 0.0000 28.7785
#
#
#
# Elastic Compliance Matrix: (Units=1/GPa)
#
#
# Indices 1 2 3 4 5 6 
#
# 1 0.008646 -0.003935 -0.001428 0.000000 0.000000 0.000000
# 2 -0.003935 0.014720 -0.005337 0.000000 0.000000 0.000000
# 3 -0.001428 -0.005337 0.010709 0.000000 0.000000 0.000000
# 4 0.000000 0.000000 0.000000 0.026776 0.000000 0.000000
# 5 0.000000 0.000000 0.000000 0.000000 0.037578 0.000000
# 6 0.000000 0.000000 0.000000 0.000000 0.000000 0.034748
#
#
# Mechanical properties :
#
#
# Convention : Reuss Voigt Hill
#
# Bulk Modulus (GPa) = 78.89006 79.83679 79.36343
# Shear Modulus (GPa) = 31.48564 33.10216 32.29390
#
# Velocity S-wave (km/s) = 3.81345 3.91012 3.86209
# Velocity P-wave (km/s) = 7.47176 7.56703 7.51954
#
# Compressibility (1/GPa) = 0.01267587
#
# Stress axis : x y z
#
# Youngs Moduli (GPa) = 115.66153 67.93541 93.37621
#
# Poissons Ratio (x) = 0.26731 0.13336
# Poissons Ratio (y) = 0.45510 0.49832
# Poissons Ratio (z) = 0.16519 0.36255
#
# Static dielectric constant tensor:
#      x y z
#    x 4.265620 0.000000 0.000000 
#    y 0.000000 3.907230 0.000000 
#    z 0.000000 0.000000 4.072620 
# 
# 
# High freq. dielectric constant tensor:
#      x y z
#    x 1.867450 0.000000 0.000000 
#    y 0.000000 1.846940 0.000000 
#    z 0.000000 0.000000 1.836690 
# 
# From -- ./inp_files/8044.got.cif
#   From: 2010.03.12/outbox.cif.g09.slc.cpg/sg51_5_cif.got.tgz:8044.got - 2010.04.16 13:43:02.
