data_PCOD8213907
_publ_section_title
;
Structure prediction by ZEFSAII (Michael W. Deem and Ramdas Pophale) SiO2 
 PCOD8213907
Probable space group: P M M A
;
_chemical_formula_sum "Si O2"
_cell_formula_units_Z 40
_cell_length_a 13.686191
_cell_length_b 14.528679
_cell_length_c 9.738439
_cell_angle_alpha 90.000000
_cell_angle_beta 90.000000
_cell_angle_gamma 90.000000
_cell_volume 1936.413373
_symmetry_space_group_name_H-M "P M M A"
_symmetry_group_IT_number 51
_symmetry_cell_setting 'orthorhombic'
loop_
_space_group_symop_operation_xyz
x,y,z
1/2-x,-y,z
1/2+x,-y,-z
-x,y,-z
-x,-y,-z
1/2+x,y,-z
1/2-x,y,z
x,-y,z
loop_
_atom_site_type_symbol
_atom_site_label
_atom_site_fract_x
_atom_site_fract_y
_atom_site_fract_z
Si Si1 0.866114 0.223257 0.629136
Si Si2 0.138621 0.604804 0.829457
Si Si3 0.138993 0.402356 0.507963
Si Si4 0.134526 0.103884 0.629057
Si Si5 0.521190 0.216314 0.148097
O O1 0.750000 0.222600 0.650649
O O2 0.910676 0.320111 0.574938
O O3 0.898516 0.147496 0.516668
O O4 0.917326 0.210329 0.774649
O O5 0.250000 0.622434 0.881353
O O6 0.107067 0.500000 0.870633
O O7 0.134919 0.617892 0.667479
O O8 0.063881 0.681395 0.886760
O O9 0.250000 0.407213 0.459507
O O10 0.087587 0.500000 0.471126
O O11 0.250000 0.107412 0.638345
O O12 0.097647 0.159179 0.761549
O O13 0.094354 0.000000 0.633790
O O14 0.500000 0.169976 0.000000
#
# Coordination Sequence:
#
# PCOD8213907 Si02
#       5
#     8   8   8   8   8
#     4  10  21  38  59  87 119 153 198 248 294 344
#     4   9  18  35  59  85 117 159 204 247 291 343
#     4   8  14  28  54  84 110 141 189 246 292 329
#     4  10  22  43  69  90 111 146 195 249 301 353
#     4  12  25  37  57  89 127 161 196 235 291 358
#
# _framework density 20.656746999999999
#
# number of rings (size 3 to 8) (size 9 to 14) (size 15 to 20)
#    0.000    2.200    2.000    2.400    0.000    4.800 
#    0.000    2.000    0.000    4.800    0.000    0.000 
#    0.000    0.000    0.000    0.000    0.000    0.000 
#
# Total GULP energy -495654.338177 kJ/mol
# GULP energy per Si atom -12391.358454 kJ/mol
# Density = 2.060973 g / cm^3
# Si number density = 20.656747 Si / 1000 Ang^3
#
#
#
# Elastic Constant Matrix: (Units=GPa)
#
#
# Indices 1 2 3 4 5 6 
#
# 1 70.3805 32.2194 31.2583 0.0000 0.0000 0.0000
# 2 32.2194 120.3781 45.4651 0.0000 0.0000 0.0000
# 3 31.2583 45.4651 114.9241 0.0000 0.0000 0.0000
# 4 0.0000 0.0000 0.0000 -13.9411 0.0000 0.0000
# 5 0.0000 0.0000 0.0000 0.0000 21.1858 0.0000
# 6 0.0000 0.0000 0.0000 0.0000 0.0000 15.4575
#
#
#
# Elastic Compliance Matrix: (Units=1/GPa)
#
#
# Indices 1 2 3 4 5 6 
#
# 1 0.017233 -0.003341 -0.003365 0.000000 0.000000 0.000000
# 2 -0.003341 0.010414 -0.003211 0.000000 0.000000 0.000000
# 3 -0.003365 -0.003211 0.010887 0.000000 0.000000 0.000000
# 4 0.000000 0.000000 0.000000 -0.071730 0.000000 0.000000
# 5 0.000000 0.000000 0.000000 0.000000 0.047201 0.000000
# 6 0.000000 0.000000 0.000000 0.000000 0.000000 0.064693
#
#
# Mechanical properties :
#
#
# Convention : Reuss Voigt Hill
#
# Bulk Modulus (GPa) = 53.48019 58.17424 55.82721
# Shear Modulus (GPa) = 47.72497 17.65645 32.69071
#
# Velocity S-wave (km/s) = 4.81186 2.92679 3.98247
# Velocity P-wave (km/s) = 7.53778 6.29642 6.94489
#
# Compressibility (1/GPa) = 0.01869851
#
# Stress axis : x y z
#
# Youngs Moduli (GPa) = 58.02913 96.02184 91.85188
#
# Poissons Ratio (x) = 0.32084 0.30911
# Poissons Ratio (y) = 0.19390 0.29495
# Poissons Ratio (z) = 0.19528 0.30834
#
# Static dielectric constant tensor:
#      x y z
#    x 3.712160 0.000000 0.000000 
#    y 0.000000 4.186390 0.000000 
#    z 0.000000 0.000000 3.354240 
# 
# 
# High freq. dielectric constant tensor:
#      x y z
#    x 1.816630 0.000000 0.000000 
#    y 0.000000 1.810820 0.000000 
#    z 0.000000 0.000000 1.773680 
# 
# From -- ./inp_files/7905.got.cif
#   From: 2010.03.12/outbox.cif.g09.slc.cpg/sg51_4_cif.got.tgz:7905.got - 2010.04.16 13:43:02.
