data_PCOD8213503
_publ_section_title
;
Structure prediction by ZEFSAII (Michael W. Deem and Ramdas Pophale) SiO2 
 PCOD8213503
Probable space group: P M M A
;
_chemical_formula_sum "Si O2"
_cell_formula_units_Z 44
_cell_length_a 8.768471
_cell_length_b 15.056421
_cell_length_c 17.589791
_cell_angle_alpha 90.000000
_cell_angle_beta 90.000000
_cell_angle_gamma 90.000000
_cell_volume 2322.235709
_symmetry_space_group_name_H-M "P M M A"
_symmetry_group_IT_number 51
_symmetry_cell_setting 'orthorhombic'
loop_
_space_group_symop_operation_xyz
x,y,z
1/2-x,-y,z
1/2+x,-y,-z
-x,y,-z
-x,-y,-z
1/2+x,y,-z
1/2-x,y,z
x,-y,z
loop_
_atom_site_type_symbol
_atom_site_label
_atom_site_fract_x
_atom_site_fract_y
_atom_site_fract_z
Si Si1 0.422432 0.848393 0.922477
Si Si2 0.571029 0.600773 0.417255
Si Si3 0.077356 0.335432 0.854359
Si Si4 0.071612 0.100614 0.757295
Si Si5 0.069427 0.732281 0.297141
Si Si6 0.923924 0.500000 0.919998
O O1 0.250000 0.880623 0.929070
O O2 0.436623 0.741651 0.917330
O O3 0.491345 0.889914 0.844480
O O4 0.500000 0.882573 0.000000
O O5 0.500000 0.607555 0.500000
O O6 0.750000 0.623576 0.419682
O O7 0.545968 0.500000 0.385406
O O8 0.482054 0.674232 0.368668
O O9 0.250000 0.371206 0.850287
O O10 0.028450 0.300868 0.773162
O O11 0.964172 0.413924 0.872698
O O12 0.250000 0.128162 0.756150
O O13 0.977558 0.163217 0.698282
O O14 0.047389 0.000000 0.729451
O O15 0.250000 0.722432 0.285474
O O16 0.750000 0.500000 0.938472
O O17 0.000000 0.500000 0.000000
#
# Coordination Sequence:
#
# PCOD8213503 Si02
#       6
#     8   8   8   8   8   4
#     4   9  18  31  49  72  99 134 176 226 282 335
#     4  10  21  38  61  89 121 155 188 223 267 322
#     4  10  21  37  53  71 100 141 187 232 278 330
#     4   9  19  37  57  77 106 146 191 235 284 341
#     4  11  22  36  57  85 116 147 184 230 279 335
#     4  12  24  36  50  72 101 138 183 232 284 336
#
# _framework density 18.947257
#
# number of rings (size 3 to 8) (size 9 to 14) (size 15 to 20)
#    0.000    2.000    0.000    5.182    1.273    6.909 
#    0.000    0.000    0.000    0.545    0.000    0.000 
#    0.000    0.000    0.000    0.000    0.000    0.000 
#
# Total GULP energy -545442.475203 kJ/mol
# GULP energy per Si atom -12396.419891 kJ/mol
# Density = 1.890413 g / cm^3
# Si number density = 18.947257 Si / 1000 Ang^3
#
#
#
# Elastic Constant Matrix: (Units=GPa)
#
#
# Indices 1 2 3 4 5 6 
#
# 1 97.1998 33.4676 22.4607 0.0000 0.0000 0.0000
# 2 33.4676 101.9606 31.4499 0.0000 0.0000 0.0000
# 3 22.4607 31.4499 63.1805 0.0000 0.0000 0.0000
# 4 0.0000 0.0000 0.0000 38.5776 0.0000 0.0000
# 5 0.0000 0.0000 0.0000 0.0000 32.3823 0.0000
# 6 0.0000 0.0000 0.0000 0.0000 0.0000 24.2426
#
#
#
# Elastic Compliance Matrix: (Units=1/GPa)
#
#
# Indices 1 2 3 4 5 6 
#
# 1 0.011982 -0.003094 -0.002719 0.000000 0.000000 0.000000
# 2 -0.003094 0.012386 -0.005065 0.000000 0.000000 0.000000
# 3 -0.002719 -0.005065 0.019316 0.000000 0.000000 0.000000
# 4 0.000000 0.000000 0.000000 0.025922 0.000000 0.000000
# 5 0.000000 0.000000 0.000000 0.000000 0.030881 0.000000
# 6 0.000000 0.000000 0.000000 0.000000 0.000000 0.041250
#
#
# Mechanical properties :
#
#
# Convention : Reuss Voigt Hill
#
# Bulk Modulus (GPa) = 45.60863 48.56634 47.08749
# Shear Modulus (GPa) = 29.27363 30.70470 29.98917
#
# Velocity S-wave (km/s) = 3.93492 4.02995 3.98272
# Velocity P-wave (km/s) = 6.69092 6.88056 6.78640
#
# Compressibility (1/GPa) = 0.02192567
#
# Stress axis : x y z
#
# Youngs Moduli (GPa) = 83.45970 80.73791 51.77099
#
# Poissons Ratio (x) = 0.24981 0.14078
# Poissons Ratio (y) = 0.25824 0.26224
# Poissons Ratio (z) = 0.22696 0.40897
#
# Static dielectric constant tensor:
#      x y z
#    x 3.434560 0.000000 0.000000 
#    y 0.000000 3.741650 0.000000 
#    z 0.000000 0.000000 3.130400 
# 
# 
# High freq. dielectric constant tensor:
#      x y z
#    x 1.739880 0.000000 0.000000 
#    y 0.000000 1.741200 0.000000 
#    z 0.000000 0.000000 1.711990 
# 
# From -- ./inp_files/27371.got.cif
#   From: 2010.03.12/outbox.cif.g09.slc.cpg/sg51_14_cif.got.tgz:27371.got - 2010.04.16 13:43:02.
