data_PCOD8213806
_publ_section_title
;
Structure prediction by ZEFSAII (Michael W. Deem and Ramdas Pophale) SiO2 
 PCOD8213806
Probable space group: P M M A
;
_chemical_formula_sum "Si O2"
_cell_formula_units_Z 40
_cell_length_a 29.747551
_cell_length_b 8.855898
_cell_length_c 7.649452
_cell_angle_alpha 90.000000
_cell_angle_beta 90.000000
_cell_angle_gamma 90.000000
_cell_volume 2015.181406
_symmetry_space_group_name_H-M "P M M A"
_symmetry_group_IT_number 51
_symmetry_cell_setting 'orthorhombic'
loop_
_space_group_symop_operation_xyz
x,y,z
1/2-x,-y,z
1/2+x,-y,-z
-x,y,-z
-x,-y,-z
1/2+x,y,-z
1/2-x,y,z
x,-y,z
loop_
_atom_site_type_symbol
_atom_site_label
_atom_site_fract_x
_atom_site_fract_y
_atom_site_fract_z
Si Si1 0.357264 0.319738 0.432068
Si Si2 0.302050 0.824856 0.731683
Si Si3 0.137901 0.177347 0.057547
Si Si4 0.951913 0.666982 0.954272
Si Si5 0.046509 0.665605 0.453582
O O1 0.358435 0.500000 0.417080
O O2 0.319001 0.268487 0.564917
O O3 0.347652 0.255127 0.238986
O O4 0.405850 0.259312 0.509998
O O5 0.250000 0.787972 0.757296
O O6 0.310903 0.000000 0.692254
O O7 0.326219 0.775264 0.910595
O O8 0.089283 0.229485 0.983020
O O9 0.136767 0.000000 0.090603
O O10 0.948729 0.500000 0.042733
O O11 0.948226 0.648198 0.750253
O O12 0.000000 0.743156 0.000000
O O13 0.042419 0.500000 0.543534
O O14 0.000000 0.756686 0.500000
#
# Coordination Sequence:
#
# PCOD8213806 Si02
#       5
#     8   8   8   8   8
#     4  10  21  37  60  88 118 150 191 244 295 342
#     4  10  23  42  62  84 112 153 199 238 290 354
#     4  10  21  38  59  83 118 158 196 238 288 351
#     4   9  18  31  51  79 111 150 194 237 287 343
#     4   8  15  28  47  75 108 144 183 222 273 338
#
# _framework density 19.849328
#
# number of rings (size 3 to 8) (size 9 to 14) (size 15 to 20)
#    0.000    2.600    0.000    2.400    2.800    3.200 
#    0.000    2.000    0.000    3.000    0.000    0.000 
#    0.000    0.000    0.000    0.000    0.000    0.000 
#
# Total GULP energy -495619.776656 kJ/mol
# GULP energy per Si atom -12390.494416 kJ/mol
# Density = 1.980415 g / cm^3
# Si number density = 19.849328 Si / 1000 Ang^3
#
#
#
# Elastic Constant Matrix: (Units=GPa)
#
#
# Indices 1 2 3 4 5 6 
#
# 1 166.6162 47.9445 72.0770 0.0000 0.0000 0.0000
# 2 47.9445 65.0450 43.5655 0.0000 0.0000 0.0000
# 3 72.0770 43.5655 95.7515 0.0000 0.0000 0.0000
# 4 0.0000 0.0000 0.0000 24.0780 0.0000 0.0000
# 5 0.0000 0.0000 0.0000 0.0000 37.2737 0.0000
# 6 0.0000 0.0000 0.0000 0.0000 0.0000 36.6309
#
#
#
# Elastic Compliance Matrix: (Units=1/GPa)
#
#
# Indices 1 2 3 4 5 6 
#
# 1 0.009321 -0.003123 -0.005596 0.000000 0.000000 0.000000
# 2 -0.003123 0.023159 -0.008186 0.000000 0.000000 0.000000
# 3 -0.005596 -0.008186 0.018380 0.000000 0.000000 0.000000
# 4 0.000000 0.000000 0.000000 0.041532 0.000000 0.000000
# 5 0.000000 0.000000 0.000000 0.000000 0.026829 0.000000
# 6 0.000000 0.000000 0.000000 0.000000 0.000000 0.027299
#
#
# Mechanical properties :
#
#
# Convention : Reuss Voigt Hill
#
# Bulk Modulus (GPa) = 58.64763 72.73186 65.68975
# Shear Modulus (GPa) = 26.87994 30.51824 28.69909
#
# Velocity S-wave (km/s) = 3.68394 3.92534 3.80655
# Velocity P-wave (km/s) = 6.90693 7.56743 7.24471
#
# Compressibility (1/GPa) = 0.01705099
#
# Stress axis : x y z
#
# Youngs Moduli (GPa) = 107.28448 43.18047 54.40570
#
# Poissons Ratio (x) = 0.13484 0.30443
# Poissons Ratio (y) = 0.33502 0.44538
# Poissons Ratio (z) = 0.60032 0.35348
#
# Static dielectric constant tensor:
#      x y z
#    x 4.201620 0.000000 0.000000 
#    y 0.000000 3.472010 0.000000 
#    z 0.000000 0.000000 3.475400 
# 
# 
# High freq. dielectric constant tensor:
#      x y z
#    x 1.788150 0.000000 0.000000 
#    y 0.000000 1.741070 0.000000 
#    z 0.000000 0.000000 1.771410 
# 
# From -- ./inp_files/12129.got.cif
#   From: 2010.03.12/outbox.cif.g09.slc.cpg/sg51_7_cif.got.tgz:12129.got - 2010.04.16 13:43:02.
