data_PCOD8213646
_publ_section_title
;
Structure prediction by ZEFSAII (Michael W. Deem and Ramdas Pophale) SiO2 
 PCOD8213646
Probable space group: P M M A
;
_chemical_formula_sum "Si O2"
_cell_formula_units_Z 48
_cell_length_a 8.885378
_cell_length_b 9.276714
_cell_length_c 30.785331
_cell_angle_alpha 90.000000
_cell_angle_beta 90.000000
_cell_angle_gamma 90.000000
_cell_volume 2537.545880
_symmetry_space_group_name_H-M "P M M A"
_symmetry_group_IT_number 51
_symmetry_cell_setting 'orthorhombic'
loop_
_space_group_symop_operation_xyz
x,y,z
1/2-x,-y,z
1/2+x,-y,-z
-x,y,-z
-x,-y,-z
1/2+x,y,-z
1/2-x,y,z
x,-y,z
loop_
_atom_site_type_symbol
_atom_site_label
_atom_site_fract_x
_atom_site_fract_y
_atom_site_fract_z
Si Si1 0.573015 0.164812 0.955184
Si Si2 0.575349 0.167540 0.800177
Si Si3 0.075268 0.331306 0.877403
Si Si4 0.070849 0.662581 0.626985
Si Si5 0.423216 0.166770 0.710561
Si Si6 0.427480 0.834819 0.544205
O O1 0.750000 0.181170 0.959631
O O2 0.516868 0.265603 0.916953
O O3 0.526383 0.000000 0.945022
O O4 0.500000 0.217914 0.000000
O O5 0.750000 0.205739 0.805849
O O6 0.477611 0.261719 0.832658
O O7 0.524238 0.207406 0.751756
O O8 0.544582 0.000000 0.810112
O O9 0.250000 0.297529 0.884420
O O10 0.042020 0.500000 0.875281
O O11 0.250000 0.667610 0.626290
O O12 0.009304 0.500000 0.627083
O O13 0.012954 0.741974 0.670245
O O14 0.007700 0.742936 0.584397
O O15 0.250000 0.205188 0.721157
O O16 0.439369 0.000000 0.697964
O O17 0.500000 0.774531 0.500000
O O18 0.250000 0.817949 0.540190
O O19 0.475012 0.000000 0.551994
#
# Coordination Sequence:
#
# PCOD8213646 Si02
#       6
#     8   8   8   8   8   8
#     4  10  21  38  61  87 113 144 183 225 269 317
#     4  10  21  37  57  81 108 139 176 218 265 316
#     4  11  24  39  56  81 112 146 183 222 266 316
#     4   9  17  29  47  71  97 126 162 204 248 296
#     4   9  17  31  52  75  98 128 167 209 252 300
#     4   9  17  30  48  69  93 123 160 201 245 294
#
# _framework density 18.915914000000001
#
# number of rings (size 3 to 8) (size 9 to 14) (size 15 to 20)
#    0.000    2.333    0.000    2.500    0.000    8.667 
#    0.000    2.500    0.000    5.000    0.000    0.000 
#    0.000    0.000    0.000    0.000    0.000    0.000 
#
# Total GULP energy -595358.750075 kJ/mol
# GULP energy per Si atom -12403.307293 kJ/mol
# Density = 1.887286 g / cm^3
# Si number density = 18.915914 Si / 1000 Ang^3
#
#
#
# Elastic Constant Matrix: (Units=GPa)
#
#
# Indices 1 2 3 4 5 6 
#
# 1 43.0499 30.1874 29.4279 0.0000 0.0000 0.0000
# 2 30.1874 93.3388 71.1171 0.0000 0.0000 0.0000
# 3 29.4279 71.1171 139.5374 0.0000 0.0000 0.0000
# 4 0.0000 0.0000 0.0000 0.7065 0.0000 0.0000
# 5 0.0000 0.0000 0.0000 0.0000 34.1673 0.0000
# 6 0.0000 0.0000 0.0000 0.0000 0.0000 20.8314
#
#
#
# Elastic Compliance Matrix: (Units=1/GPa)
#
#
# Indices 1 2 3 4 5 6 
#
# 1 0.030485 -0.008110 -0.002296 0.000000 0.000000 0.000000
# 2 -0.008110 0.019673 -0.008316 0.000000 0.000000 0.000000
# 3 -0.002296 -0.008316 0.011889 0.000000 0.000000 0.000000
# 4 0.000000 0.000000 0.000000 1.415492 0.000000 0.000000
# 5 0.000000 0.000000 0.000000 0.000000 0.029268 0.000000
# 6 0.000000 0.000000 0.000000 0.000000 0.000000 0.048004
#
#
# Mechanical properties :
#
#
# Convention : Reuss Voigt Hill
#
# Bulk Modulus (GPa) = 40.64545 59.71011 50.17778
# Shear Modulus (GPa) = 3.12411 20.82063 11.97237
#
# Velocity S-wave (km/s) = 1.28653 3.32127 2.51853
# Velocity P-wave (km/s) = 4.87247 6.80752 5.91960
#
# Compressibility (1/GPa) = 0.02460300
#
# Stress axis : x y z
#
# Youngs Moduli (GPa) = 32.80278 50.83125 84.11046
#
# Poissons Ratio (x) = 0.41226 0.19309
# Poissons Ratio (y) = 0.26604 0.69947
# Poissons Ratio (z) = 0.07531 0.42272
#
# Static dielectric constant tensor:
#      x y z
#    x 3.286740 0.000000 0.000000 
#    y 0.000000 3.515450 0.000000 
#    z 0.000000 0.000000 3.673830 
# 
# 
# High freq. dielectric constant tensor:
#      x y z
#    x 1.718970 0.000000 0.000000 
#    y 0.000000 1.730720 0.000000 
#    z 0.000000 0.000000 1.750330 
# 
# From -- ./inp_files/36924.got.cif
#   From: 2010.03.12/outbox.cif.g09.slc.cpg/sg51_19_cif.got.tgz:36924.got - 2010.04.16 13:43:02.
