data_PCOD8213006
_publ_section_title
;
Structure prediction by ZEFSAII (Michael W. Deem and Ramdas Pophale) SiO2 
 PCOD8213006
Probable space group: P M M A
;
_chemical_formula_sum "Si O2"
_cell_formula_units_Z 48
_cell_length_a 15.749253
_cell_length_b 18.826617
_cell_length_c 8.930444
_cell_angle_alpha 90.000000
_cell_angle_beta 90.000000
_cell_angle_gamma 90.000000
_cell_volume 2647.922676
_symmetry_space_group_name_H-M "P M M A"
_symmetry_group_IT_number 51
_symmetry_cell_setting 'orthorhombic'
loop_
_space_group_symop_operation_xyz
x,y,z
1/2-x,-y,z
1/2+x,-y,-z
-x,y,-z
-x,-y,-z
1/2+x,y,-z
1/2-x,y,z
x,-y,z
loop_
_atom_site_type_symbol
_atom_site_label
_atom_site_fract_x
_atom_site_fract_y
_atom_site_fract_z
Si Si1 0.918647 0.181398 0.396141
Si Si2 0.508171 0.082939 0.827076
Si Si3 0.001817 0.419411 0.678844
Si Si4 0.154898 0.326226 0.663015
Si Si5 0.343960 0.166356 0.306454
Si Si6 0.844446 0.671623 0.690370
O O1 0.884518 0.248835 0.303924
O O2 0.848360 0.153878 0.513696
O O3 0.000000 0.201866 0.500000
O O4 0.937228 0.121301 0.273671
O O5 0.600065 0.109872 0.780116
O O6 0.499341 0.000000 0.796039
O O7 0.500000 0.102271 0.000000
O O8 0.000296 0.500000 0.736634
O O9 0.089907 0.383489 0.735001
O O10 0.000000 0.415082 0.500000
O O11 0.918987 0.380193 0.749934
O O12 0.250000 0.333968 0.733394
O O13 0.161415 0.336914 0.486702
O O14 0.250000 0.150819 0.250902
O O15 0.369964 0.247660 0.267531
O O16 0.750000 0.652693 0.756086
#
# Coordination Sequence:
#
# PCOD8213006 Si02
#       6
#     8   8   8   8   8   8
#     4   9  16  29  51  70  87 117 161 203 237 277
#     4  10  21  35  49  68  98 131 155 184 239 302
#     4   9  15  21  31  53  88 126 156 181 220 279
#     4   9  15  24  39  59  85 117 154 195 233 269
#     4   9  17  31  52  73  92 120 162 207 242 277
#     4   8  14  25  41  61  84 113 152 196 237 273
#
# _framework density 18.127417000000001
#
# number of rings (size 3 to 8) (size 9 to 14) (size 15 to 20)
#    0.000    3.000    0.000    5.000    0.000    4.000 
#    0.000    5.000    0.000    3.500    0.000    0.000 
#    0.000   10.667    0.000   14.667    0.000   30.000 
#
# Total GULP energy -594805.910340 kJ/mol
# GULP energy per Si atom -12391.789799 kJ/mol
# Density = 1.808616 g / cm^3
# Si number density = 18.127417 Si / 1000 Ang^3
#
#
#
# Elastic Constant Matrix: (Units=GPa)
#
#
# Indices 1 2 3 4 5 6 
#
# 1 112.3749 63.9932 23.1062 0.0000 0.0000 0.0000
# 2 63.9932 110.7519 47.4987 0.0000 0.0000 0.0000
# 3 23.1062 47.4987 38.3013 0.0000 0.0000 0.0000
# 4 0.0000 0.0000 0.0000 0.5692 0.0000 0.0000
# 5 0.0000 0.0000 0.0000 0.0000 2.1456 0.0000
# 6 0.0000 0.0000 0.0000 0.0000 0.0000 18.2091
#
#
#
# Elastic Compliance Matrix: (Units=1/GPa)
#
#
# Indices 1 2 3 4 5 6 
#
# 1 0.013450 -0.009167 0.003255 0.000000 0.000000 0.000000
# 2 -0.009167 0.025536 -0.026137 0.000000 0.000000 0.000000
# 3 0.003255 -0.026137 0.056559 0.000000 0.000000 0.000000
# 4 0.000000 0.000000 0.000000 1.756707 0.000000 0.000000
# 5 0.000000 0.000000 0.000000 0.000000 0.466079 0.000000
# 6 0.000000 0.000000 0.000000 0.000000 0.000000 0.054918
#
#
# Mechanical properties :
#
#
# Convention : Reuss Voigt Hill
#
# Bulk Modulus (GPa) = 31.80172 58.95826 45.37999
# Shear Modulus (GPa) = 2.04263 12.64011 7.34137
#
# Velocity S-wave (km/s) = 1.06267 2.64349 2.01461
# Velocity P-wave (km/s) = 4.36889 6.47398 5.52266
#
# Compressibility (1/GPa) = 0.03144484
#
# Stress axis : x y z
#
# Youngs Moduli (GPa) = 74.34937 39.16078 17.68064
#
# Poissons Ratio (x) = 0.35900 -0.05754
# Poissons Ratio (y) = 0.68159 0.46212
# Poissons Ratio (z) = -0.24198 1.02356
#
# Static dielectric constant tensor:
#      x y z
#    x 3.839450 0.000000 0.000000 
#    y 0.000000 3.320760 0.000000 
#    z 0.000000 0.000000 2.757080 
# 
# 
# High freq. dielectric constant tensor:
#      x y z
#    x 1.716340 0.000000 0.000000 
#    y 0.000000 1.697600 0.000000 
#    z 0.000000 0.000000 1.633150 
# 
# From -- ./inp_files/9835.got.cif
#   From: 2010.03.12/outbox.cif.g09.slc.cpg/sg51_5_cif.got.tgz:9835.got - 2010.04.16 13:43:02.
