data_PCOD8213170
_publ_section_title
;
Structure prediction by ZEFSAII (Michael W. Deem and Ramdas Pophale) SiO2 
 PCOD8213170
Probable space group: P M M A
;
_chemical_formula_sum "Si O2"
_cell_formula_units_Z 56
_cell_length_a 21.493008
_cell_length_b 9.465134
_cell_length_c 14.410260
_cell_angle_alpha 90.000000
_cell_angle_beta 90.000000
_cell_angle_gamma 90.000000
_cell_volume 2931.539726
_symmetry_space_group_name_H-M "P M M A"
_symmetry_group_IT_number 51
_symmetry_cell_setting 'orthorhombic'
loop_
_space_group_symop_operation_xyz
x,y,z
1/2-x,-y,z
1/2+x,-y,-z
-x,y,-z
-x,-y,-z
1/2+x,y,-z
1/2-x,y,z
x,-y,z
loop_
_atom_site_type_symbol
_atom_site_label
_atom_site_fract_x
_atom_site_fract_y
_atom_site_fract_z
Si Si1 0.571030 0.163427 0.259682
Si Si2 0.180767 0.848647 0.266514
Si Si3 0.936550 0.168262 0.049137
Si Si4 0.678481 0.162481 0.396125
Si Si5 0.648340 0.341946 0.572741
Si Si6 0.179672 0.168162 0.067183
Si Si7 0.008512 0.341932 0.397908
O O1 0.566726 0.221772 0.155366
O O2 0.640250 0.187235 0.301254
O O3 0.520876 0.244994 0.320406
O O4 0.552392 0.000000 0.263453
O O5 0.250000 0.885008 0.234928
O O6 0.187565 0.742298 0.351932
O O7 0.153255 0.786891 0.169965
O O8 0.148660 0.000000 0.295283
O O9 0.936220 0.000000 0.045092
O O10 0.873390 0.228953 0.001890
O O11 0.000000 0.225237 0.000000
O O12 0.750000 0.203395 0.377111
O O13 0.649235 0.262520 0.474537
O O14 0.672905 0.000000 0.429362
O O15 0.675032 0.500000 0.558145
O O16 0.581377 0.348201 0.620422
O O17 0.250000 0.227449 0.044508
O O18 0.181119 0.000000 0.059608
O O19 0.978778 0.500000 0.395262
O O20 0.000000 0.274993 0.500000
#
# Coordination Sequence:
#
# PCOD8213170 Si02
#       7
#     8   8   8   8   8   8   8
#     4  10  21  35  55  82 105 136 178 216 262 315
#     4   9  18  32  51  77 107 139 173 210 257 310
#     4   9  18  31  49  78 108 131 168 222 267 306
#     4  10  21  36  52  75 109 141 172 215 261 308
#     4  11  22  34  52  77 104 139 179 215 259 312
#     4   8  15  29  49  73 104 141 174 209 265 327
#     4  10  21  38  55  73 104 140 172 213 262 309
#
# _framework density 19.102588999999998
#
# number of rings (size 3 to 8) (size 9 to 14) (size 15 to 20)
#    0.000    2.429    1.429    1.714    2.000    4.286 
#    0.000    2.857    0.000    1.286    0.000    0.000 
#    0.000    0.000    0.000    0.000    0.000    0.000 
#
# Total GULP energy -693859.694512 kJ/mol
# GULP energy per Si atom -12390.351688 kJ/mol
# Density = 1.905911 g / cm^3
# Si number density = 19.102589 Si / 1000 Ang^3
#
#
#
# Elastic Constant Matrix: (Units=GPa)
#
#
# Indices 1 2 3 4 5 6 
#
# 1 99.0092 25.6685 52.4884 0.0000 0.0000 0.0000
# 2 25.6685 61.1241 48.5032 0.0000 0.0000 0.0000
# 3 52.4884 48.5032 161.5226 0.0000 0.0000 0.0000
# 4 0.0000 0.0000 0.0000 5.0485 0.0000 0.0000
# 5 0.0000 0.0000 0.0000 0.0000 33.5497 0.0000
# 6 0.0000 0.0000 0.0000 0.0000 0.0000 10.0856
#
#
#
# Elastic Compliance Matrix: (Units=1/GPa)
#
#
# Indices 1 2 3 4 5 6 
#
# 1 0.012524 -0.002665 -0.003270 0.000000 0.000000 0.000000
# 2 -0.002665 0.022045 -0.005754 0.000000 0.000000 0.000000
# 3 -0.003270 -0.005754 0.008981 0.000000 0.000000 0.000000
# 4 0.000000 0.000000 0.000000 0.198077 0.000000 0.000000
# 5 0.000000 0.000000 0.000000 0.000000 0.029806 0.000000
# 6 0.000000 0.000000 0.000000 0.000000 0.000000 0.099151
#
#
# Mechanical properties :
#
#
# Convention : Reuss Voigt Hill
#
# Bulk Modulus (GPa) = 49.56899 63.88622 56.72761
# Shear Modulus (GPa) = 12.47857 22.73651 17.60754
#
# Velocity S-wave (km/s) = 2.55863 3.45372 3.03930
# Velocity P-wave (km/s) = 5.89355 7.02998 6.48670
#
# Compressibility (1/GPa) = 0.02017390
#
# Stress axis : x y z
#
# Youngs Moduli (GPa) = 79.84459 45.36163 111.34120
#
# Poissons Ratio (x) = 0.12089 0.36405
# Poissons Ratio (y) = 0.21278 0.64064
# Poissons Ratio (z) = 0.26106 0.26100
#
# Static dielectric constant tensor:
#      x y z
#    x 3.634210 0.000000 0.000000 
#    y 0.000000 3.205610 0.000000 
#    z 0.000000 0.000000 3.549100 
# 
# 
# High freq. dielectric constant tensor:
#      x y z
#    x 1.747770 0.000000 0.000000 
#    y 0.000000 1.700710 0.000000 
#    z 0.000000 0.000000 1.743390 
# 
# From -- ./inp_files/25707.got.cif
#   From: 2010.03.12/outbox.cif.g09.slc.cpg/sg51_13_cif.got.tgz:25707.got - 2010.04.16 13:43:02.
