data_PCOD8213934
_publ_section_title
;
Structure prediction by ZEFSAII (Michael W. Deem and Ramdas Pophale) SiO2 
 PCOD8213934
Probable space group: P M M A
;
_chemical_formula_sum "Si O2"
_cell_formula_units_Z 48
_cell_length_a 14.466577
_cell_length_b 8.809913
_cell_length_c 19.575910
_cell_angle_alpha 90.000000
_cell_angle_beta 90.000000
_cell_angle_gamma 90.000000
_cell_volume 2494.935728
_symmetry_space_group_name_H-M "P M M A"
_symmetry_group_IT_number 51
_symmetry_cell_setting 'orthorhombic'
loop_
_space_group_symop_operation_xyz
x,y,z
1/2-x,-y,z
1/2+x,-y,-z
-x,y,-z
-x,-y,-z
1/2+x,y,-z
1/2-x,y,z
x,-y,z
loop_
_atom_site_type_symbol
_atom_site_label
_atom_site_fract_x
_atom_site_fract_y
_atom_site_fract_z
Si Si1 0.066311 0.677578 0.187289
Si Si2 0.143800 0.825070 0.447872
Si Si3 0.642211 0.324596 0.412271
Si Si4 0.937151 0.677781 0.062517
Si Si5 0.750000 0.820481 0.867697
Si Si6 0.750000 0.179387 0.022823
Si Si7 0.008584 0.822300 0.326932
O O1 0.087654 0.500000 0.185895
O O2 0.160519 0.764253 0.172089
O O3 0.027797 0.726284 0.259925
O O4 0.988761 0.720953 0.132075
O O5 0.250000 0.793147 0.429431
O O6 0.110898 0.726177 0.512182
O O7 0.085453 0.776128 0.382336
O O8 0.126574 0.000000 0.467156
O O9 0.750000 0.292644 0.402131
O O10 0.616856 0.500000 0.402449
O O11 0.591256 0.224587 0.355436
O O12 0.917677 0.500000 0.055575
O O13 0.839746 0.762740 0.062640
O O14 0.000000 0.736142 0.000000
O O15 0.750000 0.000000 0.867200
O O16 0.750000 0.757019 0.945189
O O17 0.750000 0.000000 0.023169
O O18 0.010716 0.000000 0.309793
#
# Coordination Sequence:
#
# PCOD8213934 Si02
#       7
#     8   8   8   8   4   4   8
#     4  11  24  41  62  89 120 159 201 244 292 352
#     4   9  19  36  58  85 117 153 191 234 290 355
#     4  10  21  38  60  85 114 151 198 249 294 344
#     4  10  21  40  64  88 119 158 201 244 293 353
#     4  11  23  39  61  91 125 158 189 238 299 355
#     4  11  23  37  63  95 121 152 195 248 299 349
#     4  11  23  38  59  86 119 158 194 239 299 357
#
# _framework density 19.238973000000001
#
# number of rings (size 3 to 8) (size 9 to 14) (size 15 to 20)
#    0.000    1.667    1.667    2.500    1.167    6.667 
#    1.500    0.000    0.000    0.000    0.000    0.000 
#    0.000    0.000    0.000    0.000    0.000    0.000 
#
# Total GULP energy -595508.823317 kJ/mol
# GULP energy per Si atom -12406.433819 kJ/mol
# Density = 1.919518 g / cm^3
# Si number density = 19.238973 Si / 1000 Ang^3
#
#
#
# Elastic Constant Matrix: (Units=GPa)
#
#
# Indices 1 2 3 4 5 6 
#
# 1 117.8579 40.3697 62.1291 0.0000 0.0000 0.0000
# 2 40.3697 51.5524 34.0903 0.0000 0.0000 0.0000
# 3 62.1291 34.0903 121.3872 0.0000 0.0000 0.0000
# 4 0.0000 0.0000 0.0000 34.9058 0.0000 0.0000
# 5 0.0000 0.0000 0.0000 0.0000 19.5753 0.0000
# 6 0.0000 0.0000 0.0000 0.0000 0.0000 19.2460
#
#
#
# Elastic Compliance Matrix: (Units=1/GPa)
#
#
# Indices 1 2 3 4 5 6 
#
# 1 0.013598 -0.007425 -0.004874 0.000000 0.000000 0.000000
# 2 -0.007425 0.027876 -0.004029 0.000000 0.000000 0.000000
# 3 -0.004874 -0.004029 0.011864 0.000000 0.000000 0.000000
# 4 0.000000 0.000000 0.000000 0.028649 0.000000 0.000000
# 5 0.000000 0.000000 0.000000 0.000000 0.051085 0.000000
# 6 0.000000 0.000000 0.000000 0.000000 0.000000 0.051959
#
#
# Mechanical properties :
#
#
# Convention : Reuss Voigt Hill
#
# Bulk Modulus (GPa) = 48.35004 62.66396 55.50700
# Shear Modulus (GPa) = 22.26390 25.02599 23.64495
#
# Velocity S-wave (km/s) = 3.40550 3.61057 3.50953
# Velocity P-wave (km/s) = 6.37566 7.07274 6.73323
#
# Compressibility (1/GPa) = 0.02068251
#
# Stress axis : x y z
#
# Youngs Moduli (GPa) = 73.54289 35.87344 84.28621
#
# Poissons Ratio (x) = 0.26635 0.41085
# Poissons Ratio (y) = 0.54603 0.33955
# Poissons Ratio (z) = 0.35848 0.14452
#
# Static dielectric constant tensor:
#      x y z
#    x 3.577560 0.000000 0.000000 
#    y 0.000000 3.509800 0.000000 
#    z 0.000000 0.000000 3.518710 
# 
# 
# High freq. dielectric constant tensor:
#      x y z
#    x 1.759810 0.000000 0.000000 
#    y 0.000000 1.752630 0.000000 
#    z 0.000000 0.000000 1.746290 
# 
# From -- ./inp_files/29654.got.cif
#   From: 2010.03.12/outbox.cif.g09.slc.cpg/sg51_15_cif.got.tgz:29654.got - 2010.04.16 13:43:02.
