data_PCOD8213734
_publ_section_title
;
Structure prediction by ZEFSAII (Michael W. Deem and Ramdas Pophale) SiO2 
 PCOD8213734
Probable space group: P M M A
;
_chemical_formula_sum "Si O2"
_cell_formula_units_Z 40
_cell_length_a 8.985620
_cell_length_b 8.980966
_cell_length_c 25.506999
_cell_angle_alpha 90.000000
_cell_angle_beta 90.000000
_cell_angle_gamma 90.000000
_cell_volume 2058.403283
_symmetry_space_group_name_H-M "P M M A"
_symmetry_group_IT_number 51
_symmetry_cell_setting 'orthorhombic'
loop_
_space_group_symop_operation_xyz
x,y,z
1/2-x,-y,z
1/2+x,-y,-z
-x,y,-z
-x,-y,-z
1/2+x,y,-z
1/2-x,y,z
x,-y,z
loop_
_atom_site_type_symbol
_atom_site_label
_atom_site_fract_x
_atom_site_fract_y
_atom_site_fract_z
Si Si1 0.579324 0.326218 0.352310
Si Si2 0.575442 0.829762 0.553374
Si Si3 0.420775 0.824740 0.755115
Si Si4 0.924466 0.171081 0.054050
Si Si5 0.422330 0.326920 0.149388
O O1 0.750000 0.286656 0.365416
O O2 0.556031 0.500000 0.343140
O O3 0.477363 0.273755 0.399687
O O4 0.526809 0.243173 0.299915
O O5 0.500000 0.773222 0.500000
O O6 0.750000 0.812317 0.546390
O O7 0.529068 0.000000 0.565260
O O8 0.250000 0.780727 0.767398
O O9 0.526073 0.761827 0.799821
O O10 0.441437 0.000000 0.752195
O O11 0.750000 0.195929 0.048268
O O12 0.984917 0.275656 0.099411
O O13 0.962892 0.000000 0.067719
O O14 0.000000 0.220193 0.000000
O O15 0.250000 0.292503 0.139038
O O16 0.452355 0.500000 0.159130
#
# Coordination Sequence:
#
# PCOD8213734 Si02
#       5
#     8   8   8   8   8
#     4  10  21  37  58  84 114 148 185 227 278 334
#     4  10  21  37  58  83 111 146 188 232 278 329
#     4  10  21  38  61  86 111 144 187 232 279 332
#     4  10  21  38  61  87 114 147 188 232 279 332
#     4  11  24  39  56  82 116 152 189 230 278 331
#
# _framework density 19.432535999999999
#
# number of rings (size 3 to 8) (size 9 to 14) (size 15 to 20)
#    0.000    1.800    0.000    3.600    0.000   10.400 
#    0.000    0.000    0.000    0.000    0.000    0.000 
#    0.000    0.000    0.000    0.000    0.000    0.000 
#
# Total GULP energy -496266.947111 kJ/mol
# GULP energy per Si atom -12406.673678 kJ/mol
# Density = 1.938831 g / cm^3
# Si number density = 19.432536 Si / 1000 Ang^3
#
#
#
# Elastic Constant Matrix: (Units=GPa)
#
#
# Indices 1 2 3 4 5 6 
#
# 1 78.8781 36.8162 54.4374 0.0000 0.0000 0.0000
# 2 36.8162 78.4056 53.1068 0.0000 0.0000 0.0000
# 3 54.4374 53.1068 139.3886 0.0000 0.0000 0.0000
# 4 0.0000 0.0000 0.0000 138.8389 0.0000 0.0000
# 5 0.0000 0.0000 0.0000 0.0000 39.2227 0.0000
# 6 0.0000 0.0000 0.0000 0.0000 0.0000 31.7397
#
#
#
# Elastic Compliance Matrix: (Units=1/GPa)
#
#
# Indices 1 2 3 4 5 6 
#
# 1 0.018806 -0.005197 -0.005364 0.000000 0.000000 0.000000
# 2 -0.005197 0.018627 -0.005067 0.000000 0.000000 0.000000
# 3 -0.005364 -0.005067 0.011200 0.000000 0.000000 0.000000
# 4 0.000000 0.000000 0.000000 0.007203 0.000000 0.000000
# 5 0.000000 0.000000 0.000000 0.000000 0.025495 0.000000
# 6 0.000000 0.000000 0.000000 0.000000 0.000000 0.031506
#
#
# Mechanical properties :
#
#
# Convention : Reuss Voigt Hill
#
# Bulk Modulus (GPa) = 57.55323 65.04365 61.29844
# Shear Modulus (GPa) = 33.35896 52.11440 42.73668
#
# Velocity S-wave (km/s) = 4.14775 5.18424 4.69469
# Velocity P-wave (km/s) = 7.25394 8.32942 7.81022
#
# Compressibility (1/GPa) = 0.01737522
#
# Stress axis : x y z
#
# Youngs Moduli (GPa) = 53.17546 53.68683 89.28749
#
# Poissons Ratio (x) = 0.27900 0.47898
# Poissons Ratio (y) = 0.27635 0.45243
# Poissons Ratio (z) = 0.28526 0.27203
#
# Static dielectric constant tensor:
#      x y z
#    x 3.556310 0.000000 0.000000 
#    y 0.000000 3.579890 0.000000 
#    z 0.000000 0.000000 3.806550 
# 
# 
# High freq. dielectric constant tensor:
#      x y z
#    x 1.760990 0.000000 0.000000 
#    y 0.000000 1.760690 0.000000 
#    z 0.000000 0.000000 1.769440 
# 
# From -- ./inp_files/34282.got.cif
#   From: 2010.03.12/outbox.cif.g09.slc.cpg/sg51_18_cif.got.tgz:34282.got - 2010.04.16 13:43:02.
