data_PCOD8213906
_publ_section_title
;
Structure prediction by ZEFSAII (Michael W. Deem and Ramdas Pophale) SiO2 
 PCOD8213906
Probable space group: P M M A
;
_chemical_formula_sum "Si O2"
_cell_formula_units_Z 44
_cell_length_a 10.134597
_cell_length_b 7.939178
_cell_length_c 28.172848
_cell_angle_alpha 90.000000
_cell_angle_beta 90.000000
_cell_angle_gamma 90.000000
_cell_volume 2266.797761
_symmetry_space_group_name_H-M "P M M A"
_symmetry_group_IT_number 51
_symmetry_cell_setting 'orthorhombic'
loop_
_space_group_symop_operation_xyz
x,y,z
1/2-x,-y,z
1/2+x,-y,-z
-x,y,-z
-x,-y,-z
1/2+x,y,-z
1/2-x,y,z
x,-y,z
loop_
_atom_site_type_symbol
_atom_site_label
_atom_site_fract_x
_atom_site_fract_y
_atom_site_fract_z
Si Si1 0.596357 0.302612 0.310265
Si Si2 0.750000 0.798470 0.053436
Si Si3 0.993435 0.305805 0.891634
Si Si4 0.750000 0.812901 0.949100
Si Si5 0.402792 0.500000 0.456001
Si Si6 0.100094 0.810632 0.388203
Si Si7 0.895827 0.699974 0.204617
O O1 0.750000 0.257556 0.319594
O O2 0.572966 0.500000 0.318218
O O3 0.501820 0.200203 0.344955
O O4 0.554005 0.247598 0.256918
O O5 0.624828 0.721710 0.079118
O O6 0.750000 0.000000 0.057017
O O7 0.750000 0.718374 0.999893
O O8 0.954975 0.500000 0.890114
O O9 0.876793 0.211192 0.917131
O O10 0.009488 0.234581 0.837651
O O11 0.750000 0.000000 0.967833
O O12 0.250000 0.500000 0.472612
O O13 0.500000 0.500000 0.500000
O O14 0.435581 0.330511 0.426893
O O15 0.250000 0.779719 0.369937
O O16 0.087536 0.000000 0.409946
O O17 0.750000 0.776353 0.196317
O O18 0.885429 0.500000 0.201952
#
# Coordination Sequence:
#
# PCOD8213906 Si02
#       7
#     8   4   8   4   4   8   8
#     4   9  17  32  58  86 113 150 194 237 288 349
#     4  11  23  39  59  79 105 147 183 219 287 356
#     4  11  21  37  61  84 107 137 184 237 282 335
#     4  11  25  41  53  75 113 147 179 225 287 352
#     4  10  22  40  62  88 122 162 204 248 297 346
#     4  10  21  38  59  86 122 161 202 245 292 350
#     4   8  15  31  55  83 111 141 180 231 287 342
#
# _framework density 19.410640999999998
#
# number of rings (size 3 to 8) (size 9 to 14) (size 15 to 20)
#    0.000    2.182    1.818    2.727    0.000    5.091 
#    1.636    1.818    0.000    0.000    0.000    0.000 
#    0.000    0.000    0.000    0.000    0.000    0.000 
#
# Total GULP energy -545336.291266 kJ/mol
# GULP energy per Si atom -12394.006620 kJ/mol
# Density = 1.936646 g / cm^3
# Si number density = 19.410641 Si / 1000 Ang^3
#
#
#
# Elastic Constant Matrix: (Units=GPa)
#
#
# Indices 1 2 3 4 5 6 
#
# 1 103.0411 18.9553 69.3910 0.0000 0.0000 0.0000
# 2 18.9553 72.3401 39.6792 0.0000 0.0000 0.0000
# 3 69.3910 39.6792 146.4644 0.0000 0.0000 0.0000
# 4 0.0000 0.0000 0.0000 3.5107 0.0000 0.0000
# 5 0.0000 0.0000 0.0000 0.0000 26.0517 0.0000
# 6 0.0000 0.0000 0.0000 0.0000 0.0000 25.3085
#
#
#
# Elastic Compliance Matrix: (Units=1/GPa)
#
#
# Indices 1 2 3 4 5 6 
#
# 1 0.014252 -0.000036 -0.006742 0.000000 0.000000 0.000000
# 2 -0.000036 0.016236 -0.004382 0.000000 0.000000 0.000000
# 3 -0.006742 -0.004382 0.011209 0.000000 0.000000 0.000000
# 4 0.000000 0.000000 0.000000 0.284843 0.000000 0.000000
# 5 0.000000 0.000000 0.000000 0.000000 0.038385 0.000000
# 6 0.000000 0.000000 0.000000 0.000000 0.000000 0.039512
#
#
# Mechanical properties :
#
#
# Convention : Reuss Voigt Hill
#
# Bulk Modulus (GPa) = 51.60714 64.21075 57.90895
# Shear Modulus (GPa) = 11.54155 23.89553 17.71854
#
# Velocity S-wave (km/s) = 2.44109 3.51244 3.02458
# Velocity P-wave (km/s) = 5.88132 7.04285 6.48813
#
# Compressibility (1/GPa) = 0.01937716
#
# Stress axis : x y z
#
# Youngs Moduli (GPa) = 70.16511 61.59010 89.21389
#
# Poissons Ratio (x) = 0.00223 0.60152
# Poissons Ratio (y) = 0.00254 0.39089
# Poissons Ratio (z) = 0.47309 0.26986
#
# Static dielectric constant tensor:
#      x y z
#    x 4.540880 0.000000 0.000000 
#    y 0.000000 3.494630 0.000000 
#    z 0.000000 0.000000 3.644210 
# 
# 
# High freq. dielectric constant tensor:
#      x y z
#    x 1.748350 0.000000 0.000000 
#    y 0.000000 1.748780 0.000000 
#    z 0.000000 0.000000 1.755780 
# 
# From -- ./inp_files/36837.got.cif
#   From: 2010.03.12/outbox.cif.g09.slc.cpg/sg51_19_cif.got.tgz:36837.got - 2010.04.16 13:43:02.
