data_PCOD8213850
_publ_section_title
;
Structure prediction by ZEFSAII (Michael W. Deem and Ramdas Pophale) SiO2 
 PCOD8213850
Probable space group: P M M A
;
_chemical_formula_sum "Si O2"
_cell_formula_units_Z 48
_cell_length_a 18.488126
_cell_length_b 21.005684
_cell_length_c 6.807738
_cell_angle_alpha 90.000000
_cell_angle_beta 90.000000
_cell_angle_gamma 90.000000
_cell_volume 2643.824078
_symmetry_space_group_name_H-M "P M M A"
_symmetry_group_IT_number 51
_symmetry_cell_setting 'orthorhombic'
loop_
_space_group_symop_operation_xyz
x,y,z
1/2-x,-y,z
1/2+x,-y,-z
-x,y,-z
-x,-y,-z
1/2+x,y,-z
1/2-x,y,z
x,-y,z
loop_
_atom_site_type_symbol
_atom_site_label
_atom_site_fract_x
_atom_site_fract_y
_atom_site_fract_z
Si Si1 0.423197 0.741959 0.597375
Si Si2 0.920698 0.161100 0.065162
Si Si3 0.164260 0.500000 0.316769
Si Si4 0.920066 0.593751 0.421207
Si Si5 0.666923 0.073460 0.349295
Si Si6 0.332934 0.172471 0.327659
Si Si7 0.419691 0.500000 0.920687
O O1 0.500000 0.756730 0.500000
O O2 0.423504 0.773135 0.813026
O O3 0.406121 0.667810 0.610493
O O4 0.359773 0.771296 0.467523
O O5 0.885630 0.104291 0.189464
O O6 0.874172 0.174200 0.874893
O O7 0.000000 0.138885 0.000000
O O8 0.250000 0.500000 0.324072
O O9 0.135530 0.563828 0.422849
O O10 0.139065 0.500000 0.092049
O O11 0.907903 0.562721 0.209355
O O12 0.000000 0.578985 0.500000
O O13 0.750000 0.082867 0.280546
O O14 0.654785 0.105226 0.562203
O O15 0.646309 0.000000 0.370900
O O16 0.250000 0.185110 0.280375
O O17 0.500000 0.500000 0.000000
#
# Coordination Sequence:
#
# PCOD8213850 Si02
#       7
#     8   8   4   8   8   8   4
#     4  10  21  38  59  85 114 150 190 234 281 338
#     4  11  21  35  58  88 117 148 189 241 290 337
#     4  11  23  39  57  85 121 149 183 243 294 330
#     4  10  21  38  62  84 111 152 195 230 276 344
#     4   9  20  38  58  81 113 154 195 234 282 345
#     4  10  21  38  58  81 114 152 189 236 290 339
#     4  11  19  36  60  88 109 148 195 231 276 342
#
# _framework density 18.155518000000001
#
# number of rings (size 3 to 8) (size 9 to 14) (size 15 to 20)
#    0.000    1.833    3.333    1.000    0.000    5.667 
#    0.000    2.500    0.000    0.000    0.000    0.000 
#    0.000    0.000    0.000    0.000    0.000    0.000 
#
# Total GULP energy -595352.302388 kJ/mol
# GULP energy per Si atom -12403.172966 kJ/mol
# Density = 1.811420 g / cm^3
# Si number density = 18.155518 Si / 1000 Ang^3
#
#
#
# Elastic Constant Matrix: (Units=GPa)
#
#
# Indices 1 2 3 4 5 6 
#
# 1 139.9170 62.2280 74.5525 0.0000 0.0000 0.0000
# 2 62.2280 150.7702 66.9490 0.0000 0.0000 0.0000
# 3 74.5525 66.9490 144.3438 0.0000 0.0000 0.0000
# 4 0.0000 0.0000 0.0000 9.4380 0.0000 0.0000
# 5 0.0000 0.0000 0.0000 0.0000 37.8413 0.0000
# 6 0.0000 0.0000 0.0000 0.0000 0.0000 1.3985
#
#
#
# Elastic Compliance Matrix: (Units=1/GPa)
#
#
# Indices 1 2 3 4 5 6 
#
# 1 0.010523 -0.002430 -0.004308 0.000000 0.000000 0.000000
# 2 -0.002430 0.008914 -0.002879 0.000000 0.000000 0.000000
# 3 -0.004308 -0.002879 0.010488 0.000000 0.000000 0.000000
# 4 0.000000 0.000000 0.000000 0.105955 0.000000 0.000000
# 5 0.000000 0.000000 0.000000 0.000000 0.026426 0.000000
# 6 0.000000 0.000000 0.000000 0.000000 0.000000 0.715067
#
#
# Mechanical properties :
#
#
# Convention : Reuss Voigt Hill
#
# Bulk Modulus (GPa) = 93.53929 93.60999 93.57464
# Shear Modulus (GPa) = 5.55449 25.15564 15.35507
#
# Velocity S-wave (km/s) = 1.75101 3.72636 2.91134
# Velocity P-wave (km/s) = 7.46465 8.37773 7.93433
#
# Compressibility (1/GPa) = 0.01069069
#
# Stress axis : x y z
#
# Youngs Moduli (GPa) = 95.02553 112.17965 95.34317
#
# Poissons Ratio (x) = 0.27265 0.41074
# Poissons Ratio (y) = 0.23095 0.27452
# Poissons Ratio (z) = 0.40937 0.32300
#
# Static dielectric constant tensor:
#      x y z
#    x 3.786000 0.000000 0.000000 
#    y 0.000000 3.278750 0.000000 
#    z 0.000000 0.000000 3.510200 
# 
# 
# High freq. dielectric constant tensor:
#      x y z
#    x 1.708830 0.000000 0.000000 
#    y 0.000000 1.702840 0.000000 
#    z 0.000000 0.000000 1.714110 
# 
# From -- ./inp_files/2547.got.cif
#   From: 2010.03.12/outbox.cif.g09.slc.cpg/sg51_2_cif.got.tgz:2547.got - 2010.04.16 13:43:02.
