data_PCOD8213185
_publ_section_title
;
Structure prediction by ZEFSAII (Michael W. Deem and Ramdas Pophale) SiO2 
 PCOD8213185
Probable space group: P M M A
;
_chemical_formula_sum "Si O2"
_cell_formula_units_Z 64
_cell_length_a 15.361608
_cell_length_b 18.129562
_cell_length_c 12.007571
_cell_angle_alpha 90.000000
_cell_angle_beta 90.000000
_cell_angle_gamma 90.000000
_cell_volume 3344.099213
_symmetry_space_group_name_H-M "P M M A"
_symmetry_group_IT_number 51
_symmetry_cell_setting 'orthorhombic'
loop_
_space_group_symop_operation_xyz
x,y,z
1/2-x,-y,z
1/2+x,-y,-z
-x,y,-z
-x,-y,-z
1/2+x,y,-z
1/2-x,y,z
x,-y,z
loop_
_atom_site_type_symbol
_atom_site_label
_atom_site_fract_x
_atom_site_fract_y
_atom_site_fract_z
Si Si1 0.006539 0.839718 0.871958
Si Si2 0.402043 0.657718 0.510468
Si Si3 0.492834 0.334693 0.871588
Si Si4 0.653474 0.161921 0.728209
Si Si5 0.148993 0.180108 0.518107
Si Si6 0.150928 0.584423 0.733882
Si Si7 0.655744 0.663316 0.732539
Si Si8 0.649074 0.914197 0.270754
O O1 0.015441 0.752543 0.855113
O O2 0.092944 0.878270 0.826733
O O3 0.920123 0.870915 0.809858
O O4 0.000000 0.861832 0.000000
O O5 0.500000 0.629112 0.500000
O O6 0.404595 0.745044 0.537108
O O7 0.354832 0.614898 0.609004
O O8 0.354194 0.638848 0.395346
O O9 0.407117 0.369956 0.819752
O O10 0.578003 0.367489 0.809221
O O11 0.500000 0.357072 0.000000
O O12 0.750000 0.129996 0.758044
O O13 0.628003 0.142308 0.600866
O O14 0.655278 0.249204 0.740449
O O15 0.250000 0.202411 0.522949
O O16 0.122358 0.122047 0.612066
O O17 0.250000 0.592399 0.774831
O O18 0.120158 0.500000 0.734800
O O19 0.750000 0.633508 0.774656
O O20 0.750000 0.899477 0.242700
O O21 0.628174 0.000000 0.279996
#
# Coordination Sequence:
#
# PCOD8213185 Si02
#       8
#     8   8   8   8   8   8   8   8
#     4  10  21  35  57  84 109 142 189 236 278 325
#     4  11  19  32  58  85 111 144 181 236 286 340
#     4  10  21  38  59  86 112 143 191 243 283 328
#     4   8  16  31  52  78 110 138 171 223 281 334
#     4   9  18  32  55  83 108 141 183 227 279 339
#     4  11  24  40  57  81 117 156 191 230 280 340
#     4   9  17  32  53  81 111 142 175 222 288 342
#     4  10  22  38  55  79 115 153 186 227 278 333
#
# _framework density 19.138188
#
# number of rings (size 3 to 8) (size 9 to 14) (size 15 to 20)
#    0.000    2.250    1.250    2.625    3.500    3.250 
#    0.000    3.750    0.000    1.500    0.000    0.000 
#    0.000    0.000    0.000    0.000    0.000    0.000 
#
# Total GULP energy -793597.247011 kJ/mol
# GULP energy per Si atom -12399.956985 kJ/mol
# Density = 1.909463 g / cm^3
# Si number density = 19.138188 Si / 1000 Ang^3
#
#
#
# Elastic Constant Matrix: (Units=GPa)
#
#
# Indices 1 2 3 4 5 6 
#
# 1 120.0649 35.2199 69.2536 0.0000 0.0000 0.0000
# 2 35.2199 47.5426 49.2095 0.0000 0.0000 0.0000
# 3 69.2536 49.2095 147.9472 0.0000 0.0000 0.0000
# 4 0.0000 0.0000 0.0000 -0.8081 0.0000 0.0000
# 5 0.0000 0.0000 0.0000 0.0000 26.8252 0.0000
# 6 0.0000 0.0000 0.0000 0.0000 0.0000 22.0629
#
#
#
# Elastic Compliance Matrix: (Units=1/GPa)
#
#
# Indices 1 2 3 4 5 6 
#
# 1 0.012065 -0.004716 -0.004079 0.000000 0.000000 0.000000
# 2 -0.004716 0.033920 -0.009075 0.000000 0.000000 0.000000
# 3 -0.004079 -0.009075 0.011687 0.000000 0.000000 0.000000
# 4 0.000000 0.000000 0.000000 -1.237484 0.000000 0.000000
# 5 0.000000 0.000000 0.000000 0.000000 0.037278 0.000000
# 6 0.000000 0.000000 0.000000 0.000000 0.000000 0.045325
#
#
# Mechanical properties :
#
#
# Convention : Reuss Voigt Hill
#
# Bulk Modulus (GPa) = 45.59378 69.21341 57.40359
# Shear Modulus (GPa) = -4.74313 20.40745 7.83216
#
# Velocity S-wave (km/s) = -1.57599 3.26900 2.02517
# Velocity P-wave (km/s) = 4.53470 7.10578 5.96052
#
# Compressibility (1/GPa) = 0.02193281
#
# Stress axis : x y z
#
# Youngs Moduli (GPa) = 82.88483 29.48071 85.56480
#
# Poissons Ratio (x) = 0.13902 0.34902
# Poissons Ratio (y) = 0.39086 0.77651
# Poissons Ratio (z) = 0.33809 0.26754
#
# Static dielectric constant tensor:
#      x y z
#    x 3.771390 0.000000 0.000000 
#    y 0.000000 3.140290 0.000000 
#    z 0.000000 0.000000 3.569830 
# 
# 
# High freq. dielectric constant tensor:
#      x y z
#    x 1.760190 0.000000 0.000000 
#    y 0.000000 1.704100 0.000000 
#    z 0.000000 0.000000 1.743690 
# 
# From -- ./inp_files/16843.got.cif
#   From: 2010.03.12/outbox.cif.g09.slc.cpg/sg51_9_cif.got.tgz:16843.got - 2010.04.16 13:43:02.
