data_PCOD8213203
_publ_section_title
;
Structure prediction by ZEFSAII (Michael W. Deem and Ramdas Pophale) SiO2 
 PCOD8213203
Probable space group: P M M A
;
_chemical_formula_sum "Si O2"
_cell_formula_units_Z 48
_cell_length_a 9.035181
_cell_length_b 9.107788
_cell_length_c 31.218950
_cell_angle_alpha 90.000000
_cell_angle_beta 90.000000
_cell_angle_gamma 90.000000
_cell_volume 2569.023414
_symmetry_space_group_name_H-M "P M M A"
_symmetry_group_IT_number 51
_symmetry_cell_setting 'orthorhombic'
loop_
_space_group_symop_operation_xyz
x,y,z
1/2-x,-y,z
1/2+x,-y,-z
-x,y,-z
-x,-y,-z
1/2+x,y,-z
1/2-x,y,z
x,-y,z
loop_
_atom_site_type_symbol
_atom_site_label
_atom_site_fract_x
_atom_site_fract_y
_atom_site_fract_z
Si Si1 0.417631 0.324779 0.881833
Si Si2 0.077002 0.831772 0.042808
Si Si3 0.919372 0.675315 0.303050
Si Si4 0.576679 0.331011 0.456036
Si Si5 0.921229 0.828511 0.620710
Si Si6 0.575268 0.340168 0.210340
O O1 0.250000 0.274585 0.892486
O O2 0.427781 0.500000 0.881221
O O3 0.528076 0.262048 0.916696
O O4 0.468249 0.261275 0.834691
O O5 0.250000 0.813107 0.036363
O O6 0.030502 0.000000 0.050634
O O7 0.000000 0.770097 0.000000
O O8 0.750000 0.718535 0.314220
O O9 0.936485 0.500000 0.304403
O O10 0.965220 0.738192 0.255544
O O11 0.030055 0.748575 0.336106
O O12 0.500000 0.282800 0.500000
O O13 0.750000 0.304620 0.461085
O O14 0.540315 0.500000 0.444924
O O15 0.516224 0.229573 0.418671
O O16 0.750000 0.793494 0.612077
O O17 0.951178 0.000000 0.626026
O O18 0.750000 0.362530 0.209561
O O19 0.498569 0.500000 0.210818
#
# Coordination Sequence:
#
# PCOD8213203 Si02
#       6
#     8   8   8   8   8   8
#     4   9  17  31  53  79 104 130 162 203 252 304
#     4  10  21  36  52  70  95 130 170 209 250 298
#     4   9  17  32  56  81 102 130 172 217 257 299
#     4  10  21  38  61  86 108 133 169 212 257 306
#     4  11  24  38  51  73 108 146 179 212 254 302
#     4   7  12  26  49  76 103 129 161 204 251 299
#
# _framework density 18.684142000000001
#
# number of rings (size 3 to 8) (size 9 to 14) (size 15 to 20)
#    0.000    2.667    0.000    4.000    0.000    6.667 
#    0.000    1.667    0.000    8.000    0.000    0.000 
#    0.000    0.000    0.000    0.000    0.000    0.000 
#
# Total GULP energy -594874.022712 kJ/mol
# GULP energy per Si atom -12393.208806 kJ/mol
# Density = 1.864162 g / cm^3
# Si number density = 18.684142 Si / 1000 Ang^3
#
#
#
# Elastic Constant Matrix: (Units=GPa)
#
#
# Indices 1 2 3 4 5 6 
#
# 1 67.3259 26.8957 50.2127 0.0000 0.0000 0.0000
# 2 26.8957 41.7561 41.0946 0.0000 0.0000 0.0000
# 3 50.2127 41.0946 162.3699 0.0000 0.0000 0.0000
# 4 0.0000 0.0000 0.0000 -44.8100 0.0000 0.0000
# 5 0.0000 0.0000 0.0000 0.0000 33.5827 0.0000
# 6 0.0000 0.0000 0.0000 0.0000 0.0000 26.4452
#
#
#
# Elastic Compliance Matrix: (Units=1/GPa)
#
#
# Indices 1 2 3 4 5 6 
#
# 1 0.022037 -0.009971 -0.004291 0.000000 0.000000 0.000000
# 2 -0.009971 0.036404 -0.006130 0.000000 0.000000 0.000000
# 3 -0.004291 -0.006130 0.009037 0.000000 0.000000 0.000000
# 4 0.000000 0.000000 0.000000 -0.022316 0.000000 0.000000
# 5 0.000000 0.000000 0.000000 0.000000 0.029777 0.000000
# 6 0.000000 0.000000 0.000000 0.000000 0.000000 0.037814
#
#
# Mechanical properties :
#
#
# Convention : Reuss Voigt Hill
#
# Bulk Modulus (GPa) = 37.46221 56.42866 46.94544
# Shear Modulus (GPa) = 30.78144 13.26017 22.02080
#
# Velocity S-wave (km/s) = 4.06330 2.66691 3.43677
# Velocity P-wave (km/s) = 6.48904 6.30477 6.39757
#
# Compressibility (1/GPa) = 0.02669356
#
# Stress axis : x y z
#
# Youngs Moduli (GPa) = 45.37845 27.46952 110.65198
#
# Poissons Ratio (x) = 0.27390 0.47484
# Poissons Ratio (y) = 0.45247 0.67831
# Poissons Ratio (z) = 0.19473 0.16839
#
# Static dielectric constant tensor:
#      x y z
#    x 4.150810 0.000000 0.000000 
#    y 0.000000 3.153540 0.000000 
#    z 0.000000 0.000000 3.884870 
# 
# 
# High freq. dielectric constant tensor:
#      x y z
#    x 1.710190 0.000000 0.000000 
#    y 0.000000 1.693080 0.000000 
#    z 0.000000 0.000000 1.750740 
# 
# From -- ./inp_files/37023.got.cif
#   From: 2010.03.12/outbox.cif.g09.slc.cpg/sg51_19_cif.got.tgz:37023.got - 2010.04.16 13:43:02.
