data_PCOD8213352
_publ_section_title
;
Structure prediction by ZEFSAII (Michael W. Deem and Ramdas Pophale) SiO2 
 PCOD8213352
Probable space group: P M M A
;
_chemical_formula_sum "Si O2"
_cell_formula_units_Z 64
_cell_length_a 18.047200
_cell_length_b 9.242384
_cell_length_c 20.404276
_cell_angle_alpha 90.000000
_cell_angle_beta 90.000000
_cell_angle_gamma 90.000000
_cell_volume 3403.415945
_symmetry_space_group_name_H-M "P M M A"
_symmetry_group_IT_number 51
_symmetry_cell_setting 'orthorhombic'
loop_
_space_group_symop_operation_xyz
x,y,z
1/2-x,-y,z
1/2+x,-y,-z
-x,y,-z
-x,-y,-z
1/2+x,y,-z
1/2-x,y,z
x,-y,z
loop_
_atom_site_type_symbol
_atom_site_label
_atom_site_fract_x
_atom_site_fract_y
_atom_site_fract_z
Si Si1 0.835552 0.334189 0.004598
Si Si2 0.664987 0.668322 0.745259
Si Si3 0.577317 0.666293 0.874067
Si Si4 0.665153 0.830456 0.239640
Si Si5 0.164005 0.831124 0.384044
Si Si6 0.425572 0.171588 0.886811
Si Si7 0.587371 0.334880 0.500448
Si Si8 0.164541 0.332008 0.631755
O O1 0.750000 0.289390 0.008215
O O2 0.847441 0.500000 0.026752
O O3 0.862311 0.311633 0.930546
O O4 0.881624 0.230199 0.051126
O O5 0.750000 0.706391 0.761735
O O6 0.655887 0.500000 0.728829
O O7 0.615221 0.714860 0.806544
O O8 0.636307 0.757793 0.682946
O O9 0.550753 0.500000 0.871101
O O10 0.507899 0.767360 0.887847
O O11 0.750000 0.785512 0.225177
O O12 0.615869 0.777215 0.179013
O O13 0.635133 0.752975 0.304814
O O14 0.657737 0.000000 0.251053
O O15 0.250000 0.796679 0.395987
O O16 0.118534 0.767548 0.443874
O O17 0.147872 0.000000 0.378820
O O18 0.428644 0.000000 0.892007
O O19 0.500000 0.321715 0.500000
O O20 0.613229 0.500000 0.513272
O O21 0.617895 0.279921 0.430733
O O22 0.250000 0.295061 0.617738
O O23 0.152055 0.500000 0.646053
#
# Coordination Sequence:
#
# PCOD8213352 Si02
#       8
#     8   8   8   8   8   8   8   8
#     4  10  21  38  60  83 107 139 182 230 273 314
#     4   9  18  35  59  82 105 139 182 226 272 321
#     4  10  21  37  57  82 111 142 179 223 271 323
#     4   9  19  36  55  74 100 136 176 216 258 309
#     4  10  21  36  55  80 109 142 181 223 267 320
#     4  11  23  37  54  80 114 148 180 216 265 325
#     4  10  21  36  54  78 108 141 178 221 270 323
#     4   9  18  33  54  78 102 131 172 221 266 310
#
# _framework density 18.804637
#
# number of rings (size 3 to 8) (size 9 to 14) (size 15 to 20)
#    0.000    2.250    0.000    2.250    0.000    8.750 
#    0.000    6.250    0.000    2.250    0.000    0.000 
#    0.000    0.000    0.000    0.000    0.000    0.000 
#
# Total GULP energy -793887.201518 kJ/mol
# GULP energy per Si atom -12404.487524 kJ/mol
# Density = 1.876184 g / cm^3
# Si number density = 18.804637 Si / 1000 Ang^3
#
#
#
# Elastic Constant Matrix: (Units=GPa)
#
#
# Indices 1 2 3 4 5 6 
#
# 1 68.5706 33.6228 34.8152 0.0000 0.0000 0.0000
# 2 33.6228 64.4818 48.8613 0.0000 0.0000 0.0000
# 3 34.8152 48.8613 117.5495 0.0000 0.0000 0.0000
# 4 0.0000 0.0000 0.0000 5.1432 0.0000 0.0000
# 5 0.0000 0.0000 0.0000 0.0000 -3.4707 0.0000
# 6 0.0000 0.0000 0.0000 0.0000 0.0000 42.1385
#
#
#
# Elastic Compliance Matrix: (Units=1/GPa)
#
#
# Indices 1 2 3 4 5 6 
#
# 1 0.020018 -0.008679 -0.002321 0.000000 0.000000 0.000000
# 2 -0.008679 0.026402 -0.008404 0.000000 0.000000 0.000000
# 3 -0.002321 -0.008404 0.012688 0.000000 0.000000 0.000000
# 4 0.000000 0.000000 0.000000 0.194433 0.000000 0.000000
# 5 0.000000 0.000000 0.000000 0.000000 -0.288128 0.000000
# 6 0.000000 0.000000 0.000000 0.000000 0.000000 0.023731
#
#
# Mechanical properties :
#
#
# Convention : Reuss Voigt Hill
#
# Bulk Modulus (GPa) = 49.26295 53.91115 51.58705
# Shear Modulus (GPa) = 144.01932 17.64903 80.83418
#
# Velocity S-wave (km/s) = 8.76090 3.06689 6.56351
# Velocity P-wave (km/s) = 11.33984 6.42436 9.21587
#
# Compressibility (1/GPa) = 0.02029923
#
# Stress axis : x y z
#
# Youngs Moduli (GPa) = 49.95594 37.87627 78.81635
#
# Poissons Ratio (x) = 0.32873 0.18295
# Poissons Ratio (y) = 0.43356 0.66236
# Poissons Ratio (z) = 0.11596 0.31831
#
# Static dielectric constant tensor:
#      x y z
#    x 3.429120 0.000000 0.000000 
#    y 0.000000 3.402760 0.000000 
#    z 0.000000 0.000000 3.598160 
# 
# 
# High freq. dielectric constant tensor:
#      x y z
#    x 1.729490 0.000000 0.000000 
#    y 0.000000 1.724940 0.000000 
#    z 0.000000 0.000000 1.743520 
# 
# From -- ./inp_files/33811.got.cif
#   From: 2010.03.12/outbox.cif.g09.slc.cpg/sg51_17_cif.got.tgz:33811.got - 2010.04.16 13:43:02.
