data_PCOD8213342
_publ_section_title
;
Structure prediction by ZEFSAII (Michael W. Deem and Ramdas Pophale) SiO2 
 PCOD8213342
Probable space group: P M M A
;
_chemical_formula_sum "Si O2"
_cell_formula_units_Z 48
_cell_length_a 9.067366
_cell_length_b 9.318016
_cell_length_c 30.976770
_cell_angle_alpha 90.000000
_cell_angle_beta 90.000000
_cell_angle_gamma 90.000000
_cell_volume 2617.223006
_symmetry_space_group_name_H-M "P M M A"
_symmetry_group_IT_number 51
_symmetry_cell_setting 'orthorhombic'
loop_
_space_group_symop_operation_xyz
x,y,z
1/2-x,-y,z
1/2+x,-y,-z
-x,y,-z
-x,-y,-z
1/2+x,y,-z
1/2-x,y,z
x,-y,z
loop_
_atom_site_type_symbol
_atom_site_label
_atom_site_fract_x
_atom_site_fract_y
_atom_site_fract_z
Si Si1 0.079191 0.666478 0.793187
Si Si2 0.078612 0.167379 0.956382
Si Si3 0.583814 0.670922 0.541816
Si Si4 0.419757 0.668361 0.119477
Si Si5 0.925402 0.162063 0.289787
Si Si6 0.577055 0.666049 0.372481
O O1 0.250000 0.700478 0.803004
O O2 0.056994 0.500000 0.781801
O O3 0.017828 0.757498 0.752965
O O4 0.984268 0.713564 0.834310
O O5 0.250000 0.204533 0.960462
O O6 0.011261 0.251572 0.916691
O O7 0.050649 0.000000 0.948461
O O8 0.000000 0.219681 0.000000
O O9 0.500000 0.733428 0.500000
O O10 0.750000 0.730006 0.541454
O O11 0.581051 0.500000 0.540460
O O12 0.503493 0.725398 0.584979
O O13 0.250000 0.715841 0.117267
O O14 0.439083 0.500000 0.111861
O O15 0.750000 0.165295 0.290207
O O16 0.984660 0.244134 0.332005
O O17 0.986419 0.000000 0.289845
O O18 0.750000 0.689059 0.379519
O O19 0.539961 0.500000 0.363757
#
# Coordination Sequence:
#
# PCOD8213342 Si02
#       6
#     8   8   8   8   8   8
#     4   9  17  31  51  73  98 129 165 205 248 294
#     4  10  21  37  57  80 106 138 175 213 254 301
#     4   9  16  26  42  66  94 121 151 190 234 278
#     4  10  21  36  54  78 107 138 172 211 256 304
#     4   9  17  29  47  71  96 123 159 201 241 285
#     4   9  16  27  45  68  93 122 155 191 234 283
#
# _framework density 18.340050999999999
#
# number of rings (size 3 to 8) (size 9 to 14) (size 15 to 20)
#    0.000    2.667    0.000    2.000    0.000    7.000 
#    0.000    2.500    0.000    6.000    0.000    0.000 
#    0.000    0.000    0.000    0.000    0.000    0.000 
#
# Total GULP energy -595277.179271 kJ/mol
# GULP energy per Si atom -12401.607901 kJ/mol
# Density = 1.829831 g / cm^3
# Si number density = 18.340051 Si / 1000 Ang^3
#
#
#
# Elastic Constant Matrix: (Units=GPa)
#
#
# Indices 1 2 3 4 5 6 
#
# 1 89.3168 36.3374 72.6916 0.0000 0.0000 0.0000
# 2 36.3374 64.3251 71.6130 0.0000 0.0000 0.0000
# 3 72.6916 71.6130 189.3323 0.0000 0.0000 0.0000
# 4 0.0000 0.0000 0.0000 1.2750 0.0000 0.0000
# 5 0.0000 0.0000 0.0000 0.0000 33.0977 0.0000
# 6 0.0000 0.0000 0.0000 0.0000 0.0000 16.6931
#
#
#
# Elastic Compliance Matrix: (Units=1/GPa)
#
#
# Indices 1 2 3 4 5 6 
#
# 1 0.016861 -0.004004 -0.004959 0.000000 0.000000 0.000000
# 2 -0.004004 0.027805 -0.008980 0.000000 0.000000 0.000000
# 3 -0.004959 -0.008980 0.010582 0.000000 0.000000 0.000000
# 4 0.000000 0.000000 0.000000 0.784291 0.000000 0.000000
# 5 0.000000 0.000000 0.000000 0.000000 0.030214 0.000000
# 6 0.000000 0.000000 0.000000 0.000000 0.000000 0.059905
#
#
# Mechanical properties :
#
#
# Convention : Reuss Voigt Hill
#
# Bulk Modulus (GPa) = 51.64549 78.25091 64.94820
# Shear Modulus (GPa) = 5.14405 21.03530 13.08967
#
# Velocity S-wave (km/s) = 1.67658 3.39035 2.67445
# Velocity P-wave (km/s) = 5.65411 7.62137 6.71023
#
# Compressibility (1/GPa) = 0.01936277
#
# Stress axis : x y z
#
# Youngs Moduli (GPa) = 59.30801 35.96492 94.49821
#
# Poissons Ratio (x) = 0.14400 0.46864
# Poissons Ratio (y) = 0.23746 0.84856
# Poissons Ratio (z) = 0.29412 0.32295
#
# Static dielectric constant tensor:
#      x y z
#    x 3.701900 0.000000 0.000000 
#    y 0.000000 3.200850 0.000000 
#    z 0.000000 0.000000 3.583650 
# 
# 
# High freq. dielectric constant tensor:
#      x y z
#    x 1.697590 0.000000 0.000000 
#    y 0.000000 1.685040 0.000000 
#    z 0.000000 0.000000 1.727790 
# 
# From -- ./inp_files/36995.got.cif
#   From: 2010.03.12/outbox.cif.g09.slc.cpg/sg51_19_cif.got.tgz:36995.got - 2010.04.16 13:43:02.
