data_PCOD8213826
_publ_section_title
;
Structure prediction by ZEFSAII (Michael W. Deem and Ramdas Pophale) SiO2 
 PCOD8213826
Probable space group: P M M A
;
_chemical_formula_sum "Si O2"
_cell_formula_units_Z 52
_cell_length_a 9.877684
_cell_length_b 10.571177
_cell_length_c 28.221324
_cell_angle_alpha 90.000000
_cell_angle_beta 90.000000
_cell_angle_gamma 90.000000
_cell_volume 2946.835260
_symmetry_space_group_name_H-M "P M M A"
_symmetry_group_IT_number 51
_symmetry_cell_setting 'orthorhombic'
loop_
_space_group_symop_operation_xyz
x,y,z
1/2-x,-y,z
1/2+x,-y,-z
-x,y,-z
-x,-y,-z
1/2+x,y,-z
1/2-x,y,z
x,-y,z
loop_
_atom_site_type_symbol
_atom_site_label
_atom_site_fract_x
_atom_site_fract_y
_atom_site_fract_z
Si Si1 0.410717 0.141358 0.144624
Si Si2 0.491648 0.256140 0.597356
Si Si3 0.408802 0.354555 0.217937
Si Si4 0.599880 0.851017 0.960796
Si Si5 0.250000 0.849132 0.536318
Si Si6 0.250000 0.140383 0.431586
Si Si7 0.407893 0.500000 0.453993
Si Si8 0.597852 0.645040 0.305328
O O1 0.250000 0.136313 0.144045
O O2 0.461139 0.253800 0.178940
O O3 0.460375 0.176039 0.091603
O O4 0.464384 0.000000 0.159618
O O5 0.382551 0.204685 0.560932
O O6 0.617807 0.161249 0.600357
O O7 0.557419 0.383747 0.579181
O O8 0.427222 0.268206 0.649124
O O9 0.250000 0.336973 0.228488
O O10 0.438721 0.500000 0.201740
O O11 0.490347 0.319996 0.265104
O O12 0.750000 0.790770 0.966643
O O13 0.611269 0.000000 0.968753
O O14 0.500000 0.790095 0.000000
O O15 0.250000 0.789055 0.483043
O O16 0.250000 0.000000 0.540201
O O17 0.250000 0.000000 0.449994
O O18 0.250000 0.500000 0.468215
O O19 0.500000 0.500000 0.500000
O O20 0.750000 0.670383 0.286374
O O21 0.580810 0.500000 0.320935
#
# Coordination Sequence:
#
# PCOD8213826 Si02
#       8
#     8   8   8   8   4   4   4   8
#     4   8  14  27  47  72 102 133 166 212 264 305
#     4  12  23  39  61  84 110 138 175 217 261 313
#     4   9  18  32  55  78  97 128 175 219 257 307
#     4   8  13  22  39  64  95 131 168 205 249 301
#     4  11  24  43  63  81 109 150 183 209 250 315
#     4  11  24  41  59  81 109 144 179 211 248 303
#     4  12  26  38  58  90 118 138 166 216 273 316
#     4  10  21  38  56  78 105 137 166 205 266 323
#
# _framework density 17.646049999999999
#
# number of rings (size 3 to 8) (size 9 to 14) (size 15 to 20)
#    0.000    2.154    2.308    2.769    2.154    1.231 
#    0.000    2.308    0.000    1.385    0.000    0.000 
#    0.000    0.000    0.000    0.000    0.000    0.000 
#
# Total GULP energy -644528.490141 kJ/mol
# GULP energy per Si atom -12394.778657 kJ/mol
# Density = 1.760589 g / cm^3
# Si number density = 17.646050 Si / 1000 Ang^3
#
#
#
# Elastic Constant Matrix: (Units=GPa)
#
#
# Indices 1 2 3 4 5 6 
#
# 1 94.8189 27.4071 38.6849 0.0000 0.0000 0.0000
# 2 27.4071 68.3986 43.5568 0.0000 0.0000 0.0000
# 3 38.6849 43.5568 108.5002 0.0000 0.0000 0.0000
# 4 0.0000 0.0000 0.0000 19.6433 0.0000 0.0000
# 5 0.0000 0.0000 0.0000 0.0000 30.9679 0.0000
# 6 0.0000 0.0000 0.0000 0.0000 0.0000 20.9807
#
#
#
# Elastic Compliance Matrix: (Units=1/GPa)
#
#
# Indices 1 2 3 4 5 6 
#
# 1 0.012779 -0.002981 -0.003359 0.000000 0.000000 0.000000
# 2 -0.002981 0.020337 -0.007101 0.000000 0.000000 0.000000
# 3 -0.003359 -0.007101 0.013265 0.000000 0.000000 0.000000
# 4 0.000000 0.000000 0.000000 0.050908 0.000000 0.000000
# 5 0.000000 0.000000 0.000000 0.000000 0.032291 0.000000
# 6 0.000000 0.000000 0.000000 0.000000 0.000000 0.047663
#
#
# Mechanical properties :
#
#
# Convention : Reuss Voigt Hill
#
# Bulk Modulus (GPa) = 51.28950 54.55727 52.92338
# Shear Modulus (GPa) = 23.73884 25.12298 24.43091
#
# Velocity S-wave (km/s) = 3.67178 3.77731 3.72492
# Velocity P-wave (km/s) = 6.86329 7.07169 6.96827
#
# Compressibility (1/GPa) = 0.01949717
#
# Stress axis : x y z
#
# Youngs Moduli (GPa) = 78.25528 49.17196 75.38585
#
# Poissons Ratio (x) = 0.14659 0.25325
# Poissons Ratio (y) = 0.23329 0.53533
# Poissons Ratio (z) = 0.26289 0.34918
#
# Static dielectric constant tensor:
#      x y z
#    x 3.389900 0.000000 0.000000 
#    y 0.000000 3.469570 0.000000 
#    z 0.000000 0.000000 3.294540 
# 
# 
# High freq. dielectric constant tensor:
#      x y z
#    x 1.678760 0.000000 0.000000 
#    y 0.000000 1.665390 0.000000 
#    z 0.000000 0.000000 1.672830 
# 
# From -- ./inp_files/36289.got.cif
#   From: 2010.03.12/outbox.cif.g09.slc.cpg/sg51_19_cif.got.tgz:36289.got - 2010.04.16 13:43:02.
