data_PCOD8213127
_publ_section_title
;
Structure prediction by ZEFSAII (Michael W. Deem and Ramdas Pophale) SiO2 
 PCOD8213127
Probable space group: P M M A
;
_chemical_formula_sum "Si O2"
_cell_formula_units_Z 64
_cell_length_a 18.968684
_cell_length_b 13.682929
_cell_length_c 15.042595
_cell_angle_alpha 90.000000
_cell_angle_beta 90.000000
_cell_angle_gamma 90.000000
_cell_volume 3904.262757
_symmetry_space_group_name_H-M "P M M A"
_symmetry_group_IT_number 51
_symmetry_cell_setting 'orthorhombic'
loop_
_space_group_symop_operation_xyz
x,y,z
1/2-x,-y,z
1/2+x,-y,-z
-x,y,-z
-x,-y,-z
1/2+x,y,-z
1/2-x,y,z
x,-y,z
loop_
_atom_site_type_symbol
_atom_site_label
_atom_site_fract_x
_atom_site_fract_y
_atom_site_fract_z
Si Si1 0.927855 0.197402 0.779908
Si Si2 0.107523 0.390721 0.946529
Si Si3 0.668899 0.801527 0.116317
Si Si4 0.074506 0.115337 0.531048
Si Si5 0.668109 0.885728 0.631590
Si Si6 0.424971 0.113472 0.032835
Si Si7 0.421735 0.884676 0.730338
Si Si8 0.954828 0.390625 0.864761
O O1 0.866979 0.176790 0.709364
O O2 0.901261 0.163306 0.876171
O O3 0.939711 0.314320 0.785424
O O4 0.997877 0.138909 0.754257
O O5 0.138378 0.500000 0.934379
O O6 0.162499 0.312989 0.907486
O O7 0.035341 0.379841 0.893251
O O8 0.094693 0.368643 0.050424
O O9 0.750000 0.830854 0.124002
O O10 0.631816 0.823982 0.209586
O O11 0.633868 0.867961 0.040770
O O12 0.135529 0.146850 0.462849
O O13 0.093798 0.151055 0.629899
O O14 0.000000 0.161847 0.500000
O O15 0.065924 0.000000 0.533993
O O16 0.750000 0.860448 0.628914
O O17 0.654077 0.000000 0.649742
O O18 0.433862 0.000000 0.050856
O O19 0.500000 0.158213 0.000000
O O20 0.409293 0.000000 0.743845
O O21 0.940140 0.500000 0.828804
#
# Coordination Sequence:
#
# PCOD8213127 Si02
#       8
#     8   8   8   8   8   8   8   8
#     4  12  19  32  56  78 104 135 177 217 256 310
#     4   9  17  34  54  73  97 132 177 222 264 302
#     4  12  24  35  48  74 108 141 176 216 259 306
#     4   9  17  32  54  77 100 133 178 218 255 304
#     4  10  21  35  52  79 111 138 170 217 267 311
#     4  11  21  33  50  70 100 144 182 207 243 301
#     4  11  21  33  53  78 104 141 181 215 252 305
#     4   9  17  31  56  80  97 125 174 226 261 298
#
# _framework density 16.392340000000001
#
# number of rings (size 3 to 8) (size 9 to 14) (size 15 to 20)
#    0.000    1.625    5.000    2.250    0.000    2.250 
#    0.000    1.250    0.000    0.375    0.000    2.625 
#    0.000    0.000    0.000    0.000    0.000    0.000 
#
# Total GULP energy -793649.106650 kJ/mol
# GULP energy per Si atom -12400.767291 kJ/mol
# Density = 1.635503 g / cm^3
# Si number density = 16.392340 Si / 1000 Ang^3
#
#
#
# Elastic Constant Matrix: (Units=GPa)
#
#
# Indices 1 2 3 4 5 6 
#
# 1 93.3338 15.6553 37.2230 0.0000 0.0000 0.0000
# 2 15.6553 66.7392 24.7932 0.0000 0.0000 0.0000
# 3 37.2230 24.7932 103.5345 0.0000 0.0000 0.0000
# 4 0.0000 0.0000 0.0000 13.4488 0.0000 0.0000
# 5 0.0000 0.0000 0.0000 0.0000 23.1966 0.0000
# 6 0.0000 0.0000 0.0000 0.0000 0.0000 16.9079
#
#
#
# Elastic Compliance Matrix: (Units=1/GPa)
#
#
# Indices 1 2 3 4 5 6 
#
# 1 0.012626 -0.001400 -0.004204 0.000000 0.000000 0.000000
# 2 -0.001400 0.016602 -0.003472 0.000000 0.000000 0.000000
# 3 -0.004204 -0.003472 0.012002 0.000000 0.000000 0.000000
# 4 0.000000 0.000000 0.000000 0.074356 0.000000 0.000000
# 5 0.000000 0.000000 0.000000 0.000000 0.043110 0.000000
# 6 0.000000 0.000000 0.000000 0.000000 0.000000 0.059144
#
#
# Mechanical properties :
#
#
# Convention : Reuss Voigt Hill
#
# Bulk Modulus (GPa) = 43.33364 46.55008 44.94186
# Shear Modulus (GPa) = 20.51839 23.10638 21.81239
#
# Velocity S-wave (km/s) = 3.54178 3.75852 3.65176
# Velocity P-wave (km/s) = 6.57406 6.87709 6.72728
#
# Compressibility (1/GPa) = 0.02307676
#
# Stress axis : x y z
#
# Youngs Moduli (GPa) = 79.20376 60.23359 83.32247
#
# Poissons Ratio (x) = 0.08432 0.35029
# Poissons Ratio (y) = 0.11088 0.28933
# Poissons Ratio (z) = 0.33297 0.20915
#
# Static dielectric constant tensor:
#      x y z
#    x 2.962370 0.000000 0.000000 
#    y 0.000000 3.118890 0.000000 
#    z 0.000000 0.000000 3.200560 
# 
# 
# High freq. dielectric constant tensor:
#      x y z
#    x 1.616480 0.000000 0.000000 
#    y 0.000000 1.615520 0.000000 
#    z 0.000000 0.000000 1.625170 
# 
# From -- ./inp_files/25387.got.cif
#   From: 2010.03.12/outbox.cif.g09.slc.cpg/sg51_13_cif.got.tgz:25387.got - 2010.04.16 13:43:02.
