data_PCOD8213980
_publ_section_title
;
Structure prediction by ZEFSAII (Michael W. Deem and Ramdas Pophale) SiO2 
 PCOD8213980
Probable space group: P M M A
;
_chemical_formula_sum "Si O2"
_cell_formula_units_Z 40
_cell_length_a 8.746978
_cell_length_b 25.249957
_cell_length_c 9.511529
_cell_angle_alpha 90.000000
_cell_angle_beta 90.000000
_cell_angle_gamma 90.000000
_cell_volume 2100.724079
_symmetry_space_group_name_H-M "P M M A"
_symmetry_group_IT_number 51
_symmetry_cell_setting 'orthorhombic'
loop_
_space_group_symop_operation_xyz
x,y,z
1/2-x,-y,z
1/2+x,-y,-z
-x,y,-z
-x,-y,-z
1/2+x,y,-z
1/2-x,y,z
x,-y,z
loop_
_atom_site_type_symbol
_atom_site_label
_atom_site_fract_x
_atom_site_fract_y
_atom_site_fract_z
Si Si1 0.072149 0.292503 0.147359
Si Si2 0.928083 0.415957 0.852891
Si Si3 0.428639 0.000000 0.849314
Si Si4 0.431219 0.500000 0.653472
Si Si5 0.568655 0.790594 0.346712
Si Si6 0.569529 0.114283 0.153644
O O1 0.250000 0.278211 0.144331
O O2 0.043063 0.354232 0.173995
O O3 0.990025 0.262807 0.274421
O O4 0.000000 0.274011 0.000000
O O5 0.750000 0.430369 0.854337
O O6 0.011836 0.447166 0.729939
O O7 0.000000 0.434094 0.000000
O O8 0.476905 0.943708 0.778572
O O9 0.250000 0.000000 0.870227
O O10 0.500000 0.000000 0.000000
O O11 0.250000 0.500000 0.645892
O O12 0.500000 0.500000 0.500000
O O13 0.500000 0.795156 0.500000
O O14 0.750000 0.789085 0.356450
O O15 0.507528 0.840963 0.258428
O O16 0.750000 0.119287 0.136959
O O17 0.500000 0.122986 0.000000
#
# Coordination Sequence:
#
# PCOD8213980 Si02
#       6
#     8   8   4   4   8   8
#     4  10  21  38  61  86 111 142 181 225 271 321
#     4  10  21  39  62  87 114 145 183 225 270 320
#     4   8  14  28  49  74 102 130 168 216 265 316
#     4  12  25  40  59  84 116 152 188 226 271 322
#     4  11  23  37  53  76 108 145 183 224 273 326
#     4   9  18  32  53  78 103 135 174 219 268 320
#
# _framework density 19.041052000000001
#
# number of rings (size 3 to 8) (size 9 to 14) (size 15 to 20)
#    0.000    2.000    0.000    3.600    0.000    6.400 
#    0.000    0.500    0.000    0.000    0.000    0.000 
#    0.000    0.000    0.000    0.000    0.000    0.000 
#
# Total GULP energy -495913.110931 kJ/mol
# GULP energy per Si atom -12397.827773 kJ/mol
# Density = 1.899771 g / cm^3
# Si number density = 19.041052 Si / 1000 Ang^3
#
#
#
# Elastic Constant Matrix: (Units=GPa)
#
#
# Indices 1 2 3 4 5 6 
#
# 1 100.6220 53.3787 60.5730 0.0000 0.0000 0.0000
# 2 53.3787 115.4919 77.7002 0.0000 0.0000 0.0000
# 3 60.5730 77.7002 151.4017 0.0000 0.0000 0.0000
# 4 0.0000 0.0000 0.0000 16.3289 0.0000 0.0000
# 5 0.0000 0.0000 0.0000 0.0000 35.4555 0.0000
# 6 0.0000 0.0000 0.0000 0.0000 0.0000 25.6464
#
#
#
# Elastic Compliance Matrix: (Units=1/GPa)
#
#
# Indices 1 2 3 4 5 6 
#
# 1 0.014323 -0.004223 -0.003563 0.000000 0.000000 0.000000
# 2 -0.004223 0.014470 -0.005736 0.000000 0.000000 0.000000
# 3 -0.003563 -0.005736 0.010975 0.000000 0.000000 0.000000
# 4 0.000000 0.000000 0.000000 0.061241 0.000000 0.000000
# 5 0.000000 0.000000 0.000000 0.000000 0.028204 0.000000
# 6 0.000000 0.000000 0.000000 0.000000 0.000000 0.038992
#
#
# Mechanical properties :
#
#
# Convention : Reuss Voigt Hill
#
# Bulk Modulus (GPa) = 78.60113 83.42437 81.01275
# Shear Modulus (GPa) = 25.06378 27.21040 26.13709
#
# Velocity S-wave (km/s) = 3.63202 3.78436 3.70898
# Velocity P-wave (km/s) = 7.67843 7.93746 7.80902
#
# Compressibility (1/GPa) = 0.01272246
#
# Stress axis : x y z
#
# Youngs Moduli (GPa) = 69.81585 69.11016 91.11951
#
# Poissons Ratio (x) = 0.29183 0.32470
# Poissons Ratio (y) = 0.29481 0.52271
# Poissons Ratio (z) = 0.24878 0.39645
#
# Static dielectric constant tensor:
#      x y z
#    x 3.570730 0.000000 0.000000 
#    y 0.000000 3.985100 0.000000 
#    z 0.000000 0.000000 3.334110 
# 
# 
# High freq. dielectric constant tensor:
#      x y z
#    x 1.749950 0.000000 0.000000 
#    y 0.000000 1.762900 0.000000 
#    z 0.000000 0.000000 1.721560 
# 
# From -- ./inp_files/5511.got.cif
#   From: 2010.03.12/outbox.cif.g09.slc.cpg/sg51_3_cif.got.tgz:5511.got - 2010.04.16 13:43:02.
