data_PCOD8213654
_publ_section_title
;
Structure prediction by ZEFSAII (Michael W. Deem and Ramdas Pophale) SiO2 
 PCOD8213654
Probable space group: P M M A
;
_chemical_formula_sum "Si O2"
_cell_formula_units_Z 48
_cell_length_a 8.953852
_cell_length_b 9.086192
_cell_length_c 30.801712
_cell_angle_alpha 90.000000
_cell_angle_beta 90.000000
_cell_angle_gamma 90.000000
_cell_volume 2505.916969
_symmetry_space_group_name_H-M "P M M A"
_symmetry_group_IT_number 51
_symmetry_cell_setting 'orthorhombic'
loop_
_space_group_symop_operation_xyz
x,y,z
1/2-x,-y,z
1/2+x,-y,-z
-x,y,-z
-x,-y,-z
1/2+x,y,-z
1/2-x,y,z
x,-y,z
loop_
_atom_site_type_symbol
_atom_site_label
_atom_site_fract_x
_atom_site_fract_y
_atom_site_fract_z
Si Si1 0.924958 0.667422 0.043622
Si Si2 0.077035 0.826988 0.869556
Si Si3 0.423994 0.670913 0.543962
Si Si4 0.919992 0.173684 0.623209
Si Si5 0.923081 0.672191 0.790526
Si Si6 0.075139 0.170007 0.711562
O O1 0.750000 0.676620 0.036495
O O2 0.977029 0.500000 0.052729
O O3 0.975612 0.767989 0.083730
O O4 0.000000 0.729729 0.000000
O O5 0.250000 0.786380 0.860683
O O6 0.973855 0.751294 0.834148
O O7 0.050964 0.000000 0.867821
O O8 0.500000 0.729470 0.500000
O O9 0.250000 0.703717 0.540240
O O10 0.459442 0.500000 0.550838
O O11 0.488657 0.757021 0.584362
O O12 0.750000 0.229759 0.621819
O O13 0.992015 0.224950 0.668400
O O14 0.930357 0.000000 0.618368
O O15 0.750000 0.707355 0.781863
O O16 0.953003 0.500000 0.795701
O O17 0.019990 0.731388 0.750899
O O18 0.250000 0.194024 0.704636
O O19 0.037813 0.000000 0.721817
#
# Coordination Sequence:
#
# PCOD8213654 Si02
#       6
#     8   8   8   8   8   8
#     4   9  18  33  53  77 107 143 181 222 268 318
#     4  10  21  37  57  81 109 143 183 225 271 324
#     4  10  21  37  57  81 110 146 187 230 277 327
#     4  10  21  37  58  84 113 146 183 224 272 325
#     4  11  24  39  56  81 111 143 181 224 270 322
#     4  10  21  38  60  84 110 142 180 222 270 324
#
# _framework density 19.154662999999999
#
# number of rings (size 3 to 8) (size 9 to 14) (size 15 to 20)
#    0.000    2.000    0.000    3.000    0.000    9.333 
#    0.000    1.667    0.000    0.000    0.000    0.000 
#    0.000    0.000    0.000    0.000    0.000    0.000 
#
# Total GULP energy -595435.842988 kJ/mol
# GULP energy per Si atom -12404.913396 kJ/mol
# Density = 1.911107 g / cm^3
# Si number density = 19.154663 Si / 1000 Ang^3
#
#
#
# Elastic Constant Matrix: (Units=GPa)
#
#
# Indices 1 2 3 4 5 6 
#
# 1 43.8059 18.6901 24.3380 0.0000 0.0000 0.0000
# 2 18.6901 54.5465 36.8314 0.0000 0.0000 0.0000
# 3 24.3380 36.8314 125.5295 0.0000 0.0000 0.0000
# 4 0.0000 0.0000 0.0000 39.6346 0.0000 0.0000
# 5 0.0000 0.0000 0.0000 0.0000 43.9942 0.0000
# 6 0.0000 0.0000 0.0000 0.0000 0.0000 30.0444
#
#
#
# Elastic Compliance Matrix: (Units=1/GPa)
#
#
# Indices 1 2 3 4 5 6 
#
# 1 0.027749 -0.007327 -0.003230 0.000000 0.000000 0.000000
# 2 -0.007327 0.024797 -0.005855 0.000000 0.000000 0.000000
# 3 -0.003230 -0.005855 0.010310 0.000000 0.000000 0.000000
# 4 0.000000 0.000000 0.000000 0.025230 0.000000 0.000000
# 5 0.000000 0.000000 0.000000 0.000000 0.022730 0.000000
# 6 0.000000 0.000000 0.000000 0.000000 0.000000 0.033284
#
#
# Mechanical properties :
#
#
# Convention : Reuss Voigt Hill
#
# Bulk Modulus (GPa) = 33.29799 42.62233 37.96016
# Shear Modulus (GPa) = 26.74714 32.33614 29.54164
#
# Velocity S-wave (km/s) = 3.74087 4.11318 3.93143
# Velocity P-wave (km/s) = 6.00669 6.69759 6.36152
#
# Compressibility (1/GPa) = 0.03003184
#
# Stress axis : x y z
#
# Youngs Moduli (GPa) = 36.03776 40.32742 96.98864
#
# Poissons Ratio (x) = 0.29547 0.31330
# Poissons Ratio (y) = 0.26404 0.56788
# Poissons Ratio (z) = 0.11641 0.23612
#
# Static dielectric constant tensor:
#      x y z
#    x 3.454580 0.000000 0.000000 
#    y 0.000000 3.487480 0.000000 
#    z 0.000000 0.000000 3.735010 
# 
# 
# High freq. dielectric constant tensor:
#      x y z
#    x 1.753240 0.000000 0.000000 
#    y 0.000000 1.740070 0.000000 
#    z 0.000000 0.000000 1.760440 
# 
# From -- ./inp_files/37000.got.cif
#   From: 2010.03.12/outbox.cif.g09.slc.cpg/sg51_19_cif.got.tgz:37000.got - 2010.04.16 13:43:02.
