data_PCOD8213536
_publ_section_title
;
Structure prediction by ZEFSAII (Michael W. Deem and Ramdas Pophale) SiO2 
 PCOD8213536
Probable space group: P M M A
;
_chemical_formula_sum "Si O2"
_cell_formula_units_Z 56
_cell_length_a 14.647322
_cell_length_b 8.958224
_cell_length_c 21.502204
_cell_angle_alpha 90.000000
_cell_angle_beta 90.000000
_cell_angle_gamma 90.000000
_cell_volume 2821.390012
_symmetry_space_group_name_H-M "P M M A"
_symmetry_group_IT_number 51
_symmetry_cell_setting 'orthorhombic'
loop_
_space_group_symop_operation_xyz
x,y,z
1/2-x,-y,z
1/2+x,-y,-z
-x,y,-z
-x,-y,-z
1/2+x,y,-z
1/2-x,y,z
x,-y,z
loop_
_atom_site_type_symbol
_atom_site_label
_atom_site_fract_x
_atom_site_fract_y
_atom_site_fract_z
Si Si1 0.855965 0.826115 0.081182
Si Si2 0.990931 0.675846 0.845427
Si Si3 0.010004 0.822760 0.283153
Si Si4 0.143639 0.673080 0.646420
Si Si5 0.854759 0.327870 0.954456
Si Si6 0.641705 0.165494 0.476201
Si Si7 0.148195 0.822660 0.387849
O O1 0.750000 0.791395 0.092852
O O2 0.910938 0.737917 0.133813
O O3 0.878354 0.000000 0.086221
O O4 0.885817 0.769678 0.013169
O O5 0.997973 0.500000 0.835234
O O6 0.959641 0.753678 0.782090
O O7 0.915266 0.720193 0.896091
O O8 0.909333 0.765464 0.301036
O O9 0.081395 0.761973 0.334499
O O10 0.009329 0.000000 0.278226
O O11 0.250000 0.708904 0.655555
O O12 0.121798 0.500000 0.654571
O O13 0.109850 0.723323 0.577972
O O14 0.750000 0.296712 0.936532
O O15 0.870897 0.500000 0.972411
O O16 0.750000 0.155670 0.480031
O O17 0.608158 0.223892 0.544003
O O18 0.601881 0.000000 0.461488
O O19 0.250000 0.756010 0.376980
O O20 0.153521 0.000000 0.385490
#
# Coordination Sequence:
#
# PCOD8213536 Si02
#       7
#     8   8   8   8   8   8   8
#     4  10  21  37  59  87 114 140 176 223 270 314
#     4  11  23  38  56  79 111 149 184 219 263 316
#     4  11  23  37  55  79 107 143 185 224 264 315
#     4  10  21  37  55  76 106 141 177 222 274 325
#     4   9  19  37  60  85 113 145 179 215 261 317
#     4   8  14  29  55  81 103 132 173 220 269 321
#     4   8  16  33  56  81 108 138 175 220 269 321
#
# _framework density 19.848372999999999
#
# number of rings (size 3 to 8) (size 9 to 14) (size 15 to 20)
#    0.000    2.429    0.000    3.000    0.000    6.286 
#    0.000    4.286    0.000    3.000    0.000    0.000 
#    0.000    0.000    0.000    0.000    0.000    0.000 
#
# Total GULP energy -694485.756745 kJ/mol
# GULP energy per Si atom -12401.531370 kJ/mol
# Density = 1.980320 g / cm^3
# Si number density = 19.848373 Si / 1000 Ang^3
#
#
#
# Elastic Constant Matrix: (Units=GPa)
#
#
# Indices 1 2 3 4 5 6 
#
# 1 49.4448 20.0980 19.3225 0.0000 0.0000 0.0000
# 2 20.0980 64.6484 23.1096 0.0000 0.0000 0.0000
# 3 19.3225 23.1096 84.5083 0.0000 0.0000 0.0000
# 4 0.0000 0.0000 0.0000 15.3281 0.0000 0.0000
# 5 0.0000 0.0000 0.0000 0.0000 29.3133 0.0000
# 6 0.0000 0.0000 0.0000 0.0000 0.0000 20.5376
#
#
#
# Elastic Compliance Matrix: (Units=1/GPa)
#
#
# Indices 1 2 3 4 5 6 
#
# 1 0.024234 -0.006155 -0.003858 0.000000 0.000000 0.000000
# 2 -0.006155 0.018707 -0.003708 0.000000 0.000000 0.000000
# 3 -0.003858 -0.003708 0.013729 0.000000 0.000000 0.000000
# 4 0.000000 0.000000 0.000000 0.065239 0.000000 0.000000
# 5 0.000000 0.000000 0.000000 0.000000 0.034114 0.000000
# 6 0.000000 0.000000 0.000000 0.000000 0.000000 0.048691
#
#
# Mechanical properties :
#
#
# Convention : Reuss Voigt Hill
#
# Bulk Modulus (GPa) = 34.21337 35.96243 35.08790
# Shear Modulus (GPa) = 20.66964 22.10724 21.38844
#
# Velocity S-wave (km/s) = 3.23054 3.34099 3.28623
# Velocity P-wave (km/s) = 5.58480 5.74812 5.66705
#
# Compressibility (1/GPa) = 0.02922834
#
# Stress axis : x y z
#
# Youngs Moduli (GPa) = 41.26434 53.45494 72.83663
#
# Poissons Ratio (x) = 0.32901 0.28100
# Poissons Ratio (y) = 0.25398 0.27011
# Poissons Ratio (z) = 0.15919 0.19823
#
# Static dielectric constant tensor:
#      x y z
#    x 3.665350 0.000000 0.000000 
#    y 0.000000 3.455470 0.000000 
#    z 0.000000 0.000000 3.728820 
# 
# 
# High freq. dielectric constant tensor:
#      x y z
#    x 1.774510 0.000000 0.000000 
#    y 0.000000 1.758500 0.000000 
#    z 0.000000 0.000000 1.775740 
# 
# From -- ./inp_files/33390.got.cif
#   From: 2010.03.12/outbox.cif.g09.slc.cpg/sg51_17_cif.got.tgz:33390.got - 2010.04.16 13:43:02.
