data_PCOD8213116
_publ_section_title
;
Structure prediction by ZEFSAII (Michael W. Deem and Ramdas Pophale) SiO2 
 PCOD8213116
Probable space group: P M M A
;
_chemical_formula_sum "Si O2"
_cell_formula_units_Z 64
_cell_length_a 9.080508
_cell_length_b 20.001029
_cell_length_c 18.447661
_cell_angle_alpha 90.000000
_cell_angle_beta 90.000000
_cell_angle_gamma 90.000000
_cell_volume 3350.455038
_symmetry_space_group_name_H-M "P M M A"
_symmetry_group_IT_number 51
_symmetry_cell_setting 'orthorhombic'
loop_
_space_group_symop_operation_xyz
x,y,z
1/2-x,-y,z
1/2+x,-y,-z
-x,y,-z
-x,-y,-z
1/2+x,y,-z
1/2-x,y,z
x,-y,z
loop_
_atom_site_type_symbol
_atom_site_label
_atom_site_fract_x
_atom_site_fract_y
_atom_site_fract_z
Si Si1 0.579270 0.690233 0.818537
Si Si2 0.579684 0.421829 0.573456
Si Si3 0.919299 0.922426 0.157071
Si Si4 0.425200 0.073910 0.680096
Si Si5 0.078970 0.189228 0.073437
Si Si6 0.578034 0.575870 0.926631
Si Si7 0.922804 0.319470 0.330764
Si Si8 0.923087 0.809982 0.423280
O O1 0.750000 0.685773 0.795368
O O2 0.547983 0.754102 0.867696
O O3 0.529668 0.623333 0.860820
O O4 0.477322 0.698188 0.748979
O O5 0.500000 0.398698 0.500000
O O6 0.750000 0.401992 0.566688
O O7 0.558235 0.500000 0.587408
O O8 0.506963 0.384989 0.641351
O O9 0.750000 0.899564 0.150144
O O10 0.978902 0.909123 0.238612
O O11 0.016988 0.881129 0.101202
O O12 0.935988 0.000000 0.137065
O O13 0.250000 0.074636 0.680871
O O14 0.487295 0.128548 0.624164
O O15 0.481759 0.000000 0.656898
O O16 0.250000 0.180566 0.056978
O O17 0.000000 0.211442 0.000000
O O18 0.750000 0.583095 0.941470
O O19 0.533529 0.500000 0.906118
O O20 0.500000 0.599490 0.000000
O O21 0.750000 0.333970 0.329067
O O22 0.962797 0.258381 0.383160
O O23 0.750000 0.817877 0.434776
O O24 0.000000 0.810773 0.500000
#
# Coordination Sequence:
#
# PCOD8213116 Si02
#       8
#     8   8   8   8   8   8   8   8
#     4  10  22  38  55  79 110 143 181 225 273 322
#     4  10  21  38  60  84 112 146 183 226 275 328
#     4   9  18  35  59  82 105 138 179 222 270 326
#     4   8  15  31  55  79 104 137 176 216 260 314
#     4  11  23  37  55  79 109 144 181 226 276 327
#     4   9  18  34  56  80 107 139 174 213 259 313
#     4  11  23  37  56  81 109 144 185 229 274 324
#     4  10  21  35  52  77 107 139 176 218 264 313
#
# _framework density 19.101883000000001
#
# number of rings (size 3 to 8) (size 9 to 14) (size 15 to 20)
#    0.000    2.250    0.000    3.375    0.000    6.500 
#    0.000    1.875    0.000    0.750    0.000    0.000 
#    0.000    0.000    0.000    0.000    0.000    0.000 
#
# Total GULP energy -793809.913316 kJ/mol
# GULP energy per Si atom -12403.279896 kJ/mol
# Density = 1.905841 g / cm^3
# Si number density = 19.101883 Si / 1000 Ang^3
#
#
#
# Elastic Constant Matrix: (Units=GPa)
#
#
# Indices 1 2 3 4 5 6 
#
# 1 81.9071 47.8178 55.6847 0.0000 0.0000 0.0000
# 2 47.8178 87.0408 47.0636 0.0000 0.0000 0.0000
# 3 55.6847 47.0636 109.0697 0.0000 0.0000 0.0000
# 4 0.0000 0.0000 0.0000 27.8862 0.0000 0.0000
# 5 0.0000 0.0000 0.0000 0.0000 35.0812 0.0000
# 6 0.0000 0.0000 0.0000 0.0000 0.0000 21.7584
#
#
#
# Elastic Compliance Matrix: (Units=1/GPa)
#
#
# Indices 1 2 3 4 5 6 
#
# 1 0.022224 -0.007923 -0.007928 0.000000 0.000000 0.000000
# 2 -0.007923 0.017809 -0.003640 0.000000 0.000000 0.000000
# 3 -0.007928 -0.003640 0.014786 0.000000 0.000000 0.000000
# 4 0.000000 0.000000 0.000000 0.035860 0.000000 0.000000
# 5 0.000000 0.000000 0.000000 0.000000 0.028505 0.000000
# 6 0.000000 0.000000 0.000000 0.000000 0.000000 0.045959
#
#
# Mechanical properties :
#
#
# Convention : Reuss Voigt Hill
#
# Bulk Modulus (GPa) = 63.13367 64.34999 63.74183
# Shear Modulus (GPa) = 23.87722 25.44192 24.65957
#
# Velocity S-wave (km/s) = 3.53936 3.65349 3.59688
# Velocity P-wave (km/s) = 7.05872 7.18040 7.11982
#
# Compressibility (1/GPa) = 0.01583941
#
# Stress axis : x y z
#
# Youngs Moduli (GPa) = 44.99672 56.14983 67.62948
#
# Poissons Ratio (x) = 0.44486 0.53614
# Poissons Ratio (y) = 0.35649 0.24617
# Poissons Ratio (z) = 0.35672 0.20438
#
# Static dielectric constant tensor:
#      x y z
#    x 3.352020 0.000000 0.000000 
#    y 0.000000 3.705430 0.000000 
#    z 0.000000 0.000000 3.471570 
# 
# 
# High freq. dielectric constant tensor:
#      x y z
#    x 1.729550 0.000000 0.000000 
#    y 0.000000 1.754960 0.000000 
#    z 0.000000 0.000000 1.744980 
# 
# From -- ./inp_files/28476.got.cif
#   From: 2010.03.12/outbox.cif.g09.slc.cpg/sg51_15_cif.got.tgz:28476.got - 2010.04.16 13:43:02.
