data_PCOD8213919
_publ_section_title
;
Structure prediction by ZEFSAII (Michael W. Deem and Ramdas Pophale) SiO2 
 PCOD8213919
Probable space group: P M M A
;
_chemical_formula_sum "Si O2"
_cell_formula_units_Z 36
_cell_length_a 9.049478
_cell_length_b 7.942532
_cell_length_c 24.378477
_cell_angle_alpha 90.000000
_cell_angle_beta 90.000000
_cell_angle_gamma 90.000000
_cell_volume 1752.221772
_symmetry_space_group_name_H-M "P M M A"
_symmetry_group_IT_number 51
_symmetry_cell_setting 'orthorhombic'
loop_
_space_group_symop_operation_xyz
x,y,z
1/2-x,-y,z
1/2+x,-y,-z
-x,y,-z
-x,-y,-z
1/2+x,y,-z
1/2-x,y,z
x,-y,z
loop_
_atom_site_type_symbol
_atom_site_label
_atom_site_fract_x
_atom_site_fract_y
_atom_site_fract_z
Si Si1 0.917185 0.307775 0.161911
Si Si2 0.920809 0.197492 0.944478
Si Si3 0.917361 0.808865 0.734527
Si Si4 0.575480 0.000000 0.441703
Si Si5 0.420387 0.688124 0.631722
O O1 0.750000 0.241194 0.154167
O O2 0.917948 0.500000 0.181435
O O3 0.003633 0.294311 0.105150
O O4 0.996780 0.199195 0.208279
O O5 0.750000 0.249016 0.947976
O O6 0.941352 0.000000 0.934761
O O7 0.000000 0.256478 0.000000
O O8 0.750000 0.747234 0.744095
O O9 0.990870 0.693642 0.688375
O O10 0.922420 0.000000 0.713428
O O11 0.500000 0.000000 0.500000
O O12 0.522525 0.830807 0.410261
O O13 0.750000 0.000000 0.450055
O O14 0.250000 0.723057 0.645950
O O15 0.441930 0.500000 0.606414
#
# Coordination Sequence:
#
# PCOD8213919 Si02
#       5
#     8   8   8   4   8
#     4  11  24  39  56  82 115 152 194 239 292 354
#     4  10  21  38  60  84 110 144 189 239 293 354
#     4  11  23  38  59  88 120 154 195 244 300 358
#     4  10  22  40  62  90 126 164 205 252 297 350
#     4  10  21  39  63  90 121 161 206 249 300 359
#
# _framework density 20.545342999999999
#
# number of rings (size 3 to 8) (size 9 to 14) (size 15 to 20)
#    0.000    1.556    1.111    3.333    0.000   12.000 
#    0.000    0.000    0.000    0.000    0.000    0.000 
#    0.000    0.000    0.000    0.000    0.000    0.000 
#
# Total GULP energy -446572.704281 kJ/mol
# GULP energy per Si atom -12404.797341 kJ/mol
# Density = 2.049858 g / cm^3
# Si number density = 20.545343 Si / 1000 Ang^3
#
#
#
# Elastic Constant Matrix: (Units=GPa)
#
#
# Indices 1 2 3 4 5 6 
#
# 1 130.7873 36.2188 60.0506 0.0000 0.0000 0.0000
# 2 36.2188 97.2483 43.6419 0.0000 0.0000 0.0000
# 3 60.0506 43.6419 137.9129 0.0000 0.0000 0.0000
# 4 0.0000 0.0000 0.0000 25.0606 0.0000 0.0000
# 5 0.0000 0.0000 0.0000 0.0000 43.9989 0.0000
# 6 0.0000 0.0000 0.0000 0.0000 0.0000 19.6157
#
#
#
# Elastic Compliance Matrix: (Units=1/GPa)
#
#
# Indices 1 2 3 4 5 6 
#
# 1 0.009892 -0.002041 -0.003661 0.000000 0.000000 0.000000
# 2 -0.002041 0.012406 -0.003037 0.000000 0.000000 0.000000
# 3 -0.003661 -0.003037 0.009806 0.000000 0.000000 0.000000
# 4 0.000000 0.000000 0.000000 0.039903 0.000000 0.000000
# 5 0.000000 0.000000 0.000000 0.000000 0.022728 0.000000
# 6 0.000000 0.000000 0.000000 0.000000 0.000000 0.050980
#
#
# Mechanical properties :
#
#
# Convention : Reuss Voigt Hill
#
# Bulk Modulus (GPa) = 68.37414 71.75232 70.06323
# Shear Modulus (GPa) = 29.74949 32.80420 31.27685
#
# Velocity S-wave (km/s) = 3.80938 4.00017 3.90594
# Velocity P-wave (km/s) = 7.25950 7.50566 7.38360
#
# Compressibility (1/GPa) = 0.01462541
#
# Stress axis : x y z
#
# Youngs Moduli (GPa) = 101.08764 80.60554 101.97506
#
# Poissons Ratio (x) = 0.16453 0.37338
# Poissons Ratio (y) = 0.20633 0.30971
# Poissons Ratio (z) = 0.37013 0.24481
#
# Static dielectric constant tensor:
#      x y z
#    x 3.811790 0.000000 0.000000 
#    y 0.000000 3.752360 0.000000 
#    z 0.000000 0.000000 3.552510 
# 
# 
# High freq. dielectric constant tensor:
#      x y z
#    x 1.810030 0.000000 0.000000 
#    y 0.000000 1.808700 0.000000 
#    z 0.000000 0.000000 1.797090 
# 
# From -- ./inp_files/34312.got.cif
#   From: 2010.03.12/outbox.cif.g09.slc.cpg/sg51_18_cif.got.tgz:34312.got - 2010.04.16 13:43:02.
