data_PCOD8213582
_publ_section_title
;
Structure prediction by ZEFSAII (Michael W. Deem and Ramdas Pophale) SiO2 
 PCOD8213582
Probable space group: P M M A
;
_chemical_formula_sum "Si O2"
_cell_formula_units_Z 48
_cell_length_a 9.045394
_cell_length_b 9.841268
_cell_length_c 29.469247
_cell_angle_alpha 90.000000
_cell_angle_beta 90.000000
_cell_angle_gamma 90.000000
_cell_volume 2623.297747
_symmetry_space_group_name_H-M "P M M A"
_symmetry_group_IT_number 51
_symmetry_cell_setting 'orthorhombic'
loop_
_space_group_symop_operation_xyz
x,y,z
1/2-x,-y,z
1/2+x,-y,-z
-x,y,-z
-x,-y,-z
1/2+x,y,-z
1/2-x,y,z
x,-y,z
loop_
_atom_site_type_symbol
_atom_site_label
_atom_site_fract_x
_atom_site_fract_y
_atom_site_fract_z
Si Si1 0.922009 0.159316 0.192025
Si Si2 0.923423 0.231490 0.897766
Si Si3 0.415851 0.661499 0.367499
Si Si4 0.575677 0.000000 0.047958
Si Si5 0.583369 0.662115 0.455560
Si Si6 0.421803 0.344860 0.722819
Si Si7 0.419579 0.500000 0.048039
O O1 0.750000 0.178190 0.178995
O O2 0.962336 0.241522 0.237185
O O3 0.025627 0.227467 0.154196
O O4 0.959737 0.000000 0.198302
O O5 0.750000 0.194376 0.901274
O O6 0.960813 0.374276 0.920358
O O7 0.025995 0.129572 0.924620
O O8 0.250000 0.719405 0.368784
O O9 0.416120 0.500000 0.369845
O O10 0.503566 0.720451 0.410732
O O11 0.492055 0.709298 0.321096
O O12 0.750000 0.000000 0.041432
O O13 0.500000 0.000000 0.000000
O O14 0.500000 0.717695 0.500000
O O15 0.750000 0.717695 0.456359
O O16 0.581613 0.500000 0.455166
O O17 0.250000 0.339422 0.710840
O O18 0.467496 0.500000 0.735878
O O19 0.250000 0.500000 0.034444
O O20 0.500000 0.500000 0.000000
#
# Coordination Sequence:
#
# PCOD8213582 Si02
#       7
#     8   8   8   4   8   8   4
#     4  10  21  37  56  80 109 140 178 220 266 317
#     4  11  23  40  60  85 115 146 180 220 266 315
#     4   9  16  26  40  61  90 124 165 212 261 312
#     4  12  24  40  62  88 114 144 182 220 261 314
#     4   9  15  22  34  54  84 124 166 207 253 307
#     4   9  18  32  50  72  99 134 175 217 263 315
#     4  10  24  42  60  86 116 146 180 218 261 312
#
# _framework density 18.297578999999999
#
# number of rings (size 3 to 8) (size 9 to 14) (size 15 to 20)
#    0.000    2.167    0.833    2.750    1.167    7.333 
#    0.000    0.000    0.000    0.000    0.000    0.000 
#    0.000    0.667    0.000    1.833    0.000    3.333 
#
# Total GULP energy -595182.677440 kJ/mol
# GULP energy per Si atom -12399.639113 kJ/mol
# Density = 1.825593 g / cm^3
# Si number density = 18.297579 Si / 1000 Ang^3
#
#
#
# Elastic Constant Matrix: (Units=GPa)
#
#
# Indices 1 2 3 4 5 6 
#
# 1 131.3112 43.2777 88.8348 0.0000 0.0000 0.0000
# 2 43.2777 83.4245 57.0959 0.0000 0.0000 0.0000
# 3 88.8348 57.0959 173.9067 0.0000 0.0000 0.0000
# 4 0.0000 0.0000 0.0000 13.3111 0.0000 0.0000
# 5 0.0000 0.0000 0.0000 0.0000 42.6566 0.0000
# 6 0.0000 0.0000 0.0000 0.0000 0.0000 20.4647
#
#
#
# Elastic Compliance Matrix: (Units=1/GPa)
#
#
# Indices 1 2 3 4 5 6 
#
# 1 0.012069 -0.002633 -0.005301 0.000000 0.000000 0.000000
# 2 -0.002633 0.016036 -0.003919 0.000000 0.000000 0.000000
# 3 -0.005301 -0.003919 0.009745 0.000000 0.000000 0.000000
# 4 0.000000 0.000000 0.000000 0.075125 0.000000 0.000000
# 5 0.000000 0.000000 0.000000 0.000000 0.023443 0.000000
# 6 0.000000 0.000000 0.000000 0.000000 0.000000 0.048865
#
#
# Mechanical properties :
#
#
# Convention : Reuss Voigt Hill
#
# Bulk Modulus (GPa) = 70.70885 85.22880 77.96882
# Shear Modulus (GPa) = 23.39681 28.58207 25.98944
#
# Velocity S-wave (km/s) = 3.57975 3.95659 3.77288
# Velocity P-wave (km/s) = 7.47087 8.21907 7.85389
#
# Compressibility (1/GPa) = 0.01414250
#
# Stress axis : x y z
#
# Youngs Moduli (GPa) = 82.85366 62.36161 102.61940
#
# Poissons Ratio (x) = 0.16422 0.54396
# Poissons Ratio (y) = 0.21819 0.40222
# Poissons Ratio (z) = 0.43919 0.24443
#
# Static dielectric constant tensor:
#      x y z
#    x 3.487760 0.000000 0.000000 
#    y 0.000000 3.073820 0.000000 
#    z 0.000000 0.000000 8.889050 
# 
# 
# High freq. dielectric constant tensor:
#      x y z
#    x 1.718870 0.000000 0.000000 
#    y 0.000000 1.668110 0.000000 
#    z 0.000000 0.000000 1.725190 
# 
# From -- ./inp_files/37207.got.cif
#   From: 2010.03.12/outbox.cif.g09.slc.cpg/sg51_19_cif.got.tgz:37207.got - 2010.04.16 13:43:02.
