data_PCOD8213143
_publ_section_title
;
Structure prediction by ZEFSAII (Michael W. Deem and Ramdas Pophale) SiO2 
 PCOD8213143
Probable space group: P M M A
;
_chemical_formula_sum "Si O2"
_cell_formula_units_Z 64
_cell_length_a 14.976748
_cell_length_b 9.320454
_cell_length_c 23.654620
_cell_angle_alpha 90.000000
_cell_angle_beta 90.000000
_cell_angle_gamma 90.000000
_cell_volume 3301.950554
_symmetry_space_group_name_H-M "P M M A"
_symmetry_group_IT_number 51
_symmetry_cell_setting 'orthorhombic'
loop_
_space_group_symop_operation_xyz
x,y,z
1/2-x,-y,z
1/2+x,-y,-z
-x,y,-z
-x,-y,-z
1/2+x,y,-z
1/2-x,y,z
x,-y,z
loop_
_atom_site_type_symbol
_atom_site_label
_atom_site_fract_x
_atom_site_fract_y
_atom_site_fract_z
Si Si1 0.348044 0.345036 0.087193
Si Si2 0.003006 0.335175 0.631312
Si Si3 0.352953 0.168455 0.426720
Si Si4 0.006271 0.665549 0.759281
Si Si5 0.649330 0.670965 0.149065
Si Si6 0.851819 0.665786 0.460014
Si Si7 0.409787 0.332336 0.971952
Si Si8 0.855133 0.834411 0.810899
O O1 0.250000 0.369375 0.111157
O O2 0.400312 0.500000 0.091403
O O3 0.390447 0.226327 0.128281
O O4 0.339146 0.297092 0.021663
O O5 0.975698 0.500000 0.620512
O O6 0.916013 0.237576 0.620824
O O7 0.038451 0.313555 0.695017
O O8 0.084587 0.288129 0.591303
O O9 0.250000 0.200701 0.410798
O O10 0.378318 0.238350 0.486568
O O11 0.371293 0.000000 0.430361
O O12 0.985954 0.500000 0.773143
O O13 0.083551 0.725138 0.801157
O O14 0.913383 0.751946 0.764475
O O15 0.750000 0.727428 0.160790
O O16 0.650705 0.500000 0.147090
O O17 0.616561 0.736703 0.088361
O O18 0.750000 0.694796 0.441117
O O19 0.865851 0.500000 0.476854
O O20 0.418041 0.500000 0.960505
O O21 0.500000 0.269630 0.000000
O O22 0.750000 0.810889 0.799138
O O23 0.879885 0.000000 0.809502
#
# Coordination Sequence:
#
# PCOD8213143 Si02
#       8
#     8   8   8   8   8   8   8   8
#     4   9  16  27  46  71  96 122 156 200 250 306
#     4  10  21  35  53  79 108 139 177 218 260 307
#     4  10  21  36  55  81 111 141 174 213 259 312
#     4  10  21  36  54  77 104 137 179 222 260 304
#     4   9  17  30  50  77 108 140 175 218 265 309
#     4   9  18  34  56  81 111 144 174 209 257 310
#     4   9  15  23  41  72 105 131 159 203 258 311
#     4  10  21  36  53  73 100 135 173 216 269 325
#
# _framework density 19.382482
#
# number of rings (size 3 to 8) (size 9 to 14) (size 15 to 20)
#    0.000    2.500    0.000    2.250    0.000    8.500 
#    0.000    5.000    0.000    3.750    0.000    1.750 
#    0.000    0.000    0.000    0.000    0.000    0.000 
#
# Total GULP energy -793090.584595 kJ/mol
# GULP energy per Si atom -12392.040384 kJ/mol
# Density = 1.933837 g / cm^3
# Si number density = 19.382482 Si / 1000 Ang^3
#
#
#
# Elastic Constant Matrix: (Units=GPa)
#
#
# Indices 1 2 3 4 5 6 
#
# 1 101.2557 36.1229 52.3539 0.0000 0.0000 0.0000
# 2 36.1229 59.8880 33.7118 0.0000 0.0000 0.0000
# 3 52.3539 33.7118 111.6342 0.0000 0.0000 0.0000
# 4 0.0000 0.0000 0.0000 -1.5915 0.0000 0.0000
# 5 0.0000 0.0000 0.0000 0.0000 27.5520 0.0000
# 6 0.0000 0.0000 0.0000 0.0000 0.0000 17.4709
#
#
#
# Elastic Compliance Matrix: (Units=1/GPa)
#
#
# Indices 1 2 3 4 5 6 
#
# 1 0.014619 -0.005974 -0.005052 0.000000 0.000000 0.000000
# 2 -0.005974 0.022559 -0.004011 0.000000 0.000000 0.000000
# 3 -0.005052 -0.004011 0.012538 0.000000 0.000000 0.000000
# 4 0.000000 0.000000 0.000000 -0.628329 0.000000 0.000000
# 5 0.000000 0.000000 0.000000 0.000000 0.036295 0.000000
# 6 0.000000 0.000000 0.000000 0.000000 0.000000 0.057238
#
#
# Mechanical properties :
#
#
# Convention : Reuss Voigt Hill
#
# Bulk Modulus (GPa) = 50.90921 57.46166 54.18544
# Shear Modulus (GPa) = -11.14932 18.72557 3.78812
#
# Velocity S-wave (km/s) = -2.40099 3.11160 1.39952
# Velocity P-wave (km/s) = 4.31697 6.52840 5.53427
#
# Compressibility (1/GPa) = 0.01964281
#
# Stress axis : x y z
#
# Youngs Moduli (GPa) = 68.40219 44.32823 79.75563
#
# Poissons Ratio (x) = 0.26482 0.40293
# Poissons Ratio (y) = 0.40865 0.31988
# Poissons Ratio (z) = 0.34557 0.17779
#
# Static dielectric constant tensor:
#      x y z
#    x 3.718230 0.000000 0.000000 
#    y 0.000000 3.248900 0.000000 
#    z 0.000000 0.000000 3.581600 
# 
# 
# High freq. dielectric constant tensor:
#      x y z
#    x 1.758390 0.000000 0.000000 
#    y 0.000000 1.710860 0.000000 
#    z 0.000000 0.000000 1.755270 
# 
# From -- ./inp_files/35813.got.cif
#   From: 2010.03.12/outbox.cif.g09.slc.cpg/sg51_18_cif.got.tgz:35813.got - 2010.04.16 13:43:02.
