data_PCOD8213256
_publ_section_title
;
Structure prediction by ZEFSAII (Michael W. Deem and Ramdas Pophale) SiO2 
 PCOD8213256
Probable space group: P M M A
;
_chemical_formula_sum "Si O2"
_cell_formula_units_Z 64
_cell_length_a 30.356460
_cell_length_b 8.905255
_cell_length_c 14.210598
_cell_angle_alpha 90.000000
_cell_angle_beta 90.000000
_cell_angle_gamma 90.000000
_cell_volume 3841.579623
_symmetry_space_group_name_H-M "P M M A"
_symmetry_group_IT_number 51
_symmetry_cell_setting 'orthorhombic'
loop_
_space_group_symop_operation_xyz
x,y,z
1/2-x,-y,z
1/2+x,-y,-z
-x,y,-z
-x,-y,-z
1/2+x,y,-z
1/2-x,y,z
x,-y,z
loop_
_atom_site_type_symbol
_atom_site_label
_atom_site_fract_x
_atom_site_fract_y
_atom_site_fract_z
Si Si1 0.454740 0.328901 0.456227
Si Si2 0.121370 0.831393 0.563989
Si Si3 0.572569 0.829872 0.242308
Si Si4 0.483529 0.672293 0.251506
Si Si5 0.611517 0.323485 0.066380
Si Si6 0.298145 0.678148 0.853891
Si Si7 0.457395 0.176663 0.063052
Si Si8 0.300166 0.326803 0.642769
O O1 0.500000 0.259794 0.500000
O O2 0.451571 0.500000 0.491125
O O3 0.411774 0.245341 0.492264
O O4 0.452857 0.316434 0.343312
O O5 0.104218 0.822600 0.669742
O O6 0.169214 0.754494 0.565905
O O7 0.127247 0.000000 0.528643
O O8 0.524995 0.775862 0.275001
O O9 0.588617 0.713180 0.164731
O O10 0.569672 0.000000 0.201245
O O11 0.497493 0.500000 0.232848
O O12 0.458374 0.736045 0.161161
O O13 0.606878 0.500000 0.045241
O O14 0.662947 0.272221 0.074701
O O15 0.587847 0.228471 0.985568
O O16 0.250000 0.734826 0.890585
O O17 0.297513 0.500000 0.845754
O O18 0.306612 0.740933 0.748380
O O19 0.456057 0.000000 0.081733
O O20 0.500000 0.220219 0.000000
O O21 0.250000 0.303319 0.610025
O O22 0.313582 0.500000 0.642953
#
# Coordination Sequence:
#
# PCOD8213256 Si02
#       8
#     8   8   8   8   8   8   8   8
#     4  10  21  36  53  74  99 130 170 213 253 295
#     4  11  22  32  48  74 105 140 172 204 249 307
#     4  11  21  31  45  70 105 138 167 203 249 295
#     4  11  22  36  54  73  95 129 175 216 246 288
#     4  11  20  31  52  75  97 133 175 210 242 292
#     4   8  15  28  47  73 101 128 162 205 250 291
#     4  11  23  36  50  71 103 136 165 204 254 303
#     4   9  17  31  51  73 100 135 172 209 250 296
#
# _framework density 16.659814000000001
#
# number of rings (size 3 to 8) (size 9 to 14) (size 15 to 20)
#    0.000    1.750    3.750    2.625    0.000    3.000 
#    0.000    0.000    0.000    1.500    0.000    0.875 
#    0.000    3.000    0.000    0.000    0.000    0.000 
#
# Total GULP energy -793478.767955 kJ/mol
# GULP energy per Si atom -12398.105749 kJ/mol
# Density = 1.662190 g / cm^3
# Si number density = 16.659814 Si / 1000 Ang^3
#
#
#
# Elastic Constant Matrix: (Units=GPa)
#
#
# Indices 1 2 3 4 5 6 
#
# 1 118.1014 40.9135 38.5450 0.0000 0.0000 0.0000
# 2 40.9135 57.6802 33.1949 0.0000 0.0000 0.0000
# 3 38.5450 33.1949 71.7060 0.0000 0.0000 0.0000
# 4 0.0000 0.0000 0.0000 21.7249 0.0000 0.0000
# 5 0.0000 0.0000 0.0000 0.0000 24.4338 0.0000
# 6 0.0000 0.0000 0.0000 0.0000 0.0000 17.0723
#
#
#
# Elastic Compliance Matrix: (Units=1/GPa)
#
#
# Indices 1 2 3 4 5 6 
#
# 1 0.011792 -0.006429 -0.003362 0.000000 0.000000 0.000000
# 2 -0.006429 0.027138 -0.009107 0.000000 0.000000 0.000000
# 3 -0.003362 -0.009107 0.019969 0.000000 0.000000 0.000000
# 4 0.000000 0.000000 0.000000 0.046030 0.000000 0.000000
# 5 0.000000 0.000000 0.000000 0.000000 0.040927 0.000000
# 6 0.000000 0.000000 0.000000 0.000000 0.000000 0.058575
#
#
# Mechanical properties :
#
#
# Convention : Reuss Voigt Hill
#
# Bulk Modulus (GPa) = 47.38881 52.53271 49.96076
# Shear Modulus (GPa) = 20.05913 21.63514 20.84714
#
# Velocity S-wave (km/s) = 3.47370 3.60758 3.54127
# Velocity P-wave (km/s) = 6.67799 6.99670 6.83920
#
# Compressibility (1/GPa) = 0.02110203
#
# Stress axis : x y z
#
# Youngs Moduli (GPa) = 84.80386 36.84804 50.07673
#
# Poissons Ratio (x) = 0.23690 0.16838
# Poissons Ratio (y) = 0.54521 0.45607
# Poissons Ratio (z) = 0.28515 0.33559
#
# Static dielectric constant tensor:
#      x y z
#    x 3.335810 0.000000 0.000000 
#    y 0.000000 3.153920 0.000000 
#    z 0.000000 0.000000 2.935610 
# 
# 
# High freq. dielectric constant tensor:
#      x y z
#    x 1.637270 0.000000 0.000000 
#    y 0.000000 1.641950 0.000000 
#    z 0.000000 0.000000 1.611600 
# 
# From -- ./inp_files/26717.got.cif
#   From: 2010.03.12/outbox.cif.g09.slc.cpg/sg51_14_cif.got.tgz:26717.got - 2010.04.16 13:43:02.
