data_PCOD8213718
_publ_section_title
;
Structure prediction by ZEFSAII (Michael W. Deem and Ramdas Pophale) SiO2 
 PCOD8213718
Probable space group: P M M A
;
_chemical_formula_sum "Si O2"
_cell_formula_units_Z 56
_cell_length_a 8.952775
_cell_length_b 14.342046
_cell_length_c 20.833183
_cell_angle_alpha 90.000000
_cell_angle_beta 90.000000
_cell_angle_gamma 90.000000
_cell_volume 2675.003840
_symmetry_space_group_name_H-M "P M M A"
_symmetry_group_IT_number 51
_symmetry_cell_setting 'orthorhombic'
loop_
_space_group_symop_operation_xyz
x,y,z
1/2-x,-y,z
1/2+x,-y,-z
-x,y,-z
-x,-y,-z
1/2+x,y,-z
1/2-x,y,z
x,-y,z
loop_
_atom_site_type_symbol
_atom_site_label
_atom_site_fract_x
_atom_site_fract_y
_atom_site_fract_z
Si Si1 0.927275 0.602362 0.120014
Si Si2 0.574689 0.209425 0.064101
Si Si3 0.426177 0.220237 0.563489
Si Si4 0.918747 0.110242 0.820841
Si Si5 0.576645 0.108797 0.675933
Si Si6 0.085331 0.390209 0.739649
Si Si7 0.924210 0.392267 0.613661
O O1 0.750000 0.594338 0.123357
O O2 0.994387 0.500000 0.101270
O O3 0.976959 0.681960 0.070159
O O4 0.981185 0.636843 0.190582
O O5 0.750000 0.199819 0.056179
O O6 0.529022 0.153905 0.127353
O O7 0.500000 0.167634 0.000000
O O8 0.500000 0.174169 0.500000
O O9 0.250000 0.216622 0.556608
O O10 0.475279 0.165215 0.626706
O O11 0.481631 0.327733 0.565776
O O12 0.750000 0.143348 0.835280
O O13 0.965592 0.140282 0.748556
O O14 0.929549 0.000000 0.826533
O O15 0.750000 0.130189 0.662257
O O16 0.542952 0.000000 0.666822
O O17 0.250000 0.344952 0.726694
O O18 0.105707 0.500000 0.738808
O O19 0.967584 0.359618 0.685671
O O20 0.750000 0.373997 0.603581
O O21 0.966710 0.500000 0.600772
#
# Coordination Sequence:
#
# PCOD8213718 Si02
#       7
#     8   8   8   8   8   8   8
#     4   8  16  32  53  78 112 153 197 244 293 347
#     4  11  23  37  56  85 120 159 204 248 298 354
#     4  12  26  42  62  89 124 164 207 250 298 355
#     4   9  20  41  67  92 119 152 190 239 300 359
#     4   9  20  42  70  97 125 156 192 241 303 365
#     4   8  14  28  51  78 107 142 188 241 296 350
#     4  10  21  37  57  84 120 160 203 251 302 357
#
# _framework density 20.934550999999999
#
# number of rings (size 3 to 8) (size 9 to 14) (size 15 to 20)
#    0.000    2.429    0.000    3.857    2.000    3.143 
#    0.000    2.143    0.000    2.143    0.000    0.000 
#    0.000    0.000    0.000    0.000    0.000    0.000 
#
# Total GULP energy -694198.306833 kJ/mol
# GULP energy per Si atom -12396.398336 kJ/mol
# Density = 2.088690 g / cm^3
# Si number density = 20.934551 Si / 1000 Ang^3
#
#
#
# Elastic Constant Matrix: (Units=GPa)
#
#
# Indices 1 2 3 4 5 6 
#
# 1 112.6839 36.1248 63.2104 0.0000 0.0000 0.0000
# 2 36.1248 53.6537 46.5633 0.0000 0.0000 0.0000
# 3 63.2104 46.5633 133.0506 0.0000 0.0000 0.0000
# 4 0.0000 0.0000 0.0000 21.5933 0.0000 0.0000
# 5 0.0000 0.0000 0.0000 0.0000 33.0385 0.0000
# 6 0.0000 0.0000 0.0000 0.0000 0.0000 26.9081
#
#
#
# Elastic Compliance Matrix: (Units=1/GPa)
#
#
# Indices 1 2 3 4 5 6 
#
# 1 0.012919 -0.004843 -0.004443 0.000000 0.000000 0.000000
# 2 -0.004843 0.028583 -0.007703 0.000000 0.000000 0.000000
# 3 -0.004443 -0.007703 0.012322 0.000000 0.000000 0.000000
# 4 0.000000 0.000000 0.000000 0.046311 0.000000 0.000000
# 5 0.000000 0.000000 0.000000 0.000000 0.030268 0.000000
# 6 0.000000 0.000000 0.000000 0.000000 0.000000 0.037164
#
#
# Mechanical properties :
#
#
# Convention : Reuss Voigt Hill
#
# Bulk Modulus (GPa) = 50.38158 65.68724 58.03441
# Shear Modulus (GPa) = 24.02013 26.54063 25.28038
#
# Velocity S-wave (km/s) = 3.39099 3.56447 3.47881
# Velocity P-wave (km/s) = 6.28094 6.95601 6.62708
#
# Compressibility (1/GPa) = 0.01984852
#
# Stress axis : x y z
#
# Youngs Moduli (GPa) = 77.40466 34.98564 81.15338
#
# Poissons Ratio (x) = 0.16942 0.36056
# Poissons Ratio (y) = 0.37484 0.62509
# Poissons Ratio (z) = 0.34390 0.26948
#
# Static dielectric constant tensor:
#      x y z
#    x 3.594960 0.000000 0.000000 
#    y 0.000000 3.791260 0.000000 
#    z 0.000000 0.000000 3.974700 
# 
# 
# High freq. dielectric constant tensor:
#      x y z
#    x 1.800780 0.000000 0.000000 
#    y 0.000000 1.813980 0.000000 
#    z 0.000000 0.000000 1.824830 
# 
# From -- ./inp_files/31951.got.cif
#   From: 2010.03.12/outbox.cif.g09.slc.cpg/sg51_16_cif.got.tgz:31951.got - 2010.04.16 13:43:02.
