data_PCOD8213085
_publ_section_title
;
Structure prediction by ZEFSAII (Michael W. Deem and Ramdas Pophale) SiO2 
 PCOD8213085
Probable space group: P M M A
;
_chemical_formula_sum "Si O2"
_cell_formula_units_Z 40
_cell_length_a 9.204242
_cell_length_b 7.539464
_cell_length_c 29.409980
_cell_angle_alpha 90.000000
_cell_angle_beta 90.000000
_cell_angle_gamma 90.000000
_cell_volume 2040.907068
_symmetry_space_group_name_H-M "P M M A"
_symmetry_group_IT_number 51
_symmetry_cell_setting 'orthorhombic'
loop_
_space_group_symop_operation_xyz
x,y,z
1/2-x,-y,z
1/2+x,-y,-z
-x,y,-z
-x,-y,-z
1/2+x,y,-z
1/2-x,y,z
x,-y,z
loop_
_atom_site_type_symbol
_atom_site_label
_atom_site_fract_x
_atom_site_fract_y
_atom_site_fract_z
Si Si1 0.919702 0.201658 0.545567
Si Si2 0.918713 0.203425 0.220299
Si Si3 0.586360 0.789373 0.868923
Si Si4 0.414440 0.788589 0.955999
Si Si5 0.079288 0.500000 0.385604
Si Si6 0.581377 0.500000 0.291090
O O1 0.750000 0.224866 0.536100
O O2 0.970860 0.325449 0.586926
O O3 0.000000 0.262965 0.500000
O O4 0.960395 0.000000 0.558533
O O5 0.750000 0.224925 0.207494
O O6 0.961061 0.323897 0.263133
O O7 0.010140 0.272916 0.177420
O O8 0.956421 0.000000 0.232627
O O9 0.750000 0.713435 0.870473
O O10 0.495960 0.713331 0.911505
O O11 0.588147 0.000000 0.871367
O O12 0.250000 0.715170 0.956870
O O13 0.413144 0.000000 0.955545
O O14 0.500000 0.717254 0.000000
O O15 0.250000 0.500000 0.377716
O O16 0.006198 0.500000 0.337127
O O17 0.750000 0.500000 0.303293
#
# Coordination Sequence:
#
# PCOD8213085 Si02
#       6
#     8   8   8   8   4   4
#     4   9  18  33  53  78 107 139 175 212 250 295
#     4   9  18  34  53  71  95 127 163 207 255 299
#     4   9  16  26  42  65  91 121 160 203 248 301
#     4   9  15  22  34  56  89 126 161 200 247 298
#     4  10  21  35  51  74 106 139 169 208 257 302
#     4  10  22  37  53  76 102 131 172 214 253 302
#
# _framework density 19.599128
#
# number of rings (size 3 to 8) (size 9 to 14) (size 15 to 20)
#    0.000    2.800    0.000    1.500    0.000    7.200 
#    0.000    0.000    0.000    0.000    0.000    0.700 
#    0.000    0.000    0.000    0.000    0.000    0.000 
#
# Total GULP energy -496022.152748 kJ/mol
# GULP energy per Si atom -12400.553819 kJ/mol
# Density = 1.955452 g / cm^3
# Si number density = 19.599128 Si / 1000 Ang^3
#
#
#
# Elastic Constant Matrix: (Units=GPa)
#
#
# Indices 1 2 3 4 5 6 
#
# 1 116.0471 36.4016 92.9435 0.0000 0.0000 0.0000
# 2 36.4016 79.0194 67.6588 0.0000 0.0000 0.0000
# 3 92.9435 67.6588 198.7977 0.0000 0.0000 0.0000
# 4 0.0000 0.0000 0.0000 -57.8580 0.0000 0.0000
# 5 0.0000 0.0000 0.0000 0.0000 45.5601 0.0000
# 6 0.0000 0.0000 0.0000 0.0000 0.0000 7.6859
#
#
#
# Elastic Compliance Matrix: (Units=1/GPa)
#
#
# Indices 1 2 3 4 5 6 
#
# 1 0.013853 -0.001180 -0.006075 0.000000 0.000000 0.000000
# 2 -0.001180 0.017960 -0.005561 0.000000 0.000000 0.000000
# 3 -0.006075 -0.005561 0.009763 0.000000 0.000000 0.000000
# 4 0.000000 0.000000 0.000000 -0.017284 0.000000 0.000000
# 5 0.000000 0.000000 0.000000 0.000000 0.021949 0.000000
# 6 0.000000 0.000000 0.000000 0.000000 0.000000 0.130109
#
#
# Mechanical properties :
#
#
# Convention : Reuss Voigt Hill
#
# Bulk Modulus (GPa) = 62.71820 87.54135 75.12977
# Shear Modulus (GPa) = 24.11998 12.20160 18.16079
#
# Velocity S-wave (km/s) = 3.51189 2.49782 3.04733
# Velocity P-wave (km/s) = 6.96523 7.28572 7.12728
#
# Compressibility (1/GPa) = 0.01594434
#
# Stress axis : x y z
#
# Youngs Moduli (GPa) = 72.18718 55.67906 102.42680
#
# Poissons Ratio (x) = 0.06570 0.62225
# Poissons Ratio (y) = 0.08518 0.56958
# Poissons Ratio (z) = 0.43854 0.30962
#
# Static dielectric constant tensor:
#      x y z
#    x 3.665830 0.000000 0.000000 
#    y 0.000000 3.470420 0.000000 
#    z 0.000000 0.000000 3.506880 
# 
# 
# High freq. dielectric constant tensor:
#      x y z
#    x 1.763530 0.000000 0.000000 
#    y 0.000000 1.751760 0.000000 
#    z 0.000000 0.000000 1.758440 
# 
# From -- ./inp_files/36024.got.cif
#   From: 2010.03.12/outbox.cif.g09.slc.cpg/sg51_19_cif.got.tgz:36024.got - 2010.04.16 13:43:02.
