data_PCOD8213483
_publ_section_title
;
Structure prediction by ZEFSAII (Michael W. Deem and Ramdas Pophale) SiO2 
 PCOD8213483
Probable space group: P M M A
;
_chemical_formula_sum "Si O2"
_cell_formula_units_Z 64
_cell_length_a 14.605224
_cell_length_b 8.963722
_cell_length_c 24.309408
_cell_angle_alpha 90.000000
_cell_angle_beta 90.000000
_cell_angle_gamma 90.000000
_cell_volume 3182.518843
_symmetry_space_group_name_H-M "P M M A"
_symmetry_group_IT_number 51
_symmetry_cell_setting 'orthorhombic'
loop_
_space_group_symop_operation_xyz
x,y,z
1/2-x,-y,z
1/2+x,-y,-z
-x,y,-z
-x,-y,-z
1/2+x,y,-z
1/2-x,y,z
x,-y,z
loop_
_atom_site_type_symbol
_atom_site_label
_atom_site_fract_x
_atom_site_fract_y
_atom_site_fract_z
Si Si1 0.479796 0.173454 0.060481
Si Si2 0.646032 0.673713 0.412708
Si Si3 0.643782 0.323950 0.849670
Si Si4 0.971347 0.824645 0.629704
Si Si5 0.650842 0.834714 0.131874
Si Si6 0.347739 0.674708 0.758267
Si Si7 0.453271 0.322576 0.262955
Si Si8 0.356063 0.330072 0.460018
O O1 0.400568 0.254149 0.095512
O O2 0.576402 0.204904 0.087622
O O3 0.452605 0.000000 0.057239
O O4 0.500000 0.240064 0.000000
O O5 0.750000 0.724187 0.398952
O O6 0.634531 0.500000 0.398587
O O7 0.575497 0.764223 0.374912
O O8 0.624082 0.704026 0.476389
O O9 0.750000 0.277183 0.847153
O O10 0.631694 0.500000 0.853801
O O11 0.595465 0.265225 0.793147
O O12 0.914823 0.752894 0.681442
O O13 0.916252 0.783139 0.574981
O O14 0.974054 0.000000 0.637174
O O15 0.750000 0.831331 0.102421
O O16 0.647262 0.708596 0.177541
O O17 0.633286 0.000000 0.157642
O O18 0.250000 0.739035 0.734163
O O19 0.347768 0.500000 0.749782
O O20 0.441475 0.737262 0.733214
O O21 0.442840 0.500000 0.266580
O O22 0.250000 0.304724 0.446412
O O23 0.384729 0.500000 0.446129
#
# Coordination Sequence:
#
# PCOD8213483 Si02
#       8
#     8   8   8   8   8   8   8   8
#     4  10  21  36  57  86 118 152 188 227 277 340
#     4   9  19  38  63  87 113 152 200 244 288 345
#     4  10  22  41  63  86 113 149 196 246 291 333
#     4  12  25  36  53  86 124 156 190 238 296 354
#     4   9  17  30  50  76 107 140 174 216 267 325
#     4   9  17  31  54  80 101 128 173 226 278 330
#     4  10  21  38  57  78 109 151 197 242 286 339
#     4   9  19  38  63  86 110 148 199 248 292 343
#
# _framework density 20.109857000000002
#
# number of rings (size 3 to 8) (size 9 to 14) (size 15 to 20)
#    0.000    2.250    1.250    2.250    0.000    5.500 
#    0.000    5.000    0.000    1.500    0.000    0.000 
#    0.000    0.000    0.000    0.000    0.000    0.000 
#
# Total GULP energy -793066.211110 kJ/mol
# GULP energy per Si atom -12391.659549 kJ/mol
# Density = 2.006409 g / cm^3
# Si number density = 20.109857 Si / 1000 Ang^3
#
#
#
# Elastic Constant Matrix: (Units=GPa)
#
#
# Indices 1 2 3 4 5 6 
#
# 1 102.5004 34.9596 49.4782 0.0000 0.0000 0.0000
# 2 34.9596 43.9052 37.0653 0.0000 0.0000 0.0000
# 3 49.4782 37.0653 117.7361 0.0000 0.0000 0.0000
# 4 0.0000 0.0000 0.0000 21.9043 0.0000 0.0000
# 5 0.0000 0.0000 0.0000 0.0000 11.6988 0.0000
# 6 0.0000 0.0000 0.0000 0.0000 0.0000 22.6321
#
#
#
# Elastic Compliance Matrix: (Units=1/GPa)
#
#
# Indices 1 2 3 4 5 6 
#
# 1 0.014275 -0.008583 -0.003297 0.000000 0.000000 0.000000
# 2 -0.008583 0.036182 -0.007784 0.000000 0.000000 0.000000
# 3 -0.003297 -0.007784 0.012329 0.000000 0.000000 0.000000
# 4 0.000000 0.000000 0.000000 0.045653 0.000000 0.000000
# 5 0.000000 0.000000 0.000000 0.000000 0.085479 0.000000
# 6 0.000000 0.000000 0.000000 0.000000 0.000000 0.044185
#
#
# Mechanical properties :
#
#
# Convention : Reuss Voigt Hill
#
# Bulk Modulus (GPa) = 42.62778 56.34977 49.48878
# Shear Modulus (GPa) = 17.52849 20.75628 19.14239
#
# Velocity S-wave (km/s) = 2.95555 3.21619 3.08862
# Velocity P-wave (km/s) = 5.73503 6.47098 6.11409
#
# Compressibility (1/GPa) = 0.02345888
#
# Stress axis : x y z
#
# Youngs Moduli (GPa) = 70.05270 27.63830 81.10661
#
# Poissons Ratio (x) = 0.23723 0.26740
# Poissons Ratio (y) = 0.60128 0.63129
# Poissons Ratio (z) = 0.23095 0.21512
#
# Static dielectric constant tensor:
#      x y z
#    x 3.983430 0.000000 0.000000 
#    y 0.000000 3.400020 0.000000 
#    z 0.000000 0.000000 3.680020 
# 
# 
# High freq. dielectric constant tensor:
#      x y z
#    x 1.795410 0.000000 0.000000 
#    y 0.000000 1.758100 0.000000 
#    z 0.000000 0.000000 1.784730 
# 
# From -- ./inp_files/35793.got.cif
#   From: 2010.03.12/outbox.cif.g09.slc.cpg/sg51_18_cif.got.tgz:35793.got - 2010.04.16 13:43:02.
