data_PCOD8213169
_publ_section_title
;
Structure prediction by ZEFSAII (Michael W. Deem and Ramdas Pophale) SiO2 
 PCOD8213169
Probable space group: P M M A
;
_chemical_formula_sum "Si O2"
_cell_formula_units_Z 56
_cell_length_a 14.077155
_cell_length_b 22.860380
_cell_length_c 7.777331
_cell_angle_alpha 90.000000
_cell_angle_beta 90.000000
_cell_angle_gamma 90.000000
_cell_volume 2502.815988
_symmetry_space_group_name_H-M "P M M A"
_symmetry_group_IT_number 51
_symmetry_cell_setting 'orthorhombic'
loop_
_space_group_symop_operation_xyz
x,y,z
1/2-x,-y,z
1/2+x,-y,-z
-x,y,-z
-x,-y,-z
1/2+x,y,-z
1/2-x,y,z
x,-y,z
loop_
_atom_site_type_symbol
_atom_site_label
_atom_site_fract_x
_atom_site_fract_y
_atom_site_fract_z
Si Si1 0.107619 0.565290 0.551626
Si Si2 0.478751 0.247512 0.201141
Si Si3 0.356542 0.857989 0.166060
Si Si4 0.644604 0.830710 0.233254
Si Si5 0.481685 0.063793 0.696775
Si Si6 0.356260 0.356502 0.242576
Si Si7 0.860863 0.564896 0.067896
O O1 0.153268 0.500000 0.550358
O O2 0.160157 0.605637 0.413900
O O3 0.117918 0.592199 0.743616
O O4 0.000000 0.561571 0.500000
O O5 0.401556 0.198720 0.256276
O O6 0.578516 0.225252 0.284934
O O7 0.435123 0.306821 0.278819
O O8 0.500000 0.254817 0.000000
O O9 0.250000 0.871118 0.234999
O O10 0.425657 0.912779 0.200388
O O11 0.354452 0.840597 0.968764
O O12 0.750000 0.818381 0.305901
O O13 0.606165 0.891748 0.304678
O O14 0.500000 0.053419 0.500000
O O15 0.455630 0.000000 0.777947
O O16 0.250000 0.332049 0.193852
O O17 0.400940 0.394441 0.085130
O O18 0.750000 0.560053 0.036818
O O19 0.907055 0.500000 0.053392
#
# Coordination Sequence:
#
# PCOD8213169 Si02
#       7
#     8   8   8   8   8   8   8
#     4  10  22  38  58  84 121 163 202 251 308 372
#     4   9  19  35  60  85 115 149 189 251 301 357
#     4   9  18  36  60  83 113 155 202 245 296 353
#     4   9  19  38  63  86 112 156 203 245 300 356
#     4  10  21  35  54  87 128 163 197 242 295 352
#     4  11  22  36  62  92 119 158 205 252 312 374
#     4   9  19  36  58  86 119 155 198 249 306 373
#
# _framework density 22.374796
#
# number of rings (size 3 to 8) (size 9 to 14) (size 15 to 20)
#    0.000    2.429    0.000    2.571    2.000    4.286 
#    0.000    7.857    0.000    3.429    0.000    0.000 
#    0.000    1.714    0.000    0.000    0.000    0.000 
#
# Total GULP energy -693908.106369 kJ/mol
# GULP energy per Si atom -12391.216185 kJ/mol
# Density = 2.232387 g / cm^3
# Si number density = 22.374796 Si / 1000 Ang^3
#
#
#
# Elastic Constant Matrix: (Units=GPa)
#
#
# Indices 1 2 3 4 5 6 
#
# 1 125.8650 60.4478 28.1341 0.0000 0.0000 0.0000
# 2 60.4478 144.9706 44.1721 0.0000 0.0000 0.0000
# 3 28.1341 44.1721 72.4036 0.0000 0.0000 0.0000
# 4 0.0000 0.0000 0.0000 6.6715 0.0000 0.0000
# 5 0.0000 0.0000 0.0000 0.0000 18.9521 0.0000
# 6 0.0000 0.0000 0.0000 0.0000 0.0000 49.8315
#
#
#
# Elastic Compliance Matrix: (Units=1/GPa)
#
#
# Indices 1 2 3 4 5 6 
#
# 1 0.010095 -0.003702 -0.001664 0.000000 0.000000 0.000000
# 2 -0.003702 0.009831 -0.004559 0.000000 0.000000 0.000000
# 3 -0.001664 -0.004559 0.017239 0.000000 0.000000 0.000000
# 4 0.000000 0.000000 0.000000 0.149891 0.000000 0.000000
# 5 0.000000 0.000000 0.000000 0.000000 0.052765 0.000000
# 6 0.000000 0.000000 0.000000 0.000000 0.000000 0.020068
#
#
# Mechanical properties :
#
#
# Convention : Reuss Voigt Hill
#
# Bulk Modulus (GPa) = 57.75420 67.63858 62.69639
# Shear Modulus (GPa) = 17.51249 29.12337 23.31793
#
# Velocity S-wave (km/s) = 2.80069 3.61170 3.23174
# Velocity P-wave (km/s) = 6.02716 6.90565 6.48131
#
# Compressibility (1/GPa) = 0.01731476
#
# Stress axis : x y z
#
# Youngs Moduli (GPa) = 99.05889 101.72142 58.00668
#
# Poissons Ratio (x) = 0.37660 0.09652
# Poissons Ratio (y) = 0.36674 0.26445
# Poissons Ratio (z) = 0.16483 0.46375
#
# Static dielectric constant tensor:
#      x y z
#    x 4.340490 0.000000 0.000000 
#    y 0.000000 4.385610 0.000000 
#    z 0.000000 0.000000 3.922950 
# 
# 
# High freq. dielectric constant tensor:
#      x y z
#    x 1.887240 0.000000 0.000000 
#    y 0.000000 1.869050 0.000000 
#    z 0.000000 0.000000 1.867070 
# 
# From -- ./inp_files/8490.got.cif
#   From: 2010.03.12/outbox.cif.g09.slc.cpg/sg51_5_cif.got.tgz:8490.got - 2010.04.16 13:43:02.
