data_PCOD8213667
_publ_section_title
;
Structure prediction by ZEFSAII (Michael W. Deem and Ramdas Pophale) SiO2 
 PCOD8213667
Probable space group: P M M A
;
_chemical_formula_sum "Si O2"
_cell_formula_units_Z 64
_cell_length_a 23.014422
_cell_length_b 8.505904
_cell_length_c 15.876778
_cell_angle_alpha 90.000000
_cell_angle_beta 90.000000
_cell_angle_gamma 90.000000
_cell_volume 3108.013677
_symmetry_space_group_name_H-M "P M M A"
_symmetry_group_IT_number 51
_symmetry_cell_setting 'orthorhombic'
loop_
_space_group_symop_operation_xyz
x,y,z
1/2-x,-y,z
1/2+x,-y,-z
-x,y,-z
-x,-y,-z
1/2+x,y,-z
1/2-x,y,z
x,-y,z
loop_
_atom_site_type_symbol
_atom_site_label
_atom_site_fract_x
_atom_site_fract_y
_atom_site_fract_z
Si Si1 0.910345 0.314575 0.545295
Si Si2 0.001359 0.815252 0.902949
Si Si3 0.317854 0.813978 0.330877
Si Si4 0.422583 0.678777 0.769679
Si Si5 0.027526 0.181928 0.609567
Si Si6 0.114834 0.314236 0.168768
Si Si7 0.184411 0.819390 0.831761
Si Si8 0.816985 0.323755 0.994960
O O1 0.901791 0.500000 0.540567
O O2 0.851763 0.240480 0.584818
O O3 0.921914 0.247095 0.451815
O O4 0.967062 0.274435 0.600379
O O5 0.055482 0.723372 0.862820
O O6 0.946471 0.770619 0.844824
O O7 0.012003 0.000000 0.898515
O O8 0.000000 0.757816 0.000000
O O9 0.250000 0.758421 0.334100
O O10 0.351284 0.740609 0.251559
O O11 0.320943 0.000000 0.323765
O O12 0.435922 0.500000 0.745112
O O13 0.452634 0.795595 0.704510
O O14 0.353694 0.710760 0.770391
O O15 0.016265 0.000000 0.589886
O O16 0.104837 0.500000 0.175243
O O17 0.151524 0.262917 0.088020
O O18 0.250000 0.766103 0.815147
O O19 0.173785 0.000000 0.809176
O O20 0.168105 0.793700 0.929457
O O21 0.750000 0.321123 0.971587
O O22 0.836860 0.500000 0.020374
#
# Coordination Sequence:
#
# PCOD8213667 Si02
#       8
#     8   8   8   8   8   8   8   8
#     4  11  22  40  65  93 123 152 191 239 291 350
#     4  11  24  40  58  83 118 159 202 249 302 357
#     4  11  24  41  61  87 122 164 207 250 301 362
#     4  12  24  39  60  86 116 149 190 237 286 340
#     4  11  22  40  66  93 122 154 192 237 289 349
#     4  11  22  36  56  83 116 154 198 247 298 353
#     4  10  21  37  57  81 110 145 185 230 281 336
#     4   9  18  33  53  77 107 146 191 237 284 335
#
# _framework density 20.591930999999999
#
# number of rings (size 3 to 8) (size 9 to 14) (size 15 to 20)
#    0.000    1.250    0.000    7.500    0.000    6.250 
#    0.000    1.875    0.000    3.750    0.000    0.000 
#    0.000    0.000    0.000    0.000    0.000    0.000 
#
# Total GULP energy -793703.985788 kJ/mol
# GULP energy per Si atom -12401.624778 kJ/mol
# Density = 2.054506 g / cm^3
# Si number density = 20.591931 Si / 1000 Ang^3
#
#
#
# Elastic Constant Matrix: (Units=GPa)
#
#
# Indices 1 2 3 4 5 6 
#
# 1 102.7178 20.2182 37.9540 0.0000 0.0000 0.0000
# 2 20.2182 75.9651 16.1502 0.0000 0.0000 0.0000
# 3 37.9540 16.1502 75.4544 0.0000 0.0000 0.0000
# 4 0.0000 0.0000 0.0000 34.1557 0.0000 0.0000
# 5 0.0000 0.0000 0.0000 0.0000 38.1773 0.0000
# 6 0.0000 0.0000 0.0000 0.0000 0.0000 30.2359
#
#
#
# Elastic Compliance Matrix: (Units=1/GPa)
#
#
# Indices 1 2 3 4 5 6 
#
# 1 0.012253 -0.002044 -0.005726 0.000000 0.000000 0.000000
# 2 -0.002044 0.014132 -0.001997 0.000000 0.000000 0.000000
# 3 -0.005726 -0.001997 0.016561 0.000000 0.000000 0.000000
# 4 0.000000 0.000000 0.000000 0.029278 0.000000 0.000000
# 5 0.000000 0.000000 0.000000 0.000000 0.026194 0.000000
# 6 0.000000 0.000000 0.000000 0.000000 0.000000 0.033073
#
#
# Mechanical properties :
#
#
# Convention : Reuss Voigt Hill
#
# Bulk Modulus (GPa) = 42.71127 44.75355 43.73241
# Shear Modulus (GPa) = 31.48037 32.50144 31.99090
#
# Velocity S-wave (km/s) = 3.91419 3.97717 3.94580
# Velocity P-wave (km/s) = 6.41986 6.54761 6.48405
#
# Compressibility (1/GPa) = 0.02341302
#
# Stress axis : x y z
#
# Youngs Moduli (GPa) = 81.60935 70.75913 60.38391
#
# Poissons Ratio (x) = 0.14462 0.34576
# Poissons Ratio (y) = 0.16680 0.12057
# Poissons Ratio (z) = 0.46730 0.14129
#
# Static dielectric constant tensor:
#      x y z
#    x 3.948790 0.000000 0.000000 
#    y 0.000000 3.706960 0.000000 
#    z 0.000000 0.000000 3.712560 
# 
# 
# High freq. dielectric constant tensor:
#      x y z
#    x 1.811740 0.000000 0.000000 
#    y 0.000000 1.813210 0.000000 
#    z 0.000000 0.000000 1.800050 
# 
# From -- ./inp_files/26178.got.cif
#   From: 2010.03.12/outbox.cif.g09.slc.cpg/sg51_14_cif.got.tgz:26178.got - 2010.04.16 13:43:02.
