data_PCOD8213317
_publ_section_title
;
Structure prediction by ZEFSAII (Michael W. Deem and Ramdas Pophale) SiO2 
 PCOD8213317
Probable space group: P M M A
;
_chemical_formula_sum "Si O2"
_cell_formula_units_Z 44
_cell_length_a 9.242964
_cell_length_b 17.191706
_cell_length_c 15.008257
_cell_angle_alpha 90.000000
_cell_angle_beta 90.000000
_cell_angle_gamma 90.000000
_cell_volume 2384.846851
_symmetry_space_group_name_H-M "P M M A"
_symmetry_group_IT_number 51
_symmetry_cell_setting 'orthorhombic'
loop_
_space_group_symop_operation_xyz
x,y,z
1/2-x,-y,z
1/2+x,-y,-z
-x,y,-z
-x,-y,-z
1/2+x,y,-z
1/2-x,y,z
x,-y,z
loop_
_atom_site_type_symbol
_atom_site_label
_atom_site_fract_x
_atom_site_fract_y
_atom_site_fract_z
Si Si1 0.091168 0.880863 0.918716
Si Si2 0.908215 0.302935 0.079568
Si Si3 0.425223 0.000000 0.403457
Si Si4 0.418769 0.697475 0.722939
Si Si5 0.417985 0.410989 0.410182
Si Si6 0.080321 0.878342 0.718546
O O1 0.250000 0.917625 0.926132
O O2 0.100612 0.789133 0.931496
O O3 0.029949 0.899856 0.819683
O O4 0.000000 0.918136 0.000000
O O5 0.750000 0.339899 0.071141
O O6 0.971558 0.321496 0.176780
O O7 0.000000 0.341055 0.000000
O O8 0.500000 0.000000 0.500000
O O9 0.479503 0.924134 0.350349
O O10 0.250000 0.000000 0.411713
O O11 0.250000 0.676349 0.710134
O O12 0.520973 0.644748 0.664508
O O13 0.444155 0.787489 0.699422
O O14 0.500000 0.390177 0.500000
O O15 0.250000 0.393746 0.425138
O O16 0.445622 0.500000 0.381758
O O17 0.250000 0.899593 0.705773
#
# Coordination Sequence:
#
# PCOD8213317 Si02
#       6
#     8   8   4   8   8   8
#     4   8  14  26  47  74 104 135 165 202 249 299
#     4   8  14  25  43  71 104 136 169 204 246 295
#     4  12  26  42  59  76  97 132 175 218 266 314
#     4   9  18  33  55  81 107 137 173 212 255 304
#     4  10  21  36  54  77 105 136 169 209 260 313
#     4   9  19  37  57  78 106 138 173 214 258 304
#
# _framework density 18.449822999999999
#
# number of rings (size 3 to 8) (size 9 to 14) (size 15 to 20)
#    0.000    2.909    0.000    3.545    0.000    4.000 
#    0.000    4.091    0.000    0.545    0.000    0.000 
#    0.000    0.000    0.000    0.000    0.000    0.000 
#
# Total GULP energy -545278.548728 kJ/mol
# GULP energy per Si atom -12392.694289 kJ/mol
# Density = 1.840783 g / cm^3
# Si number density = 18.449823 Si / 1000 Ang^3
#
#
#
# Elastic Constant Matrix: (Units=GPa)
#
#
# Indices 1 2 3 4 5 6 
#
# 1 110.4053 45.4048 88.0334 0.0000 0.0000 0.0000
# 2 45.4048 59.3262 58.8691 0.0000 0.0000 0.0000
# 3 88.0334 58.8691 161.1970 0.0000 0.0000 0.0000
# 4 0.0000 0.0000 0.0000 208.3187 0.0000 0.0000
# 5 0.0000 0.0000 0.0000 0.0000 40.6824 0.0000
# 6 0.0000 0.0000 0.0000 0.0000 0.0000 23.9278
#
#
#
# Elastic Compliance Matrix: (Units=1/GPa)
#
#
# Indices 1 2 3 4 5 6 
#
# 1 0.017336 -0.006075 -0.007249 0.000000 0.000000 0.000000
# 2 -0.006075 0.028565 -0.007114 0.000000 0.000000 0.000000
# 3 -0.007249 -0.007114 0.012761 0.000000 0.000000 0.000000
# 4 0.000000 0.000000 0.000000 0.004800 0.000000 0.000000
# 5 0.000000 0.000000 0.000000 0.000000 0.024581 0.000000
# 6 0.000000 0.000000 0.000000 0.000000 0.000000 0.041792
#
#
# Mechanical properties :
#
#
# Convention : Reuss Voigt Hill
#
# Bulk Modulus (GPa) = 56.22687 79.50480 67.86583
# Shear Modulus (GPa) = 28.30630 63.82718 46.06674
#
# Velocity S-wave (km/s) = 3.92118 5.88813 5.00229
# Velocity P-wave (km/s) = 7.14441 9.45583 8.38020
#
# Compressibility (1/GPa) = 0.01778509
#
# Stress axis : x y z
#
# Youngs Moduli (GPa) = 57.68342 35.00835 78.36609
#
# Poissons Ratio (x) = 0.21267 0.56808
# Poissons Ratio (y) = 0.35041 0.55752
# Poissons Ratio (z) = 0.41815 0.24906
#
# Static dielectric constant tensor:
#      x y z
#    x 3.608290 0.000000 0.000000 
#    y 0.000000 3.092290 0.000000 
#    z 0.000000 0.000000 3.615040 
# 
# 
# High freq. dielectric constant tensor:
#      x y z
#    x 1.710160 0.000000 0.000000 
#    y 0.000000 1.688320 0.000000 
#    z 0.000000 0.000000 1.725940 
# 
# From -- ./inp_files/20921.got.cif
#   From: 2010.03.12/outbox.cif.g09.slc.cpg/sg51_11_cif.got.tgz:20921.got - 2010.04.16 13:43:02.
