data_PCOD8213436
_publ_section_title
;
Structure prediction by ZEFSAII (Michael W. Deem and Ramdas Pophale) SiO2 
 PCOD8213436
Probable space group: P M M A
;
_chemical_formula_sum "Si O2"
_cell_formula_units_Z 64
_cell_length_a 27.362661
_cell_length_b 8.858481
_cell_length_c 12.820593
_cell_angle_alpha 90.000000
_cell_angle_beta 90.000000
_cell_angle_gamma 90.000000
_cell_volume 3107.604211
_symmetry_space_group_name_H-M "P M M A"
_symmetry_group_IT_number 51
_symmetry_cell_setting 'orthorhombic'
loop_
_space_group_symop_operation_xyz
x,y,z
1/2-x,-y,z
1/2+x,-y,-z
-x,y,-z
-x,-y,-z
1/2+x,y,-z
1/2-x,y,z
x,-y,z
loop_
_atom_site_type_symbol
_atom_site_label
_atom_site_fract_x
_atom_site_fract_y
_atom_site_fract_z
Si Si1 0.194082 0.322746 0.123884
Si Si2 0.841753 0.325305 0.290606
Si Si3 0.133557 0.677789 0.324207
Si Si4 0.556123 0.324929 0.209583
Si Si5 0.953753 0.177099 0.774456
Si Si6 0.806125 0.824155 0.495590
Si Si7 0.442647 0.666072 0.016483
Si Si8 0.807848 0.829980 0.084140
O O1 0.250000 0.274013 0.140337
O O2 0.189288 0.500000 0.105894
O O3 0.165810 0.268138 0.226440
O O4 0.170266 0.240825 0.023008
O O5 0.828519 0.500000 0.309868
O O6 0.900568 0.301254 0.292687
O O7 0.816922 0.222448 0.377314
O O8 0.821117 0.276691 0.179616
O O9 0.127550 0.500000 0.328578
O O10 0.079929 0.751310 0.315553
O O11 0.158868 0.730162 0.429911
O O12 0.540408 0.500000 0.200555
O O13 0.509138 0.230695 0.244423
O O14 0.577243 0.272481 0.095277
O O15 0.931667 0.224099 0.887169
O O16 0.952260 0.000000 0.764433
O O17 0.750000 0.786504 0.522137
O O18 0.817091 0.000000 0.509048
O O19 0.420681 0.500000 0.043706
O O20 0.500000 0.652753 0.000000
O O21 0.750000 0.831913 0.072551
O O22 0.828153 0.000000 0.100028
#
# Coordination Sequence:
#
# PCOD8213436 Si02
#       8
#     8   8   8   8   8   8   8   8
#     4   9  19  36  58  85 116 152 196 243 294 357
#     4  11  23  39  63  91 118 156 207 252 296 356
#     4  11  23  40  64  89 118 158 206 252 299 358
#     4   9  20  38  58  83 118 160 205 251 299 350
#     4  11  22  35  55  87 124 160 201 248 302 361
#     4  11  25  45  67  92 123 156 195 250 311 365
#     4   8  15  31  53  77 112 158 201 243 291 345
#     4  10  21  36  55  84 123 160 193 239 302 363
#
# _framework density 20.594642
#
# number of rings (size 3 to 8) (size 9 to 14) (size 15 to 20)
#    0.000    2.000    0.000    4.125    1.750    8.000 
#    0.000    1.875    0.000    3.750    0.000    0.000 
#    0.000    0.000    0.000    0.000    0.000    0.000 
#
# Total GULP energy -793706.076572 kJ/mol
# GULP energy per Si atom -12401.657446 kJ/mol
# Density = 2.054777 g / cm^3
# Si number density = 20.594642 Si / 1000 Ang^3
#
#
#
# Elastic Constant Matrix: (Units=GPa)
#
#
# Indices 1 2 3 4 5 6 
#
# 1 40.6392 30.3310 14.6710 0.0000 0.0000 0.0000
# 2 30.3310 92.2217 22.0298 0.0000 0.0000 0.0000
# 3 14.6710 22.0298 66.3133 0.0000 0.0000 0.0000
# 4 0.0000 0.0000 0.0000 19.5246 0.0000 0.0000
# 5 0.0000 0.0000 0.0000 0.0000 36.0868 0.0000
# 6 0.0000 0.0000 0.0000 0.0000 0.0000 24.7369
#
#
#
# Elastic Compliance Matrix: (Units=1/GPa)
#
#
# Indices 1 2 3 4 5 6 
#
# 1 0.033602 -0.010075 -0.004087 0.000000 0.000000 0.000000
# 2 -0.010075 0.014799 -0.002687 0.000000 0.000000 0.000000
# 3 -0.004087 -0.002687 0.016877 0.000000 0.000000 0.000000
# 4 0.000000 0.000000 0.000000 0.051217 0.000000 0.000000
# 5 0.000000 0.000000 0.000000 0.000000 0.027711 0.000000
# 6 0.000000 0.000000 0.000000 0.000000 0.000000 0.040425
#
#
# Mechanical properties :
#
#
# Convention : Reuss Voigt Hill
#
# Bulk Modulus (GPa) = 31.66677 37.02642 34.34660
# Shear Modulus (GPa) = 21.84778 24.87917 23.36347
#
# Velocity S-wave (km/s) = 3.26060 3.47946 3.37181
# Velocity P-wave (km/s) = 5.43920 5.84464 5.64557
#
# Compressibility (1/GPa) = 0.03157884
#
# Stress axis : x y z
#
# Youngs Moduli (GPa) = 29.76047 67.57223 59.25268
#
# Poissons Ratio (x) = 0.68079 0.24216
# Poissons Ratio (y) = 0.29984 0.15923
# Poissons Ratio (z) = 0.12163 0.18159
#
# Static dielectric constant tensor:
#      x y z
#    x 3.836130 0.000000 0.000000 
#    y 0.000000 3.675650 0.000000 
#    z 0.000000 0.000000 3.734200 
# 
# 
# High freq. dielectric constant tensor:
#      x y z
#    x 1.814870 0.000000 0.000000 
#    y 0.000000 1.802350 0.000000 
#    z 0.000000 0.000000 1.791470 
# 
# From -- ./inp_files/19556.got.cif
#   From: 2010.03.12/outbox.cif.g09.slc.cpg/sg51_10_cif.got.tgz:19556.got - 2010.04.16 13:43:02.
