data_PCOD8213738
_publ_section_title
;
Structure prediction by ZEFSAII (Michael W. Deem and Ramdas Pophale) SiO2 
 PCOD8213738
Probable space group: P M M A
;
_chemical_formula_sum "Si O2"
_cell_formula_units_Z 48
_cell_length_a 8.789002
_cell_length_b 29.953807
_cell_length_c 9.448539
_cell_angle_alpha 90.000000
_cell_angle_beta 90.000000
_cell_angle_gamma 90.000000
_cell_volume 2487.460829
_symmetry_space_group_name_H-M "P M M A"
_symmetry_group_IT_number 51
_symmetry_cell_setting 'orthorhombic'
loop_
_space_group_symop_operation_xyz
x,y,z
1/2-x,-y,z
1/2+x,-y,-z
-x,y,-z
-x,-y,-z
1/2+x,y,-z
1/2-x,y,z
x,-y,z
loop_
_atom_site_type_symbol
_atom_site_label
_atom_site_fract_x
_atom_site_fract_y
_atom_site_fract_z
Si Si1 0.075944 0.325567 0.350080
Si Si2 0.572530 0.256846 0.144491
Si Si3 0.930501 0.500000 0.154818
Si Si4 0.929724 0.154517 0.149154
Si Si5 0.571183 0.000000 0.845090
Si Si6 0.925784 0.426110 0.653429
Si Si7 0.069327 0.916902 0.345749
O O1 0.250000 0.310458 0.360841
O O2 0.061264 0.375522 0.287732
O O3 0.000000 0.326053 0.500000
O O4 0.985622 0.289094 0.264120
O O5 0.750000 0.261893 0.128954
O O6 0.526835 0.205891 0.177711
O O7 0.500000 0.273567 0.000000
O O8 0.750000 0.500000 0.144335
O O9 0.985244 0.456031 0.235410
O O10 0.000000 0.500000 0.000000
O O11 0.750000 0.146281 0.144254
O O12 0.003458 0.128320 0.279491
O O13 0.000000 0.138173 0.000000
O O14 0.517558 0.956952 0.756918
O O15 0.750000 0.000000 0.865694
O O16 0.500000 0.000000 0.000000
O O17 0.750000 0.440923 0.642577
O O18 0.000000 0.431975 0.500000
O O19 0.250000 0.913641 0.359496
O O20 0.000000 0.925100 0.500000
#
# Coordination Sequence:
#
# PCOD8213738 Si02
#       7
#     8   8   4   8   4   8   8
#     4  10  21  37  59  85 114 148 188 232 279 332
#     4  10  21  37  58  83 114 150 189 233 282 334
#     4  12  25  40  59  84 114 148 186 232 281 332
#     4  10  21  38  59  84 113 149 191 234 280 335
#     4  10  23  40  60  86 114 148 189 230 279 336
#     4  10  21  39  61  85 113 148 188 230 277 333
#     4  11  23  39  59  85 116 150 188 234 284 334
#
# _framework density 19.296786000000001
#
# number of rings (size 3 to 8) (size 9 to 14) (size 15 to 20)
#    0.000    1.667    0.000    4.250    0.000    8.000 
#    0.000    0.000    0.000    0.000    0.000    0.000 
#    0.000    0.000    0.000    0.000    0.000    0.000 
#
# Total GULP energy -595354.370803 kJ/mol
# GULP energy per Si atom -12403.216058 kJ/mol
# Density = 1.925287 g / cm^3
# Si number density = 19.296786 Si / 1000 Ang^3
#
#
#
# Elastic Constant Matrix: (Units=GPa)
#
#
# Indices 1 2 3 4 5 6 
#
# 1 94.6225 43.7092 46.1053 0.0000 0.0000 0.0000
# 2 43.7092 97.3446 58.0487 0.0000 0.0000 0.0000
# 3 46.1053 58.0487 117.1890 0.0000 0.0000 0.0000
# 4 0.0000 0.0000 0.0000 23.3046 0.0000 0.0000
# 5 0.0000 0.0000 0.0000 0.0000 42.3648 0.0000
# 6 0.0000 0.0000 0.0000 0.0000 0.0000 34.5926
#
#
#
# Elastic Compliance Matrix: (Units=1/GPa)
#
#
# Indices 1 2 3 4 5 6 
#
# 1 0.014259 -0.004339 -0.003461 0.000000 0.000000 0.000000
# 2 -0.004339 0.015899 -0.006169 0.000000 0.000000 0.000000
# 3 -0.003461 -0.006169 0.012950 0.000000 0.000000 0.000000
# 4 0.000000 0.000000 0.000000 0.042910 0.000000 0.000000
# 5 0.000000 0.000000 0.000000 0.000000 0.023604 0.000000
# 6 0.000000 0.000000 0.000000 0.000000 0.000000 0.028908
#
#
# Mechanical properties :
#
#
# Convention : Reuss Voigt Hill
#
# Bulk Modulus (GPa) = 65.90903 67.20915 66.55909
# Shear Modulus (GPa) = 29.15037 30.80528 29.97783
#
# Velocity S-wave (km/s) = 3.89090 3.99983 3.94574
# Velocity P-wave (km/s) = 7.37666 7.49909 7.43812
#
# Compressibility (1/GPa) = 0.01517243
#
# Stress axis : x y z
#
# Youngs Moduli (GPa) = 70.13261 62.89520 77.21808
#
# Poissons Ratio (x) = 0.27289 0.26722
# Poissons Ratio (y) = 0.30429 0.47634
# Poissons Ratio (z) = 0.24270 0.38798
#
# Static dielectric constant tensor:
#      x y z
#    x 3.688330 0.000000 0.000000 
#    y 0.000000 3.784030 0.000000 
#    z 0.000000 0.000000 3.531990 
# 
# 
# High freq. dielectric constant tensor:
#      x y z
#    x 1.768800 0.000000 0.000000 
#    y 0.000000 1.762760 0.000000 
#    z 0.000000 0.000000 1.751720 
# 
# From -- ./inp_files/6189.got.cif
#   From: 2010.03.12/outbox.cif.g09.slc.cpg/sg51_4_cif.got.tgz:6189.got - 2010.04.16 13:43:02.
