data_PCOD8213595
_publ_section_title
;
Structure prediction by ZEFSAII (Michael W. Deem and Ramdas Pophale) SiO2 
 PCOD8213595
Probable space group: P M M A
;
_chemical_formula_sum "Si O2"
_cell_formula_units_Z 56
_cell_length_a 15.943919
_cell_length_b 8.815118
_cell_length_c 19.533852
_cell_angle_alpha 90.000000
_cell_angle_beta 90.000000
_cell_angle_gamma 90.000000
_cell_volume 2745.434599
_symmetry_space_group_name_H-M "P M M A"
_symmetry_group_IT_number 51
_symmetry_cell_setting 'orthorhombic'
loop_
_space_group_symop_operation_xyz
x,y,z
1/2-x,-y,z
1/2+x,-y,-z
-x,y,-z
-x,-y,-z
1/2+x,y,-z
1/2-x,y,z
x,-y,z
loop_
_atom_site_type_symbol
_atom_site_label
_atom_site_fract_x
_atom_site_fract_y
_atom_site_fract_z
Si Si1 0.583140 0.826143 0.204980
Si Si2 0.842124 0.679473 0.660503
Si Si3 0.500807 0.679867 0.422540
Si Si4 0.586621 0.323849 0.802713
Si Si5 0.156122 0.174370 0.651732
Si Si6 0.349081 0.330407 0.926552
Si Si7 0.653092 0.176238 0.936667
O O1 0.506639 0.714556 0.222079
O O2 0.648753 0.804744 0.266504
O O3 0.625499 0.780579 0.134074
O O4 0.552450 0.000000 0.199922
O O5 0.750000 0.740523 0.636763
O O6 0.845317 0.500000 0.652130
O O7 0.852431 0.722125 0.740417
O O8 0.918253 0.749519 0.615477
O O9 0.500000 0.740840 0.500000
O O10 0.497012 0.500000 0.420095
O O11 0.587155 0.728445 0.387531
O O12 0.595607 0.500000 0.821283
O O13 0.604105 0.224933 0.869288
O O14 0.250000 0.228205 0.630894
O O15 0.142349 0.000000 0.631280
O O16 0.250000 0.333755 0.930857
O O17 0.385228 0.500000 0.914785
O O18 0.384429 0.265616 0.998184
O O19 0.750000 0.216419 0.925233
O O20 0.638814 0.000000 0.950368
#
# Coordination Sequence:
#
# PCOD8213595 Si02
#       7
#     8   8   8   8   8   8   8
#     4  11  22  37  58  83 115 153 198 248 302 356
#     4   9  18  34  57  85 119 157 197 243 297 354
#     4  10  21  38  62  93 126 159 199 246 296 352
#     4  11  21  35  57  82 112 151 199 249 303 357
#     4  10  22  40  62  88 122 164 205 245 297 360
#     4  10  21  37  57  82 112 148 194 246 299 357
#     4  10  21  37  56  80 113 151 193 244 300 358
#
# _framework density 20.397500000000001
#
# number of rings (size 3 to 8) (size 9 to 14) (size 15 to 20)
#    0.000    1.857    1.429    2.571    0.000    5.143 
#    0.000    4.286    0.000    1.286    0.000    0.000 
#    0.000    0.000    0.000    0.000    0.000    0.000 
#
# Total GULP energy -694400.767934 kJ/mol
# GULP energy per Si atom -12400.013713 kJ/mol
# Density = 2.035107 g / cm^3
# Si number density = 20.397500 Si / 1000 Ang^3
#
#
#
# Elastic Constant Matrix: (Units=GPa)
#
#
# Indices 1 2 3 4 5 6 
#
# 1 108.2007 16.6813 55.5567 0.0000 0.0000 0.0000
# 2 16.6813 39.1450 28.0448 0.0000 0.0000 0.0000
# 3 55.5567 28.0448 126.0170 0.0000 0.0000 0.0000
# 4 0.0000 0.0000 0.0000 25.5425 0.0000 0.0000
# 5 0.0000 0.0000 0.0000 0.0000 27.6679 0.0000
# 6 0.0000 0.0000 0.0000 0.0000 0.0000 28.3961
#
#
#
# Elastic Compliance Matrix: (Units=1/GPa)
#
#
# Indices 1 2 3 4 5 6 
#
# 1 0.012028 -0.001578 -0.004951 0.000000 0.000000 0.000000
# 2 -0.001578 0.030599 -0.006114 0.000000 0.000000 0.000000
# 3 -0.004951 -0.006114 0.011479 0.000000 0.000000 0.000000
# 4 0.000000 0.000000 0.000000 0.039150 0.000000 0.000000
# 5 0.000000 0.000000 0.000000 0.000000 0.036143 0.000000
# 6 0.000000 0.000000 0.000000 0.000000 0.000000 0.035216
#
#
# Mechanical properties :
#
#
# Convention : Reuss Voigt Hill
#
# Bulk Modulus (GPa) = 34.69994 52.65872 43.67933
# Shear Modulus (GPa) = 25.06164 27.85998 26.46081
#
# Velocity S-wave (km/s) = 3.50903 3.69975 3.60565
# Velocity P-wave (km/s) = 5.78503 6.64253 6.22855
#
# Compressibility (1/GPa) = 0.02881850
#
# Stress axis : x y z
#
# Youngs Moduli (GPa) = 83.14116 32.68106 87.11564
#
# Poissons Ratio (x) = 0.05158 0.43135
# Poissons Ratio (y) = 0.13121 0.53262
# Poissons Ratio (z) = 0.41167 0.19981
#
# Static dielectric constant tensor:
#      x y z
#    x 3.819180 0.000000 0.000000 
#    y 0.000000 3.565740 0.000000 
#    z 0.000000 0.000000 3.792510 
# 
# 
# High freq. dielectric constant tensor:
#      x y z
#    x 1.800460 0.000000 0.000000 
#    y 0.000000 1.781110 0.000000 
#    z 0.000000 0.000000 1.800490 
# 
# From -- ./inp_files/33331.got.cif
#   From: 2010.03.12/outbox.cif.g09.slc.cpg/sg51_17_cif.got.tgz:33331.got - 2010.04.16 13:43:02.
