data_PCOD8213111
_publ_section_title
;
Structure prediction by ZEFSAII (Michael W. Deem and Ramdas Pophale) SiO2 
 PCOD8213111
Probable space group: P M M A
;
_chemical_formula_sum "Si O2"
_cell_formula_units_Z 36
_cell_length_a 9.486608
_cell_length_b 7.822735
_cell_length_c 24.649954
_cell_angle_alpha 90.000000
_cell_angle_beta 90.000000
_cell_angle_gamma 90.000000
_cell_volume 1829.303170
_symmetry_space_group_name_H-M "P M M A"
_symmetry_group_IT_number 51
_symmetry_cell_setting 'orthorhombic'
loop_
_space_group_symop_operation_xyz
x,y,z
1/2-x,-y,z
1/2+x,-y,-z
-x,y,-z
-x,-y,-z
1/2+x,y,-z
1/2-x,y,z
x,-y,z
loop_
_atom_site_type_symbol
_atom_site_label
_atom_site_fract_x
_atom_site_fract_y
_atom_site_fract_z
Si Si1 0.086446 0.500000 0.054603
Si Si2 0.908684 0.304089 0.667466
Si Si3 0.405190 0.195927 0.764116
Si Si4 0.413492 0.198456 0.135395
Si Si5 0.089659 0.201479 0.450053
O O1 0.250000 0.500000 0.039649
O O2 0.047375 0.674324 0.086497
O O3 0.000000 0.500000 0.000000
O O4 0.750000 0.226210 0.672200
O O5 0.906992 0.500000 0.684453
O O6 0.964477 0.283079 0.606082
O O7 0.015182 0.209464 0.707113
O O8 0.250000 0.285330 0.761590
O O9 0.498883 0.269595 0.813164
O O10 0.382067 0.000000 0.777057
O O11 0.250000 0.216287 0.151253
O O12 0.448281 0.000000 0.119912
O O13 0.250000 0.255111 0.460962
O O14 0.000000 0.276303 0.500000
O O15 0.070409 0.000000 0.445306
#
# Coordination Sequence:
#
# PCOD8213111 Si02
#       5
#     4   8   8   8   8
#     4  10  22  38  58  86 116 150 191 230 275 328
#     4  10  21  35  52  76 106 141 179 218 266 327
#     4  10  21  36  55  81 110 140 178 226 278 327
#     4   9  19  37  59  82 112 151 191 231 276 330
#     4   9  18  33  52  72  96 131 175 220 266 318
#
# _framework density 19.679625000000001
#
# number of rings (size 3 to 8) (size 9 to 14) (size 15 to 20)
#    0.000    2.444    0.000    1.333    1.556    5.333 
#    0.000    2.222    0.000    0.000    0.000    0.000 
#    0.000    0.000    0.000    0.000    0.000    0.000 
#
# Total GULP energy -446316.187524 kJ/mol
# GULP energy per Si atom -12397.671876 kJ/mol
# Density = 1.963483 g / cm^3
# Si number density = 19.679625 Si / 1000 Ang^3
#
#
#
# Elastic Constant Matrix: (Units=GPa)
#
#
# Indices 1 2 3 4 5 6 
#
# 1 112.3217 29.1887 93.8035 0.0000 0.0000 0.0000
# 2 29.1887 57.9174 42.2555 0.0000 0.0000 0.0000
# 3 93.8035 42.2555 154.6566 0.0000 0.0000 0.0000
# 4 0.0000 0.0000 0.0000 23.6362 0.0000 0.0000
# 5 0.0000 0.0000 0.0000 0.0000 42.4919 0.0000
# 6 0.0000 0.0000 0.0000 0.0000 0.0000 14.9674
#
#
#
# Elastic Compliance Matrix: (Units=1/GPa)
#
#
# Indices 1 2 3 4 5 6 
#
# 1 0.018131 -0.001392 -0.010617 0.000000 0.000000 0.000000
# 2 -0.001392 0.021671 -0.005077 0.000000 0.000000 0.000000
# 3 -0.010617 -0.005077 0.014292 0.000000 0.000000 0.000000
# 4 0.000000 0.000000 0.000000 0.042308 0.000000 0.000000
# 5 0.000000 0.000000 0.000000 0.000000 0.023534 0.000000
# 6 0.000000 0.000000 0.000000 0.000000 0.000000 0.066812
#
#
# Mechanical properties :
#
#
# Convention : Reuss Voigt Hill
#
# Bulk Modulus (GPa) = 50.19069 72.82124 61.50597
# Shear Modulus (GPa) = 21.97214 26.86230 24.41722
#
# Velocity S-wave (km/s) = 3.34502 3.69857 3.52623
# Velocity P-wave (km/s) = 6.36224 7.43794 6.92102
#
# Compressibility (1/GPa) = 0.01992401
#
# Stress axis : x y z
#
# Youngs Moduli (GPa) = 55.15406 46.14367 69.96724
#
# Poissons Ratio (x) = 0.06422 0.74282
# Poissons Ratio (y) = 0.07676 0.35522
# Poissons Ratio (z) = 0.58555 0.23427
#
# Static dielectric constant tensor:
#      x y z
#    x 3.970410 0.000000 0.000000 
#    y 0.000000 3.551630 0.000000 
#    z 0.000000 0.000000 3.498100 
# 
# 
# High freq. dielectric constant tensor:
#      x y z
#    x 1.762850 0.000000 0.000000 
#    y 0.000000 1.761940 0.000000 
#    z 0.000000 0.000000 1.763360 
# 
# From -- ./inp_files/34326.got.cif
#   From: 2010.03.12/outbox.cif.g09.slc.cpg/sg51_18_cif.got.tgz:34326.got - 2010.04.16 13:43:02.
