data_PCOD8213399
_publ_section_title
;
Structure prediction by ZEFSAII (Michael W. Deem and Ramdas Pophale) SiO2 
 PCOD8213399
Probable space group: P M M A
;
_chemical_formula_sum "Si O2"
_cell_formula_units_Z 56
_cell_length_a 8.962029
_cell_length_b 19.105367
_cell_length_c 15.844022
_cell_angle_alpha 90.000000
_cell_angle_beta 90.000000
_cell_angle_gamma 90.000000
_cell_volume 2712.858652
_symmetry_space_group_name_H-M "P M M A"
_symmetry_group_IT_number 51
_symmetry_cell_setting 'orthorhombic'
loop_
_space_group_symop_operation_xyz
x,y,z
1/2-x,-y,z
1/2+x,-y,-z
-x,y,-z
-x,-y,-z
1/2+x,y,-z
1/2-x,y,z
x,-y,z
loop_
_atom_site_type_symbol
_atom_site_label
_atom_site_fract_x
_atom_site_fract_y
_atom_site_fract_z
Si Si1 0.573729 0.349010 0.413058
Si Si2 0.080223 0.791569 0.848920
Si Si3 0.073315 0.660209 0.084794
Si Si4 0.423089 0.078489 0.089726
Si Si5 0.582419 0.203964 0.340823
Si Si6 0.424536 0.078123 0.412079
Si Si7 0.921458 0.582087 0.745806
O O1 0.500000 0.375816 0.500000
O O2 0.750000 0.359513 0.418814
O O3 0.530888 0.267216 0.401252
O O4 0.515928 0.393886 0.334510
O O5 0.250000 0.794712 0.882452
O O6 0.074613 0.764740 0.753077
O O7 0.985495 0.739599 0.907086
O O8 0.006600 0.868389 0.848476
O O9 0.250000 0.659554 0.074406
O O10 0.021228 0.616801 0.166979
O O11 0.000000 0.627370 0.000000
O O12 0.250000 0.098474 0.081543
O O13 0.441884 0.000000 0.126321
O O14 0.500000 0.085155 0.000000
O O15 0.750000 0.179773 0.363096
O O16 0.476221 0.136506 0.346045
O O17 0.500000 0.096851 0.500000
O O18 0.250000 0.083426 0.424537
O O19 0.470469 0.000000 0.381266
O O20 0.750000 0.603272 0.729657
O O21 0.941514 0.500000 0.757311
#
# Coordination Sequence:
#
# PCOD8213399 Si02
#       7
#     8   8   8   8   8   8   8
#     4  11  23  41  65  95 128 165 210 255 308 367
#     4  11  22  38  59  85 119 156 202 255 306 363
#     4  11  23  40  65  94 127 166 207 253 306 364
#     4  10  21  37  56  80 112 152 200 252 307 366
#     4  10  22  38  58  85 117 155 201 253 305 362
#     4  10  21  36  55  80 112 152 199 250 304 363
#     4  10  23  44  68  96 129 164 205 252 303 363
#
# _framework density 20.642431999999999
#
# number of rings (size 3 to 8) (size 9 to 14) (size 15 to 20)
#    0.000    1.571    1.429    3.000    0.000    7.143 
#    0.000    2.857    0.000    0.000    0.000    0.000 
#    0.000    0.000    0.000    0.000    0.000    0.000 
#
# Total GULP energy -694524.915641 kJ/mol
# GULP energy per Si atom -12402.230636 kJ/mol
# Density = 2.059545 g / cm^3
# Si number density = 20.642432 Si / 1000 Ang^3
#
#
#
# Elastic Constant Matrix: (Units=GPa)
#
#
# Indices 1 2 3 4 5 6 
#
# 1 102.4822 44.3162 49.8585 0.0000 0.0000 0.0000
# 2 44.3162 89.4622 44.2556 0.0000 0.0000 0.0000
# 3 49.8585 44.2556 123.4103 0.0000 0.0000 0.0000
# 4 0.0000 0.0000 0.0000 26.6492 0.0000 0.0000
# 5 0.0000 0.0000 0.0000 0.0000 36.2685 0.0000
# 6 0.0000 0.0000 0.0000 0.0000 0.0000 29.7764
#
#
#
# Elastic Compliance Matrix: (Units=1/GPa)
#
#
# Indices 1 2 3 4 5 6 
#
# 1 0.013728 -0.004932 -0.003778 0.000000 0.000000 0.000000
# 2 -0.004932 0.015360 -0.003516 0.000000 0.000000 0.000000
# 3 -0.003778 -0.003516 0.010890 0.000000 0.000000 0.000000
# 4 0.000000 0.000000 0.000000 0.037525 0.000000 0.000000
# 5 0.000000 0.000000 0.000000 0.000000 0.027572 0.000000
# 6 0.000000 0.000000 0.000000 0.000000 0.000000 0.033584
#
#
# Mechanical properties :
#
#
# Convention : Reuss Voigt Hill
#
# Bulk Modulus (GPa) = 64.39994 65.80173 65.10083
# Shear Modulus (GPa) = 29.71144 30.33378 30.02261
#
# Velocity S-wave (km/s) = 3.79798 3.83755 3.81781
# Velocity P-wave (km/s) = 7.10622 7.18205 7.14424
#
# Compressibility (1/GPa) = 0.01552797
#
# Stress axis : x y z
#
# Youngs Moduli (GPa) = 72.84213 65.10387 91.82664
#
# Poissons Ratio (x) = 0.32107 0.34690
# Poissons Ratio (y) = 0.35923 0.32284
# Poissons Ratio (z) = 0.27518 0.22889
#
# Static dielectric constant tensor:
#      x y z
#    x 3.809760 0.000000 0.000000 
#    y 0.000000 3.700390 0.000000 
#    z 0.000000 0.000000 3.675200 
# 
# 
# High freq. dielectric constant tensor:
#      x y z
#    x 1.813370 0.000000 0.000000 
#    y 0.000000 1.804820 0.000000 
#    z 0.000000 0.000000 1.808590 
# 
# From -- ./inp_files/21845.got.cif
#   From: 2010.03.12/outbox.cif.g09.slc.cpg/sg51_11_cif.got.tgz:21845.got - 2010.04.16 13:43:02.
