data_PCOD8213082
_publ_section_title
;
Structure prediction by ZEFSAII (Michael W. Deem and Ramdas Pophale) SiO2 
 PCOD8213082
Probable space group: P M M A
;
_chemical_formula_sum "Si O2"
_cell_formula_units_Z 48
_cell_length_a 9.268037
_cell_length_b 9.387715
_cell_length_c 30.388771
_cell_angle_alpha 90.000000
_cell_angle_beta 90.000000
_cell_angle_gamma 90.000000
_cell_volume 2643.995988
_symmetry_space_group_name_H-M "P M M A"
_symmetry_group_IT_number 51
_symmetry_cell_setting 'orthorhombic'
loop_
_space_group_symop_operation_xyz
x,y,z
1/2-x,-y,z
1/2+x,-y,-z
-x,y,-z
-x,-y,-z
1/2+x,y,-z
1/2-x,y,z
x,-y,z
loop_
_atom_site_type_symbol
_atom_site_label
_atom_site_fract_x
_atom_site_fract_y
_atom_site_fract_z
Si Si1 0.917844 0.338847 0.715804
Si Si2 0.417015 0.833623 0.543106
Si Si3 0.413067 0.669575 0.041827
Si Si4 0.413766 0.665426 0.385623
Si Si5 0.417634 0.665500 0.872494
Si Si6 0.419338 0.836217 0.787087
O O1 0.750000 0.321596 0.726462
O O2 0.967753 0.500000 0.726636
O O3 0.949325 0.303547 0.665101
O O4 0.005816 0.227363 0.744346
O O5 0.500000 0.777751 0.500000
O O6 0.250000 0.796937 0.536842
O O7 0.475127 0.754966 0.585909
O O8 0.444298 0.000000 0.550141
O O9 0.250000 0.729080 0.040914
O O10 0.412831 0.500000 0.040004
O O11 0.491623 0.721842 0.086042
O O12 0.500000 0.731144 0.000000
O O13 0.250000 0.712359 0.396384
O O14 0.434444 0.500000 0.396427
O O15 0.250000 0.693107 0.882821
O O16 0.447585 0.500000 0.862957
O O17 0.471782 0.753125 0.830410
O O18 0.250000 0.817293 0.780609
O O19 0.464384 0.000000 0.792189
#
# Coordination Sequence:
#
# PCOD8213082 Si02
#       6
#     8   8   8   8   8   8
#     4   9  19  36  56  77 102 133 170 211 254 302
#     4  10  21  36  54  77 105 138 175 212 251 298
#     4   9  16  26  43  69  98 125 156 198 246 294
#     4   9  19  36  56  78 104 134 169 210 256 304
#     4   9  17  30  48  69  95 129 166 203 246 294
#     4  10  21  35  51  74 104 136 170 209 253 302
#
# _framework density 18.154339
#
# number of rings (size 3 to 8) (size 9 to 14) (size 15 to 20)
#    0.000    2.667    0.000    2.500    0.000    7.000 
#    0.000    6.667    0.000    0.500    0.000    0.000 
#    0.000    0.000    0.000    0.000    0.000    0.000 
#
# Total GULP energy -595301.138946 kJ/mol
# GULP energy per Si atom -12402.107061 kJ/mol
# Density = 1.811302 g / cm^3
# Si number density = 18.154339 Si / 1000 Ang^3
#
#
#
# Elastic Constant Matrix: (Units=GPa)
#
#
# Indices 1 2 3 4 5 6 
#
# 1 96.5407 47.5188 74.1680 0.0000 0.0000 0.0000
# 2 47.5188 69.7464 64.0573 0.0000 0.0000 0.0000
# 3 74.1680 64.0573 135.0703 0.0000 0.0000 0.0000
# 4 0.0000 0.0000 0.0000 3.9902 0.0000 0.0000
# 5 0.0000 0.0000 0.0000 0.0000 40.0346 0.0000
# 6 0.0000 0.0000 0.0000 0.0000 0.0000 25.6756
#
#
#
# Elastic Compliance Matrix: (Units=1/GPa)
#
#
# Indices 1 2 3 4 5 6 
#
# 1 0.019252 -0.006037 -0.007708 0.000000 0.000000 0.000000
# 2 -0.006037 0.027295 -0.009630 0.000000 0.000000 0.000000
# 3 -0.007708 -0.009630 0.016203 0.000000 0.000000 0.000000
# 4 0.000000 0.000000 0.000000 0.250615 0.000000 0.000000
# 5 0.000000 0.000000 0.000000 0.000000 0.024978 0.000000
# 6 0.000000 0.000000 0.000000 0.000000 0.000000 0.038947
#
#
# Mechanical properties :
#
#
# Convention : Reuss Voigt Hill
#
# Bulk Modulus (GPa) = 62.50000 74.76061 68.63030
# Shear Modulus (GPa) = 11.64486 21.64763 16.64624
#
# Velocity S-wave (km/s) = 2.53541 3.45689 3.03137
# Velocity P-wave (km/s) = 6.56299 7.56330 7.08083
#
# Compressibility (1/GPa) = 0.01600000
#
# Stress axis : x y z
#
# Youngs Moduli (GPa) = 51.94367 36.63687 61.71646
#
# Poissons Ratio (x) = 0.22117 0.47572
# Poissons Ratio (y) = 0.31357 0.59432
# Poissons Ratio (z) = 0.40039 0.35281
#
# Static dielectric constant tensor:
#      x y z
#    x 3.344260 0.000000 0.000000 
#    y 0.000000 3.123700 0.000000 
#    z 0.000000 0.000000 3.396050 
# 
# 
# High freq. dielectric constant tensor:
#      x y z
#    x 1.704560 0.000000 0.000000 
#    y 0.000000 1.678660 0.000000 
#    z 0.000000 0.000000 1.714220 
# 
# From -- ./inp_files/36909.got.cif
#   From: 2010.03.12/outbox.cif.g09.slc.cpg/sg51_19_cif.got.tgz:36909.got - 2010.04.16 13:43:02.
