data_PCOD8213109
_publ_section_title
;
Structure prediction by ZEFSAII (Michael W. Deem and Ramdas Pophale) SiO2 
 PCOD8213109
Probable space group: P M M A
;
_chemical_formula_sum "Si O2"
_cell_formula_units_Z 44
_cell_length_a 9.320087
_cell_length_b 7.863626
_cell_length_c 29.982121
_cell_angle_alpha 90.000000
_cell_angle_beta 90.000000
_cell_angle_gamma 90.000000
_cell_volume 2197.380008
_symmetry_space_group_name_H-M "P M M A"
_symmetry_group_IT_number 51
_symmetry_cell_setting 'orthorhombic'
loop_
_space_group_symop_operation_xyz
x,y,z
1/2-x,-y,z
1/2+x,-y,-z
-x,y,-z
-x,-y,-z
1/2+x,y,-z
1/2-x,y,z
x,-y,z
loop_
_atom_site_type_symbol
_atom_site_label
_atom_site_fract_x
_atom_site_fract_y
_atom_site_fract_z
Si Si1 0.916845 0.000000 0.454249
Si Si2 0.908211 0.803967 0.217376
Si Si3 0.083794 0.694852 0.610436
Si Si4 0.089434 0.200055 0.136478
Si Si5 0.586545 0.698709 0.699167
Si Si6 0.589741 0.299068 0.959049
O O1 0.958983 0.172242 0.427985
O O2 0.000000 0.000000 0.500000
O O3 0.750000 0.000000 0.465353
O O4 0.750000 0.718840 0.222914
O O5 0.991864 0.718194 0.175632
O O6 0.999865 0.789925 0.262073
O O7 0.886810 0.000000 0.206374
O O8 0.250000 0.716865 0.624031
O O9 0.053654 0.500000 0.594606
O O10 0.987392 0.743887 0.652533
O O11 0.250000 0.279033 0.139955
O O12 0.020862 0.245511 0.088381
O O13 0.098095 0.000000 0.142897
O O14 0.750000 0.766037 0.698262
O O15 0.581313 0.500000 0.708525
O O16 0.750000 0.223050 0.962059
O O17 0.592009 0.500000 0.963063
O O18 0.500000 0.219687 0.000000
#
# Coordination Sequence:
#
# PCOD8213109 Si02
#       6
#     4   8   8   8   8   8
#     4  10  22  38  58  86 116 150 194 236 283 340
#     4  10  21  35  52  76 106 140 176 215 262 317
#     4   9  19  37  58  81 114 152 189 235 285 333
#     4   9  18  33  50  69  97 131 167 208 256 309
#     4  10  21  36  55  81 110 141 180 224 271 324
#     4   9  18  32  49  69  93 122 158 202 253 308
#
# _framework density 20.023845999999999
#
# number of rings (size 3 to 8) (size 9 to 14) (size 15 to 20)
#    0.000    2.545    0.000    1.091    1.273    5.091 
#    0.000    1.818    0.000    0.000    0.000    0.000 
#    0.000    0.000    0.000    0.000    0.000    0.000 
#
# Total GULP energy -545511.564227 kJ/mol
# GULP energy per Si atom -12397.990096 kJ/mol
# Density = 1.997827 g / cm^3
# Si number density = 20.023846 Si / 1000 Ang^3
#
#
#
# Elastic Constant Matrix: (Units=GPa)
#
#
# Indices 1 2 3 4 5 6 
#
# 1 128.5928 28.3304 94.5795 0.0000 0.0000 0.0000
# 2 28.3304 47.1301 44.2107 0.0000 0.0000 0.0000
# 3 94.5795 44.2107 179.2316 0.0000 0.0000 0.0000
# 4 0.0000 0.0000 0.0000 44.8657 0.0000 0.0000
# 5 0.0000 0.0000 0.0000 0.0000 42.4390 0.0000
# 6 0.0000 0.0000 0.0000 0.0000 0.0000 11.1169
#
#
#
# Elastic Compliance Matrix: (Units=1/GPa)
#
#
# Indices 1 2 3 4 5 6 
#
# 1 0.012822 -0.001770 -0.006329 0.000000 0.000000 0.000000
# 2 -0.001770 0.027850 -0.005936 0.000000 0.000000 0.000000
# 3 -0.006329 -0.005936 0.010383 0.000000 0.000000 0.000000
# 4 0.000000 0.000000 0.000000 0.022289 0.000000 0.000000
# 5 0.000000 0.000000 0.000000 0.000000 0.023563 0.000000
# 6 0.000000 0.000000 0.000000 0.000000 0.000000 0.089953
#
#
# Mechanical properties :
#
#
# Convention : Reuss Voigt Hill
#
# Bulk Modulus (GPa) = 43.50665 76.57731 60.04198
# Shear Modulus (GPa) = 22.46271 32.20658 27.33464
#
# Velocity S-wave (km/s) = 3.35296 4.01485 3.69874
# Velocity P-wave (km/s) = 6.06336 7.73422 6.94919
#
# Compressibility (1/GPa) = 0.02298499
#
# Stress axis : x y z
#
# Youngs Moduli (GPa) = 77.99344 35.90697 96.30720
#
# Poissons Ratio (x) = 0.06355 0.60956
# Poissons Ratio (y) = 0.13804 0.57165
# Poissons Ratio (z) = 0.49364 0.21313
#
# Static dielectric constant tensor:
#      x y z
#    x 4.016050 0.000000 0.000000 
#    y 0.000000 3.490180 0.000000 
#    z 0.000000 0.000000 3.607100 
# 
# 
# High freq. dielectric constant tensor:
#      x y z
#    x 1.780510 0.000000 0.000000 
#    y 0.000000 1.768310 0.000000 
#    z 0.000000 0.000000 1.782220 
# 
# From -- ./inp_files/36745.got.cif
#   From: 2010.03.12/outbox.cif.g09.slc.cpg/sg51_19_cif.got.tgz:36745.got - 2010.04.16 13:43:02.
