data_PCOD8213661
_publ_section_title
;
Structure prediction by ZEFSAII (Michael W. Deem and Ramdas Pophale) SiO2 
 PCOD8213661
Probable space group: P M M A
;
_chemical_formula_sum "Si O2"
_cell_formula_units_Z 48
_cell_length_a 8.661556
_cell_length_b 28.810668
_cell_length_c 10.176066
_cell_angle_alpha 90.000000
_cell_angle_beta 90.000000
_cell_angle_gamma 90.000000
_cell_volume 2539.388570
_symmetry_space_group_name_H-M "P M M A"
_symmetry_group_IT_number 51
_symmetry_cell_setting 'orthorhombic'
loop_
_space_group_symop_operation_xyz
x,y,z
1/2-x,-y,z
1/2+x,-y,-z
-x,y,-z
-x,-y,-z
1/2+x,y,-z
1/2-x,y,z
x,-y,z
loop_
_atom_site_type_symbol
_atom_site_label
_atom_site_fract_x
_atom_site_fract_y
_atom_site_fract_z
Si Si1 0.432605 0.785019 0.359686
Si Si2 0.071731 0.613426 0.862906
Si Si3 0.067527 0.883957 0.640062
Si Si4 0.572182 0.945279 0.862670
Si Si5 0.568325 0.552424 0.636811
Si Si6 0.570706 0.277909 0.138418
O O1 0.500000 0.769612 0.500000
O O2 0.250000 0.788592 0.370951
O O3 0.499397 0.834588 0.315728
O O4 0.478965 0.747049 0.253605
O O5 0.250000 0.600005 0.862472
O O6 0.044874 0.667714 0.840145
O O7 0.986264 0.586286 0.749551
O O8 0.000000 0.597132 0.000000
O O9 0.250000 0.879838 0.628277
O O10 0.000000 0.899569 0.500000
O O11 0.022785 0.922270 0.745893
O O12 0.750000 0.929690 0.857346
O O13 0.553973 0.000000 0.846009
O O14 0.500000 0.928477 0.000000
O O15 0.500000 0.570675 0.500000
O O16 0.750000 0.554440 0.626521
O O17 0.510535 0.500000 0.665847
O O18 0.750000 0.264175 0.142235
O O19 0.500000 0.261675 0.000000
#
# Coordination Sequence:
#
# PCOD8213661 Si02
#       6
#     8   8   8   8   8   8
#     4  11  22  38  59  83 112 146 184 227 275 326
#     4  10  21  37  58  82 111 145 182 226 273 325
#     4  11  22  38  59  83 113 147 185 229 276 327
#     4  10  21  38  59  84 114 147 185 229 276 327
#     4  10  21  37  57  81 110 144 183 227 274 325
#     4  10  21  38  58  83 112 144 183 226 274 325
#
# _framework density 18.902187999999999
#
# number of rings (size 3 to 8) (size 9 to 14) (size 15 to 20)
#    0.000    1.667    0.000    6.000    0.000    6.000 
#    0.000    3.333    0.000    0.000    0.000    0.000 
#    0.000    0.000    0.000    0.000    0.000    0.000 
#
# Total GULP energy -595458.596997 kJ/mol
# GULP energy per Si atom -12405.387437 kJ/mol
# Density = 1.885917 g / cm^3
# Si number density = 18.902188 Si / 1000 Ang^3
#
#
#
# Elastic Constant Matrix: (Units=GPa)
#
#
# Indices 1 2 3 4 5 6 
#
# 1 149.3651 40.1115 61.7363 0.0000 0.0000 0.0000
# 2 40.1115 47.7663 55.8820 0.0000 0.0000 0.0000
# 3 61.7363 55.8820 138.6584 0.0000 0.0000 0.0000
# 4 0.0000 0.0000 0.0000 32.2970 0.0000 0.0000
# 5 0.0000 0.0000 0.0000 0.0000 41.2356 0.0000
# 6 0.0000 0.0000 0.0000 0.0000 0.0000 32.3395
#
#
#
# Elastic Compliance Matrix: (Units=1/GPa)
#
#
# Indices 1 2 3 4 5 6 
#
# 1 0.008874 -0.005354 -0.001793 0.000000 0.000000 0.000000
# 2 -0.005354 0.042842 -0.014882 0.000000 0.000000 0.000000
# 3 -0.001793 -0.014882 0.014008 0.000000 0.000000 0.000000
# 4 0.000000 0.000000 0.000000 0.030963 0.000000 0.000000
# 5 0.000000 0.000000 0.000000 0.000000 0.024251 0.000000
# 6 0.000000 0.000000 0.000000 0.000000 0.000000 0.030922
#
#
# Mechanical properties :
#
#
# Convention : Reuss Voigt Hill
#
# Bulk Modulus (GPa) = 46.15696 72.36104 59.25900
# Shear Modulus (GPa) = 24.61343 33.04507 28.82925
#
# Velocity S-wave (km/s) = 3.61244 4.18570 3.90959
# Velocity P-wave (km/s) = 6.47082 7.85653 7.19710
#
# Compressibility (1/GPa) = 0.02166520
#
# Stress axis : x y z
#
# Youngs Moduli (GPa) = 112.68875 23.34149 71.38592
#
# Poissons Ratio (x) = 0.12497 0.12802
# Poissons Ratio (y) = 0.60332 1.06240
# Poissons Ratio (z) = 0.20209 0.34738
#
# Static dielectric constant tensor:
#      x y z
#    x 3.649640 0.000000 0.000000 
#    y 0.000000 3.404540 0.000000 
#    z 0.000000 0.000000 3.533970 
# 
# 
# High freq. dielectric constant tensor:
#      x y z
#    x 1.757460 0.000000 0.000000 
#    y 0.000000 1.729040 0.000000 
#    z 0.000000 0.000000 1.745800 
# 
# From -- ./inp_files/5956.got.cif
#   From: 2010.03.12/outbox.cif.g09.slc.cpg/sg51_3_cif.got.tgz:5956.got - 2010.04.16 13:43:02.
