data_PCOD8213958
_publ_section_title
;
Structure prediction by ZEFSAII (Michael W. Deem and Ramdas Pophale) SiO2 
 PCOD8213958
Probable space group: P M M A
;
_chemical_formula_sum "Si O2"
_cell_formula_units_Z 48
_cell_length_a 8.768223
_cell_length_b 14.165777
_cell_length_c 20.530230
_cell_angle_alpha 90.000000
_cell_angle_beta 90.000000
_cell_angle_gamma 90.000000
_cell_volume 2550.033009
_symmetry_space_group_name_H-M "P M M A"
_symmetry_group_IT_number 51
_symmetry_cell_setting 'orthorhombic'
loop_
_space_group_symop_operation_xyz
x,y,z
1/2-x,-y,z
1/2+x,-y,-z
-x,y,-z
-x,-y,-z
1/2+x,y,-z
1/2-x,y,z
x,-y,z
loop_
_atom_site_type_symbol
_atom_site_label
_atom_site_fract_x
_atom_site_fract_y
_atom_site_fract_z
Si Si1 0.428545 0.211184 0.310547
Si Si2 0.571490 0.787642 0.933190
Si Si3 0.425860 0.393495 0.882957
Si Si4 0.927158 0.110028 0.187982
Si Si5 0.925963 0.606694 0.269165
Si Si6 0.073167 0.109666 0.569188
O O1 0.250000 0.195477 0.300907
O O2 0.518071 0.159854 0.253198
O O3 0.468119 0.322419 0.309831
O O4 0.480680 0.169873 0.378936
O O5 0.750000 0.797982 0.938198
O O6 0.528726 0.677919 0.923793
O O7 0.514109 0.851312 0.874338
O O8 0.500000 0.826370 0.000000
O O9 0.250000 0.375988 0.900881
O O10 0.474517 0.500000 0.901132
O O11 0.452697 0.374618 0.806962
O O12 0.750000 0.132523 0.178673
O O13 0.960849 0.000000 0.195139
O O14 0.750000 0.624227 0.287122
O O15 0.973585 0.500000 0.287307
O O16 0.250000 0.139122 0.569083
O O17 0.000000 0.133272 0.500000
O O18 0.053937 0.000000 0.586733
#
# Coordination Sequence:
#
# PCOD8213958 Si02
#       6
#     8   8   8   8   8   8
#     4  12  23  35  58  91 123 155 191 235 283 338
#     4  12  25  40  59  82 111 148 187 234 289 348
#     4   9  18  35  59  84 112 146 185 232 285 341
#     4  11  24  42  62  83 110 146 190 240 289 338
#     4   9  18  34  58  85 115 152 191 234 284 337
#     4  10  21  38  60  87 121 160 199 240 286 337
#
# _framework density 18.823284999999998
#
# number of rings (size 3 to 8) (size 9 to 14) (size 15 to 20)
#    0.000    1.500    1.667    5.500    0.000    5.667 
#    0.000    1.667    0.000    0.500    0.000    0.000 
#    0.000    0.000    0.000    0.000    0.000    0.000 
#
# Total GULP energy -595417.085170 kJ/mol
# GULP energy per Si atom -12404.522608 kJ/mol
# Density = 1.878044 g / cm^3
# Si number density = 18.823285 Si / 1000 Ang^3
#
#
#
# Elastic Constant Matrix: (Units=GPa)
#
#
# Indices 1 2 3 4 5 6 
#
# 1 96.3946 49.4282 27.3979 0.0000 0.0000 0.0000
# 2 49.4282 87.8399 43.0665 0.0000 0.0000 0.0000
# 3 27.3979 43.0665 85.6214 0.0000 0.0000 0.0000
# 4 0.0000 0.0000 0.0000 17.4609 0.0000 0.0000
# 5 0.0000 0.0000 0.0000 0.0000 33.6711 0.0000
# 6 0.0000 0.0000 0.0000 0.0000 0.0000 -35.5053
#
#
#
# Elastic Compliance Matrix: (Units=1/GPa)
#
#
# Indices 1 2 3 4 5 6 
#
# 1 0.014614 -0.007872 -0.000717 0.000000 0.000000 0.000000
# 2 -0.007872 0.019351 -0.007214 0.000000 0.000000 0.000000
# 3 -0.000717 -0.007214 0.015537 0.000000 0.000000 0.000000
# 4 0.000000 0.000000 0.000000 0.057271 0.000000 0.000000
# 5 0.000000 0.000000 0.000000 0.000000 0.029699 0.000000
# 6 0.000000 0.000000 0.000000 0.000000 0.000000 -0.028165
#
#
# Mechanical properties :
#
#
# Convention : Reuss Voigt Hill
#
# Bulk Modulus (GPa) = 55.87777 56.62681 56.25229
# Shear Modulus (GPa) = 34.27466 13.12289 23.69878
#
# Velocity S-wave (km/s) = 4.27179 2.64325 3.55211
# Velocity P-wave (km/s) = 7.35397 6.28207 6.83905
#
# Compressibility (1/GPa) = 0.01789620
#
# Stress axis : x y z
#
# Youngs Moduli (GPa) = 68.42571 51.67636 64.36052
#
# Poissons Ratio (x) = 0.40681 0.04614
# Poissons Ratio (y) = 0.53866 0.46432
# Poissons Ratio (z) = 0.04905 0.37281
#
# Static dielectric constant tensor:
#      x y z
#    x 3.631310 0.000000 0.000000 
#    y 0.000000 3.604650 0.000000 
#    z 0.000000 0.000000 3.348480 
# 
# 
# High freq. dielectric constant tensor:
#      x y z
#    x 1.737380 0.000000 0.000000 
#    y 0.000000 1.737290 0.000000 
#    z 0.000000 0.000000 1.720720 
# 
# From -- ./inp_files/27579.got.cif
#   From: 2010.03.12/outbox.cif.g09.slc.cpg/sg51_14_cif.got.tgz:27579.got - 2010.04.16 13:43:02.
