data_PCOD8213852
_publ_section_title
;
Structure prediction by ZEFSAII (Michael W. Deem and Ramdas Pophale) SiO2 
 PCOD8213852
Probable space group: P M M A
;
_chemical_formula_sum "Si O2"
_cell_formula_units_Z 64
_cell_length_a 14.313984
_cell_length_b 23.611126
_cell_length_c 9.397097
_cell_angle_alpha 90.000000
_cell_angle_beta 90.000000
_cell_angle_gamma 90.000000
_cell_volume 3175.930105
_symmetry_space_group_name_H-M "P M M A"
_symmetry_group_IT_number 51
_symmetry_cell_setting 'orthorhombic'
loop_
_space_group_symop_operation_xyz
x,y,z
1/2-x,-y,z
1/2+x,-y,-z
-x,y,-z
-x,-y,-z
1/2+x,y,-z
1/2-x,y,z
x,-y,z
loop_
_atom_site_type_symbol
_atom_site_label
_atom_site_fract_x
_atom_site_fract_y
_atom_site_fract_z
Si Si1 0.860378 0.862383 0.260852
Si Si2 0.014284 0.061861 0.332839
Si Si3 0.644685 0.844619 0.583068
Si Si4 0.359001 0.267908 0.251112
Si Si5 0.856258 0.235386 0.053289
Si Si6 0.642484 0.563474 0.872059
Si Si7 0.855951 0.361639 0.138167
Si Si8 0.021956 0.376335 0.336571
O O1 0.750000 0.874574 0.244419
O O2 0.920432 0.920121 0.245068
O O3 0.888166 0.841567 0.419378
O O4 0.898499 0.815338 0.149141
O O5 0.000000 0.054942 0.500000
O O6 0.090738 0.111340 0.314308
O O7 0.045583 0.000000 0.272695
O O8 0.750000 0.866162 0.591553
O O9 0.633380 0.780900 0.634041
O O10 0.250000 0.287778 0.230450
O O11 0.423142 0.318216 0.307344
O O12 0.402593 0.243954 0.102368
O O13 0.750000 0.218066 0.025457
O O14 0.864150 0.294126 0.135900
O O15 0.750000 0.571999 0.833270
O O16 0.623117 0.500000 0.929385
O O17 0.584977 0.573387 0.727344
O O18 0.611002 0.609667 0.989959
O O19 0.750000 0.380930 0.171212
O O20 0.921118 0.381443 0.264501
O O21 0.000000 0.386233 0.500000
#
# Coordination Sequence:
#
# PCOD8213852 Si02
#       8
#     8   8   8   8   8   8   8   8
#     4   9  18  32  53  80 107 141 185 239 295 345
#     4   9  18  32  51  76 109 146 186 235 284 350
#     4   9  19  33  51  77 109 146 187 235 288 349
#     4  10  21  38  58  82 118 156 196 242 298 362
#     4   9  18  34  56  80 111 146 190 242 291 348
#     4  10  22  45  72  92 119 161 207 254 298 349
#     4  10  22  40  60  89 121 159 208 250 293 351
#     4  12  26  37  59  94 128 164 198 247 305 365
#
# _framework density 20.151578000000001
#
# number of rings (size 3 to 8) (size 9 to 14) (size 15 to 20)
#    0.000    2.250    1.250    0.750    3.500    3.250 
#    0.000    2.500    0.000    3.000    0.000    3.500 
#    0.000    0.000    0.000    0.000    0.000    0.000 
#
# Total GULP energy -793236.046918 kJ/mol
# GULP energy per Si atom -12394.313233 kJ/mol
# Density = 2.010571 g / cm^3
# Si number density = 20.151578 Si / 1000 Ang^3
#
#
#
# Elastic Constant Matrix: (Units=GPa)
#
#
# Indices 1 2 3 4 5 6 
#
# 1 68.1469 30.6696 39.1036 0.0000 0.0000 0.0000
# 2 30.6696 94.8143 21.9708 0.0000 0.0000 0.0000
# 3 39.1036 21.9708 94.5703 0.0000 0.0000 0.0000
# 4 0.0000 0.0000 0.0000 10.6397 0.0000 0.0000
# 5 0.0000 0.0000 0.0000 0.0000 21.4095 0.0000
# 6 0.0000 0.0000 0.0000 0.0000 0.0000 28.1162
#
#
#
# Elastic Compliance Matrix: (Units=1/GPa)
#
#
# Indices 1 2 3 4 5 6 
#
# 1 0.021375 -0.005143 -0.007643 0.000000 0.000000 0.000000
# 2 -0.005143 0.012384 -0.000751 0.000000 0.000000 0.000000
# 3 -0.007643 -0.000751 0.013909 0.000000 0.000000 0.000000
# 4 0.000000 0.000000 0.000000 0.093988 0.000000 0.000000
# 5 0.000000 0.000000 0.000000 0.000000 0.046708 0.000000
# 6 0.000000 0.000000 0.000000 0.000000 0.000000 0.035567
#
#
# Mechanical properties :
#
#
# Convention : Reuss Voigt Hill
#
# Bulk Modulus (GPa) = 48.55725 49.00217 48.77971
# Shear Modulus (GPa) = 19.38967 23.08558 21.23763
#
# Velocity S-wave (km/s) = 3.10529 3.38834 3.24990
# Velocity P-wave (km/s) = 6.08321 6.29900 6.19204
#
# Compressibility (1/GPa) = 0.02059425
#
# Stress axis : x y z
#
# Youngs Moduli (GPa) = 46.78453 80.74636 71.89619
#
# Poissons Ratio (x) = 0.41527 0.54952
# Poissons Ratio (y) = 0.24061 0.05397
# Poissons Ratio (z) = 0.35759 0.06061
#
# Static dielectric constant tensor:
#      x y z
#    x 3.788390 0.000000 0.000000 
#    y 0.000000 3.735850 0.000000 
#    z 0.000000 0.000000 3.584910 
# 
# 
# High freq. dielectric constant tensor:
#      x y z
#    x 1.793670 0.000000 0.000000 
#    y 0.000000 1.779690 0.000000 
#    z 0.000000 0.000000 1.762730 
# 
# From -- ./inp_files/8694.got.cif
#   From: 2010.03.12/outbox.cif.g09.slc.cpg/sg51_5_cif.got.tgz:8694.got - 2010.04.16 13:43:02.
