data_PCOD8213511
_publ_section_title
;
Structure prediction by ZEFSAII (Michael W. Deem and Ramdas Pophale) SiO2 
 PCOD8213511
Probable space group: P M M A
;
_chemical_formula_sum "Si O2"
_cell_formula_units_Z 44
_cell_length_a 8.970372
_cell_length_b 7.451031
_cell_length_c 33.818688
_cell_angle_alpha 90.000000
_cell_angle_beta 90.000000
_cell_angle_gamma 90.000000
_cell_volume 2260.391049
_symmetry_space_group_name_H-M "P M M A"
_symmetry_group_IT_number 51
_symmetry_cell_setting 'orthorhombic'
loop_
_space_group_symop_operation_xyz
x,y,z
1/2-x,-y,z
1/2+x,-y,-z
-x,y,-z
-x,-y,-z
1/2+x,y,-z
1/2-x,y,z
x,-y,z
loop_
_atom_site_type_symbol
_atom_site_label
_atom_site_fract_x
_atom_site_fract_y
_atom_site_fract_z
Si Si1 0.575609 0.500000 0.457974
Si Si2 0.575230 0.500000 0.101833
Si Si3 0.582718 0.787319 0.682273
Si Si4 0.075506 0.794626 0.603549
Si Si5 0.573139 0.500000 0.814730
Si Si6 0.575952 0.202651 0.039787
Si Si7 0.575148 0.790209 0.238410
O O1 0.750000 0.500000 0.465245
O O2 0.500000 0.500000 0.500000
O O3 0.526144 0.322804 0.433997
O O4 0.750000 0.500000 0.113569
O O5 0.471433 0.500000 0.139761
O O6 0.531579 0.324337 0.076865
O O7 0.750000 0.709996 0.685755
O O8 0.508647 0.717125 0.641933
O O9 0.486762 0.720939 0.719521
O O10 0.583555 0.000000 0.681392
O O11 0.250000 0.775044 0.612284
O O12 0.031326 0.000000 0.594385
O O13 0.750000 0.500000 0.809894
O O14 0.506397 0.679963 0.795655
O O15 0.750000 0.213680 0.031861
O O16 0.523390 0.000000 0.049297
O O17 0.500000 0.275846 0.000000
O O18 0.750000 0.750548 0.237016
O O19 0.540445 0.000000 0.231658
#
# Coordination Sequence:
#
# PCOD8213511 Si02
#       7
#     4   4   8   8   4   8   8
#     4  10  22  37  52  73 100 132 172 214 256 310
#     4  10  21  37  54  75 108 147 187 228 271 328
#     4   9  17  31  54  84 113 139 173 221 274 322
#     4   9  18  34  54  75 102 136 172 211 259 316
#     4  12  26  40  56  82 115 151 194 240 284 332
#     4   9  18  33  55  82 109 138 175 222 276 331
#     4  10  21  39  62  84 111 150 191 231 277 333
#
# _framework density 19.465658999999999
#
# number of rings (size 3 to 8) (size 9 to 14) (size 15 to 20)
#    0.000    2.364    0.000    2.182    0.000    6.545 
#    0.000    4.545    0.000    0.000    0.000    0.000 
#    0.000    0.000    0.000    0.000    0.000    0.000 
#
# Total GULP energy -545669.457360 kJ/mol
# GULP energy per Si atom -12401.578576 kJ/mol
# Density = 1.942135 g / cm^3
# Si number density = 19.465659 Si / 1000 Ang^3
#
#
#
# Elastic Constant Matrix: (Units=GPa)
#
#
# Indices 1 2 3 4 5 6 
#
# 1 103.6242 47.1663 75.3006 0.0000 0.0000 0.0000
# 2 47.1663 98.8515 69.9047 0.0000 0.0000 0.0000
# 3 75.3006 69.9047 172.7648 0.0000 0.0000 0.0000
# 4 0.0000 0.0000 0.0000 125.8140 0.0000 0.0000
# 5 0.0000 0.0000 0.0000 0.0000 41.1989 0.0000
# 6 0.0000 0.0000 0.0000 0.0000 0.0000 18.8917
#
#
#
# Elastic Compliance Matrix: (Units=1/GPa)
#
#
# Indices 1 2 3 4 5 6 
#
# 1 0.014958 -0.003540 -0.005087 0.000000 0.000000 0.000000
# 2 -0.003540 0.015009 -0.004530 0.000000 0.000000 0.000000
# 3 -0.005087 -0.004530 0.009839 0.000000 0.000000 0.000000
# 4 0.000000 0.000000 0.000000 0.007948 0.000000 0.000000
# 5 0.000000 0.000000 0.000000 0.000000 0.024273 0.000000
# 6 0.000000 0.000000 0.000000 0.000000 0.000000 0.052933
#
#
# Mechanical properties :
#
#
# Convention : Reuss Voigt Hill
#
# Bulk Modulus (GPa) = 74.12213 84.44263 79.28238
# Shear Modulus (GPa) = 32.09845 49.37218 40.73532
#
# Velocity S-wave (km/s) = 4.06517 5.04171 4.57954
# Velocity P-wave (km/s) = 7.75856 8.79581 8.29341
#
# Compressibility (1/GPa) = 0.01349125
#
# Stress axis : x y z
#
# Youngs Moduli (GPa) = 66.85288 66.62855 101.64045
#
# Poissons Ratio (x) = 0.23583 0.51709
# Poissons Ratio (y) = 0.23663 0.46044
# Poissons Ratio (z) = 0.34011 0.30183
#
# Static dielectric constant tensor:
#      x y z
#    x 3.576530 0.000000 0.000000 
#    y 0.000000 3.714370 0.000000 
#    z 0.000000 0.000000 3.534590 
# 
# 
# High freq. dielectric constant tensor:
#      x y z
#    x 1.756050 0.000000 0.000000 
#    y 0.000000 1.762980 0.000000 
#    z 0.000000 0.000000 1.755030 
# 
# From -- ./inp_files/36863.got.cif
#   From: 2010.03.12/outbox.cif.g09.slc.cpg/sg51_19_cif.got.tgz:36863.got - 2010.04.16 13:43:02.
