data_PCOD8213773
_publ_section_title
;
Structure prediction by ZEFSAII (Michael W. Deem and Ramdas Pophale) SiO2 
 PCOD8213773
Probable space group: P M M A
;
_chemical_formula_sum "Si O2"
_cell_formula_units_Z 64
_cell_length_a 8.620140
_cell_length_b 23.681265
_cell_length_c 15.446794
_cell_angle_alpha 90.000000
_cell_angle_beta 90.000000
_cell_angle_gamma 90.000000
_cell_volume 3153.243955
_symmetry_space_group_name_H-M "P M M A"
_symmetry_group_IT_number 51
_symmetry_cell_setting 'orthorhombic'
loop_
_space_group_symop_operation_xyz
x,y,z
1/2-x,-y,z
1/2+x,-y,-z
-x,y,-z
-x,-y,-z
1/2+x,y,-z
1/2-x,y,z
x,-y,z
loop_
_atom_site_type_symbol
_atom_site_label
_atom_site_fract_x
_atom_site_fract_y
_atom_site_fract_z
Si Si1 0.572344 0.748500 0.846911
Si Si2 0.070411 0.374994 0.090746
Si Si3 0.433063 0.136220 0.591449
Si Si4 0.929438 0.565915 0.255156
Si Si5 0.568023 0.861875 0.090762
Si Si6 0.565003 0.063612 0.248607
Si Si7 0.432721 0.631989 0.411490
Si Si8 0.066986 0.256850 0.659905
O O1 0.750000 0.768340 0.846547
O O2 0.549382 0.692162 0.902402
O O3 0.470910 0.796926 0.890819
O O4 0.519336 0.735605 0.750167
O O5 0.250000 0.392528 0.097151
O O6 0.975776 0.405608 0.165591
O O7 0.000000 0.395570 0.000000
O O8 0.500000 0.116630 0.500000
O O9 0.250000 0.133330 0.586653
O O10 0.497013 0.093579 0.664468
O O11 0.488659 0.199290 0.614470
O O12 0.750000 0.579191 0.274402
O O13 0.962969 0.500000 0.248031
O O14 0.031963 0.590289 0.332752
O O15 0.750000 0.868256 0.086018
O O16 0.499932 0.901788 0.166356
O O17 0.500000 0.882641 0.000000
O O18 0.750000 0.064208 0.247687
O O19 0.499931 0.000000 0.245126
O O20 0.500000 0.604938 0.500000
O O21 0.250000 0.641549 0.417965
O O22 0.518226 0.691849 0.400969
O O23 0.250000 0.256494 0.677025
#
# Coordination Sequence:
#
# PCOD8213773 Si02
#       8
#     8   8   8   8   8   8   8   8
#     4  11  22  37  61  93 125 160 199 246 303 365
#     4  11  24  41  64  94 126 163 205 250 306 366
#     4  10  21  37  58  88 118 156 198 241 299 356
#     4  11  25  45  68  93 123 163 210 260 311 362
#     4  11  22  38  60  88 119 157 200 248 305 364
#     4   9  19  38  60  81 113 158 204 249 303 364
#     4  12  25  42  65  95 128 166 207 252 307 367
#     4  11  21  37  62  91 125 162 200 247 304 368
#
# _framework density 20.296557
#
# number of rings (size 3 to 8) (size 9 to 14) (size 15 to 20)
#    0.000    1.250    2.500    3.750    0.000    6.500 
#    0.000    0.000    0.000    2.625    0.000    0.000 
#    0.000    0.000    0.000    0.000    0.000    0.000 
#
# Total GULP energy -793957.292787 kJ/mol
# GULP energy per Si atom -12405.582700 kJ/mol
# Density = 2.025036 g / cm^3
# Si number density = 20.296557 Si / 1000 Ang^3
#
#
#
# Elastic Constant Matrix: (Units=GPa)
#
#
# Indices 1 2 3 4 5 6 
#
# 1 45.1292 30.9451 24.2577 0.0000 0.0000 0.0000
# 2 30.9451 100.2736 36.8644 0.0000 0.0000 0.0000
# 3 24.2577 36.8644 151.0786 0.0000 0.0000 0.0000
# 4 0.0000 0.0000 0.0000 -0.7543 0.0000 0.0000
# 5 0.0000 0.0000 0.0000 0.0000 38.3780 0.0000
# 6 0.0000 0.0000 0.0000 0.0000 0.0000 11.4818
#
#
#
# Elastic Compliance Matrix: (Units=1/GPa)
#
#
# Indices 1 2 3 4 5 6 
#
# 1 0.029093 -0.007976 -0.002725 0.000000 0.000000 0.000000
# 2 -0.007976 0.013142 -0.001926 0.000000 0.000000 0.000000
# 3 -0.002725 -0.001926 0.007527 0.000000 0.000000 0.000000
# 4 0.000000 0.000000 0.000000 -1.325684 0.000000 0.000000
# 5 0.000000 0.000000 0.000000 0.000000 0.026057 0.000000
# 6 0.000000 0.000000 0.000000 0.000000 0.000000 0.087095
#
#
# Mechanical properties :
#
#
# Convention : Reuss Voigt Hill
#
# Bulk Modulus (GPa) = 40.80502 53.40175 47.10338
# Shear Modulus (GPa) = -4.42734 23.44871 9.51069
#
# Velocity S-wave (km/s) = -1.47853 3.40266 2.16703
# Velocity P-wave (km/s) = 4.15130 6.46571 5.43317
#
# Compressibility (1/GPa) = 0.02450679
#
# Stress axis : x y z
#
# Youngs Moduli (GPa) = 34.37281 76.08953 132.86241
#
# Poissons Ratio (x) = 0.60692 0.36204
# Poissons Ratio (y) = 0.27417 0.25591
# Poissons Ratio (z) = 0.09366 0.14656
#
# Static dielectric constant tensor:
#      x y z
#    x 3.605760 0.000000 0.000000 
#    y 0.000000 3.750570 0.000000 
#    z 0.000000 0.000000 3.930780 
# 
# 
# High freq. dielectric constant tensor:
#      x y z
#    x 1.787620 0.000000 0.000000 
#    y 0.000000 1.789520 0.000000 
#    z 0.000000 0.000000 1.809860 
# 
# From -- ./inp_files/22240.got.cif
#   From: 2010.03.12/outbox.cif.g09.slc.cpg/sg51_12_cif.got.tgz:22240.got - 2010.04.16 13:43:02.
