data_PCOD8213001
_publ_section_title
;
Structure prediction by ZEFSAII (Michael W. Deem and Ramdas Pophale) SiO2 
 PCOD8213001
Probable space group: P M M A
;
_chemical_formula_sum "Si O2"
_cell_formula_units_Z 48
_cell_length_a 18.674839
_cell_length_b 15.329531
_cell_length_c 9.811982
_cell_angle_alpha 90.000000
_cell_angle_beta 90.000000
_cell_angle_gamma 90.000000
_cell_volume 2808.940094
_symmetry_space_group_name_H-M "P M M A"
_symmetry_group_IT_number 51
_symmetry_cell_setting 'orthorhombic'
loop_
_space_group_symop_operation_xyz
x,y,z
1/2-x,-y,z
1/2+x,-y,-z
-x,y,-z
-x,-y,-z
1/2+x,y,-z
1/2-x,y,z
x,-y,z
loop_
_atom_site_type_symbol
_atom_site_label
_atom_site_fract_x
_atom_site_fract_y
_atom_site_fract_z
Si Si1 0.417168 0.595804 0.495757
Si Si2 0.417233 0.898302 0.988238
Si Si3 0.169019 0.592847 0.767760
Si Si4 0.167283 0.241300 0.472852
Si Si5 0.668566 0.219467 0.209112
Si Si6 0.833299 0.900414 0.743374
O O1 0.500000 0.621163 0.500000
O O2 0.406594 0.500000 0.425323
O O3 0.387894 0.590306 0.648093
O O4 0.375520 0.673497 0.418312
O O5 0.385006 0.846900 0.860986
O O6 0.405558 0.000000 0.958859
O O7 0.500000 0.873859 0.000000
O O8 0.377631 0.869218 0.125725
O O9 0.250000 0.599589 0.706296
O O10 0.161631 0.500000 0.850673
O O11 0.156559 0.682046 0.853389
O O12 0.250000 0.261810 0.449777
O O13 0.150410 0.220891 0.630321
O O14 0.143200 0.157976 0.384725
O O15 0.750000 0.188062 0.184374
O O16 0.750000 0.889337 0.779036
O O17 0.851736 0.000000 0.704936
#
# Coordination Sequence:
#
# PCOD8213001 Si02
#       6
#     8   8   8   8   8   8
#     4   9  16  25  40  65  96 128 158 187 224 272
#     4  10  21  35  49  67  93 126 161 193 230 280
#     4   8  14  26  44  66  92 119 149 190 236 277
#     4   9  18  31  49  74  98 121 154 195 237 278
#     4   9  17  30  51  75  92 114 155 199 231 265
#     4   9  18  33  50  67  92 126 157 188 236 291
#
# _framework density 17.088296
#
# number of rings (size 3 to 8) (size 9 to 14) (size 15 to 20)
#    0.000    3.000    0.000    2.000    0.000    5.333 
#    0.000    1.667    0.000    5.000    0.000    2.333 
#    0.000    0.000    0.000    0.000    0.000    0.000 
#
# Total GULP energy -594731.217158 kJ/mol
# GULP energy per Si atom -12390.233691 kJ/mol
# Density = 1.704940 g / cm^3
# Si number density = 17.088296 Si / 1000 Ang^3
#
#
#
# Elastic Constant Matrix: (Units=GPa)
#
#
# Indices 1 2 3 4 5 6 
#
# 1 91.0583 59.3046 39.8226 0.0000 0.0000 0.0000
# 2 59.3046 114.7307 53.1478 0.0000 0.0000 0.0000
# 3 39.8226 53.1478 57.8894 0.0000 0.0000 0.0000
# 4 0.0000 0.0000 0.0000 11.0496 0.0000 0.0000
# 5 0.0000 0.0000 0.0000 0.0000 14.2682 0.0000
# 6 0.0000 0.0000 0.0000 0.0000 0.0000 28.2448
#
#
#
# Elastic Compliance Matrix: (Units=1/GPa)
#
#
# Indices 1 2 3 4 5 6 
#
# 1 0.017915 -0.006180 -0.006651 0.000000 0.000000 0.000000
# 2 -0.006180 0.017298 -0.011630 0.000000 0.000000 0.000000
# 3 -0.006651 -0.011630 0.032527 0.000000 0.000000 0.000000
# 4 0.000000 0.000000 0.000000 0.090501 0.000000 0.000000
# 5 0.000000 0.000000 0.000000 0.000000 0.070086 0.000000
# 6 0.000000 0.000000 0.000000 0.000000 0.000000 0.035405
#
#
# Mechanical properties :
#
#
# Convention : Reuss Voigt Hill
#
# Bulk Modulus (GPa) = 53.13671 63.13647 58.13659
# Shear Modulus (GPa) = 15.67771 18.13942 16.90857
#
# Velocity S-wave (km/s) = 3.03224 3.26162 3.14902
# Velocity P-wave (km/s) = 6.58955 7.15623 6.87873
#
# Compressibility (1/GPa) = 0.01881938
#
# Stress axis : x y z
#
# Youngs Moduli (GPa) = 55.81884 57.81106 30.74411
#
# Poissons Ratio (x) = 0.35725 0.20446
# Poissons Ratio (y) = 0.34494 0.35755
# Poissons Ratio (z) = 0.37122 0.67234
#
# Static dielectric constant tensor:
#      x y z
#    x 3.204760 0.000000 0.000000 
#    y 0.000000 3.690240 0.000000 
#    z 0.000000 0.000000 2.782550 
# 
# 
# High freq. dielectric constant tensor:
#      x y z
#    x 1.661380 0.000000 0.000000 
#    y 0.000000 1.680340 0.000000 
#    z 0.000000 0.000000 1.606860 
# 
# From -- ./inp_files/9834.got.cif
#   From: 2010.03.12/outbox.cif.g09.slc.cpg/sg51_5_cif.got.tgz:9834.got - 2010.04.16 13:43:02.
