data_PCOD8213118
_publ_section_title
;
Structure prediction by ZEFSAII (Michael W. Deem and Ramdas Pophale) SiO2 
 PCOD8213118
Probable space group: P M M A
;
_chemical_formula_sum "Si O2"
_cell_formula_units_Z 48
_cell_length_a 9.383038
_cell_length_b 9.195247
_cell_length_c 28.927824
_cell_angle_alpha 90.000000
_cell_angle_beta 90.000000
_cell_angle_gamma 90.000000
_cell_volume 2495.873910
_symmetry_space_group_name_H-M "P M M A"
_symmetry_group_IT_number 51
_symmetry_cell_setting 'orthorhombic'
loop_
_space_group_symop_operation_xyz
x,y,z
1/2-x,-y,z
1/2+x,-y,-z
-x,y,-z
-x,-y,-z
1/2+x,y,-z
1/2-x,y,z
x,-y,z
loop_
_atom_site_type_symbol
_atom_site_label
_atom_site_fract_x
_atom_site_fract_y
_atom_site_fract_z
Si Si1 0.086077 0.828066 0.278713
Si Si2 0.544475 0.334495 0.099765
Si Si3 0.250000 0.338780 0.057409
Si Si4 0.410028 0.331321 0.796388
Si Si5 0.912366 0.826890 0.367472
Si Si6 0.250000 0.828137 0.964470
Si Si7 0.087221 0.173267 0.455683
O O1 0.250000 0.780185 0.285638
O O2 0.024033 0.759210 0.232359
O O3 0.992777 0.770364 0.321766
O O4 0.073884 0.000000 0.274238
O O5 0.599093 0.500000 0.093311
O O6 0.377877 0.320106 0.092838
O O7 0.583896 0.278053 0.150644
O O8 0.611807 0.232757 0.060955
O O9 0.250000 0.500000 0.034263
O O10 0.250000 0.219622 0.017586
O O11 0.250000 0.303838 0.777486
O O12 0.452202 0.500000 0.793161
O O13 0.750000 0.766362 0.368812
O O14 0.002531 0.767725 0.410995
O O15 0.909289 0.000000 0.368508
O O16 0.250000 0.000000 0.962691
O O17 0.250000 0.233244 0.456163
O O18 0.000000 0.230769 0.500000
O O19 0.091550 0.000000 0.455473
#
# Coordination Sequence:
#
# PCOD8213118 Si02
#       7
#     8   8   4   8   8   4   8
#     4  10  21  35  52  77 108 141 175 214 267 330
#     4  10  21  40  62  83 108 142 184 224 264 316
#     4  10  22  38  62  86 108 144 186 224 265 316
#     4  10  21  38  60  82 105 135 177 226 268 311
#     4   9  16  27  43  63  92 133 176 217 264 322
#     4  12  24  38  58  86 118 150 178 216 267 318
#     4   9  15  22  34  55  86 126 174 225 272 319
#
# _framework density 19.231741
#
# number of rings (size 3 to 8) (size 9 to 14) (size 15 to 20)
#    0.000    2.167    0.833    2.750    1.167    8.667 
#    0.000    0.000    0.000    0.000    0.000    0.000 
#    0.000    0.667    0.000    2.500    0.000    5.500 
#
# Total GULP energy -595195.471891 kJ/mol
# GULP energy per Si atom -12399.905664 kJ/mol
# Density = 1.918797 g / cm^3
# Si number density = 19.231741 Si / 1000 Ang^3
#
#
#
# Elastic Constant Matrix: (Units=GPa)
#
#
# Indices 1 2 3 4 5 6 
#
# 1 168.1983 27.9010 59.9527 0.0000 0.0000 0.0000
# 2 27.9010 41.7610 25.7800 0.0000 0.0000 0.0000
# 3 59.9527 25.7800 113.5312 0.0000 0.0000 0.0000
# 4 0.0000 0.0000 0.0000 1.0579 0.0000 0.0000
# 5 0.0000 0.0000 0.0000 0.0000 32.6211 0.0000
# 6 0.0000 0.0000 0.0000 0.0000 0.0000 18.9657
#
#
#
# Elastic Compliance Matrix: (Units=1/GPa)
#
#
# Indices 1 2 3 4 5 6 
#
# 1 0.007642 -0.003041 -0.003345 0.000000 0.000000 0.000000
# 2 -0.003041 0.029060 -0.004993 0.000000 0.000000 0.000000
# 3 -0.003345 -0.004993 0.011708 0.000000 0.000000 0.000000
# 4 0.000000 0.000000 0.000000 0.945267 0.000000 0.000000
# 5 0.000000 0.000000 0.000000 0.000000 0.030655 0.000000
# 6 0.000000 0.000000 0.000000 0.000000 0.000000 0.052727
#
#
# Mechanical properties :
#
#
# Convention : Reuss Voigt Hill
#
# Bulk Modulus (GPa) = 38.98258 61.19531 50.08894
# Shear Modulus (GPa) = 4.51114 24.51940 14.51527
#
# Velocity S-wave (km/s) = 1.53322 3.57451 2.75026
# Velocity P-wave (km/s) = 4.84234 6.99465 6.01554
#
# Compressibility (1/GPa) = 0.02565248
#
# Stress axis : x y z
#
# Youngs Moduli (GPa) = 130.85405 34.41200 85.40895
#
# Poissons Ratio (x) = 0.10464 0.28570
# Poissons Ratio (y) = 0.39790 0.42644
# Poissons Ratio (z) = 0.43772 0.17182
#
# Static dielectric constant tensor:
#      x y z
#    x 3.771430 0.000000 0.000000 
#    y 0.000000 3.002930 0.000000 
#    z 0.000000 0.000000 3.566350 
# 
# 
# High freq. dielectric constant tensor:
#      x y z
#    x 1.770360 0.000000 0.000000 
#    y 0.000000 1.691430 0.000000 
#    z 0.000000 0.000000 1.756670 
# 
# From -- ./inp_files/37146.got.cif
#   From: 2010.03.12/outbox.cif.g09.slc.cpg/sg51_19_cif.got.tgz:37146.got - 2010.04.16 13:43:02.
