data_PCOD8213190
_publ_section_title
;
Structure prediction by ZEFSAII (Michael W. Deem and Ramdas Pophale) SiO2 
 PCOD8213190
Probable space group: P M M A
;
_chemical_formula_sum "Si O2"
_cell_formula_units_Z 48
_cell_length_a 8.712761
_cell_length_b 31.294346
_cell_length_c 9.137288
_cell_angle_alpha 90.000000
_cell_angle_beta 90.000000
_cell_angle_gamma 90.000000
_cell_volume 2491.374384
_symmetry_space_group_name_H-M "P M M A"
_symmetry_group_IT_number 51
_symmetry_cell_setting 'orthorhombic'
loop_
_space_group_symop_operation_xyz
x,y,z
1/2-x,-y,z
1/2+x,-y,-z
-x,y,-z
-x,-y,-z
1/2+x,y,-z
1/2-x,y,z
x,-y,z
loop_
_atom_site_type_symbol
_atom_site_label
_atom_site_fract_x
_atom_site_fract_y
_atom_site_fract_z
Si Si1 0.067960 0.664585 0.840384
Si Si2 0.569253 0.418355 0.339951
Si Si3 0.932222 0.000000 0.158393
Si Si4 0.929090 0.920611 0.341513
Si Si5 0.429882 0.172695 0.659126
Si Si6 0.931775 0.741958 0.662589
Si Si7 0.932031 0.500000 0.160645
O O1 0.250000 0.669581 0.849816
O O2 0.017711 0.624540 0.741964
O O3 0.995444 0.706303 0.769538
O O4 0.000000 0.657299 0.000000
O O5 0.500000 0.419081 0.500000
O O6 0.750000 0.420876 0.356110
O O7 0.507393 0.458520 0.247301
O O8 0.996236 0.957630 0.238492
O O9 0.750000 0.000000 0.150751
O O10 0.000000 0.000000 0.000000
O O11 0.750000 0.927091 0.363513
O O12 0.961395 0.873787 0.267331
O O13 0.000000 0.925305 0.500000
O O14 0.500000 0.168755 0.500000
O O15 0.250000 0.183286 0.651107
O O16 0.516519 0.212582 0.735172
O O17 0.750000 0.738935 0.653457
O O18 0.000000 0.736376 0.500000
O O19 0.750000 0.500000 0.147509
O O20 0.000000 0.500000 0.000000
#
# Coordination Sequence:
#
# PCOD8213190 Si02
#       7
#     8   8   4   8   8   8   4
#     4  11  23  39  57  81 111 146 185 228 275 327
#     4  10  22  38  59  85 114 146 186 229 272 321
#     4  10  21  36  50  72 104 138 173 212 258 312
#     4   9  18  32  53  78 104 133 172 218 263 311
#     4   9  16  29  50  77 106 136 171 218 267 315
#     4  11  21  35  56  82 110 143 180 223 270 322
#     4  10  21  38  58  86 118 150 185 224 270 324
#
# _framework density 19.266473999999999
#
# number of rings (size 3 to 8) (size 9 to 14) (size 15 to 20)
#    0.000    2.000    0.000    5.000    0.000    4.667 
#    0.000    0.833    0.000    2.000    0.000    0.000 
#    0.000    0.000    0.000    0.000    0.000    0.000 
#
# Total GULP energy -595045.401957 kJ/mol
# GULP energy per Si atom -12396.779207 kJ/mol
# Density = 1.922262 g / cm^3
# Si number density = 19.266474 Si / 1000 Ang^3
#
#
#
# Elastic Constant Matrix: (Units=GPa)
#
#
# Indices 1 2 3 4 5 6 
#
# 1 73.8016 53.4179 41.2397 0.0000 0.0000 0.0000
# 2 53.4179 196.9897 87.9542 0.0000 0.0000 0.0000
# 3 41.2397 87.9542 134.3531 0.0000 0.0000 0.0000
# 4 0.0000 0.0000 0.0000 10.4974 0.0000 0.0000
# 5 0.0000 0.0000 0.0000 0.0000 33.2069 0.0000
# 6 0.0000 0.0000 0.0000 0.0000 0.0000 14.9931
#
#
#
# Elastic Compliance Matrix: (Units=1/GPa)
#
#
# Indices 1 2 3 4 5 6 
#
# 1 0.017814 -0.003376 -0.003258 0.000000 0.000000 0.000000
# 2 -0.003376 0.007813 -0.004078 0.000000 0.000000 0.000000
# 3 -0.003258 -0.004078 0.011113 0.000000 0.000000 0.000000
# 4 0.000000 0.000000 0.000000 0.095262 0.000000 0.000000
# 5 0.000000 0.000000 0.000000 0.000000 0.030114 0.000000
# 6 0.000000 0.000000 0.000000 0.000000 0.000000 0.066697
#
#
# Mechanical properties :
#
#
# Convention : Reuss Voigt Hill
#
# Bulk Modulus (GPa) = 65.29477 85.59645 75.44561
# Shear Modulus (GPa) = 19.58156 26.57500 23.07828
#
# Velocity S-wave (km/s) = 3.19149 3.71797 3.46475
# Velocity P-wave (km/s) = 6.89527 7.93443 7.43303
#
# Compressibility (1/GPa) = 0.01531516
#
# Stress axis : x y z
#
# Youngs Moduli (GPa) = 56.13597 127.99412 89.98455
#
# Poissons Ratio (x) = 0.43211 0.29316
# Poissons Ratio (y) = 0.18951 0.36699
# Poissons Ratio (z) = 0.18288 0.52201
#
# Static dielectric constant tensor:
#      x y z
#    x 3.518480 0.000000 0.000000 
#    y 0.000000 4.455940 0.000000 
#    z 0.000000 0.000000 3.263990 
# 
# 
# High freq. dielectric constant tensor:
#      x y z
#    x 1.751550 0.000000 0.000000 
#    y 0.000000 1.779670 0.000000 
#    z 0.000000 0.000000 1.726020 
# 
# From -- ./inp_files/6141.got.cif
#   From: 2010.03.12/outbox.cif.g09.slc.cpg/sg51_4_cif.got.tgz:6141.got - 2010.04.16 13:43:02.
