data_PCOD8213423
_publ_section_title
;
Structure prediction by ZEFSAII (Michael W. Deem and Ramdas Pophale) SiO2 
 PCOD8213423
Probable space group: P M M A
;
_chemical_formula_sum "Si O2"
_cell_formula_units_Z 64
_cell_length_a 9.327437
_cell_length_b 13.969160
_cell_length_c 25.913845
_cell_angle_alpha 90.000000
_cell_angle_beta 90.000000
_cell_angle_gamma 90.000000
_cell_volume 3376.482264
_symmetry_space_group_name_H-M "P M M A"
_symmetry_group_IT_number 51
_symmetry_cell_setting 'orthorhombic'
loop_
_space_group_symop_operation_xyz
x,y,z
1/2-x,-y,z
1/2+x,-y,-z
-x,y,-z
-x,-y,-z
1/2+x,y,-z
1/2-x,y,z
x,-y,z
loop_
_atom_site_type_symbol
_atom_site_label
_atom_site_fract_x
_atom_site_fract_y
_atom_site_fract_z
Si Si1 0.415916 0.205683 0.950341
Si Si2 0.092667 0.613740 0.197219
Si Si3 0.917596 0.610101 0.687676
Si Si4 0.413609 0.113287 0.844240
Si Si5 0.916260 0.109342 0.450465
Si Si6 0.419657 0.782892 0.653597
Si Si7 0.415826 0.394123 0.898519
Si Si8 0.084765 0.886221 0.255273
O O1 0.250000 0.182873 0.959520
O O2 0.471052 0.153552 0.898748
O O3 0.444884 0.320038 0.944751
O O4 0.500000 0.166832 0.000000
O O5 0.250000 0.651166 0.181622
O O6 0.092831 0.500000 0.200393
O O7 0.051811 0.650084 0.254351
O O8 0.983285 0.649471 0.153765
O O9 0.750000 0.621500 0.674157
O O10 0.965164 0.500000 0.680906
O O11 0.016465 0.675360 0.651237
O O12 0.250000 0.147723 0.834483
O O13 0.514698 0.152132 0.798176
O O14 0.421881 0.000000 0.847178
O O15 0.750000 0.117714 0.463353
O O16 0.958230 0.171329 0.401112
O O17 0.000000 0.149877 0.500000
O O18 0.961106 0.000000 0.438983
O O19 0.250000 0.781529 0.664160
O O20 0.497268 0.844962 0.697009
O O21 0.250000 0.401922 0.886158
O O22 0.477969 0.500000 0.912776
O O23 0.250000 0.852060 0.257470
O O24 0.072863 0.000000 0.257918
#
# Coordination Sequence:
#
# PCOD8213423 Si02
#       8
#     8   8   8   8   8   8   8   8
#     4  10  22  37  52  73  97 125 166 211 260 317
#     4   8  15  29  48  70  96 128 167 209 255 306
#     4   9  19  35  52  75 111 150 189 233 276 319
#     4   9  19  37  57  75 100 133 167 211 267 321
#     4   9  19  36  57  82 113 149 188 231 278 327
#     4  11  22  34  54  84 117 152 188 227 275 330
#     4   9  18  32  49  70  98 128 160 203 252 307
#     4  10  21  36  55  82 113 144 180 220 267 328
#
# _framework density 18.954639
#
# number of rings (size 3 to 8) (size 9 to 14) (size 15 to 20)
#    0.000    2.625    0.000    1.875    1.750    4.500 
#    0.000    2.500    0.000    0.375    0.000    0.000 
#    0.000    0.000    0.000    0.000    0.000    0.000 
#
# Total GULP energy -793500.992284 kJ/mol
# GULP energy per Si atom -12398.453004 kJ/mol
# Density = 1.891150 g / cm^3
# Si number density = 18.954639 Si / 1000 Ang^3
#
#
#
# Elastic Constant Matrix: (Units=GPa)
#
#
# Indices 1 2 3 4 5 6 
#
# 1 84.7457 35.5819 73.0462 0.0000 0.0000 0.0000
# 2 35.5819 33.2655 43.4794 0.0000 0.0000 0.0000
# 3 73.0462 43.4794 141.6117 0.0000 0.0000 0.0000
# 4 0.0000 0.0000 0.0000 25.1515 0.0000 0.0000
# 5 0.0000 0.0000 0.0000 0.0000 36.3942 0.0000
# 6 0.0000 0.0000 0.0000 0.0000 0.0000 25.2064
#
#
#
# Elastic Compliance Matrix: (Units=1/GPa)
#
#
# Indices 1 2 3 4 5 6 
#
# 1 0.026056 -0.017210 -0.008156 0.000000 0.000000 0.000000
# 2 -0.017210 0.061578 -0.010029 0.000000 0.000000 0.000000
# 3 -0.008156 -0.010029 0.014348 0.000000 0.000000 0.000000
# 4 0.000000 0.000000 0.000000 0.039759 0.000000 0.000000
# 5 0.000000 0.000000 0.000000 0.000000 0.027477 0.000000
# 6 0.000000 0.000000 0.000000 0.000000 0.000000 0.039673
#
#
# Mechanical properties :
#
#
# Convention : Reuss Voigt Hill
#
# Bulk Modulus (GPa) = 32.06014 62.64865 47.35439
# Shear Modulus (GPa) = 17.23669 24.51810 20.87740
#
# Velocity S-wave (km/s) = 3.01884 3.60045 3.32240
# Velocity P-wave (km/s) = 5.39463 7.09985 6.30516
#
# Compressibility (1/GPa) = 0.03119138
#
# Stress axis : x y z
#
# Youngs Moduli (GPa) = 38.37860 16.23955 69.69593
#
# Poissons Ratio (x) = 0.27948 0.56846
# Poissons Ratio (y) = 0.66049 0.69900
# Poissons Ratio (z) = 0.31303 0.16287
#
# Static dielectric constant tensor:
#      x y z
#    x 3.558040 0.000000 0.000000 
#    y 0.000000 3.571580 0.000000 
#    z 0.000000 0.000000 3.382670 
# 
# 
# High freq. dielectric constant tensor:
#      x y z
#    x 1.732860 0.000000 0.000000 
#    y 0.000000 1.741710 0.000000 
#    z 0.000000 0.000000 1.719110 
# 
# From -- ./inp_files/34876.got.cif
#   From: 2010.03.12/outbox.cif.g09.slc.cpg/sg51_18_cif.got.tgz:34876.got - 2010.04.16 13:43:02.
