data_PCOD8213602
_publ_section_title
;
Structure prediction by ZEFSAII (Michael W. Deem and Ramdas Pophale) SiO2 
 PCOD8213602
Probable space group: P M M A
;
_chemical_formula_sum "Si O2"
_cell_formula_units_Z 48
_cell_length_a 9.028061
_cell_length_b 9.844680
_cell_length_c 29.219761
_cell_angle_alpha 90.000000
_cell_angle_beta 90.000000
_cell_angle_gamma 90.000000
_cell_volume 2597.004775
_symmetry_space_group_name_H-M "P M M A"
_symmetry_group_IT_number 51
_symmetry_cell_setting 'orthorhombic'
loop_
_space_group_symop_operation_xyz
x,y,z
1/2-x,-y,z
1/2+x,-y,-z
-x,y,-z
-x,-y,-z
1/2+x,y,-z
1/2-x,y,z
x,-y,z
loop_
_atom_site_type_symbol
_atom_site_label
_atom_site_fract_x
_atom_site_fract_y
_atom_site_fract_z
Si Si1 0.077019 0.340603 0.194173
Si Si2 0.076164 0.268155 0.896736
Si Si3 0.575817 0.845336 0.372165
Si Si4 0.580006 0.000000 0.048530
Si Si5 0.575980 0.655421 0.453423
Si Si6 0.577349 0.154291 0.720974
Si Si7 0.424589 0.500000 0.048428
O O1 0.250000 0.320296 0.182173
O O2 0.039478 0.500000 0.199792
O O3 0.032341 0.260429 0.239851
O O4 0.975556 0.271777 0.155592
O O5 0.250000 0.304875 0.900074
O O6 0.974266 0.370516 0.923900
O O7 0.038333 0.125702 0.919658
O O8 0.750000 0.829031 0.366780
O O9 0.515092 0.749000 0.412427
O O10 0.504887 0.797716 0.324671
O O11 0.530572 0.000000 0.383759
O O12 0.750000 0.000000 0.035002
O O13 0.500000 0.000000 0.000000
O O14 0.500000 0.704903 0.500000
O O15 0.750000 0.673856 0.459784
O O16 0.533384 0.500000 0.442221
O O17 0.750000 0.161389 0.710747
O O18 0.531024 0.000000 0.734897
O O19 0.250000 0.500000 0.041899
O O20 0.500000 0.500000 0.000000
#
# Coordination Sequence:
#
# PCOD8213602 Si02
#       7
#     8   8   8   4   8   8   4
#     4  10  21  37  56  81 112 144 182 224 272 326
#     4  11  23  40  60  86 117 148 186 230 275 328
#     4   9  18  33  51  73 102 135 173 218 268 320
#     4  10  24  42  60  86 116 146 184 228 271 324
#     4   9  18  32  49  71 101 136 174 216 262 316
#     4   9  19  35  54  77 106 141 181 224 271 324
#     4  12  24  40  62  88 116 150 188 228 275 328
#
# _framework density 18.48283
#
# number of rings (size 3 to 8) (size 9 to 14) (size 15 to 20)
#    0.000    2.167    0.833    1.750    1.167    5.000 
#    0.000    0.000    0.000    0.000    0.000    0.000 
#    0.000    0.000    0.000    0.000    0.000    0.000 
#
# Total GULP energy -595254.749608 kJ/mol
# GULP energy per Si atom -12401.140617 kJ/mol
# Density = 1.844076 g / cm^3
# Si number density = 18.482830 Si / 1000 Ang^3
#
#
#
# Elastic Constant Matrix: (Units=GPa)
#
#
# Indices 1 2 3 4 5 6 
#
# 1 66.9889 48.4988 59.8246 0.0000 0.0000 0.0000
# 2 48.4988 126.2616 92.2305 0.0000 0.0000 0.0000
# 3 59.8246 92.2305 174.4130 0.0000 0.0000 0.0000
# 4 0.0000 0.0000 0.0000 40.8333 0.0000 0.0000
# 5 0.0000 0.0000 0.0000 0.0000 39.7130 0.0000
# 6 0.0000 0.0000 0.0000 0.0000 0.0000 27.1128
#
#
#
# Elastic Compliance Matrix: (Units=1/GPa)
#
#
# Indices 1 2 3 4 5 6 
#
# 1 0.023365 -0.005085 -0.005326 0.000000 0.000000 0.000000
# 2 -0.005085 0.014011 -0.005665 0.000000 0.000000 0.000000
# 3 -0.005326 -0.005665 0.010556 0.000000 0.000000 0.000000
# 4 0.000000 0.000000 0.000000 0.024490 0.000000 0.000000
# 5 0.000000 0.000000 0.000000 0.000000 0.025181 0.000000
# 6 0.000000 0.000000 0.000000 0.000000 0.000000 0.036883
#
#
# Mechanical properties :
#
#
# Convention : Reuss Voigt Hill
#
# Bulk Modulus (GPa) = 63.36501 85.41905 74.39203
# Shear Modulus (GPa) = 29.08711 32.67247 30.87979
#
# Velocity S-wave (km/s) = 3.97134 4.20899 4.09189
# Velocity P-wave (km/s) = 7.44220 8.36280 7.91589
#
# Compressibility (1/GPa) = 0.01578158
#
# Stress axis : x y z
#
# Youngs Moduli (GPa) = 42.79898 71.37001 94.73253
#
# Poissons Ratio (x) = 0.36289 0.50450
# Poissons Ratio (y) = 0.21762 0.53669
# Poissons Ratio (z) = 0.22793 0.40433
#
# Static dielectric constant tensor:
#      x y z
#    x 3.352180 0.000000 0.000000 
#    y 0.000000 3.545380 0.000000 
#    z 0.000000 0.000000 2.488240 
# 
# 
# High freq. dielectric constant tensor:
#      x y z
#    x 1.713410 0.000000 0.000000 
#    y 0.000000 1.723770 0.000000 
#    z 0.000000 0.000000 1.725500 
# 
# From -- ./inp_files/37209.got.cif
#   From: 2010.03.12/outbox.cif.g09.slc.cpg/sg51_19_cif.got.tgz:37209.got - 2010.04.16 13:43:02.
