data_PCOD8213415
_publ_section_title
;
Structure prediction by ZEFSAII (Michael W. Deem and Ramdas Pophale) SiO2 
 PCOD8213415
Probable space group: P M M A
;
_chemical_formula_sum "Si O2"
_cell_formula_units_Z 56
_cell_length_a 9.218758
_cell_length_b 15.687835
_cell_length_c 19.459109
_cell_angle_alpha 90.000000
_cell_angle_beta 90.000000
_cell_angle_gamma 90.000000
_cell_volume 2814.222158
_symmetry_space_group_name_H-M "P M M A"
_symmetry_group_IT_number 51
_symmetry_cell_setting 'orthorhombic'
loop_
_space_group_symop_operation_xyz
x,y,z
1/2-x,-y,z
1/2+x,-y,-z
-x,y,-z
-x,-y,-z
1/2+x,y,-z
1/2-x,y,z
x,-y,z
loop_
_atom_site_type_symbol
_atom_site_label
_atom_site_fract_x
_atom_site_fract_y
_atom_site_fract_z
Si Si1 0.084809 0.650695 0.711295
Si Si2 0.582864 0.404978 0.840190
Si Si3 0.915826 0.094987 0.827848
Si Si4 0.912573 0.398930 0.435673
Si Si5 0.416112 0.154165 0.701237
Si Si6 0.581896 0.899853 0.568852
Si Si7 0.921115 0.754305 0.928381
O O1 0.250000 0.617505 0.712273
O O2 0.017009 0.632098 0.636037
O O3 0.075053 0.749907 0.728773
O O4 0.998408 0.598416 0.767941
O O5 0.750000 0.386066 0.824458
O O6 0.560413 0.500000 0.871664
O O7 0.524643 0.333678 0.893065
O O8 0.750000 0.114635 0.806359
O O9 0.969057 0.164744 0.882702
O O10 0.013110 0.095915 0.759664
O O11 0.929549 0.000000 0.860106
O O12 0.750000 0.362618 0.441387
O O13 0.914911 0.500000 0.438458
O O14 0.000000 0.360013 0.500000
O O15 0.250000 0.125487 0.688505
O O16 0.505470 0.148176 0.631260
O O17 0.500000 0.871055 0.500000
O O18 0.750000 0.873087 0.564027
O O19 0.564853 0.000000 0.581237
O O20 0.750000 0.753190 0.941212
O O21 0.000000 0.763876 0.000000
#
# Coordination Sequence:
#
# PCOD8213415 Si02
#       7
#     8   8   8   8   8   8   8
#     4  10  21  36  55  81 113 149 192 239 288 343
#     4  10  21  38  61  88 117 152 194 237 285 341
#     4  10  21  39  62  86 115 155 197 235 285 346
#     4   9  18  33  51  72 102 140 183 231 280 331
#     4  11  22  35  55  84 116 149 192 244 295 348
#     4  10  21  37  56  78 108 149 196 246 300 355
#     4  10  22  40  61  88 122 153 188 234 282 340
#
# _framework density 19.898927
#
# number of rings (size 3 to 8) (size 9 to 14) (size 15 to 20)
#    0.000    2.000    1.429    1.714    0.000    7.143 
#    0.000    2.857    0.000    0.000    0.000    0.000 
#    0.000    0.000    0.000    0.000    0.000    0.000 
#
# Total GULP energy -694528.564108 kJ/mol
# GULP energy per Si atom -12402.295788 kJ/mol
# Density = 1.985364 g / cm^3
# Si number density = 19.898927 Si / 1000 Ang^3
#
#
#
# Elastic Constant Matrix: (Units=GPa)
#
#
# Indices 1 2 3 4 5 6 
#
# 1 87.6399 31.6348 55.9707 0.0000 0.0000 0.0000
# 2 31.6348 92.1446 46.5906 0.0000 0.0000 0.0000
# 3 55.9707 46.5906 139.7595 0.0000 0.0000 0.0000
# 4 0.0000 0.0000 0.0000 26.8501 0.0000 0.0000
# 5 0.0000 0.0000 0.0000 0.0000 41.7050 0.0000
# 6 0.0000 0.0000 0.0000 0.0000 0.0000 15.6214
#
#
#
# Elastic Compliance Matrix: (Units=1/GPa)
#
#
# Indices 1 2 3 4 5 6 
#
# 1 0.015866 -0.002687 -0.005458 0.000000 0.000000 0.000000
# 2 -0.002687 0.013508 -0.003427 0.000000 0.000000 0.000000
# 3 -0.005458 -0.003427 0.010483 0.000000 0.000000 0.000000
# 4 0.000000 0.000000 0.000000 0.037244 0.000000 0.000000
# 5 0.000000 0.000000 0.000000 0.000000 0.023978 0.000000
# 6 0.000000 0.000000 0.000000 0.000000 0.000000 0.064015
#
#
# Mechanical properties :
#
#
# Convention : Reuss Voigt Hill
#
# Bulk Modulus (GPa) = 59.83456 65.32625 62.58040
# Shear Modulus (GPa) = 25.79855 29.19184 27.49519
#
# Velocity S-wave (km/s) = 3.60457 3.83431 3.72121
# Velocity P-wave (km/s) = 6.88901 7.24588 7.06970
#
# Compressibility (1/GPa) = 0.01671275
#
# Stress axis : x y z
#
# Youngs Moduli (GPa) = 63.02697 74.03147 95.38880
#
# Poissons Ratio (x) = 0.19895 0.52065
# Poissons Ratio (y) = 0.16937 0.32688
# Poissons Ratio (z) = 0.34402 0.25369
#
# Static dielectric constant tensor:
#      x y z
#    x 3.604250 0.000000 0.000000 
#    y 0.000000 3.655410 0.000000 
#    z 0.000000 0.000000 3.502220 
# 
# 
# High freq. dielectric constant tensor:
#      x y z
#    x 1.770050 0.000000 0.000000 
#    y 0.000000 1.781450 0.000000 
#    z 0.000000 0.000000 1.770620 
# 
# From -- ./inp_files/32020.got.cif
#   From: 2010.03.12/outbox.cif.g09.slc.cpg/sg51_17_cif.got.tgz:32020.got - 2010.04.16 13:43:02.
