data_PCOD8213586
_publ_section_title
;
Structure prediction by ZEFSAII (Michael W. Deem and Ramdas Pophale) SiO2 
 PCOD8213586
Probable space group: P M M A
;
_chemical_formula_sum "Si O2"
_cell_formula_units_Z 40
_cell_length_a 17.948549
_cell_length_b 9.229932
_cell_length_c 12.751584
_cell_angle_alpha 90.000000
_cell_angle_beta 90.000000
_cell_angle_gamma 90.000000
_cell_volume 2112.476968
_symmetry_space_group_name_H-M "P M M A"
_symmetry_group_IT_number 51
_symmetry_cell_setting 'orthorhombic'
loop_
_space_group_symop_operation_xyz
x,y,z
1/2-x,-y,z
1/2+x,-y,-z
-x,y,-z
-x,-y,-z
1/2+x,y,-z
1/2-x,y,z
x,-y,z
loop_
_atom_site_type_symbol
_atom_site_label
_atom_site_fract_x
_atom_site_fract_y
_atom_site_fract_z
Si Si1 0.835368 0.668862 0.090703
Si Si2 0.835960 0.834613 0.482451
Si Si3 0.585304 0.328611 0.302950
Si Si4 0.069459 0.169791 0.314277
Si Si5 0.664873 0.830016 0.884508
O O1 0.750000 0.711426 0.115163
O O2 0.843164 0.500000 0.067431
O O3 0.885471 0.716837 0.188533
O O4 0.865390 0.752697 0.988904
O O5 0.750000 0.813954 0.511604
O O6 0.856274 0.729619 0.387503
O O7 0.882451 0.790907 0.584425
O O8 0.853138 0.000000 0.449443
O O9 0.579594 0.500000 0.314842
O O10 0.505821 0.258623 0.322833
O O11 0.114846 0.221417 0.212433
O O12 0.051055 0.000000 0.309097
O O13 0.750000 0.784017 0.861383
O O14 0.658443 0.000000 0.902503
#
# Coordination Sequence:
#
# PCOD8213586 Si02
#       5
#     8   8   8   8   8
#     4   9  19  36  55  75 104 142 180 219 264 313
#     4  10  21  38  60  82 105 138 179 221 268 322
#     4  11  23  37  54  79 112 146 180 220 265 314
#     4  10  21  37  56  80 111 142 174 218 271 322
#     4   9  18  34  57  82 106 136 178 225 268 314
#
# _framework density 18.935117999999999
#
# number of rings (size 3 to 8) (size 9 to 14) (size 15 to 20)
#    0.000    2.200    0.000    2.400    0.000   10.000 
#    0.000    6.000    0.000    3.600    0.000    0.000 
#    0.000    0.000    0.000    0.000    0.000    0.000 
#
# Total GULP energy -496177.157590 kJ/mol
# GULP energy per Si atom -12404.428940 kJ/mol
# Density = 1.889202 g / cm^3
# Si number density = 18.935118 Si / 1000 Ang^3
#
#
#
# Elastic Constant Matrix: (Units=GPa)
#
#
# Indices 1 2 3 4 5 6 
#
# 1 75.7673 24.7010 32.7200 0.0000 0.0000 0.0000
# 2 24.7010 44.2026 40.2131 0.0000 0.0000 0.0000
# 3 32.7200 40.2131 114.4702 0.0000 0.0000 0.0000
# 4 0.0000 0.0000 0.0000 6.2706 0.0000 0.0000
# 5 0.0000 0.0000 0.0000 0.0000 47.1829 0.0000
# 6 0.0000 0.0000 0.0000 0.0000 0.0000 25.3568
#
#
#
# Elastic Compliance Matrix: (Units=1/GPa)
#
#
# Indices 1 2 3 4 5 6 
#
# 1 0.016497 -0.007244 -0.002171 0.000000 0.000000 0.000000
# 2 -0.007244 0.036430 -0.010727 0.000000 0.000000 0.000000
# 3 -0.002171 -0.010727 0.013125 0.000000 0.000000 0.000000
# 4 0.000000 0.000000 0.000000 0.159474 0.000000 0.000000
# 5 0.000000 0.000000 0.000000 0.000000 0.021194 0.000000
# 6 0.000000 0.000000 0.000000 0.000000 0.000000 0.039437
#
#
# Mechanical properties :
#
#
# Convention : Reuss Voigt Hill
#
# Bulk Modulus (GPa) = 38.80741 47.74538 43.27639
# Shear Modulus (GPa) = 14.92397 24.88247 19.90322
#
# Velocity S-wave (km/s) = 2.81047 3.62897 3.24563
# Velocity P-wave (km/s) = 5.57414 6.54441 6.07866
#
# Compressibility (1/GPa) = 0.02576828
#
# Stress axis : x y z
#
# Youngs Moduli (GPa) = 60.61551 27.44974 76.19159
#
# Poissons Ratio (x) = 0.19885 0.16539
# Poissons Ratio (y) = 0.43911 0.81732
# Poissons Ratio (z) = 0.13158 0.29446
#
# Static dielectric constant tensor:
#      x y z
#    x 3.478780 0.000000 0.000000 
#    y 0.000000 3.409100 0.000000 
#    z 0.000000 0.000000 3.627110 
# 
# 
# High freq. dielectric constant tensor:
#      x y z
#    x 1.740120 0.000000 0.000000 
#    y 0.000000 1.728080 0.000000 
#    z 0.000000 0.000000 1.748740 
# 
# From -- ./inp_files/17056.got.cif
#   From: 2010.03.12/outbox.cif.g09.slc.cpg/sg51_9_cif.got.tgz:17056.got - 2010.04.16 13:43:02.
