data_PCOD8213570
_publ_section_title
;
Structure prediction by ZEFSAII (Michael W. Deem and Ramdas Pophale) SiO2 
 PCOD8213570
Probable space group: P M M A
;
_chemical_formula_sum "Si O2"
_cell_formula_units_Z 56
_cell_length_a 19.087229
_cell_length_b 9.036518
_cell_length_c 17.568717
_cell_angle_alpha 90.000000
_cell_angle_beta 90.000000
_cell_angle_gamma 90.000000
_cell_volume 3030.288999
_symmetry_space_group_name_H-M "P M M A"
_symmetry_group_IT_number 51
_symmetry_cell_setting 'orthorhombic'
loop_
_space_group_symop_operation_xyz
x,y,z
1/2-x,-y,z
1/2+x,-y,-z
-x,y,-z
-x,-y,-z
1/2+x,y,-z
1/2-x,y,z
x,-y,z
loop_
_atom_site_type_symbol
_atom_site_label
_atom_site_fract_x
_atom_site_fract_y
_atom_site_fract_z
Si Si1 0.327536 0.174819 0.585873
Si Si2 0.168976 0.671591 0.007925
Si Si3 0.915189 0.330564 0.710724
Si Si4 0.063733 0.327220 0.875223
Si Si5 0.580227 0.175405 0.868342
Si Si6 0.832706 0.166841 0.583751
Si Si7 0.424092 0.332451 0.703870
O O1 0.250000 0.239804 0.602654
O O2 0.352374 0.222091 0.501296
O O3 0.381033 0.228915 0.648668
O O4 0.324242 0.000000 0.589088
O O5 0.250000 0.707876 0.992157
O O6 0.157946 0.500000 0.029041
O O7 0.142256 0.771632 0.076809
O O8 0.126178 0.713287 0.932047
O O9 0.897992 0.500000 0.731731
O O10 0.900881 0.231206 0.784358
O O11 0.866363 0.279498 0.642507
O O12 0.994754 0.314242 0.683094
O O13 0.043598 0.500000 0.876854
O O14 0.088863 0.281747 0.790871
O O15 0.993693 0.239384 0.898305
O O16 0.576272 0.000000 0.868281
O O17 0.750000 0.169843 0.594775
O O18 0.860877 0.000000 0.597727
O O19 0.398549 0.500000 0.692102
#
# Coordination Sequence:
#
# PCOD8213570 Si02
#       7
#     8   8   8   8   8   8   8
#     4   9  19  35  53  75 106 143 178 212 257 314
#     4  10  21  37  57  80 107 141 179 217 260 311
#     4  10  21  37  56  79 106 136 175 220 264 312
#     4   9  19  37  58  79 106 140 177 217 261 310
#     4  11  22  36  56  80 107 140 176 215 263 316
#     4   9  19  36  55  76 105 140 177 216 260 312
#     4   9  19  34  53  79 107 135 172 219 263 304
#
# _framework density 18.480086
#
# number of rings (size 3 to 8) (size 9 to 14) (size 15 to 20)
#    0.000    2.429    0.000    3.857    0.000    8.286 
#    0.000    5.714    0.000    0.000    0.000    0.000 
#    0.000    0.000    0.000    0.000    0.000    0.000 
#
# Total GULP energy -694495.680150 kJ/mol
# GULP energy per Si atom -12401.708574 kJ/mol
# Density = 1.843802 g / cm^3
# Si number density = 18.480086 Si / 1000 Ang^3
#
#
#
# Elastic Constant Matrix: (Units=GPa)
#
#
# Indices 1 2 3 4 5 6 
#
# 1 82.3891 41.0191 62.0464 0.0000 0.0000 0.0000
# 2 41.0191 75.8731 43.8830 0.0000 0.0000 0.0000
# 3 62.0464 43.8830 105.2542 0.0000 0.0000 0.0000
# 4 0.0000 0.0000 0.0000 29.8781 0.0000 0.0000
# 5 0.0000 0.0000 0.0000 0.0000 -55.8880 0.0000
# 6 0.0000 0.0000 0.0000 0.0000 0.0000 29.7895
#
#
#
# Elastic Compliance Matrix: (Units=1/GPa)
#
#
# Indices 1 2 3 4 5 6 
#
# 1 0.023908 -0.006291 -0.011471 0.000000 0.000000 0.000000
# 2 -0.006291 0.019023 -0.004223 0.000000 0.000000 0.000000
# 3 -0.011471 -0.004223 0.018023 0.000000 0.000000 0.000000
# 4 0.000000 0.000000 0.000000 0.033469 0.000000 0.000000
# 5 0.000000 0.000000 0.000000 0.000000 -0.017893 0.000000
# 6 0.000000 0.000000 0.000000 0.000000 0.000000 0.033569
#
#
# Mechanical properties :
#
#
# Convention : Reuss Voigt Hill
#
# Bulk Modulus (GPa) = 58.87320 61.93482 60.40401
# Shear Modulus (GPa) = 31.30260 8.52712 19.91486
#
# Velocity S-wave (km/s) = 4.12011 2.15040 3.28630
# Velocity P-wave (km/s) = 7.38651 6.30498 6.86707
#
# Compressibility (1/GPa) = 0.01698566
#
# Stress axis : x y z
#
# Youngs Moduli (GPa) = 41.82669 52.56701 55.48374
#
# Poissons Ratio (x) = 0.33070 0.63644
# Poissons Ratio (y) = 0.26313 0.23430
# Poissons Ratio (z) = 0.47978 0.22198
#
# Static dielectric constant tensor:
#      x y z
#    x 3.374620 0.000000 0.000000 
#    y 0.000000 3.315520 0.000000 
#    z 0.000000 0.000000 3.500160 
# 
# 
# High freq. dielectric constant tensor:
#      x y z
#    x 1.712440 0.000000 0.000000 
#    y 0.000000 1.710630 0.000000 
#    z 0.000000 0.000000 1.725380 
# 
# From -- ./inp_files/25769.got.cif
#   From: 2010.03.12/outbox.cif.g09.slc.cpg/sg51_13_cif.got.tgz:25769.got - 2010.04.16 13:43:02.
