data_PCOD8213101
_publ_section_title
;
Structure prediction by ZEFSAII (Michael W. Deem and Ramdas Pophale) SiO2 
 PCOD8213101
Probable space group: P M M A
;
_chemical_formula_sum "Si O2"
_cell_formula_units_Z 56
_cell_length_a 19.207105
_cell_length_b 9.446519
_cell_length_c 15.727422
_cell_angle_alpha 90.000000
_cell_angle_beta 90.000000
_cell_angle_gamma 90.000000
_cell_volume 2853.587888
_symmetry_space_group_name_H-M "P M M A"
_symmetry_group_IT_number 51
_symmetry_cell_setting 'orthorhombic'
loop_
_space_group_symop_operation_xyz
x,y,z
1/2-x,-y,z
1/2+x,-y,-z
-x,y,-z
-x,-y,-z
1/2+x,y,-z
1/2-x,y,z
x,-y,z
loop_
_atom_site_type_symbol
_atom_site_label
_atom_site_fract_x
_atom_site_fract_y
_atom_site_fract_z
Si Si1 0.549995 0.835414 0.248382
Si Si2 0.171338 0.335366 0.471885
Si Si3 0.170107 0.337371 0.669063
Si Si4 0.168710 0.837367 0.173410
Si Si5 0.589125 0.836651 0.661417
Si Si6 0.327750 0.661682 0.013135
Si Si7 0.040124 0.662436 0.914691
O O1 0.621922 0.763357 0.275010
O O2 0.493261 0.815454 0.323288
O O3 0.519517 0.763885 0.162927
O O4 0.563314 0.000000 0.229716
O O5 0.250000 0.288746 0.446718
O O6 0.161263 0.500000 0.452487
O O7 0.158408 0.302811 0.570433
O O8 0.113396 0.249938 0.420375
O O9 0.250000 0.308443 0.694463
O O10 0.150455 0.500000 0.688426
O O11 0.250000 0.814073 0.188349
O O12 0.130003 0.778990 0.256390
O O13 0.149092 0.000000 0.157319
O O14 0.142559 0.751303 0.091832
O O15 0.607614 0.000000 0.645046
O O16 0.250000 0.711161 0.987041
O O17 0.328111 0.500000 0.043949
O O18 0.377224 0.681690 0.931843
O O19 0.022130 0.500000 0.891079
O O20 0.000000 0.708188 0.000000
#
# Coordination Sequence:
#
# PCOD8213101 Si02
#       7
#     8   8   8   8   8   8   8
#     4  11  24  38  55  83 114 145 184 228 275 328
#     4   9  19  36  59  86 111 140 183 229 270 317
#     4   9  20  41  64  83 108 143 183 229 280 331
#     4   9  17  30  49  73 103 141 181 217 259 315
#     4  10  21  35  51  77 115 152 182 217 267 326
#     4   9  18  32  50  73  99 128 168 220 273 320
#     4  10  21  37  56  77 104 142 186 227 272 327
#
# _framework density 19.624417999999999
#
# number of rings (size 3 to 8) (size 9 to 14) (size 15 to 20)
#    0.000    2.429    0.000    2.571    0.000    5.429 
#    0.000    7.143    0.000    0.000    0.000    0.000 
#    0.000    0.000    0.000    0.000    0.000    0.000 
#
# Total GULP energy -694493.701887 kJ/mol
# GULP energy per Si atom -12401.673248 kJ/mol
# Density = 1.957975 g / cm^3
# Si number density = 19.624418 Si / 1000 Ang^3
#
#
#
# Elastic Constant Matrix: (Units=GPa)
#
#
# Indices 1 2 3 4 5 6 
#
# 1 74.0458 41.9163 37.5793 0.0000 0.0000 0.0000
# 2 41.9163 87.8275 53.5569 0.0000 0.0000 0.0000
# 3 37.5793 53.5569 75.6190 0.0000 0.0000 0.0000
# 4 0.0000 0.0000 0.0000 6.1194 0.0000 0.0000
# 5 0.0000 0.0000 0.0000 0.0000 31.7011 0.0000
# 6 0.0000 0.0000 0.0000 0.0000 0.0000 28.2409
#
#
#
# Elastic Compliance Matrix: (Units=1/GPa)
#
#
# Indices 1 2 3 4 5 6 
#
# 1 0.019732 -0.006051 -0.005520 0.000000 0.000000 0.000000
# 2 -0.006051 0.021897 -0.012502 0.000000 0.000000 0.000000
# 3 -0.005520 -0.012502 0.024822 0.000000 0.000000 0.000000
# 4 0.000000 0.000000 0.000000 0.163414 0.000000 0.000000
# 5 0.000000 0.000000 0.000000 0.000000 0.031545 0.000000
# 6 0.000000 0.000000 0.000000 0.000000 0.000000 0.035410
#
#
# Mechanical properties :
#
#
# Convention : Reuss Voigt Hill
#
# Bulk Modulus (GPa) = 54.62914 55.95526 55.29220
# Shear Modulus (GPa) = 14.24230 20.17496 17.20863
#
# Velocity S-wave (km/s) = 2.69689 3.20981 2.96446
# Velocity P-wave (km/s) = 6.13150 6.50478 6.32090
#
# Compressibility (1/GPa) = 0.01830525
#
# Stress axis : x y z
#
# Youngs Moduli (GPa) = 50.67850 45.66785 40.28712
#
# Poissons Ratio (x) = 0.27633 0.22240
# Poissons Ratio (y) = 0.30665 0.50365
# Poissons Ratio (z) = 0.27977 0.57092
#
# Static dielectric constant tensor:
#      x y z
#    x 3.662200 0.000000 0.000000 
#    y 0.000000 3.472790 0.000000 
#    z 0.000000 0.000000 3.414690 
# 
# 
# High freq. dielectric constant tensor:
#      x y z
#    x 1.773800 0.000000 0.000000 
#    y 0.000000 1.756050 0.000000 
#    z 0.000000 0.000000 1.754570 
# 
# From -- ./inp_files/25680.got.cif
#   From: 2010.03.12/outbox.cif.g09.slc.cpg/sg51_13_cif.got.tgz:25680.got - 2010.04.16 13:43:02.
