data_PCOD8213386
_publ_section_title
;
Structure prediction by ZEFSAII (Michael W. Deem and Ramdas Pophale) SiO2 
 PCOD8213386
Probable space group: P M M A
;
_chemical_formula_sum "Si O2"
_cell_formula_units_Z 44
_cell_length_a 9.118139
_cell_length_b 7.866810
_cell_length_c 29.964363
_cell_angle_alpha 90.000000
_cell_angle_beta 90.000000
_cell_angle_gamma 90.000000
_cell_volume 2149.363746
_symmetry_space_group_name_H-M "P M M A"
_symmetry_group_IT_number 51
_symmetry_cell_setting 'orthorhombic'
loop_
_space_group_symop_operation_xyz
x,y,z
1/2-x,-y,z
1/2+x,-y,-z
-x,y,-z
-x,-y,-z
1/2+x,y,-z
1/2-x,y,z
x,-y,z
loop_
_atom_site_type_symbol
_atom_site_label
_atom_site_fract_x
_atom_site_fract_y
_atom_site_fract_z
Si Si1 0.587748 0.802181 0.369072
Si Si2 0.416745 0.698657 0.798719
Si Si3 0.083236 0.701357 0.456259
Si Si4 0.579146 0.305648 0.889366
Si Si5 0.921625 0.000000 0.953139
Si Si6 0.411652 0.804252 0.286422
O O1 0.750000 0.718591 0.373532
O O2 0.495589 0.775563 0.413402
O O3 0.503873 0.717612 0.326733
O O4 0.606904 0.000000 0.360028
O O5 0.250000 0.764669 0.799056
O O6 0.425017 0.500000 0.789397
O O7 0.488777 0.745115 0.845761
O O8 0.504570 0.791541 0.760082
O O9 0.250000 0.767839 0.457630
O O10 0.077251 0.500000 0.454229
O O11 0.000000 0.770084 0.500000
O O12 0.750000 0.286121 0.877721
O O13 0.543716 0.500000 0.904748
O O14 0.531514 0.172102 0.927313
O O15 0.750000 0.000000 0.961903
O O16 0.000000 0.000000 0.000000
O O17 0.250000 0.718013 0.283176
O O18 0.390515 0.000000 0.298203
#
# Coordination Sequence:
#
# PCOD8213386 Si02
#       6
#     8   8   8   8   4   8
#     4  10  21  37  56  79 108 141 179 223 272 326
#     4  10  21  36  55  82 113 145 184 229 278 332
#     4  10  21  37  57  80 105 136 176 221 271 327
#     4   9  19  37  58  81 114 153 192 239 289 341
#     4  10  22  38  58  86 116 150 196 240 289 350
#     4  10  21  36  55  79 108 144 183 223 270 325
#
# _framework density 20.471174000000001
#
# number of rings (size 3 to 8) (size 9 to 14) (size 15 to 20)
#    0.000    2.182    0.000    2.182    1.273    6.545 
#    0.000    0.000    0.000    0.000    0.000    0.000 
#    0.000    0.000    0.000    0.000    0.000    0.000 
#
# Total GULP energy -545608.898203 kJ/mol
# GULP energy per Si atom -12400.202232 kJ/mol
# Density = 2.042458 g / cm^3
# Si number density = 20.471174 Si / 1000 Ang^3
#
#
#
# Elastic Constant Matrix: (Units=GPa)
#
#
# Indices 1 2 3 4 5 6 
#
# 1 164.1636 33.1562 87.9416 0.0000 0.0000 0.0000
# 2 33.1562 50.6332 46.3573 0.0000 0.0000 0.0000
# 3 87.9416 46.3573 167.4459 0.0000 0.0000 0.0000
# 4 0.0000 0.0000 0.0000 44.9138 0.0000 0.0000
# 5 0.0000 0.0000 0.0000 0.0000 44.7899 0.0000
# 6 0.0000 0.0000 0.0000 0.0000 0.0000 8.6027
#
#
#
# Elastic Compliance Matrix: (Units=1/GPa)
#
#
# Indices 1 2 3 4 5 6 
#
# 1 0.008626 -0.002010 -0.003974 0.000000 0.000000 0.000000
# 2 -0.002010 0.026924 -0.006398 0.000000 0.000000 0.000000
# 3 -0.003974 -0.006398 0.009830 0.000000 0.000000 0.000000
# 4 0.000000 0.000000 0.000000 0.022265 0.000000 0.000000
# 5 0.000000 0.000000 0.000000 0.000000 0.022326 0.000000
# 6 0.000000 0.000000 0.000000 0.000000 0.000000 0.116242
#
#
# Mechanical properties :
#
#
# Convention : Reuss Voigt Hill
#
# Bulk Modulus (GPa) = 48.50582 79.68365 64.09474
# Shear Modulus (GPa) = 21.02153 33.98046 27.50100
#
# Velocity S-wave (km/s) = 3.20798 4.07863 3.66922
# Velocity P-wave (km/s) = 6.12108 7.82238 7.02343
#
# Compressibility (1/GPa) = 0.02061608
#
# Stress axis : x y z
#
# Youngs Moduli (GPa) = 115.92402 37.14138 101.72490
#
# Poissons Ratio (x) = 0.07467 0.40424
# Poissons Ratio (y) = 0.23306 0.65084
# Poissons Ratio (z) = 0.46067 0.23763
#
# Static dielectric constant tensor:
#      x y z
#    x 3.324520 0.000000 0.000000 
#    y 0.000000 3.594910 0.000000 
#    z 0.000000 0.000000 3.638680 
# 
# 
# High freq. dielectric constant tensor:
#      x y z
#    x 1.815060 0.000000 0.000000 
#    y 0.000000 1.786160 0.000000 
#    z 0.000000 0.000000 1.801030 
# 
# From -- ./inp_files/36757.got.cif
#   From: 2010.03.12/outbox.cif.g09.slc.cpg/sg51_19_cif.got.tgz:36757.got - 2010.04.16 13:43:02.
