data_PCOD8213769
_publ_section_title
;
Structure prediction by ZEFSAII (Michael W. Deem and Ramdas Pophale) SiO2 
 PCOD8213769
Probable space group: P M M A
;
_chemical_formula_sum "Si O2"
_cell_formula_units_Z 48
_cell_length_a 8.629903
_cell_length_b 20.139216
_cell_length_c 14.435403
_cell_angle_alpha 90.000000
_cell_angle_beta 90.000000
_cell_angle_gamma 90.000000
_cell_volume 2508.865543
_symmetry_space_group_name_H-M "P M M A"
_symmetry_group_IT_number 51
_symmetry_cell_setting 'orthorhombic'
loop_
_space_group_symop_operation_xyz
x,y,z
1/2-x,-y,z
1/2+x,-y,-z
-x,y,-z
-x,-y,-z
1/2+x,y,-z
1/2-x,y,z
x,-y,z
loop_
_atom_site_type_symbol
_atom_site_label
_atom_site_fract_x
_atom_site_fract_y
_atom_site_fract_z
Si Si1 0.067443 0.733342 0.595156
Si Si2 0.429459 0.422645 0.901642
Si Si3 0.068103 0.315186 0.224705
Si Si4 0.572606 0.925021 0.219506
Si Si5 0.566755 0.121794 0.596750
Si Si6 0.567206 0.809517 0.898664
O O1 0.250000 0.742586 0.586228
O O2 0.000000 0.703001 0.500000
O O3 0.023592 0.684568 0.678514
O O4 0.989028 0.803781 0.615694
O O5 0.250000 0.402186 0.900460
O O6 0.453073 0.500000 0.881054
O O7 0.523625 0.383595 0.824095
O O8 0.500000 0.402567 0.000000
O O9 0.250000 0.312594 0.244110
O O10 0.013170 0.252641 0.163338
O O11 0.750000 0.902807 0.231492
O O12 0.490386 0.923356 0.319199
O O13 0.492202 0.877671 0.145285
O O14 0.559551 0.000000 0.181404
O O15 0.500000 0.093894 0.500000
O O16 0.750000 0.120380 0.591884
O O17 0.750000 0.813157 0.905570
O O18 0.500000 0.799282 0.000000
#
# Coordination Sequence:
#
# PCOD8213769 Si02
#       6
#     8   8   8   8   8   8
#     4  11  21  35  58  86 119 153 190 237 286 340
#     4  10  21  37  58  87 123 162 201 241 288 341
#     4  11  22  37  60  90 120 153 195 239 287 341
#     4  11  24  41  60  82 110 147 191 239 293 350
#     4  11  21  36  58  84 114 148 187 233 288 346
#     4  11  24  40  60  84 113 147 190 240 289 343
#
# _framework density 19.132152999999999
#
# number of rings (size 3 to 8) (size 9 to 14) (size 15 to 20)
#    0.000    1.167    1.667    6.500    0.000    6.333 
#    0.000    0.000    0.000    0.500    0.000    0.000 
#    0.000    0.000    0.000    0.000    0.000    0.000 
#
# Total GULP energy -595488.823133 kJ/mol
# GULP energy per Si atom -12406.017149 kJ/mol
# Density = 1.908861 g / cm^3
# Si number density = 19.132153 Si / 1000 Ang^3
#
#
#
# Elastic Constant Matrix: (Units=GPa)
#
#
# Indices 1 2 3 4 5 6 
#
# 1 112.7405 27.6525 47.8101 0.0000 0.0000 0.0000
# 2 27.6525 65.1492 42.8938 0.0000 0.0000 0.0000
# 3 47.8101 42.8938 131.5564 0.0000 0.0000 0.0000
# 4 0.0000 0.0000 0.0000 12.5498 0.0000 0.0000
# 5 0.0000 0.0000 0.0000 0.0000 39.5428 0.0000
# 6 0.0000 0.0000 0.0000 0.0000 0.0000 27.9032
#
#
#
# Elastic Compliance Matrix: (Units=1/GPa)
#
#
# Indices 1 2 3 4 5 6 
#
# 1 0.010808 -0.002549 -0.003097 0.000000 0.000000 0.000000
# 2 -0.002549 0.020146 -0.005642 0.000000 0.000000 0.000000
# 3 -0.003097 -0.005642 0.010567 0.000000 0.000000 0.000000
# 4 0.000000 0.000000 0.000000 0.079683 0.000000 0.000000
# 5 0.000000 0.000000 0.000000 0.000000 0.025289 0.000000
# 6 0.000000 0.000000 0.000000 0.000000 0.000000 0.035838
#
#
# Mechanical properties :
#
#
# Convention : Reuss Voigt Hill
#
# Bulk Modulus (GPa) = 52.78439 60.68433 56.73436
# Shear Modulus (GPa) = 23.67181 28.73846 26.20514
#
# Velocity S-wave (km/s) = 3.52131 3.87990 3.70495
# Velocity P-wave (km/s) = 6.64696 7.20131 6.92968
#
# Compressibility (1/GPa) = 0.01894500
#
# Stress axis : x y z
#
# Youngs Moduli (GPa) = 92.52080 49.63759 94.63849
#
# Poissons Ratio (x) = 0.12650 0.29310
# Poissons Ratio (y) = 0.23579 0.53399
# Poissons Ratio (z) = 0.28654 0.28008
#
# Static dielectric constant tensor:
#      x y z
#    x 3.670890 0.000000 0.000000 
#    y 0.000000 3.309430 0.000000 
#    z 0.000000 0.000000 3.720940 
# 
# 
# High freq. dielectric constant tensor:
#      x y z
#    x 1.765240 0.000000 0.000000 
#    y 0.000000 1.724220 0.000000 
#    z 0.000000 0.000000 1.751940 
# 
# From -- ./inp_files/21100.got.cif
#   From: 2010.03.12/outbox.cif.g09.slc.cpg/sg51_11_cif.got.tgz:21100.got - 2010.04.16 13:43:02.
