data_PCOD8213883
_publ_section_title
;
Structure prediction by ZEFSAII (Michael W. Deem and Ramdas Pophale) SiO2 
 PCOD8213883
Probable space group: P M M A
;
_chemical_formula_sum "Si O2"
_cell_formula_units_Z 56
_cell_length_a 8.777605
_cell_length_b 14.343527
_cell_length_c 23.726194
_cell_angle_alpha 90.000000
_cell_angle_beta 90.000000
_cell_angle_gamma 90.000000
_cell_volume 2987.170871
_symmetry_space_group_name_H-M "P M M A"
_symmetry_group_IT_number 51
_symmetry_cell_setting 'orthorhombic'
loop_
_space_group_symop_operation_xyz
x,y,z
1/2-x,-y,z
1/2+x,-y,-z
-x,y,-z
-x,-y,-z
1/2+x,y,-z
1/2-x,y,z
x,-y,z
loop_
_atom_site_type_symbol
_atom_site_label
_atom_site_fract_x
_atom_site_fract_y
_atom_site_fract_z
Si Si1 0.569628 0.250000 0.359278
Si Si2 0.926246 0.608895 0.558352
Si Si3 0.073754 0.891105 0.441648
Si Si4 0.573308 0.250000 0.060498
Si Si5 0.930010 0.750001 0.763389
Si Si6 0.070622 0.392576 0.846154
Si Si7 0.070621 0.107424 0.846155
O O1 0.750000 0.250000 0.358588
O O2 0.509964 0.342118 0.390133
O O3 0.509964 0.157882 0.390133
O O4 0.508208 0.250000 0.296619
O O5 0.750000 0.637346 0.557594
O O6 0.950571 0.500000 0.567280
O O7 0.000000 0.642916 0.500000
O O8 0.250000 0.862654 0.442406
O O9 0.000000 0.857084 0.500000
O O10 0.049429 0.000000 0.432720
O O11 0.750000 0.249997 0.049375
O O12 0.524933 0.342255 0.095334
O O13 0.524928 0.157747 0.095335
O O14 0.500000 0.250001 0.000000
O O15 0.750000 0.750001 0.756243
O O16 0.981228 0.656438 0.795501
O O17 0.981231 0.843563 0.795500
O O18 0.250000 0.381221 0.834602
O O19 0.020788 0.500000 0.849927
O O20 0.250000 0.118780 0.834604
O O21 0.020788 0.000000 0.849928
#
# Coordination Sequence:
#
# PCOD8213883 Si02
#       7
#     8   8   8   8   8   8   8
#     4  12  24  38  58  81 109 146 185 224 270 327
#     4  10  21  38  59  83 112 144 180 224 273 326
#     4  10  21  38  59  83 112 144 180 224 273 326
#     4   9  18  32  52  82 116 147 181 222 267 316
#     4  11  23  38  56  81 111 139 177 230 279 325
#     4   9  19  38  60  79 106 147 188 224 268 323
#     4   9  19  38  60  79 106 147 188 224 268 323
#
# _framework density 18.746835000000001
#
# number of rings (size 3 to 8) (size 9 to 14) (size 15 to 20)
#    0.000    2.000    0.000    4.714    0.000    6.286 
#    0.000    0.000    0.000    0.000    0.000    0.000 
#    0.000    0.000    0.000    0.000    0.000    0.000 
#
# Total GULP energy -694540.935095 kJ/mol
# GULP energy per Si atom -12402.516698 kJ/mol
# Density = 1.870417 g / cm^3
# Si number density = 18.746835 Si / 1000 Ang^3
#
#
#
# Elastic Constant Matrix: (Units=GPa)
#
#
# Indices 1 2 3 4 5 6 
#
# 1 129.4499 56.4221 79.1532 0.0000 0.0000 0.0000
# 2 56.4221 139.6219 66.3036 0.0000 0.0000 0.0000
# 3 79.1532 66.3036 166.9868 0.0000 0.0000 0.0000
# 4 0.0000 0.0000 0.0000 -4.8640 0.0000 0.0000
# 5 0.0000 0.0000 0.0000 0.0000 39.8716 0.0000
# 6 0.0000 0.0000 0.0000 0.0000 0.0000 -25.1753
#
#
#
# Elastic Compliance Matrix: (Units=1/GPa)
#
#
# Indices 1 2 3 4 5 6 
#
# 1 0.011572 -0.002553 -0.004472 0.000000 0.000000 0.000000
# 2 -0.002553 0.009390 -0.002518 0.000000 0.000000 0.000000
# 3 -0.004472 -0.002518 0.009108 0.000000 0.000000 0.000000
# 4 0.000000 0.000000 0.000000 -0.205592 0.000000 0.000000
# 5 0.000000 0.000000 0.000000 0.000000 0.025081 0.000000
# 6 0.000000 0.000000 0.000000 0.000000 0.000000 -0.039722
#
#
# Mechanical properties :
#
#
# Convention : Reuss Voigt Hill
#
# Bulk Modulus (GPa) = 91.03884 93.31293 92.17588
# Shear Modulus (GPa) = -29.86554 17.57844 -6.14355
#
# Velocity S-wave (km/s) = -3.99569 3.06547 -1.81224
# Velocity P-wave (km/s) = 5.23261 7.90018 6.70049
#
# Compressibility (1/GPa) = 0.01098432
#
# Stress axis : x y z
#
# Youngs Moduli (GPa) = 86.41691 106.50027 109.79470
#
# Poissons Ratio (x) = 0.27187 0.49095
# Poissons Ratio (y) = 0.22061 0.27648
# Poissons Ratio (z) = 0.38641 0.26819
#
# Static dielectric constant tensor:
#      x y z
#    x 3.475360 0.000000 0.000000 
#    y 0.000000 3.201260 0.000000 
#    z 0.000000 0.000000 3.327170 
# 
# 
# High freq. dielectric constant tensor:
#      x y z
#    x 1.733520 0.000000 0.000000 
#    y 0.000000 1.738170 0.000000 
#    z 0.000000 0.000000 1.730080 
# 
# From -- ./inp_files/31932.got.cif
#   From: 2010.03.12/outbox.cif.g09.slc.cpg/sg51_16_cif.got.tgz:31932.got - 2010.04.16 13:43:02.
