data_PCOD8213273
_publ_section_title
;
Structure prediction by ZEFSAII (Michael W. Deem and Ramdas Pophale) SiO2 
 PCOD8213273
Probable space group: P M M A
;
_chemical_formula_sum "Si O2"
_cell_formula_units_Z 64
_cell_length_a 8.967852
_cell_length_b 20.020258
_cell_length_c 18.607631
_cell_angle_alpha 90.000000
_cell_angle_beta 90.000000
_cell_angle_gamma 90.000000
_cell_volume 3340.790080
_symmetry_space_group_name_H-M "P M M A"
_symmetry_group_IT_number 51
_symmetry_cell_setting 'orthorhombic'
loop_
_space_group_symop_operation_xyz
x,y,z
1/2-x,-y,z
1/2+x,-y,-z
-x,y,-z
-x,-y,-z
1/2+x,y,-z
1/2-x,y,z
x,-y,z
loop_
_atom_site_type_symbol
_atom_site_label
_atom_site_fract_x
_atom_site_fract_y
_atom_site_fract_z
Si Si1 0.425862 0.575302 0.821889
Si Si2 0.923888 0.077830 0.574461
Si Si3 0.425811 0.303659 0.423081
Si Si4 0.574404 0.308548 0.076533
Si Si5 0.424382 0.076889 0.073000
Si Si6 0.076742 0.575243 0.324884
Si Si7 0.922732 0.819132 0.167840
Si Si8 0.425002 0.186426 0.665032
O O1 0.250000 0.580552 0.813924
O O2 0.477857 0.500000 0.840673
O O3 0.483072 0.623856 0.884891
O O4 0.491765 0.599180 0.746207
O O5 0.750000 0.096474 0.570606
O O6 0.000000 0.099590 0.500000
O O7 0.004424 0.117083 0.638304
O O8 0.948621 0.000000 0.590041
O O9 0.500000 0.298590 0.500000
O O10 0.250000 0.292116 0.430207
O O11 0.464855 0.376099 0.390294
O O12 0.493489 0.247617 0.372350
O O13 0.750000 0.310536 0.065583
O O14 0.525195 0.246491 0.125380
O O15 0.500000 0.301709 0.000000
O O16 0.250000 0.087837 0.064533
O O17 0.483410 0.117796 0.140865
O O18 0.466469 0.000000 0.086625
O O19 0.500000 0.103583 0.000000
O O20 0.250000 0.579015 0.306491
O O21 0.028837 0.500000 0.346913
O O22 0.750000 0.834743 0.154463
O O23 0.957161 0.807394 0.250899
O O24 0.250000 0.187942 0.647375
#
# Coordination Sequence:
#
# PCOD8213273 Si02
#       8
#     8   8   8   8   8   8   8   8
#     4   9  18  34  56  80 108 143 180 219 265 319
#     4  10  21  38  60  85 114 147 183 224 271 325
#     4  11  23  38  57  81 111 146 184 227 275 327
#     4  10  21  36  53  77 108 140 179 223 267 316
#     4  10  21  37  58  83 111 143 179 221 268 320
#     4   9  19  36  57  82 111 142 179 224 272 323
#     4  10  22  38  56  79 108 143 181 224 271 322
#     4  11  23  39  59  82 111 146 185 229 276 327
#
# _framework density 19.157146000000001
#
# number of rings (size 3 to 8) (size 9 to 14) (size 15 to 20)
#    0.000    2.000    0.000    3.000    0.000    7.500 
#    0.000    2.500    0.000    0.000    0.000    0.000 
#    0.000    0.000    0.000    0.000    0.000    0.000 
#
# Total GULP energy -793879.310856 kJ/mol
# GULP energy per Si atom -12404.364232 kJ/mol
# Density = 1.911354 g / cm^3
# Si number density = 19.157146 Si / 1000 Ang^3
#
#
#
# Elastic Constant Matrix: (Units=GPa)
#
#
# Indices 1 2 3 4 5 6 
#
# 1 81.4344 55.8606 63.8600 0.0000 0.0000 0.0000
# 2 55.8606 113.9593 78.8638 0.0000 0.0000 0.0000
# 3 63.8600 78.8638 141.9004 0.0000 0.0000 0.0000
# 4 0.0000 0.0000 0.0000 38.9404 0.0000 0.0000
# 5 0.0000 0.0000 0.0000 0.0000 35.5811 0.0000
# 6 0.0000 0.0000 0.0000 0.0000 0.0000 25.9188
#
#
#
# Elastic Compliance Matrix: (Units=1/GPa)
#
#
# Indices 1 2 3 4 5 6 
#
# 1 0.021377 -0.006209 -0.006170 0.000000 0.000000 0.000000
# 2 -0.006209 0.016063 -0.006133 0.000000 0.000000 0.000000
# 3 -0.006170 -0.006133 0.013232 0.000000 0.000000 0.000000
# 4 0.000000 0.000000 0.000000 0.025680 0.000000 0.000000
# 5 0.000000 0.000000 0.000000 0.000000 0.028105 0.000000
# 6 0.000000 0.000000 0.000000 0.000000 0.000000 0.038582
#
#
# Mechanical properties :
#
#
# Convention : Reuss Voigt Hill
#
# Bulk Modulus (GPa) = 73.26570 81.60699 77.43634
# Shear Modulus (GPa) = 27.08380 29.33538 28.20959
#
# Velocity S-wave (km/s) = 3.76409 3.91743 3.84153
# Velocity P-wave (km/s) = 7.56431 7.94688 7.75795
#
# Compressibility (1/GPa) = 0.01364895
#
# Stress axis : x y z
#
# Youngs Moduli (GPa) = 46.77896 62.25562 75.57299
#
# Poissons Ratio (x) = 0.38655 0.46626
# Poissons Ratio (y) = 0.29045 0.46348
# Poissons Ratio (z) = 0.28861 0.38181
#
# Static dielectric constant tensor:
#      x y z
#    x 3.542620 0.000000 0.000000 
#    y 0.000000 3.763680 0.000000 
#    z 0.000000 0.000000 3.486340 
# 
# 
# High freq. dielectric constant tensor:
#      x y z
#    x 1.747960 0.000000 0.000000 
#    y 0.000000 1.758290 0.000000 
#    z 0.000000 0.000000 1.746070 
# 
# From -- ./inp_files/32312.got.cif
#   From: 2010.03.12/outbox.cif.g09.slc.cpg/sg51_17_cif.got.tgz:32312.got - 2010.04.16 13:43:02.
