data_PCOD8213155
_publ_section_title
;
Structure prediction by ZEFSAII (Michael W. Deem and Ramdas Pophale) SiO2 
 PCOD8213155
Probable space group: P M M A
;
_chemical_formula_sum "Si O2"
_cell_formula_units_Z 40
_cell_length_a 29.744853
_cell_length_b 8.496435
_cell_length_c 7.659245
_cell_angle_alpha 90.000000
_cell_angle_beta 90.000000
_cell_angle_gamma 90.000000
_cell_volume 1935.684302
_symmetry_space_group_name_H-M "P M M A"
_symmetry_group_IT_number 51
_symmetry_cell_setting 'orthorhombic'
loop_
_space_group_symop_operation_xyz
x,y,z
1/2-x,-y,z
1/2+x,-y,-z
-x,y,-z
-x,-y,-z
1/2+x,y,-z
1/2-x,y,z
x,-y,z
loop_
_atom_site_type_symbol
_atom_site_label
_atom_site_fract_x
_atom_site_fract_y
_atom_site_fract_z
Si Si1 0.951818 0.680387 0.951464
Si Si2 0.860222 0.183027 0.938911
Si Si3 0.198262 0.316418 0.759777
Si Si4 0.046365 0.818269 0.410673
Si Si5 0.864566 0.315372 0.554995
O O1 0.950620 0.500000 0.013461
O O2 0.908084 0.767955 0.029270
O O3 0.947820 0.695827 0.745241
O O4 0.000000 0.759140 0.000000
O O5 0.851499 0.268242 0.753346
O O6 0.861003 0.000000 0.898458
O O7 0.821372 0.223642 0.074949
O O8 0.250000 0.269061 0.741570
O O9 0.191626 0.500000 0.798172
O O10 0.175248 0.267831 0.576970
O O11 0.091348 0.778934 0.520354
O O12 0.000000 0.772823 0.500000
O O13 0.045890 0.000000 0.350238
O O14 0.874001 0.500000 0.548081
#
# Coordination Sequence:
#
# PCOD8213155 Si02
#       5
#     8   8   8   8   8
#     4  10  21  36  56  83 114 154 202 244 289 347
#     4  11  23  39  61  89 125 161 196 245 305 363
#     4  10  23  43  66  91 118 155 204 252 301 357
#     4  10  21  35  53  82 118 156 194 236 297 358
#     4  10  21  39  63  88 118 158 204 251 299 352
#
# _framework density 20.664525999999999
#
# number of rings (size 3 to 8) (size 9 to 14) (size 15 to 20)
#    0.000    1.800    0.000    6.000    2.800    6.000 
#    0.000    2.000    0.000    0.000    0.000    0.000 
#    0.000    0.000    0.000    0.000    0.000    0.000 
#
# Total GULP energy -495789.466794 kJ/mol
# GULP energy per Si atom -12394.736670 kJ/mol
# Density = 2.061749 g / cm^3
# Si number density = 20.664526 Si / 1000 Ang^3
#
#
#
# Elastic Constant Matrix: (Units=GPa)
#
#
# Indices 1 2 3 4 5 6 
#
# 1 174.0665 35.4039 61.3611 0.0000 0.0000 0.0000
# 2 35.4039 63.6354 22.5894 0.0000 0.0000 0.0000
# 3 61.3611 22.5894 83.2659 0.0000 0.0000 0.0000
# 4 0.0000 0.0000 0.0000 13.4698 0.0000 0.0000
# 5 0.0000 0.0000 0.0000 0.0000 39.3963 0.0000
# 6 0.0000 0.0000 0.0000 0.0000 0.0000 23.1378
#
#
#
# Elastic Compliance Matrix: (Units=1/GPa)
#
#
# Indices 1 2 3 4 5 6 
#
# 1 0.008148 -0.002658 -0.005283 0.000000 0.000000 0.000000
# 2 -0.002658 0.018256 -0.002994 0.000000 0.000000 0.000000
# 3 -0.005283 -0.002994 0.016716 0.000000 0.000000 0.000000
# 4 0.000000 0.000000 0.000000 0.074240 0.000000 0.000000
# 5 0.000000 0.000000 0.000000 0.000000 0.025383 0.000000
# 6 0.000000 0.000000 0.000000 0.000000 0.000000 0.043219
#
#
# Mechanical properties :
#
#
# Convention : Reuss Voigt Hill
#
# Bulk Modulus (GPa) = 47.06132 62.18629 54.62381
# Shear Modulus (GPa) = 23.26492 28.64168 25.95330
#
# Velocity S-wave (km/s) = 3.35899 3.72698 3.54776
# Velocity P-wave (km/s) = 6.15363 6.97704 6.57823
#
# Compressibility (1/GPa) = 0.02124887
#
# Stress axis : x y z
#
# Youngs Moduli (GPa) = 122.72975 54.77647 59.82442
#
# Poissons Ratio (x) = 0.14558 0.31608
# Poissons Ratio (y) = 0.32617 0.17913
# Poissons Ratio (z) = 0.64844 0.16401
#
# Static dielectric constant tensor:
#      x y z
#    x 4.302660 0.000000 0.000000 
#    y 0.000000 3.604470 0.000000 
#    z 0.000000 0.000000 3.568800 
# 
# 
# High freq. dielectric constant tensor:
#      x y z
#    x 1.821170 0.000000 0.000000 
#    y 0.000000 1.806390 0.000000 
#    z 0.000000 0.000000 1.794780 
# 
# From -- ./inp_files/12115.got.cif
#   From: 2010.03.12/outbox.cif.g09.slc.cpg/sg51_7_cif.got.tgz:12115.got - 2010.04.16 13:43:02.
