data_PCOD8213157
_publ_section_title
;
Structure prediction by ZEFSAII (Michael W. Deem and Ramdas Pophale) SiO2 
 PCOD8213157
Probable space group: P M M A
;
_chemical_formula_sum "Si O2"
_cell_formula_units_Z 40
_cell_length_a 29.746968
_cell_length_b 8.556675
_cell_length_c 7.690616
_cell_angle_alpha 90.000000
_cell_angle_beta 90.000000
_cell_angle_gamma 90.000000
_cell_volume 1957.532000
_symmetry_space_group_name_H-M "P M M A"
_symmetry_group_IT_number 51
_symmetry_cell_setting 'orthorhombic'
loop_
_space_group_symop_operation_xyz
x,y,z
1/2-x,-y,z
1/2+x,-y,-z
-x,y,-z
-x,-y,-z
1/2+x,y,-z
1/2-x,y,z
x,-y,z
loop_
_atom_site_type_symbol
_atom_site_label
_atom_site_fract_x
_atom_site_fract_y
_atom_site_fract_z
Si Si1 0.636066 0.682838 0.035794
Si Si2 0.356348 0.314577 0.563384
Si Si3 0.047581 0.177659 0.912229
Si Si4 0.697831 0.818434 0.745291
Si Si5 0.453871 0.678371 0.558005
O O1 0.626118 0.500000 0.026252
O O2 0.649952 0.732883 0.233378
O O3 0.591080 0.776676 0.971738
O O4 0.675407 0.723793 0.902378
O O5 0.351659 0.500000 0.543221
O O6 0.319665 0.230301 0.445322
O O7 0.405692 0.257811 0.489809
O O8 0.049062 0.307132 0.763620
O O9 0.052377 0.000000 0.844000
O O10 0.000000 0.200758 0.000000
O O11 0.750000 0.776743 0.750002
O O12 0.688630 0.000000 0.774662
O O13 0.500000 0.768645 0.500000
O O14 0.457967 0.500000 0.499234
#
# Coordination Sequence:
#
# PCOD8213157 Si02
#       5
#     8   8   8   8   8
#     4  10  22  41  64  88 118 158 203 251 300 352
#     4   9  20  39  61  88 119 155 199 247 297 350
#     4  10  21  35  53  84 120 155 195 238 293 355
#     4  11  25  42  62  90 122 158 198 245 306 365
#     4   9  19  35  55  83 116 154 198 240 290 349
#
# _framework density 20.433893999999999
#
# number of rings (size 3 to 8) (size 9 to 14) (size 15 to 20)
#    0.000    2.200    0.000    3.000    2.800    8.400 
#    0.000    4.000    0.000    0.000    0.000    0.000 
#    0.000    0.000    0.000    0.000    0.000    0.000 
#
# Total GULP energy -495599.277537 kJ/mol
# GULP energy per Si atom -12389.981938 kJ/mol
# Density = 2.038739 g / cm^3
# Si number density = 20.433894 Si / 1000 Ang^3
#
#
#
# Elastic Constant Matrix: (Units=GPa)
#
#
# Indices 1 2 3 4 5 6 
#
# 1 152.0700 45.8632 61.5117 0.0000 0.0000 0.0000
# 2 45.8632 40.4727 25.0323 0.0000 0.0000 0.0000
# 3 61.5117 25.0323 87.3189 0.0000 0.0000 0.0000
# 4 0.0000 0.0000 0.0000 19.4642 0.0000 0.0000
# 5 0.0000 0.0000 0.0000 0.0000 33.2435 0.0000
# 6 0.0000 0.0000 0.0000 0.0000 0.0000 28.1707
#
#
#
# Elastic Compliance Matrix: (Units=1/GPa)
#
#
# Indices 1 2 3 4 5 6 
#
# 1 0.011792 -0.009997 -0.005441 0.000000 0.000000 0.000000
# 2 -0.009997 0.038509 -0.003997 0.000000 0.000000 0.000000
# 3 -0.005441 -0.003997 0.016431 0.000000 0.000000 0.000000
# 4 0.000000 0.000000 0.000000 0.051376 0.000000 0.000000
# 5 0.000000 0.000000 0.000000 0.000000 0.030081 0.000000
# 6 0.000000 0.000000 0.000000 0.000000 0.000000 0.035498
#
#
# Mechanical properties :
#
#
# Convention : Reuss Voigt Hill
#
# Bulk Modulus (GPa) = 35.89183 60.51956 48.20570
# Shear Modulus (GPa) = 21.56622 26.00597 23.78609
#
# Velocity S-wave (km/s) = 3.25224 3.57135 3.41552
# Velocity P-wave (km/s) = 5.63078 6.83283 6.26072
#
# Compressibility (1/GPa) = 0.02786149
#
# Stress axis : x y z
#
# Youngs Moduli (GPa) = 84.80501 25.96799 60.86109
#
# Poissons Ratio (x) = 0.25961 0.33113
# Poissons Ratio (y) = 0.84781 0.24327
# Poissons Ratio (z) = 0.46140 0.10380
#
# Static dielectric constant tensor:
#      x y z
#    x 4.127700 0.000000 0.000000 
#    y 0.000000 3.589300 0.000000 
#    z 0.000000 0.000000 3.663910 
# 
# 
# High freq. dielectric constant tensor:
#      x y z
#    x 1.814680 0.000000 0.000000 
#    y 0.000000 1.789030 0.000000 
#    z 0.000000 0.000000 1.784460 
# 
# From -- ./inp_files/12124.got.cif
#   From: 2010.03.12/outbox.cif.g09.slc.cpg/sg51_7_cif.got.tgz:12124.got - 2010.04.16 13:43:02.
