data_PCOD8213472
_publ_section_title
;
Structure prediction by ZEFSAII (Michael W. Deem and Ramdas Pophale) SiO2 
 PCOD8213472
Probable space group: P M M A
;
_chemical_formula_sum "Si O2"
_cell_formula_units_Z 48
_cell_length_a 17.725668
_cell_length_b 15.184569
_cell_length_c 9.441459
_cell_angle_alpha 90.000000
_cell_angle_beta 90.000000
_cell_angle_gamma 90.000000
_cell_volume 2541.231276
_symmetry_space_group_name_H-M "P M M A"
_symmetry_group_IT_number 51
_symmetry_cell_setting 'orthorhombic'
loop_
_space_group_symop_operation_xyz
x,y,z
1/2-x,-y,z
1/2+x,-y,-z
-x,y,-z
-x,-y,-z
1/2+x,y,-z
1/2-x,y,z
x,-y,z
loop_
_atom_site_type_symbol
_atom_site_label
_atom_site_fract_x
_atom_site_fract_y
_atom_site_fract_z
Si Si1 0.162015 0.347668 0.305055
Si Si2 0.589158 0.654106 0.993838
Si Si3 0.659946 0.500000 0.171301
Si Si4 0.836058 0.147307 0.682235
Si Si5 0.911805 0.000000 0.504104
Si Si6 0.339198 0.500000 0.509079
Si Si7 0.161928 0.162490 0.994764
Si Si8 0.661395 0.000000 0.199412
O O1 0.250000 0.362281 0.269178
O O2 0.147853 0.248530 0.358041
O O3 0.132582 0.412860 0.427058
O O4 0.115828 0.368295 0.163979
O O5 0.628071 0.587159 0.100256
O O6 0.613171 0.751799 0.041930
O O7 0.500000 0.643930 0.000000
O O8 0.750000 0.500000 0.162253
O O9 0.629173 0.500000 0.332364
O O10 0.750000 0.121620 0.650586
O O11 0.887448 0.087710 0.584566
O O12 0.855230 0.129665 0.846407
O O13 0.000000 0.000000 0.500000
O O14 0.880819 0.000000 0.346450
O O15 0.250000 0.500000 0.514593
O O16 0.250000 0.187154 0.981077
O O17 0.137185 0.086187 0.887882
O O18 0.750000 0.000000 0.227347
#
# Coordination Sequence:
#
# PCOD8213472 Si02
#       8
#     8   8   4   8   4   4   8   4
#     4   9  18  36  60  81 103 141 188 228 266 320
#     4  11  22  36  56  85 116 146 180 223 278 335
#     4  11  22  37  57  82 111 145 186 233 278 320
#     4   9  18  36  60  79 101 140 188 228 266 322
#     4  12  25  36  50  78 116 152 183 220 278 336
#     4   9  19  35  58  84 106 135 182 231 270 310
#     4   9  19  38  63  86 105 137 186 235 277 322
#     4  10  21  36  57  84 111 140 181 232 282 326
#
# _framework density 18.888480999999999
#
# number of rings (size 3 to 8) (size 9 to 14) (size 15 to 20)
#    0.000    2.167    0.000    4.500    0.000    6.000 
#    0.000    6.250    0.000    0.000    0.000    0.000 
#    0.000    0.000    0.000    0.000    0.000    0.000 
#
# Total GULP energy -595328.726275 kJ/mol
# GULP energy per Si atom -12402.681797 kJ/mol
# Density = 1.884549 g / cm^3
# Si number density = 18.888481 Si / 1000 Ang^3
#
#
#
# Elastic Constant Matrix: (Units=GPa)
#
#
# Indices 1 2 3 4 5 6 
#
# 1 101.4835 65.9294 69.7408 0.0000 0.0000 0.0000
# 2 65.9294 146.7535 106.1749 0.0000 0.0000 0.0000
# 3 69.7408 106.1749 152.5276 0.0000 0.0000 0.0000
# 4 0.0000 0.0000 0.0000 13.5868 0.0000 0.0000
# 5 0.0000 0.0000 0.0000 0.0000 2.2519 0.0000
# 6 0.0000 0.0000 0.0000 0.0000 0.0000 1.3153
#
#
#
# Elastic Compliance Matrix: (Units=1/GPa)
#
#
# Indices 1 2 3 4 5 6 
#
# 1 0.015279 -0.003646 -0.004448 0.000000 0.000000 0.000000
# 2 -0.003646 0.014598 -0.008495 0.000000 0.000000 0.000000
# 3 -0.004448 -0.008495 0.014503 0.000000 0.000000 0.000000
# 4 0.000000 0.000000 0.000000 0.073601 0.000000 0.000000
# 5 0.000000 0.000000 0.000000 0.000000 0.444062 0.000000
# 6 0.000000 0.000000 0.000000 0.000000 0.000000 0.760266
#
#
# Mechanical properties :
#
#
# Convention : Reuss Voigt Hill
#
# Bulk Modulus (GPa) = 89.26352 98.27275 93.76813
# Shear Modulus (GPa) = 3.67858 14.02545 8.85201
#
# Velocity S-wave (km/s) = 1.39705 2.72791 2.16717
# Velocity P-wave (km/s) = 7.06846 7.87800 7.48418
#
# Compressibility (1/GPa) = 0.01120279
#
# Stress axis : x y z
#
# Youngs Moduli (GPa) = 65.44766 68.50324 68.95059
#
# Poissons Ratio (x) = 0.24977 0.30671
# Poissons Ratio (y) = 0.23862 0.58570
# Poissons Ratio (z) = 0.29113 0.58190
#
# Static dielectric constant tensor:
#      x y z
#    x 3.260230 0.000000 0.000000 
#    y 0.000000 3.743520 0.000000 
#    z 0.000000 0.000000 3.539090 
# 
# 
# High freq. dielectric constant tensor:
#      x y z
#    x 1.715350 0.000000 0.000000 
#    y 0.000000 1.750210 0.000000 
#    z 0.000000 0.000000 1.735510 
# 
# From -- ./inp_files/9764.got.cif
#   From: 2010.03.12/outbox.cif.g09.slc.cpg/sg51_5_cif.got.tgz:9764.got - 2010.04.16 13:43:02.
