data_PCOD8213363
_publ_section_title
;
Structure prediction by ZEFSAII (Michael W. Deem and Ramdas Pophale) SiO2 
 PCOD8213363
Probable space group: P M M A
;
_chemical_formula_sum "Si O2"
_cell_formula_units_Z 28
_cell_length_a 8.815540
_cell_length_b 7.662193
_cell_length_c 19.729829
_cell_angle_alpha 90.000000
_cell_angle_beta 90.000000
_cell_angle_gamma 90.000000
_cell_volume 1332.678308
_symmetry_space_group_name_H-M "P M M A"
_symmetry_group_IT_number 51
_symmetry_cell_setting 'orthorhombic'
loop_
_space_group_symop_operation_xyz
x,y,z
1/2-x,-y,z
1/2+x,-y,-z
-x,y,-z
-x,-y,-z
1/2+x,y,-z
1/2-x,y,z
x,-y,z
loop_
_atom_site_type_symbol
_atom_site_label
_atom_site_fract_x
_atom_site_fract_y
_atom_site_fract_z
Si Si1 0.927956 0.702473 0.837418
Si Si2 0.921348 0.704153 0.302080
Si Si3 0.430022 0.000000 0.926228
Si Si4 0.084423 0.199551 0.436134
O O1 0.750000 0.735472 0.845194
O O2 0.970235 0.500000 0.851747
O O3 0.977235 0.758045 0.762040
O O4 0.016395 0.823485 0.889756
O O5 0.750000 0.769347 0.289218
O O6 0.927018 0.500000 0.314528
O O7 0.985845 0.793775 0.368541
O O8 0.250000 0.000000 0.930518
O O9 0.500000 0.000000 0.000000
O O10 0.250000 0.288957 0.425394
O O11 0.000000 0.291640 0.500000
O O12 0.110429 0.000000 0.455394
#
# Coordination Sequence:
#
# PCOD8213363 Si02
#       4
#     8   8   4   8
#     4  10  22  42  67  95 129 167 209 259 311 367
#     4  10  21  37  58  85 116 153 198 245 298 361
#     4  12  26  44  68  98 131 168 209 254 304 370
#     4  10  21  36  54  78 110 150 196 248 303 361
#
# _framework density 21.010321000000001
#
# number of rings (size 3 to 8) (size 9 to 14) (size 15 to 20)
#    0.000    1.714    0.000    3.857    2.000    6.286 
#    0.000    0.000    0.000    0.000    0.000    0.000 
#    0.000    0.000    0.000    0.000    0.000    0.000 
#
# Total GULP energy -347223.522770 kJ/mol
# GULP energy per Si atom -12400.840099 kJ/mol
# Density = 2.096250 g / cm^3
# Si number density = 21.010321 Si / 1000 Ang^3
#
#
#
# Elastic Constant Matrix: (Units=GPa)
#
#
# Indices 1 2 3 4 5 6 
#
# 1 161.1662 48.5350 66.5674 0.0000 0.0000 0.0000
# 2 48.5350 68.5045 55.6836 0.0000 0.0000 0.0000
# 3 66.5674 55.6836 165.9773 0.0000 0.0000 0.0000
# 4 0.0000 0.0000 0.0000 86.7393 0.0000 0.0000
# 5 0.0000 0.0000 0.0000 0.0000 45.2627 0.0000
# 6 0.0000 0.0000 0.0000 0.0000 0.0000 24.1149
#
#
#
# Elastic Compliance Matrix: (Units=1/GPa)
#
#
# Indices 1 2 3 4 5 6 
#
# 1 0.008286 -0.004358 -0.001861 0.000000 0.000000 0.000000
# 2 -0.004358 0.022363 -0.005755 0.000000 0.000000 0.000000
# 3 -0.001861 -0.005755 0.008702 0.000000 0.000000 0.000000
# 4 0.000000 0.000000 0.000000 0.011529 0.000000 0.000000
# 5 0.000000 0.000000 0.000000 0.000000 0.022093 0.000000
# 6 0.000000 0.000000 0.000000 0.000000 0.000000 0.041468
#
#
# Mechanical properties :
#
#
# Convention : Reuss Voigt Hill
#
# Bulk Modulus (GPa) = 64.92078 81.91333 73.41705
# Shear Modulus (GPa) = 34.83784 46.21419 40.52602
#
# Velocity S-wave (km/s) = 4.07643 4.69507 4.39665
# Velocity P-wave (km/s) = 7.28855 8.27426 7.79700
#
# Compressibility (1/GPa) = 0.01540339
#
# Stress axis : x y z
#
# Youngs Moduli (GPa) = 120.68848 44.71753 114.91557
#
# Poissons Ratio (x) = 0.19486 0.21388
# Poissons Ratio (y) = 0.52591 0.66131
# Poissons Ratio (z) = 0.22463 0.25734
#
# Static dielectric constant tensor:
#      x y z
#    x 3.807450 0.000000 0.000000 
#    y 0.000000 3.730110 0.000000 
#    z 0.000000 0.000000 4.379140 
# 
# 
# High freq. dielectric constant tensor:
#      x y z
#    x 1.843690 0.000000 0.000000 
#    y 0.000000 1.815730 0.000000 
#    z 0.000000 0.000000 1.824670 
# 
# From -- ./inp_files/26881.got.cif
#   From: 2010.03.12/outbox.cif.g09.slc.cpg/sg51_14_cif.got.tgz:26881.got - 2010.04.16 13:43:02.
