data_PCOD8213282
_publ_section_title
;
Structure prediction by ZEFSAII (Michael W. Deem and Ramdas Pophale) SiO2 
 PCOD8213282
Probable space group: P M M A
;
_chemical_formula_sum "Si O2"
_cell_formula_units_Z 64
_cell_length_a 17.584647
_cell_length_b 16.012751
_cell_length_c 11.941788
_cell_angle_alpha 90.000000
_cell_angle_beta 90.000000
_cell_angle_gamma 90.000000
_cell_volume 3362.551634
_symmetry_space_group_name_H-M "P M M A"
_symmetry_group_IT_number 51
_symmetry_cell_setting 'orthorhombic'
loop_
_space_group_symop_operation_xyz
x,y,z
1/2-x,-y,z
1/2+x,-y,-z
-x,y,-z
-x,-y,-z
1/2+x,y,-z
1/2-x,y,z
x,-y,z
loop_
_atom_site_type_symbol
_atom_site_label
_atom_site_fract_x
_atom_site_fract_y
_atom_site_fract_z
Si Si1 0.561032 0.319871 0.666492
Si Si2 0.549208 0.821272 0.408104
Si Si3 0.339596 0.693629 0.532748
Si Si4 0.115188 0.096334 0.054429
Si Si5 0.662249 0.404595 0.043016
Si Si6 0.665587 0.265775 0.861659
Si Si7 0.958743 0.093477 0.174966
Si Si8 0.915498 0.594457 0.273047
O O1 0.503854 0.258782 0.605066
O O2 0.621186 0.353070 0.573767
O O3 0.606162 0.270294 0.761707
O O4 0.506798 0.392542 0.715346
O O5 0.500000 0.876884 0.500000
O O6 0.630133 0.790061 0.458491
O O7 0.564011 0.858144 0.286311
O O8 0.250000 0.694436 0.514883
O O9 0.362127 0.648169 0.646634
O O10 0.171407 0.170721 0.090068
O O11 0.038667 0.118569 0.121207
O O12 0.142373 0.000000 0.081396
O O13 0.104694 0.104908 0.920777
O O14 0.750000 0.394468 0.079262
O O15 0.647788 0.500000 0.999590
O O16 0.608030 0.383426 0.146819
O O17 0.640088 0.335927 0.950721
O O18 0.750000 0.287775 0.818128
O O19 0.962827 0.000000 0.216989
O O20 0.896044 0.500000 0.301981
#
# Coordination Sequence:
#
# PCOD8213282 Si02
#       8
#     8   8   8   8   8   8   8   8
#     4  10  21  36  53  79 109 137 186 235 267 324
#     4   9  18  33  53  79 107 140 180 226 271 325
#     4  10  21  36  55  78 109 144 178 225 281 332
#     4   9  19  33  53  82 115 146 186 237 280 333
#     4   9  20  37  54  81 117 146 182 228 276 340
#     4  11  22  35  57  80 109 157 193 224 287 342
#     4   9  17  32  54  80 108 141 182 230 281 324
#     4  10  21  37  58  82 108 141 182 229 281 334
#
# _framework density 19.033165
#
# number of rings (size 3 to 8) (size 9 to 14) (size 15 to 20)
#    0.000    2.375    1.250    2.625    3.500    3.250 
#    0.000    1.250    0.000    3.375    0.000    0.000 
#    0.000    0.000    0.000    0.000    0.000    0.000 
#
# Total GULP energy -792905.745181 kJ/mol
# GULP energy per Si atom -12389.152268 kJ/mol
# Density = 1.898984 g / cm^3
# Si number density = 19.033165 Si / 1000 Ang^3
#
#
#
# Elastic Constant Matrix: (Units=GPa)
#
#
# Indices 1 2 3 4 5 6 
#
# 1 92.4882 15.1815 29.9697 0.0000 0.0000 0.0000
# 2 15.1815 65.8105 28.6754 0.0000 0.0000 0.0000
# 3 29.9697 28.6754 84.6359 0.0000 0.0000 0.0000
# 4 0.0000 0.0000 0.0000 15.5619 0.0000 0.0000
# 5 0.0000 0.0000 0.0000 0.0000 25.9555 0.0000
# 6 0.0000 0.0000 0.0000 0.0000 0.0000 22.1135
#
#
#
# Elastic Compliance Matrix: (Units=1/GPa)
#
#
# Indices 1 2 3 4 5 6 
#
# 1 0.012281 -0.001101 -0.003976 0.000000 0.000000 0.000000
# 2 -0.001101 0.017926 -0.005684 0.000000 0.000000 0.000000
# 3 -0.003976 -0.005684 0.015149 0.000000 0.000000 0.000000
# 4 0.000000 0.000000 0.000000 0.064259 0.000000 0.000000
# 5 0.000000 0.000000 0.000000 0.000000 0.038527 0.000000
# 6 0.000000 0.000000 0.000000 0.000000 0.000000 0.045221
#
#
# Mechanical properties :
#
#
# Convention : Reuss Voigt Hill
#
# Bulk Modulus (GPa) = 41.95462 43.39866 42.67664
# Shear Modulus (GPa) = 22.43873 24.00006 23.21940
#
# Velocity S-wave (km/s) = 3.43728 3.55485 3.49656
# Velocity P-wave (km/s) = 6.15174 6.30083 6.22673
#
# Compressibility (1/GPa) = 0.02383528
#
# Stress axis : x y z
#
# Youngs Moduli (GPa) = 81.42532 55.78632 66.01175
#
# Poissons Ratio (x) = 0.06140 0.26245
# Poissons Ratio (y) = 0.08962 0.37518
# Poissons Ratio (z) = 0.32374 0.31707
#
# Static dielectric constant tensor:
#      x y z
#    x 3.541300 0.000000 0.000000 
#    y 0.000000 3.387660 0.000000 
#    z 0.000000 0.000000 3.566790 
# 
# 
# High freq. dielectric constant tensor:
#      x y z
#    x 1.728810 0.000000 0.000000 
#    y 0.000000 1.722040 0.000000 
#    z 0.000000 0.000000 1.748570 
# 
# From -- ./inp_files/17537.got.cif
#   From: 2010.03.12/outbox.cif.g09.slc.cpg/sg51_9_cif.got.tgz:17537.got - 2010.04.16 13:43:02.
