data_PCOD8213493
_publ_section_title
;
Structure prediction by ZEFSAII (Michael W. Deem and Ramdas Pophale) SiO2 
 PCOD8213493
Probable space group: P M M A
;
_chemical_formula_sum "Si O2"
_cell_formula_units_Z 56
_cell_length_a 22.332322
_cell_length_b 13.984150
_cell_length_c 9.406728
_cell_angle_alpha 90.000000
_cell_angle_beta 90.000000
_cell_angle_gamma 90.000000
_cell_volume 2937.707427
_symmetry_space_group_name_H-M "P M M A"
_symmetry_group_IT_number 51
_symmetry_cell_setting 'orthorhombic'
loop_
_space_group_symop_operation_xyz
x,y,z
1/2-x,-y,z
1/2+x,-y,-z
-x,y,-z
-x,-y,-z
1/2+x,y,-z
1/2-x,y,z
x,-y,z
loop_
_atom_site_type_symbol
_atom_site_label
_atom_site_fract_x
_atom_site_fract_y
_atom_site_fract_z
Si Si1 0.682145 0.888007 0.981380
Si Si2 0.907413 0.609066 0.312804
Si Si3 0.387203 0.245594 0.222484
Si Si4 0.067646 0.608481 0.008047
Si Si5 0.869483 0.112255 0.284846
Si Si6 0.179486 0.731611 0.516274
Si Si7 0.986740 0.784978 0.344354
O O1 0.750000 0.853744 0.965777
O O2 0.660325 0.857490 0.137014
O O3 0.674955 0.000000 0.960306
O O4 0.645008 0.840434 0.856432
O O5 0.920565 0.500000 0.359952
O O6 0.899591 0.616156 0.143323
O O7 0.846508 0.646491 0.385720
O O8 0.962849 0.675902 0.359498
O O9 0.351639 0.274813 0.363227
O O10 0.453803 0.209291 0.252747
O O11 0.390919 0.337105 0.120321
O O12 0.063062 0.500000 0.062238
O O13 0.000000 0.651482 0.000000
O O14 0.835455 0.166075 0.412795
O O15 0.938066 0.145919 0.272422
O O16 0.864664 0.000000 0.315516
O O17 0.250000 0.717621 0.499025
O O18 0.000000 0.825630 0.500000
#
# Coordination Sequence:
#
# PCOD8213493 Si02
#       7
#     8   8   8   8   8   8   8
#     4  10  23  42  62  86 116 157 206 247 290 348
#     4  10  21  39  62  88 118 156 199 241 289 349
#     4  12  22  37  62  89 126 154 191 244 306 350
#     4  10  21  36  59  90 120 151 190 235 289 354
#     4  10  22  40  63  87 116 156 198 244 296 352
#     4  11  24  41  60  86 117 157 205 245 290 347
#     4  11  21  38  56  94 125 153 190 240 302 361
#
# _framework density 19.062484000000001
#
# number of rings (size 3 to 8) (size 9 to 14) (size 15 to 20)
#    0.000    1.429    4.286    2.571    0.000    3.429 
#    0.000    2.143    0.000    3.000    0.000    0.000 
#    0.000    0.000    0.000    0.000    0.000    0.000 
#
# Total GULP energy -694552.181664 kJ/mol
# GULP energy per Si atom -12402.717530 kJ/mol
# Density = 1.901910 g / cm^3
# Si number density = 19.062484 Si / 1000 Ang^3
#
#
#
# Elastic Constant Matrix: (Units=GPa)
#
#
# Indices 1 2 3 4 5 6 
#
# 1 144.0205 39.1586 55.9591 0.0000 0.0000 0.0000
# 2 39.1586 76.7273 44.6652 0.0000 0.0000 0.0000
# 3 55.9591 44.6652 112.8944 0.0000 0.0000 0.0000
# 4 0.0000 0.0000 0.0000 24.0698 0.0000 0.0000
# 5 0.0000 0.0000 0.0000 0.0000 33.6551 0.0000
# 6 0.0000 0.0000 0.0000 0.0000 0.0000 25.0905
#
#
#
# Elastic Compliance Matrix: (Units=1/GPa)
#
#
# Indices 1 2 3 4 5 6 
#
# 1 0.008978 -0.002587 -0.003427 0.000000 0.000000 0.000000
# 2 -0.002587 0.017679 -0.005712 0.000000 0.000000 0.000000
# 3 -0.003427 -0.005712 0.012816 0.000000 0.000000 0.000000
# 4 0.000000 0.000000 0.000000 0.041546 0.000000 0.000000
# 5 0.000000 0.000000 0.000000 0.000000 0.029713 0.000000
# 6 0.000000 0.000000 0.000000 0.000000 0.000000 0.039856
#
#
# Mechanical properties :
#
#
# Convention : Reuss Voigt Hill
#
# Bulk Modulus (GPa) = 62.41660 68.13423 65.27542
# Shear Modulus (GPa) = 27.87372 29.48704 28.68038
#
# Velocity S-wave (km/s) = 3.82806 3.93728 3.88306
# Velocity P-wave (km/s) = 7.23553 7.51597 7.37708
#
# Compressibility (1/GPa) = 0.01602138
#
# Stress axis : x y z
#
# Youngs Moduli (GPa) = 111.37827 56.56511 78.02639
#
# Poissons Ratio (x) = 0.14636 0.26737
# Poissons Ratio (y) = 0.28819 0.44567
# Poissons Ratio (z) = 0.38166 0.32309
#
# Static dielectric constant tensor:
#      x y z
#    x 3.524780 0.000000 0.000000 
#    y 0.000000 3.464070 0.000000 
#    z 0.000000 0.000000 3.613440 
# 
# 
# High freq. dielectric constant tensor:
#      x y z
#    x 1.740120 0.000000 0.000000 
#    y 0.000000 1.735970 0.000000 
#    z 0.000000 0.000000 1.752650 
# 
# From -- ./inp_files/10975.got.cif
#   From: 2010.03.12/outbox.cif.g09.slc.cpg/sg51_6_cif.got.tgz:10975.got - 2010.04.16 13:43:02.
