data_PCOD8213776
_publ_section_title
;
Structure prediction by ZEFSAII (Michael W. Deem and Ramdas Pophale) SiO2 
 PCOD8213776
Probable space group: P M M A
;
_chemical_formula_sum "Si O2"
_cell_formula_units_Z 48
_cell_length_a 15.432708
_cell_length_b 13.839105
_cell_length_c 11.353902
_cell_angle_alpha 90.000000
_cell_angle_beta 90.000000
_cell_angle_gamma 90.000000
_cell_volume 2424.908103
_symmetry_space_group_name_H-M "P M M A"
_symmetry_group_IT_number 51
_symmetry_cell_setting 'orthorhombic'
loop_
_space_group_symop_operation_xyz
x,y,z
1/2-x,-y,z
1/2+x,-y,-z
-x,y,-z
-x,-y,-z
1/2+x,y,-z
1/2-x,y,z
x,-y,z
loop_
_atom_site_type_symbol
_atom_site_label
_atom_site_fract_x
_atom_site_fract_y
_atom_site_fract_z
Si Si1 0.903137 0.750596 0.490897
Si Si2 0.345751 0.609903 0.701613
Si Si3 0.750000 0.885775 0.152531
Si Si4 0.081246 0.885934 0.710906
Si Si5 0.006161 0.387995 0.137191
Si Si6 0.250000 0.114526 0.117138
Si Si7 0.596598 0.218229 0.752883
O O1 0.849020 0.673128 0.417059
O O2 0.903926 0.853898 0.424048
O O3 0.865628 0.768605 0.620936
O O4 0.000000 0.708259 0.500000
O O5 0.250000 0.622563 0.758012
O O6 0.361902 0.500000 0.662551
O O7 0.416098 0.641208 0.798921
O O8 0.837012 0.845615 0.214396
O O9 0.750000 0.000000 0.166199
O O10 0.750000 0.853299 0.018063
O O11 0.994089 0.838352 0.760282
O O12 0.072000 0.000000 0.717822
O O13 0.029378 0.500000 0.157542
O O14 0.083622 0.324502 0.191745
O O15 0.000000 0.363575 0.000000
O O16 0.335614 0.156910 0.174447
O O17 0.250000 0.000000 0.132863
#
# Coordination Sequence:
#
# PCOD8213776 Si02
#       7
#     8   8   4   8   8   4   8
#     4  10  21  37  58  89 121 159 207 252 309 375
#     4  10  21  38  64  94 123 159 206 264 319 373
#     4   9  22  41  61  90 115 155 210 262 314 370
#     4  10  21  38  62  92 123 157 208 260 313 374
#     4  10  22  42  64  92 127 163 209 258 316 382
#     4  11  26  43  60  88 129 167 215 262 311 382
#     4  11  24  40  61  91 121 173 207 252 321 370
#
# _framework density 19.794566
#
# number of rings (size 3 to 8) (size 9 to 14) (size 15 to 20)
#    0.000    1.833    3.333    0.500    4.667    4.667 
#    1.500    3.750    0.000    0.000    0.000    0.000 
#    0.000    0.000    0.000    0.000    0.000    0.000 
#
# Total GULP energy -595209.881090 kJ/mol
# GULP energy per Si atom -12400.205856 kJ/mol
# Density = 1.974951 g / cm^3
# Si number density = 19.794566 Si / 1000 Ang^3
#
#
#
# Elastic Constant Matrix: (Units=GPa)
#
#
# Indices 1 2 3 4 5 6 
#
# 1 110.5375 49.8282 68.0669 0.0000 0.0000 0.0000
# 2 49.8282 93.4354 51.7367 0.0000 0.0000 0.0000
# 3 68.0669 51.7367 154.7821 0.0000 0.0000 0.0000
# 4 0.0000 0.0000 0.0000 30.8920 0.0000 0.0000
# 5 0.0000 0.0000 0.0000 0.0000 24.6043 0.0000
# 6 0.0000 0.0000 0.0000 0.0000 0.0000 31.4548
#
#
#
# Elastic Compliance Matrix: (Units=1/GPa)
#
#
# Indices 1 2 3 4 5 6 
#
# 1 0.014089 -0.005010 -0.004521 0.000000 0.000000 0.000000
# 2 -0.005010 0.014915 -0.002782 0.000000 0.000000 0.000000
# 3 -0.004521 -0.002782 0.009379 0.000000 0.000000 0.000000
# 4 0.000000 0.000000 0.000000 0.032371 0.000000 0.000000
# 5 0.000000 0.000000 0.000000 0.000000 0.040643 0.000000
# 6 0.000000 0.000000 0.000000 0.000000 0.000000 0.031792
#
#
# Mechanical properties :
#
#
# Convention : Reuss Voigt Hill
#
# Bulk Modulus (GPa) = 72.69519 77.55761 75.12640
# Shear Modulus (GPa) = 29.00210 29.99844 29.50027
#
# Velocity S-wave (km/s) = 3.83189 3.89715 3.86466
# Velocity P-wave (km/s) = 7.50882 7.71471 7.61246
#
# Compressibility (1/GPa) = 0.01375607
#
# Stress axis : x y z
#
# Youngs Moduli (GPa) = 70.97598 67.04664 106.62258
#
# Poissons Ratio (x) = 0.33592 0.48206
# Poissons Ratio (y) = 0.35560 0.29664
# Poissons Ratio (z) = 0.32090 0.18653
#
# Static dielectric constant tensor:
#      x y z
#    x 3.676270 0.000000 0.000000 
#    y 0.000000 3.628480 0.000000 
#    z 0.000000 0.000000 3.738110 
# 
# 
# High freq. dielectric constant tensor:
#      x y z
#    x 1.769790 0.000000 0.000000 
#    y 0.000000 1.780420 0.000000 
#    z 0.000000 0.000000 1.771490 
# 
# From -- ./inp_files/16526.got.cif
#   From: 2010.03.12/outbox.cif.g09.slc.cpg/sg51_9_cif.got.tgz:16526.got - 2010.04.16 13:43:02.
