data_PCOD8213653
_publ_section_title
;
Structure prediction by ZEFSAII (Michael W. Deem and Ramdas Pophale) SiO2 
 PCOD8213653
Probable space group: P M M A
;
_chemical_formula_sum "Si O2"
_cell_formula_units_Z 48
_cell_length_a 9.031538
_cell_length_b 8.907855
_cell_length_c 30.781191
_cell_angle_alpha 90.000000
_cell_angle_beta 90.000000
_cell_angle_gamma 90.000000
_cell_volume 2476.397018
_symmetry_space_group_name_H-M "P M M A"
_symmetry_group_IT_number 51
_symmetry_cell_setting 'orthorhombic'
loop_
_space_group_symop_operation_xyz
x,y,z
1/2-x,-y,z
1/2+x,-y,-z
-x,y,-z
-x,-y,-z
1/2+x,y,-z
1/2-x,y,z
x,-y,z
loop_
_atom_site_type_symbol
_atom_site_label
_atom_site_fract_x
_atom_site_fract_y
_atom_site_fract_z
Si Si1 0.577734 0.827995 0.372190
Si Si2 0.579686 0.323743 0.283186
Si Si3 0.076809 0.826978 0.044743
Si Si4 0.080065 0.823039 0.204089
Si Si5 0.579314 0.675518 0.123975
Si Si6 0.416694 0.821121 0.457870
O O1 0.750000 0.814335 0.382789
O O2 0.531939 0.728599 0.331010
O O3 0.492526 0.762270 0.413840
O O4 0.533200 0.000000 0.362461
O O5 0.750000 0.278433 0.273829
O O6 0.556436 0.500000 0.279051
O O7 0.473232 0.242491 0.249558
O O8 0.250000 0.796880 0.039984
O O9 0.013183 0.722681 0.082128
O O10 0.043302 0.000000 0.056365
O O11 0.000000 0.780100 0.000000
O O12 0.250000 0.776186 0.195919
O O13 0.979203 0.760416 0.165913
O O14 0.061725 0.000000 0.205436
O O15 0.750000 0.718798 0.116585
O O16 0.558905 0.500000 0.132063
O O17 0.500000 0.755243 0.500000
O O18 0.250000 0.760954 0.459026
O O19 0.423576 0.000000 0.458687
#
# Coordination Sequence:
#
# PCOD8213653 Si02
#       6
#     8   8   8   8   8   8
#     4   9  17  30  49  73 102 136 173 214 262 315
#     4  10  21  37  57  81 109 142 180 221 268 324
#     4  10  21  38  61  88 117 151 192 235 279 327
#     4  11  24  40  59  84 112 143 182 227 274 325
#     4  11  24  40  59  85 116 150 188 229 276 330
#     4   9  16  26  43  69 100 132 168 213 263 313
#
# _framework density 19.382999000000002
#
# number of rings (size 3 to 8) (size 9 to 14) (size 15 to 20)
#    0.000    2.000    0.000    3.500    0.000   11.667 
#    0.000    1.667    0.000    0.500    0.000    0.000 
#    0.000    0.000    0.000    0.000    0.000    0.000 
#
# Total GULP energy -595410.320225 kJ/mol
# GULP energy per Si atom -12404.381671 kJ/mol
# Density = 1.933888 g / cm^3
# Si number density = 19.382999 Si / 1000 Ang^3
#
#
#
# Elastic Constant Matrix: (Units=GPa)
#
#
# Indices 1 2 3 4 5 6 
#
# 1 98.2686 40.0868 64.1983 0.0000 0.0000 0.0000
# 2 40.0868 53.4374 36.7384 0.0000 0.0000 0.0000
# 3 64.1983 36.7384 135.6641 0.0000 0.0000 0.0000
# 4 0.0000 0.0000 0.0000 -205.6242 0.0000 0.0000
# 5 0.0000 0.0000 0.0000 0.0000 43.2695 0.0000
# 6 0.0000 0.0000 0.0000 0.0000 0.0000 21.4724
#
#
#
# Elastic Compliance Matrix: (Units=1/GPa)
#
#
# Indices 1 2 3 4 5 6 
#
# 1 0.017845 -0.009315 -0.005922 0.000000 0.000000 0.000000
# 2 -0.009315 0.027857 -0.003136 0.000000 0.000000 0.000000
# 3 -0.005922 -0.003136 0.011023 0.000000 0.000000 0.000000
# 4 0.000000 0.000000 0.000000 -0.004863 0.000000 0.000000
# 5 0.000000 0.000000 0.000000 0.000000 0.023111 0.000000
# 6 0.000000 0.000000 0.000000 0.000000 0.000000 0.046571
#
#
# Mechanical properties :
#
#
# Convention : Reuss Voigt Hill
#
# Bulk Modulus (GPa) = 50.05241 63.26857 56.66049
# Shear Modulus (GPa) = 30.31233 -18.42002 5.94615
#
# Velocity S-wave (km/s) = 3.95886 -3.08607 1.75339
# Velocity P-wave (km/s) = 6.83927 4.47367 5.77881
#
# Compressibility (1/GPa) = 0.01997906
#
# Stress axis : x y z
#
# Youngs Moduli (GPa) = 56.03838 35.89726 90.72239
#
# Poissons Ratio (x) = 0.33439 0.53725
# Poissons Ratio (y) = 0.52201 0.28448
# Poissons Ratio (z) = 0.33185 0.11256
#
# Static dielectric constant tensor:
#      x y z
#    x 3.684970 0.000000 0.000000 
#    y 0.000000 3.356010 0.000000 
#    z 0.000000 0.000000 3.871250 
# 
# 
# High freq. dielectric constant tensor:
#      x y z
#    x 1.762830 0.000000 0.000000 
#    y 0.000000 1.735110 0.000000 
#    z 0.000000 0.000000 1.771070 
# 
# From -- ./inp_files/36920.got.cif
#   From: 2010.03.12/outbox.cif.g09.slc.cpg/sg51_19_cif.got.tgz:36920.got - 2010.04.16 13:43:02.
