data_PCOD8213456
_publ_section_title
;
Structure prediction by ZEFSAII (Michael W. Deem and Ramdas Pophale) SiO2 
 PCOD8213456
Probable space group: P M M A
;
_chemical_formula_sum "Si O2"
_cell_formula_units_Z 64
_cell_length_a 9.003618
_cell_length_b 14.543729
_cell_length_c 25.005432
_cell_angle_alpha 90.000000
_cell_angle_beta 90.000000
_cell_angle_gamma 90.000000
_cell_volume 3274.365805
_symmetry_space_group_name_H-M "P M M A"
_symmetry_group_IT_number 51
_symmetry_cell_setting 'orthorhombic'
loop_
_space_group_symop_operation_xyz
x,y,z
1/2-x,-y,z
1/2+x,-y,-z
-x,y,-z
-x,-y,-z
1/2+x,y,-z
1/2-x,y,z
x,-y,z
loop_
_atom_site_type_symbol
_atom_site_label
_atom_site_fract_x
_atom_site_fract_y
_atom_site_fract_z
Si Si1 0.924504 0.400240 0.417587
Si Si2 0.921972 0.222717 0.754670
Si Si3 0.074148 0.203351 0.552425
Si Si4 0.914887 0.399088 0.689360
Si Si5 0.420862 0.102130 0.948819
Si Si6 0.923416 0.255129 0.134675
Si Si7 0.423540 0.392411 0.055655
Si Si8 0.576214 0.107927 0.337508
O O1 0.750000 0.403944 0.422691
O O2 0.990943 0.500000 0.437802
O O3 0.982827 0.310065 0.448267
O O4 0.963176 0.385347 0.355931
O O5 0.750000 0.197365 0.764305
O O6 0.942601 0.326443 0.735219
O O7 0.012315 0.223488 0.808982
O O8 0.987850 0.150938 0.712029
O O9 0.250000 0.194973 0.547290
O O10 0.020725 0.152889 0.606582
O O11 0.000000 0.156684 0.500000
O O12 0.750000 0.386625 0.664021
O O13 0.930854 0.500000 0.715624
O O14 0.250000 0.098205 0.963217
O O15 0.453836 0.163802 0.898368
O O16 0.483724 0.000000 0.936827
O O17 0.500000 0.146702 0.000000
O O18 0.750000 0.280144 0.139641
O O19 0.006361 0.340311 0.106561
O O20 0.250000 0.368581 0.051513
O O21 0.450676 0.500000 0.065773
O O22 0.500000 0.361400 0.000000
O O23 0.750000 0.127617 0.329066
O O24 0.541808 0.000000 0.339946
#
# Coordination Sequence:
#
# PCOD8213456 Si02
#       8
#     8   8   8   8   8   8   8   8
#     4   9  17  31  53  80 110 144 182 223 267 323
#     4  11  23  38  58  85 116 149 189 237 290 346
#     4  10  21  36  56  84 116 148 186 232 285 344
#     4   9  18  33  54  79 107 141 179 220 270 327
#     4   9  19  36  57  81 109 142 180 225 279 336
#     4  11  23  37  57  85 118 155 196 240 289 349
#     4  10  21  38  60  86 120 162 206 253 303 353
#     4  10  22  42  64  83 109 148 192 240 296 354
#
# _framework density 19.545769
#
# number of rings (size 3 to 8) (size 9 to 14) (size 15 to 20)
#    0.000    2.125    1.250    1.500    0.000    6.000 
#    0.000    2.500    0.000    0.000    0.000    0.000 
#    0.000    0.000    0.000    0.000    0.000    0.000 
#
# Total GULP energy -793308.033156 kJ/mol
# GULP energy per Si atom -12395.438018 kJ/mol
# Density = 1.950128 g / cm^3
# Si number density = 19.545769 Si / 1000 Ang^3
#
#
#
# Elastic Constant Matrix: (Units=GPa)
#
#
# Indices 1 2 3 4 5 6 
#
# 1 64.8344 52.7524 59.5651 0.0000 0.0000 0.0000
# 2 52.7524 101.4966 60.3522 0.0000 0.0000 0.0000
# 3 59.5651 60.3522 147.4255 0.0000 0.0000 0.0000
# 4 0.0000 0.0000 0.0000 13.1668 0.0000 0.0000
# 5 0.0000 0.0000 0.0000 0.0000 37.3555 0.0000
# 6 0.0000 0.0000 0.0000 0.0000 0.0000 25.0499
#
#
#
# Elastic Compliance Matrix: (Units=1/GPa)
#
#
# Indices 1 2 3 4 5 6 
#
# 1 0.033016 -0.012197 -0.008347 0.000000 0.000000 0.000000
# 2 -0.012197 0.017528 -0.002248 0.000000 0.000000 0.000000
# 3 -0.008347 -0.002248 0.011076 0.000000 0.000000 0.000000
# 4 0.000000 0.000000 0.000000 0.075948 0.000000 0.000000
# 5 0.000000 0.000000 0.000000 0.000000 0.026770 0.000000
# 6 0.000000 0.000000 0.000000 0.000000 0.000000 0.039920
#
#
# Mechanical properties :
#
#
# Convention : Reuss Voigt Hill
#
# Bulk Modulus (GPa) = 62.35312 73.23289 67.79300
# Shear Modulus (GPa) = 19.59348 24.52024 22.05686
#
# Velocity S-wave (km/s) = 3.16957 3.54574 3.36292
# Velocity P-wave (km/s) = 6.73537 7.36965 7.05964
#
# Compressibility (1/GPa) = 0.01603769
#
# Stress axis : x y z
#
# Youngs Moduli (GPa) = 30.28817 57.05039 90.28911
#
# Poissons Ratio (x) = 0.69584 0.75361
# Poissons Ratio (y) = 0.36942 0.20294
# Poissons Ratio (z) = 0.25280 0.12823
#
# Static dielectric constant tensor:
#      x y z
#    x 3.565640 0.000000 0.000000 
#    y 0.000000 4.250630 0.000000 
#    z 0.000000 0.000000 3.313160 
# 
# 
# High freq. dielectric constant tensor:
#      x y z
#    x 1.759010 0.000000 0.000000 
#    y 0.000000 1.771750 0.000000 
#    z 0.000000 0.000000 1.754640 
# 
# From -- ./inp_files/34995.got.cif
#   From: 2010.03.12/outbox.cif.g09.slc.cpg/sg51_18_cif.got.tgz:34995.got - 2010.04.16 13:43:02.
