data_PCOD8213316
_publ_section_title
;
Structure prediction by ZEFSAII (Michael W. Deem and Ramdas Pophale) SiO2 
 PCOD8213316
Probable space group: P M M A
;
_chemical_formula_sum "Si O2"
_cell_formula_units_Z 40
_cell_length_a 9.131323
_cell_length_b 9.135946
_cell_length_c 25.798016
_cell_angle_alpha 90.000000
_cell_angle_beta 90.000000
_cell_angle_gamma 90.000000
_cell_volume 2152.154953
_symmetry_space_group_name_H-M "P M M A"
_symmetry_group_IT_number 51
_symmetry_cell_setting 'orthorhombic'
loop_
_space_group_symop_operation_xyz
x,y,z
1/2-x,-y,z
1/2+x,-y,-z
-x,y,-z
-x,-y,-z
1/2+x,y,-z
1/2-x,y,z
x,-y,z
loop_
_atom_site_type_symbol
_atom_site_label
_atom_site_fract_x
_atom_site_fract_y
_atom_site_fract_z
Si Si1 0.080030 0.830681 0.252311
Si Si2 0.084758 0.174343 0.849264
Si Si3 0.421350 0.831306 0.552447
Si Si4 0.582037 0.327779 0.643475
Si Si5 0.084474 0.174598 0.050447
O O1 0.250000 0.806902 0.239682
O O2 0.029707 0.740472 0.302355
O O3 0.990063 0.769260 0.203439
O O4 0.044446 0.000000 0.263119
O O5 0.250000 0.234212 0.851765
O O6 0.996152 0.236277 0.898509
O O7 0.081910 0.000000 0.850426
O O8 0.500000 0.780129 0.500000
O O9 0.250000 0.804604 0.545386
O O10 0.479235 0.732857 0.598782
O O11 0.457929 0.000000 0.564757
O O12 0.750000 0.283336 0.631902
O O13 0.562186 0.500000 0.646946
O O14 0.250000 0.234587 0.049557
O O15 0.084045 0.000000 0.050744
O O16 0.000000 0.234206 0.000000
#
# Coordination Sequence:
#
# PCOD8213316 Si02
#       5
#     8   8   8   8   8
#     4   9  17  30  48  68  92 125 163 202 244 290
#     4   9  16  25  38  58  84 115 154 198 241 287
#     4  10  21  37  58  82 106 134 169 207 247 293
#     4  10  21  36  54  77 105 136 169 206 250 299
#     4   9  15  22  33  51  79 115 152 190 236 290
#
# _framework density 18.586023000000001
#
# number of rings (size 3 to 8) (size 9 to 14) (size 15 to 20)
#    0.000    2.600    0.000    2.400    0.000    8.400 
#    0.000    2.000    0.000    0.000    0.000    0.000 
#    0.000    0.800    0.000    2.200    0.000    4.000 
#
# Total GULP energy -496080.214964 kJ/mol
# GULP energy per Si atom -12402.005374 kJ/mol
# Density = 1.854372 g / cm^3
# Si number density = 18.586023 Si / 1000 Ang^3
#
#
#
# Elastic Constant Matrix: (Units=GPa)
#
#
# Indices 1 2 3 4 5 6 
#
# 1 132.3461 30.5019 94.8808 0.0000 0.0000 0.0000
# 2 30.5019 37.3738 44.6054 0.0000 0.0000 0.0000
# 3 94.8808 44.6054 184.9167 0.0000 0.0000 0.0000
# 4 0.0000 0.0000 0.0000 -2.7607 0.0000 0.0000
# 5 0.0000 0.0000 0.0000 0.0000 41.8832 0.0000
# 6 0.0000 0.0000 0.0000 0.0000 0.0000 15.3403
#
#
#
# Elastic Compliance Matrix: (Units=1/GPa)
#
#
# Indices 1 2 3 4 5 6 
#
# 1 0.012272 -0.003511 -0.005450 0.000000 0.000000 0.000000
# 2 -0.003511 0.038579 -0.007504 0.000000 0.000000 0.000000
# 3 -0.005450 -0.007504 0.010014 0.000000 0.000000 0.000000
# 4 0.000000 0.000000 0.000000 -0.362220 0.000000 0.000000
# 5 0.000000 0.000000 0.000000 0.000000 0.023876 0.000000
# 6 0.000000 0.000000 0.000000 0.000000 0.000000 0.065188
#
#
# Mechanical properties :
#
#
# Convention : Reuss Voigt Hill
#
# Bulk Modulus (GPa) = 35.79817 77.17919 56.48868
# Shear Modulus (GPa) = -29.40332 23.20246 -3.10043
#
# Velocity S-wave (km/s) = -3.98177 3.53708 -1.29297
# Velocity P-wave (km/s) = 1.35524 7.63523 5.31320
#
# Compressibility (1/GPa) = 0.02793439
#
# Stress axis : x y z
#
# Youngs Moduli (GPa) = 81.48395 25.92100 99.85645
#
# Poissons Ratio (x) = 0.09102 0.54421
# Poissons Ratio (y) = 0.28612 0.74935
# Poissons Ratio (z) = 0.44408 0.19452
#
# Static dielectric constant tensor:
#      x y z
#    x 3.531010 0.000000 0.000000 
#    y 0.000000 2.903730 0.000000 
#    z 0.000000 0.000000 3.607080 
# 
# 
# High freq. dielectric constant tensor:
#      x y z
#    x 1.729130 0.000000 0.000000 
#    y 0.000000 1.665610 0.000000 
#    z 0.000000 0.000000 1.738050 
# 
# From -- ./inp_files/34288.got.cif
#   From: 2010.03.12/outbox.cif.g09.slc.cpg/sg51_18_cif.got.tgz:34288.got - 2010.04.16 13:43:02.
