data_PCOD8213851
_publ_section_title
;
Structure prediction by ZEFSAII (Michael W. Deem and Ramdas Pophale) SiO2 
 PCOD8213851
Probable space group: P M M A
;
_chemical_formula_sum "Si O2"
_cell_formula_units_Z 64
_cell_length_a 18.458955
_cell_length_b 28.043709
_cell_length_c 6.798741
_cell_angle_alpha 90.000000
_cell_angle_beta 90.000000
_cell_angle_gamma 90.000000
_cell_volume 3519.419694
_symmetry_space_group_name_H-M "P M M A"
_symmetry_group_IT_number 51
_symmetry_cell_setting 'orthorhombic'
loop_
_space_group_symop_operation_xyz
x,y,z
1/2-x,-y,z
1/2+x,-y,-z
-x,y,-z
-x,-y,-z
1/2+x,y,-z
1/2-x,y,z
x,-y,z
loop_
_atom_site_type_symbol
_atom_site_label
_atom_site_fract_x
_atom_site_fract_y
_atom_site_fract_z
Si Si1 0.079350 0.379745 0.563522
Si Si2 0.666856 0.370100 0.829707
Si Si3 0.420022 0.123573 0.583659
Si Si4 0.418647 0.055013 0.927243
Si Si5 0.423481 0.693603 0.899877
Si Si6 0.335758 0.871845 0.189084
Si Si7 0.833268 0.554929 0.151084
Si Si8 0.580288 0.195711 0.075430
O O1 0.125358 0.369007 0.372781
O O2 0.076068 0.330711 0.686227
O O3 0.115129 0.422453 0.685445
O O4 0.000000 0.396842 0.500000
O O5 0.750000 0.361092 0.782100
O O6 0.640403 0.327566 0.968617
O O7 0.653913 0.420345 0.940219
O O8 0.500000 0.127562 0.500000
O O9 0.411447 0.074661 0.705829
O O10 0.360560 0.124364 0.413809
O O11 0.404611 0.168532 0.722539
O O12 0.396557 0.000000 0.927342
O O13 0.500000 0.063595 0.000000
O O14 0.364704 0.082360 0.071939
O O15 0.407493 0.749169 0.878168
O O16 0.500000 0.682789 0.000000
O O17 0.250000 0.871394 0.180896
O O18 0.365145 0.822864 0.092606
O O19 0.750000 0.561565 0.218932
O O20 0.854201 0.500000 0.125880
O O21 0.500000 0.184505 0.000000
#
# Coordination Sequence:
#
# PCOD8213851 Si02
#       8
#     8   8   8   8   8   8   8   8
#     4  11  21  35  58  88 117 148 189 240 290 340
#     4  10  21  38  58  81 114 152 189 237 291 340
#     4  11  19  36  60  89 112 148 195 236 280 339
#     4  10  21  38  62  87 113 151 196 236 278 341
#     4  10  21  38  59  85 114 150 190 234 284 342
#     4  11  23  39  57  84 121 152 185 241 296 334
#     4   9  20  38  58  81 113 154 195 234 282 344
#     4  10  21  38  62  84 111 152 195 233 280 343
#
# _framework density 18.184816000000001
#
# number of rings (size 3 to 8) (size 9 to 14) (size 15 to 20)
#    0.000    1.750    3.750    1.125    0.000    6.250 
#    0.000    1.875    0.000    0.000    0.000    0.000 
#    0.000    0.000    0.000    0.000    0.000    0.000 
#
# Total GULP energy -793836.001306 kJ/mol
# GULP energy per Si atom -12403.687520 kJ/mol
# Density = 1.814343 g / cm^3
# Si number density = 18.184816 Si / 1000 Ang^3
#
#
#
# Elastic Constant Matrix: (Units=GPa)
#
#
# Indices 1 2 3 4 5 6 
#
# 1 133.5828 51.0464 63.6889 0.0000 0.0000 0.0000
# 2 51.0464 133.2444 54.6013 0.0000 0.0000 0.0000
# 3 63.6889 54.6013 134.7397 0.0000 0.0000 0.0000
# 4 0.0000 0.0000 0.0000 21.1300 0.0000 0.0000
# 5 0.0000 0.0000 0.0000 0.0000 35.2016 0.0000
# 6 0.0000 0.0000 0.0000 0.0000 0.0000 -12.3778
#
#
#
# Elastic Compliance Matrix: (Units=1/GPa)
#
#
# Indices 1 2 3 4 5 6 
#
# 1 0.010231 -0.002324 -0.003894 0.000000 0.000000 0.000000
# 2 -0.002324 0.009527 -0.002762 0.000000 0.000000 0.000000
# 3 -0.003894 -0.002762 0.010382 0.000000 0.000000 0.000000
# 4 0.000000 0.000000 0.000000 0.047326 0.000000 0.000000
# 5 0.000000 0.000000 0.000000 0.000000 0.028408 0.000000
# 6 0.000000 0.000000 0.000000 0.000000 0.000000 -0.080790
#
#
# Mechanical properties :
#
#
# Convention : Reuss Voigt Hill
#
# Bulk Modulus (GPa) = 82.10737 82.24891 82.17814
# Shear Modulus (GPa) = 106.14848 24.27278 65.21063
#
# Velocity S-wave (km/s) = 7.64845 3.65743 5.99481
# Velocity P-wave (km/s) = 11.10171 7.94754 9.65431
#
# Compressibility (1/GPa) = 0.01217917
#
# Stress axis : x y z
#
# Youngs Moduli (GPa) = 97.74630 104.96281 96.32183
#
# Poissons Ratio (x) = 0.24389 0.37510
# Poissons Ratio (y) = 0.22712 0.26608
# Poissons Ratio (z) = 0.38064 0.28995
#
# Static dielectric constant tensor:
#      x y z
#    x 1.810010 0.000000 0.000000 
#    y 0.000000 3.368390 0.000000 
#    z 0.000000 0.000000 3.438670 
# 
# 
# High freq. dielectric constant tensor:
#      x y z
#    x 1.705860 0.000000 0.000000 
#    y 0.000000 1.705270 0.000000 
#    z 0.000000 0.000000 1.715900 
# 
# From -- ./inp_files/2101.got.cif
#   From: 2010.03.12/outbox.cif.g09.slc.cpg/sg51_2_cif.got.tgz:2101.got - 2010.04.16 13:43:02.
