data_PCOD8213588
_publ_section_title
;
Structure prediction by ZEFSAII (Michael W. Deem and Ramdas Pophale) SiO2 
 PCOD8213588
Probable space group: P M M A
;
_chemical_formula_sum "Si O2"
_cell_formula_units_Z 64
_cell_length_a 8.913564
_cell_length_b 18.755045
_cell_length_c 19.600393
_cell_angle_alpha 90.000000
_cell_angle_beta 90.000000
_cell_angle_gamma 90.000000
_cell_volume 3276.681861
_symmetry_space_group_name_H-M "P M M A"
_symmetry_group_IT_number 51
_symmetry_cell_setting 'orthorhombic'
loop_
_space_group_symop_operation_xyz
x,y,z
1/2-x,-y,z
1/2+x,-y,-z
-x,y,-z
-x,-y,-z
1/2+x,y,-z
1/2-x,y,z
x,-y,z
loop_
_atom_site_type_symbol
_atom_site_label
_atom_site_fract_x
_atom_site_fract_y
_atom_site_fract_z
Si Si1 0.073999 0.420257 0.432609
Si Si2 0.573950 0.917669 0.317272
Si Si3 0.424155 0.855644 0.186940
Si Si4 0.585247 0.082647 0.063940
Si Si5 0.575912 0.304768 0.818748
Si Si6 0.427233 0.301458 0.332259
Si Si7 0.429037 0.171097 0.425641
Si Si8 0.427000 0.418484 0.072240
O O1 0.250000 0.417704 0.443950
O O2 0.014577 0.500000 0.419826
O O3 0.025213 0.374781 0.367815
O O4 0.000000 0.386984 0.500000
O O5 0.750000 0.902814 0.324119
O O6 0.507054 0.866841 0.258592
O O7 0.492434 0.899816 0.388912
O O8 0.541937 0.000000 0.299186
O O9 0.250000 0.871440 0.199612
O O10 0.489667 0.909956 0.132262
O O11 0.449113 0.776303 0.156163
O O12 0.750000 0.118220 0.072125
O O13 0.606241 0.000000 0.048615
O O14 0.500000 0.119062 0.000000
O O15 0.750000 0.323880 0.812256
O O16 0.501155 0.307148 0.743277
O O17 0.506463 0.363172 0.871062
O O18 0.250000 0.291397 0.325248
O O19 0.486738 0.236326 0.378198
O O20 0.500000 0.179198 0.500000
O O21 0.250000 0.167870 0.432388
O O22 0.250000 0.408599 0.064050
O O23 0.466733 0.500000 0.093797
O O24 0.500000 0.399121 0.000000
#
# Coordination Sequence:
#
# PCOD8213588 Si02
#       8
#     8   8   8   8   8   8   8   8
#     4   9  17  29  48  74 104 139 176 216 263 317
#     4  11  24  41  60  83 111 144 186 235 284 340
#     4  11  21  36  58  83 114 150 184 229 285 341
#     4  10  21  37  56  80 111 146 186 231 276 329
#     4   9  18  33  54  81 110 140 181 228 271 320
#     4   9  17  32  53  78 109 141 180 228 273 323
#     4  11  22  38  60  84 111 146 185 231 285 341
#     4   9  18  34  57  82 111 149 190 232 276 323
#
# _framework density 19.531953999999999
#
# number of rings (size 3 to 8) (size 9 to 14) (size 15 to 20)
#    0.000    2.125    1.250    2.250    0.000    4.500 
#    0.000    5.625    0.000    0.000    0.000    3.500 
#    0.000    0.000    0.000    0.000    0.000    0.000 
#
# Total GULP energy -793426.255518 kJ/mol
# GULP energy per Si atom -12397.285242 kJ/mol
# Density = 1.948750 g / cm^3
# Si number density = 19.531954 Si / 1000 Ang^3
#
#
#
# Elastic Constant Matrix: (Units=GPa)
#
#
# Indices 1 2 3 4 5 6 
#
# 1 70.6404 37.7843 45.7253 0.0000 0.0000 0.0000
# 2 37.7843 79.2356 50.1745 0.0000 0.0000 0.0000
# 3 45.7253 50.1745 147.7460 0.0000 0.0000 0.0000
# 4 0.0000 0.0000 0.0000 11.4015 0.0000 0.0000
# 5 0.0000 0.0000 0.0000 0.0000 32.9946 0.0000
# 6 0.0000 0.0000 0.0000 0.0000 0.0000 15.4952
#
#
#
# Elastic Compliance Matrix: (Units=1/GPa)
#
#
# Indices 1 2 3 4 5 6 
#
# 1 0.020608 -0.007374 -0.003874 0.000000 0.000000 0.000000
# 2 -0.007374 0.018717 -0.004074 0.000000 0.000000 0.000000
# 3 -0.003874 -0.004074 0.009351 0.000000 0.000000 0.000000
# 4 0.000000 0.000000 0.000000 0.087708 0.000000 0.000000
# 5 0.000000 0.000000 0.000000 0.000000 0.030308 0.000000
# 6 0.000000 0.000000 0.000000 0.000000 0.000000 0.064536
#
#
# Mechanical properties :
#
#
# Convention : Reuss Voigt Hill
#
# Bulk Modulus (GPa) = 55.45743 62.77669 59.11706
# Shear Modulus (GPa) = 18.66497 22.90745 20.78621
#
# Velocity S-wave (km/s) = 3.09465 3.42836 3.26577
# Velocity P-wave (km/s) = 6.42059 6.91967 6.67480
#
# Compressibility (1/GPa) = 0.01803185
#
# Stress axis : x y z
#
# Youngs Moduli (GPa) = 48.52512 53.42779 106.94359
#
# Poissons Ratio (x) = 0.39399 0.41425
# Poissons Ratio (y) = 0.35783 0.43569
# Poissons Ratio (z) = 0.18797 0.21767
#
# Static dielectric constant tensor:
#      x y z
#    x 3.416860 0.000000 0.000000 
#    y 0.000000 3.648560 0.000000 
#    z 0.000000 0.000000 3.827930 
# 
# 
# High freq. dielectric constant tensor:
#      x y z
#    x 1.739090 0.000000 0.000000 
#    y 0.000000 1.757880 0.000000 
#    z 0.000000 0.000000 1.768350 
# 
# From -- ./inp_files/32395.got.cif
#   From: 2010.03.12/outbox.cif.g09.slc.cpg/sg51_17_cif.got.tgz:32395.got - 2010.04.16 13:43:02.
