data_PCOD8213332
_publ_section_title
;
Structure prediction by ZEFSAII (Michael W. Deem and Ramdas Pophale) SiO2 
 PCOD8213332
Probable space group: P M M A
;
_chemical_formula_sum "Si O2"
_cell_formula_units_Z 56
_cell_length_a 14.692812
_cell_length_b 9.476970
_cell_length_c 21.591616
_cell_angle_alpha 90.000000
_cell_angle_beta 90.000000
_cell_angle_gamma 90.000000
_cell_volume 3006.488696
_symmetry_space_group_name_H-M "P M M A"
_symmetry_group_IT_number 51
_symmetry_cell_setting 'orthorhombic'
loop_
_space_group_symop_operation_xyz
x,y,z
1/2-x,-y,z
1/2+x,-y,-z
-x,y,-z
-x,-y,-z
1/2+x,y,-z
1/2-x,y,z
x,-y,z
loop_
_atom_site_type_symbol
_atom_site_label
_atom_site_fract_x
_atom_site_fract_y
_atom_site_fract_z
Si Si1 0.358008 0.656140 0.498230
Si Si2 0.998560 0.835765 0.711504
Si Si3 0.856615 0.663341 0.058549
Si Si4 0.645463 0.665742 0.638996
Si Si5 0.018888 0.837192 0.853393
Si Si6 0.646576 0.161345 0.939182
Si Si7 0.146216 0.164140 0.612294
O O1 0.250000 0.651573 0.498035
O O2 0.396874 0.500000 0.511855
O O3 0.389251 0.707874 0.430116
O O4 0.394623 0.758826 0.551696
O O5 0.018305 0.794393 0.781889
O O6 0.087431 0.793674 0.671967
O O7 0.911592 0.749570 0.689409
O O8 0.975355 0.000000 0.704676
O O9 0.750000 0.682325 0.070558
O O10 0.884731 0.500000 0.054380
O O11 0.907660 0.737010 0.114959
O O12 0.885721 0.738304 0.994771
O O13 0.750000 0.709668 0.648137
O O14 0.632576 0.500000 0.649479
O O15 0.918263 0.810194 0.880834
O O16 0.048078 0.000000 0.862561
O O17 0.750000 0.195844 0.918639
O O18 0.638164 0.000000 0.962397
O O19 0.250000 0.211132 0.625853
O O20 0.140472 0.000000 0.597623
#
# Coordination Sequence:
#
# PCOD8213332 Si02
#       7
#     8   8   8   8   8   8   8
#     4   8  15  30  52  75  97 126 168 215 262 310
#     4  10  22  36  51  76 106 138 176 213 253 303
#     4  10  21  36  55  81 109 135 168 212 260 306
#     4   9  19  36  55  75 102 135 171 213 260 310
#     4  10  21  36  54  77 106 141 178 212 250 301
#     4   9  18  34  56  80 105 134 170 212 257 305
#     4   9  18  33  51  72 101 134 169 213 263 312
#
# _framework density 18.626379
#
# number of rings (size 3 to 8) (size 9 to 14) (size 15 to 20)
#    0.000    2.714    0.000    1.714    0.000    6.857 
#    0.000    7.143    0.000    3.429    0.000    0.000 
#    0.000    0.000    0.000    0.000    0.000    0.000 
#
# Total GULP energy -694434.832601 kJ/mol
# GULP energy per Si atom -12400.622011 kJ/mol
# Density = 1.858398 g / cm^3
# Si number density = 18.626379 Si / 1000 Ang^3
#
#
#
# Elastic Constant Matrix: (Units=GPa)
#
#
# Indices 1 2 3 4 5 6 
#
# 1 55.6859 30.4806 24.6897 0.0000 0.0000 0.0000
# 2 30.4806 65.9295 41.4076 0.0000 0.0000 0.0000
# 3 24.6897 41.4076 90.6160 0.0000 0.0000 0.0000
# 4 0.0000 0.0000 0.0000 -9.3844 0.0000 0.0000
# 5 0.0000 0.0000 0.0000 0.0000 27.1233 0.0000
# 6 0.0000 0.0000 0.0000 0.0000 0.0000 26.2778
#
#
#
# Elastic Compliance Matrix: (Units=1/GPa)
#
#
# Indices 1 2 3 4 5 6 
#
# 1 0.024320 -0.009933 -0.002088 0.000000 0.000000 0.000000
# 2 -0.009933 0.025330 -0.008868 0.000000 0.000000 0.000000
# 3 -0.002088 -0.008868 0.015657 0.000000 0.000000 0.000000
# 4 0.000000 0.000000 0.000000 -0.106560 0.000000 0.000000
# 5 0.000000 0.000000 0.000000 0.000000 0.036869 0.000000
# 6 0.000000 0.000000 0.000000 0.000000 0.000000 0.038055
#
#
# Mechanical properties :
#
#
# Convention : Reuss Voigt Hill
#
# Bulk Modulus (GPa) = 42.49962 45.04304 43.77133
# Shear Modulus (GPa) = 60.03087 16.51358 38.27222
#
# Velocity S-wave (km/s) = 5.68321 2.98076 4.53783
# Velocity P-wave (km/s) = 8.11983 6.00679 7.14189
#
# Compressibility (1/GPa) = 0.02352962
#
# Stress axis : x y z
#
# Youngs Moduli (GPa) = 41.11799 39.47958 63.87010
#
# Poissons Ratio (x) = 0.39214 0.13334
# Poissons Ratio (y) = 0.40841 0.56641
# Poissons Ratio (z) = 0.08584 0.35011
#
# Static dielectric constant tensor:
#      x y z
#    x 3.397580 0.000000 0.000000 
#    y 0.000000 3.450150 0.000000 
#    z 0.000000 0.000000 3.427700 
# 
# 
# High freq. dielectric constant tensor:
#      x y z
#    x 1.725550 0.000000 0.000000 
#    y 0.000000 1.717600 0.000000 
#    z 0.000000 0.000000 1.717960 
# 
# From -- ./inp_files/33436.got.cif
#   From: 2010.03.12/outbox.cif.g09.slc.cpg/sg51_17_cif.got.tgz:33436.got - 2010.04.16 13:43:02.
