data_PCOD8213899
_publ_section_title
;
Structure prediction by ZEFSAII (Michael W. Deem and Ramdas Pophale) SiO2 
 PCOD8213899
Probable space group: P M M A
;
_chemical_formula_sum "Si O2"
_cell_formula_units_Z 56
_cell_length_a 8.740170
_cell_length_b 19.118077
_cell_length_c 15.930663
_cell_angle_alpha 90.000000
_cell_angle_beta 90.000000
_cell_angle_gamma 90.000000
_cell_volume 2661.938006
_symmetry_space_group_name_H-M "P M M A"
_symmetry_group_IT_number 51
_symmetry_cell_setting 'orthorhombic'
loop_
_space_group_symop_operation_xyz
x,y,z
1/2-x,-y,z
1/2+x,-y,-z
-x,y,-z
-x,-y,-z
1/2+x,y,-z
1/2-x,y,z
x,-y,z
loop_
_atom_site_type_symbol
_atom_site_label
_atom_site_fract_x
_atom_site_fract_y
_atom_site_fract_z
Si Si1 0.929899 0.211977 0.841152
Si Si2 0.073888 0.417814 0.242730
Si Si3 0.930577 0.342032 0.085363
Si Si4 0.929254 0.076713 0.410993
Si Si5 0.569153 0.781744 0.330877
Si Si6 0.931329 0.343552 0.585630
Si Si7 0.928695 0.921326 0.090519
O O1 0.750000 0.211838 0.853115
O O2 0.004839 0.262839 0.909786
O O3 0.977281 0.243078 0.751126
O O4 0.994590 0.133327 0.846594
O O5 0.250000 0.397396 0.226669
O O6 0.047777 0.500000 0.243531
O O7 0.020213 0.389771 0.333810
O O8 0.976029 0.386351 0.166930
O O9 0.750000 0.340388 0.077823
O O10 0.000000 0.375842 0.000000
O O11 0.750000 0.077720 0.424271
O O12 0.977443 0.137561 0.347131
O O13 0.000000 0.093934 0.500000
O O14 0.982922 0.000000 0.377451
O O15 0.750000 0.772790 0.317411
O O16 0.509418 0.732885 0.405876
O O17 0.750000 0.337028 0.577335
O O18 0.000000 0.377252 0.500000
O O19 0.750000 0.905881 0.085134
O O20 0.960462 0.000000 0.123621
O O21 0.000000 0.910080 0.000000
#
# Coordination Sequence:
#
# PCOD8213899 Si02
#       7
#     8   8   8   8   8   8   8
#     4  12  24  39  60  88 124 163 209 264 321 380
#     4  10  23  45  70  98 134 172 212 262 318 377
#     4  12  25  43  69  98 131 171 217 264 318 380
#     4   9  19  35  54  78 111 152 200 253 309 368
#     4  11  22  37  59  87 120 160 209 264 320 378
#     4  11  23  40  65  95 131 172 215 264 317 378
#     4  10  21  38  59  84 117 158 206 261 319 379
#
# _framework density 21.037305
#
# number of rings (size 3 to 8) (size 9 to 14) (size 15 to 20)
#    0.000    1.286    1.429    4.714    0.000    5.143 
#    0.000    1.429    0.000    0.000    0.000    0.000 
#    0.000    0.000    0.000    0.000    0.000    0.000 
#
# Total GULP energy -694510.904436 kJ/mol
# GULP energy per Si atom -12401.980436 kJ/mol
# Density = 2.098942 g / cm^3
# Si number density = 21.037305 Si / 1000 Ang^3
#
#
#
# Elastic Constant Matrix: (Units=GPa)
#
#
# Indices 1 2 3 4 5 6 
#
# 1 128.2224 51.9438 57.9111 0.0000 0.0000 0.0000
# 2 51.9438 92.8116 41.8858 0.0000 0.0000 0.0000
# 3 57.9111 41.8858 129.6432 0.0000 0.0000 0.0000
# 4 0.0000 0.0000 0.0000 32.7611 0.0000 0.0000
# 5 0.0000 0.0000 0.0000 0.0000 39.3492 0.0000
# 6 0.0000 0.0000 0.0000 0.0000 0.0000 27.4564
#
#
#
# Elastic Compliance Matrix: (Units=1/GPa)
#
#
# Indices 1 2 3 4 5 6 
#
# 1 0.011309 -0.004741 -0.003520 0.000000 0.000000 0.000000
# 2 -0.004741 0.014601 -0.002600 0.000000 0.000000 0.000000
# 3 -0.003520 -0.002600 0.010126 0.000000 0.000000 0.000000
# 4 0.000000 0.000000 0.000000 0.030524 0.000000 0.000000
# 5 0.000000 0.000000 0.000000 0.000000 0.025413 0.000000
# 6 0.000000 0.000000 0.000000 0.000000 0.000000 0.036421
#
#
# Mechanical properties :
#
#
# Convention : Reuss Voigt Hill
#
# Bulk Modulus (GPa) = 69.85722 72.68427 71.27075
# Shear Modulus (GPa) = 32.28137 33.17577 32.72857
#
# Velocity S-wave (km/s) = 3.92150 3.97545 3.94857
# Velocity P-wave (km/s) = 7.33366 7.46307 7.39865
#
# Compressibility (1/GPa) = 0.01431491
#
# Stress axis : x y z
#
# Youngs Moduli (GPa) = 88.42228 68.48820 98.75733
#
# Poissons Ratio (x) = 0.32469 0.34764
# Poissons Ratio (y) = 0.41920 0.25674
# Poissons Ratio (z) = 0.31126 0.17805
#
# Static dielectric constant tensor:
#      x y z
#    x 3.730350 0.000000 0.000000 
#    y 0.000000 3.992100 0.000000 
#    z 0.000000 0.000000 3.797180 
# 
# 
# High freq. dielectric constant tensor:
#      x y z
#    x 1.827470 0.000000 0.000000 
#    y 0.000000 1.827700 0.000000 
#    z 0.000000 0.000000 1.827280 
# 
# From -- ./inp_files/21715.got.cif
#   From: 2010.03.12/outbox.cif.g09.slc.cpg/sg51_11_cif.got.tgz:21715.got - 2010.04.16 13:43:02.
