data_PCOD8213274
_publ_section_title
;
Structure prediction by ZEFSAII (Michael W. Deem and Ramdas Pophale) SiO2 
 PCOD8213274
Probable space group: P M M A
;
_chemical_formula_sum "Si O2"
_cell_formula_units_Z 40
_cell_length_a 9.004555
_cell_length_b 25.051541
_cell_length_c 9.213827
_cell_angle_alpha 90.000000
_cell_angle_beta 90.000000
_cell_angle_gamma 90.000000
_cell_volume 2078.436471
_symmetry_space_group_name_H-M "P M M A"
_symmetry_group_IT_number 51
_symmetry_cell_setting 'orthorhombic'
loop_
_space_group_symop_operation_xyz
x,y,z
1/2-x,-y,z
1/2+x,-y,-z
-x,y,-z
-x,-y,-z
1/2+x,y,-z
1/2-x,y,z
x,-y,z
loop_
_atom_site_type_symbol
_atom_site_label
_atom_site_fract_x
_atom_site_fract_y
_atom_site_fract_z
Si Si1 0.425083 0.644057 0.152430
Si Si2 0.921782 0.562661 0.351401
Si Si3 0.575914 0.939867 0.648354
Si Si4 0.574890 0.155958 0.846108
Si Si5 0.076717 0.254325 0.346172
O O1 0.250000 0.635633 0.131720
O O2 0.497053 0.590611 0.217254
O O3 0.463103 0.692712 0.258053
O O4 0.500000 0.657154 0.000000
O O5 0.750000 0.579877 0.359135
O O6 0.939491 0.500000 0.325912
O O7 0.000000 0.580834 0.500000
O O8 0.500000 0.921271 0.500000
O O9 0.750000 0.935915 0.621349
O O10 0.525905 0.900541 0.776826
O O11 0.527216 0.000000 0.691177
O O12 0.750000 0.159564 0.868489
O O13 0.517470 0.203273 0.742504
O O14 0.500000 0.162440 0.000000
O O15 0.250000 0.248833 0.374023
O O16 0.000000 0.257209 0.500000
#
# Coordination Sequence:
#
# PCOD8213274 Si02
#       5
#     8   8   8   8   8
#     4  11  23  38  57  82 112 145 182 224 272 324
#     4  10  21  38  60  85 113 146 184 225 269 319
#     4   9  18  33  53  77 105 138 178 222 265 313
#     4  10  21  36  53  77 109 141 176 219 267 318
#     4  10  22  38  57  81 107 139 179 222 268 320
#
# _framework density 19.245235000000001
#
# number of rings (size 3 to 8) (size 9 to 14) (size 15 to 20)
#    0.000    2.000    0.000    3.000    0.000    6.800 
#    0.000    0.000    0.000    0.000    0.000    0.000 
#    0.000    0.000    0.000    0.000    0.000    0.000 
#
# Total GULP energy -496183.612194 kJ/mol
# GULP energy per Si atom -12404.590305 kJ/mol
# Density = 1.920143 g / cm^3
# Si number density = 19.245235 Si / 1000 Ang^3
#
#
#
# Elastic Constant Matrix: (Units=GPa)
#
#
# Indices 1 2 3 4 5 6 
#
# 1 79.8564 52.9152 71.7381 0.0000 0.0000 0.0000
# 2 52.9152 96.5779 71.2062 0.0000 0.0000 0.0000
# 3 71.7381 71.2062 172.0986 0.0000 0.0000 0.0000
# 4 0.0000 0.0000 0.0000 22.2621 0.0000 0.0000
# 5 0.0000 0.0000 0.0000 0.0000 42.4636 0.0000
# 6 0.0000 0.0000 0.0000 0.0000 0.0000 19.0740
#
#
#
# Elastic Compliance Matrix: (Units=1/GPa)
#
#
# Indices 1 2 3 4 5 6 
#
# 1 0.023861 -0.008260 -0.006529 0.000000 0.000000 0.000000
# 2 -0.008260 0.017759 -0.003905 0.000000 0.000000 0.000000
# 3 -0.006529 -0.003905 0.010148 0.000000 0.000000 0.000000
# 4 0.000000 0.000000 0.000000 0.044919 0.000000 0.000000
# 5 0.000000 0.000000 0.000000 0.000000 0.023550 0.000000
# 6 0.000000 0.000000 0.000000 0.000000 0.000000 0.052427
#
#
# Mechanical properties :
#
#
# Convention : Reuss Voigt Hill
#
# Bulk Modulus (GPa) = 69.53719 82.25022 75.89370
# Shear Modulus (GPa) = 23.27281 26.93817 25.10549
#
# Velocity S-wave (km/s) = 3.48124 3.74536 3.61571
# Velocity P-wave (km/s) = 7.23666 7.84438 7.54664
#
# Compressibility (1/GPa) = 0.01438079
#
# Stress axis : x y z
#
# Youngs Moduli (GPa) = 41.91020 56.31021 98.54527
#
# Poissons Ratio (x) = 0.46511 0.64337
# Poissons Ratio (y) = 0.34617 0.38479
# Poissons Ratio (z) = 0.27362 0.21988
#
# Static dielectric constant tensor:
#      x y z
#    x 3.501110 0.000000 0.000000 
#    y 0.000000 3.741920 0.000000 
#    z 0.000000 0.000000 3.496270 
# 
# 
# High freq. dielectric constant tensor:
#      x y z
#    x 1.748240 0.000000 0.000000 
#    y 0.000000 1.763000 0.000000 
#    z 0.000000 0.000000 1.752560 
# 
# From -- ./inp_files/5203.got.cif
#   From: 2010.03.12/outbox.cif.g09.slc.cpg/sg51_3_cif.got.tgz:5203.got - 2010.04.16 13:43:02.
