data_PCOD8213554
_publ_section_title
;
Structure prediction by ZEFSAII (Michael W. Deem and Ramdas Pophale) SiO2 
 PCOD8213554
Probable space group: P M M A
;
_chemical_formula_sum "Si O2"
_cell_formula_units_Z 64
_cell_length_a 14.439218
_cell_length_b 19.544985
_cell_length_c 11.656477
_cell_angle_alpha 90.000000
_cell_angle_beta 90.000000
_cell_angle_gamma 90.000000
_cell_volume 3289.624488
_symmetry_space_group_name_H-M "P M M A"
_symmetry_group_IT_number 51
_symmetry_cell_setting 'orthorhombic'
loop_
_space_group_symop_operation_xyz
x,y,z
1/2-x,-y,z
1/2+x,-y,-z
-x,y,-z
-x,-y,-z
1/2+x,y,-z
1/2-x,y,z
x,-y,z
loop_
_atom_site_type_symbol
_atom_site_label
_atom_site_fract_x
_atom_site_fract_y
_atom_site_fract_z
Si Si1 0.141246 0.700011 0.027370
Si Si2 0.856715 0.921535 0.716564
Si Si3 0.353300 0.669381 0.767344
Si Si4 0.007485 0.420753 0.628484
Si Si5 0.473682 0.829029 0.117259
Si Si6 0.354972 0.816998 0.724573
Si Si7 0.859790 0.075367 0.461564
Si Si8 0.644298 0.576919 0.807864
O O1 0.250000 0.720117 0.035673
O O2 0.078762 0.758160 0.087097
O O3 0.118633 0.629229 0.091678
O O4 0.110961 0.688437 0.895419
O O5 0.750000 0.899574 0.718880
O O6 0.909074 0.874386 0.804881
O O7 0.899374 0.910199 0.588993
O O8 0.868622 0.000000 0.753791
O O9 0.250000 0.639153 0.777793
O O10 0.413916 0.613395 0.704986
O O11 0.353393 0.737514 0.687318
O O12 0.033941 0.500000 0.620642
O O13 0.000000 0.389677 0.500000
O O14 0.910609 0.407223 0.691315
O O15 0.574666 0.819934 0.171136
O O16 0.500000 0.868188 0.000000
O O17 0.250000 0.839429 0.761861
O O18 0.393623 0.865373 0.623454
O O19 0.750000 0.074890 0.471315
O O20 0.893536 0.000000 0.418716
O O21 0.750000 0.584965 0.770918
O O22 0.622565 0.500000 0.852840
#
# Coordination Sequence:
#
# PCOD8213554 Si02
#       8
#     8   8   8   8   8   8   8   8
#     4  10  21  39  62  85 114 148 191 244 293 339
#     4   9  20  40  63  87 115 147 191 246 296 347
#     4  10  21  39  60  82 115 154 193 241 292 344
#     4  10  22  39  58  84 118 154 193 238 286 346
#     4  12  23  35  58  84 116 157 195 228 284 354
#     4  10  21  37  55  82 118 152 189 238 291 344
#     4   8  16  36  63  85 110 145 188 242 297 342
#     4   9  19  36  59  86 114 147 189 239 292 342
#
# _framework density 19.455107000000002
#
# number of rings (size 3 to 8) (size 9 to 14) (size 15 to 20)
#    0.000    2.250    1.250    1.875    0.000    3.000 
#    4.500    5.000    0.000    1.500    0.000    0.000 
#    0.000    0.000    0.000    0.000    0.000    0.000 
#
# Total GULP energy -793215.531134 kJ/mol
# GULP energy per Si atom -12393.992674 kJ/mol
# Density = 1.941083 g / cm^3
# Si number density = 19.455107 Si / 1000 Ang^3
#
#
#
# Elastic Constant Matrix: (Units=GPa)
#
#
# Indices 1 2 3 4 5 6 
#
# 1 88.0268 50.3107 58.9577 0.0000 0.0000 0.0000
# 2 50.3107 95.8541 81.0743 0.0000 0.0000 0.0000
# 3 58.9577 81.0743 139.6109 0.0000 0.0000 0.0000
# 4 0.0000 0.0000 0.0000 38.6908 0.0000 0.0000
# 5 0.0000 0.0000 0.0000 0.0000 22.3234 0.0000
# 6 0.0000 0.0000 0.0000 0.0000 0.0000 25.4822
#
#
#
# Elastic Compliance Matrix: (Units=1/GPa)
#
#
# Indices 1 2 3 4 5 6 
#
# 1 0.017291 -0.005698 -0.003993 0.000000 0.000000 0.000000
# 2 -0.005698 0.022381 -0.010591 0.000000 0.000000 0.000000
# 3 -0.003993 -0.010591 0.014999 0.000000 0.000000 0.000000
# 4 0.000000 0.000000 0.000000 0.025846 0.000000 0.000000
# 5 0.000000 0.000000 0.000000 0.000000 0.044796 0.000000
# 6 0.000000 0.000000 0.000000 0.000000 0.000000 0.039243
#
#
# Mechanical properties :
#
#
# Convention : Reuss Voigt Hill
#
# Bulk Modulus (GPa) = 70.88376 78.24193 74.56285
# Shear Modulus (GPa) = 23.82957 26.17588 25.00273
#
# Velocity S-wave (km/s) = 3.50358 3.67202 3.58879
# Velocity P-wave (km/s) = 7.27189 7.63428 7.45529
#
# Compressibility (1/GPa) = 0.01410760
#
# Stress axis : x y z
#
# Youngs Moduli (GPa) = 57.83209 44.68067 66.67036
#
# Poissons Ratio (x) = 0.25461 0.26622
# Poissons Ratio (y) = 0.32955 0.70608
# Poissons Ratio (z) = 0.23093 0.47320
#
# Static dielectric constant tensor:
#      x y z
#    x 3.648030 0.000000 0.000000 
#    y 0.000000 3.695570 0.000000 
#    z 0.000000 0.000000 3.636930 
# 
# 
# High freq. dielectric constant tensor:
#      x y z
#    x 1.770570 0.000000 0.000000 
#    y 0.000000 1.751870 0.000000 
#    z 0.000000 0.000000 1.750350 
# 
# From -- ./inp_files/16814.got.cif
#   From: 2010.03.12/outbox.cif.g09.slc.cpg/sg51_9_cif.got.tgz:16814.got - 2010.04.16 13:43:02.
