data_PCOD8213306
_publ_section_title
;
Structure prediction by ZEFSAII (Michael W. Deem and Ramdas Pophale) SiO2 
 PCOD8213306
Probable space group: P M M A
;
_chemical_formula_sum "Si O2"
_cell_formula_units_Z 48
_cell_length_a 9.082149
_cell_length_b 9.500746
_cell_length_c 30.878665
_cell_angle_alpha 90.000000
_cell_angle_beta 90.000000
_cell_angle_gamma 90.000000
_cell_volume 2664.433258
_symmetry_space_group_name_H-M "P M M A"
_symmetry_group_IT_number 51
_symmetry_cell_setting 'orthorhombic'
loop_
_space_group_symop_operation_xyz
x,y,z
1/2-x,-y,z
1/2+x,-y,-z
-x,y,-z
-x,-y,-z
1/2+x,y,-z
1/2-x,y,z
x,-y,z
loop_
_atom_site_type_symbol
_atom_site_label
_atom_site_fract_x
_atom_site_fract_y
_atom_site_fract_z
Si Si1 0.916234 0.332100 0.542300
Si Si2 0.419526 0.837088 0.205420
Si Si3 0.916016 0.667634 0.373561
Si Si4 0.921680 0.663416 0.955919
Si Si5 0.578569 0.337225 0.711819
Si Si6 0.579703 0.835253 0.118096
O O1 0.750000 0.274590 0.541648
O O2 0.917464 0.500000 0.542542
O O3 0.000000 0.274473 0.500000
O O4 0.996716 0.272567 0.584999
O O5 0.250000 0.802592 0.194160
O O6 0.474887 0.748302 0.246373
O O7 0.519126 0.791883 0.165021
O O8 0.440659 0.000000 0.216932
O O9 0.750000 0.725117 0.375301
O O10 0.919438 0.500000 0.374532
O O11 0.991970 0.722142 0.329686
O O12 0.750000 0.696956 0.960460
O O13 0.951333 0.500000 0.946288
O O14 0.987860 0.752118 0.917155
O O15 0.000000 0.711054 0.000000
O O16 0.750000 0.313253 0.702606
O O17 0.542257 0.500000 0.720359
O O18 0.750000 0.792306 0.115218
O O19 0.555921 0.000000 0.109746
#
# Coordination Sequence:
#
# PCOD8213306 Si02
#       6
#     8   8   8   8   8   8
#     4   9  15  22  33  50  75 109 147 184 224 272
#     4   9  18  33  51  70  95 127 161 199 243 288
#     4   9  16  25  37  55  81 112 146 185 229 276
#     4  10  21  37  57  80 106 136 169 205 246 291
#     4   9  17  29  45  65  89 118 153 192 234 281
#     4  10  21  36  54  77 104 134 168 205 246 292
#
# _framework density 18.015087999999999
#
# number of rings (size 3 to 8) (size 9 to 14) (size 15 to 20)
#    0.000    2.667    0.000    2.000    0.000    7.667 
#    0.000    1.667    0.000    0.000    0.000    0.000 
#    0.000    0.667    0.000    1.833    0.000    3.333 
#
# Total GULP energy -595283.972558 kJ/mol
# GULP energy per Si atom -12401.749428 kJ/mol
# Density = 1.797408 g / cm^3
# Si number density = 18.015088 Si / 1000 Ang^3
#
#
#
# Elastic Constant Matrix: (Units=GPa)
#
#
# Indices 1 2 3 4 5 6 
#
# 1 132.3564 34.6257 93.1697 0.0000 0.0000 0.0000
# 2 34.6257 32.9887 52.9625 0.0000 0.0000 0.0000
# 3 93.1697 52.9625 179.7012 0.0000 0.0000 0.0000
# 4 0.0000 0.0000 0.0000 -9.4188 0.0000 0.0000
# 5 0.0000 0.0000 0.0000 0.0000 41.5045 0.0000
# 6 0.0000 0.0000 0.0000 0.0000 0.0000 16.9321
#
#
#
# Elastic Compliance Matrix: (Units=1/GPa)
#
#
# Indices 1 2 3 4 5 6 
#
# 1 0.012331 -0.005085 -0.004895 0.000000 0.000000 0.000000
# 2 -0.005085 0.059636 -0.014940 0.000000 0.000000 0.000000
# 3 -0.004895 -0.014940 0.012506 0.000000 0.000000 0.000000
# 4 0.000000 0.000000 0.000000 -0.106171 0.000000 0.000000
# 5 0.000000 0.000000 0.000000 0.000000 0.024094 0.000000
# 6 0.000000 0.000000 0.000000 0.000000 0.000000 0.059060
#
#
# Mechanical properties :
#
#
# Convention : Reuss Voigt Hill
#
# Bulk Modulus (GPa) = 28.87318 78.50691 53.69004
# Shear Modulus (GPa) = 40.70365 20.75612 30.72988
#
# Velocity S-wave (km/s) = 4.75849 3.39802 4.13460
# Velocity P-wave (km/s) = 6.80096 7.68560 7.25677
#
# Compressibility (1/GPa) = 0.03463421
#
# Stress axis : x y z
#
# Youngs Moduli (GPa) = 81.09578 16.76833 79.96295
#
# Poissons Ratio (x) = 0.08526 0.39140
# Poissons Ratio (y) = 0.41234 1.19465
# Poissons Ratio (z) = 0.39694 0.25052
#
# Static dielectric constant tensor:
#      x y z
#    x 3.513420 0.000000 0.000000 
#    y 0.000000 2.918250 0.000000 
#    z 0.000000 0.000000 3.506960 
# 
# 
# High freq. dielectric constant tensor:
#      x y z
#    x 1.708580 0.000000 0.000000 
#    y 0.000000 1.648640 0.000000 
#    z 0.000000 0.000000 1.712550 
# 
# From -- ./inp_files/34514.got.cif
#   From: 2010.03.12/outbox.cif.g09.slc.cpg/sg51_18_cif.got.tgz:34514.got - 2010.04.16 13:43:02.
