data_PCOD8213227
_publ_section_title
;
Structure prediction by ZEFSAII (Michael W. Deem and Ramdas Pophale) SiO2 
 PCOD8213227
Probable space group: P M M A
;
_chemical_formula_sum "Si O2"
_cell_formula_units_Z 48
_cell_length_a 9.849415
_cell_length_b 8.962949
_cell_length_c 30.610799
_cell_angle_alpha 90.000000
_cell_angle_beta 90.000000
_cell_angle_gamma 90.000000
_cell_volume 2702.315346
_symmetry_space_group_name_H-M "P M M A"
_symmetry_group_IT_number 51
_symmetry_cell_setting 'orthorhombic'
loop_
_space_group_symop_operation_xyz
x,y,z
1/2-x,-y,z
1/2+x,-y,-z
-x,y,-z
-x,-y,-z
1/2+x,y,-z
1/2-x,y,z
x,-y,z
loop_
_atom_site_type_symbol
_atom_site_label
_atom_site_fract_x
_atom_site_fract_y
_atom_site_fract_z
Si Si1 0.902278 0.177354 0.866315
Si Si2 0.905915 0.675496 0.299443
Si Si3 0.094222 0.824918 0.790296
Si Si4 0.097813 0.177612 0.036872
Si Si5 0.406791 0.174085 0.370571
Si Si6 0.094237 0.672063 0.460396
O O1 0.750000 0.233652 0.855664
O O2 0.946608 0.232751 0.914713
O O3 0.005423 0.240913 0.830174
O O4 0.905828 0.000000 0.865531
O O5 0.750000 0.719874 0.309194
O O6 0.924979 0.500000 0.296938
O O7 0.953951 0.744405 0.253650
O O8 0.999654 0.738709 0.337164
O O9 0.250000 0.788120 0.801165
O O10 0.070291 0.000000 0.783726
O O11 0.250000 0.232623 0.026791
O O12 0.091547 0.000000 0.035322
O O13 0.000000 0.247876 0.000000
O O14 0.250000 0.210297 0.359932
O O15 0.443999 0.227995 0.418992
O O16 0.437921 0.000000 0.366959
O O17 0.250000 0.696031 0.474495
O O18 0.065581 0.500000 0.448427
O O19 0.000000 0.725952 0.500000
#
# Coordination Sequence:
#
# PCOD8213227 Si02
#       6
#     8   8   8   8   8   8
#     4   8  14  24  37  55  81 113 148 185 226 273
#     4  10  21  36  53  73  98 128 162 201 245 293
#     4   9  17  29  45  65  89 117 151 191 233 279
#     4   8  13  20  30  47  74 108 144 180 218 264
#     4  10  21  36  54  77 104 133 166 204 245 289
#     4   9  18  33  52  74 102 135 169 204 241 283
#
# _framework density 17.762546
#
# number of rings (size 3 to 8) (size 9 to 14) (size 15 to 20)
#    0.000    3.000    0.000    2.000    0.000    4.333 
#    0.000    6.667    0.000    0.000    0.000    0.000 
#    0.000    0.667    0.000    1.500    0.000    3.000 
#
# Total GULP energy -595109.639408 kJ/mol
# GULP energy per Si atom -12398.117488 kJ/mol
# Density = 1.772212 g / cm^3
# Si number density = 17.762546 Si / 1000 Ang^3
#
#
#
# Elastic Constant Matrix: (Units=GPa)
#
#
# Indices 1 2 3 4 5 6 
#
# 1 92.4417 22.1373 87.3101 0.0000 0.0000 0.0000
# 2 22.1373 28.0761 27.0888 0.0000 0.0000 0.0000
# 3 87.3101 27.0888 143.8271 0.0000 0.0000 0.0000
# 4 0.0000 0.0000 0.0000 -7.8153 0.0000 0.0000
# 5 0.0000 0.0000 0.0000 0.0000 43.5873 0.0000
# 6 0.0000 0.0000 0.0000 0.0000 0.0000 16.5548
#
#
#
# Elastic Compliance Matrix: (Units=1/GPa)
#
#
# Indices 1 2 3 4 5 6 
#
# 1 0.026295 -0.006516 -0.014735 0.000000 0.000000 0.000000
# 2 -0.006516 0.045142 -0.004547 0.000000 0.000000 0.000000
# 3 -0.014735 -0.004547 0.016754 0.000000 0.000000 0.000000
# 4 0.000000 0.000000 0.000000 -0.127954 0.000000 0.000000
# 5 0.000000 0.000000 0.000000 0.000000 0.022942 0.000000
# 6 0.000000 0.000000 0.000000 0.000000 0.000000 0.060405
#
#
# Mechanical properties :
#
#
# Convention : Reuss Voigt Hill
#
# Bulk Modulus (GPa) = 27.32571 59.71301 43.51936
# Shear Modulus (GPa) = 46.56361 18.98594 32.77478
#
# Velocity S-wave (km/s) = 5.12556 3.27291 4.30020
# Velocity P-wave (km/s) = 7.10252 6.92625 7.01494
#
# Compressibility (1/GPa) = 0.03659558
#
# Stress axis : x y z
#
# Youngs Moduli (GPa) = 38.02945 22.15231 59.68655
#
# Poissons Ratio (x) = 0.14435 0.87950
# Poissons Ratio (y) = 0.24780 0.27137
# Poissons Ratio (z) = 0.56038 0.10072
#
# Static dielectric constant tensor:
#      x y z
#    x 3.466860 0.000000 0.000000 
#    y 0.000000 2.962110 0.000000 
#    z 0.000000 0.000000 3.548260 
# 
# 
# High freq. dielectric constant tensor:
#      x y z
#    x 1.687690 0.000000 0.000000 
#    y 0.000000 1.650960 0.000000 
#    z 0.000000 0.000000 1.696750 
# 
# From -- ./inp_files/37057.got.cif
#   From: 2010.03.12/outbox.cif.g09.slc.cpg/sg51_19_cif.got.tgz:37057.got - 2010.04.16 13:43:02.
