data_PCOD8213035
_publ_section_title
;
Structure prediction by ZEFSAII (Michael W. Deem and Ramdas Pophale) SiO2 
 PCOD8213035
Probable space group: P M M A
;
_chemical_formula_sum "Si O2"
_cell_formula_units_Z 56
_cell_length_a 19.384325
_cell_length_b 9.223386
_cell_length_c 17.326222
_cell_angle_alpha 90.000000
_cell_angle_beta 90.000000
_cell_angle_gamma 90.000000
_cell_volume 3097.739843
_symmetry_space_group_name_H-M "P M M A"
_symmetry_group_IT_number 51
_symmetry_cell_setting 'orthorhombic'
loop_
_space_group_symop_operation_xyz
x,y,z
1/2-x,-y,z
1/2+x,-y,-z
-x,y,-z
-x,-y,-z
1/2+x,y,-z
1/2-x,y,z
x,-y,z
loop_
_atom_site_type_symbol
_atom_site_label
_atom_site_fract_x
_atom_site_fract_y
_atom_site_fract_z
Si Si1 0.938136 0.829825 0.200522
Si Si2 0.923308 0.331023 0.619607
Si Si3 0.168411 0.837058 0.089989
Si Si4 0.826137 0.828006 0.081547
Si Si5 0.560973 0.832254 0.376821
Si Si6 0.329480 0.831245 0.495555
Si Si7 0.924618 0.331773 0.798625
O O1 0.877247 0.767212 0.146881
O O2 0.919813 0.792464 0.288980
O O3 0.007278 0.750894 0.173884
O O4 0.948785 0.000000 0.188046
O O5 0.927520 0.500000 0.600143
O O6 0.859327 0.260794 0.575041
O O7 0.909155 0.300818 0.709248
O O8 0.995526 0.259239 0.593522
O O9 0.250000 0.834247 0.096974
O O10 0.139084 0.726325 0.152289
O O11 0.140953 0.000000 0.106198
O O12 0.146681 0.785816 0.003831
O O13 0.750000 0.761558 0.096413
O O14 0.821208 0.000000 0.087019
O O15 0.627904 0.793476 0.427206
O O16 0.540196 0.000000 0.384910
O O17 0.250000 0.787569 0.509648
O O18 0.336257 0.000000 0.474531
O O19 0.935209 0.500000 0.814943
#
# Coordination Sequence:
#
# PCOD8213035 Si02
#       7
#     8   8   8   8   8   8   8
#     4   9  17  31  53  77 100 129 164 200 239 287
#     4  10  21  36  53  72  96 130 169 205 243 289
#     4   9  18  33  52  73  98 129 165 203 244 292
#     4   8  15  29  50  76 102 128 162 203 243 285
#     4   9  18  33  53  76 101 130 163 198 240 291
#     4  10  21  35  51  75 105 131 158 198 246 292
#     4  10  21  35  50  71 100 130 163 206 249 289
#
# _framework density 18.077697000000001
#
# number of rings (size 3 to 8) (size 9 to 14) (size 15 to 20)
#    0.000    2.714    0.000    2.143    0.000    6.286 
#    0.000    9.286    0.000    1.286    0.000    4.000 
#    0.000    0.000    0.000    0.000    0.000    0.000 
#
# Total GULP energy -694447.608676 kJ/mol
# GULP energy per Si atom -12400.850155 kJ/mol
# Density = 1.803655 g / cm^3
# Si number density = 18.077697 Si / 1000 Ang^3
#
#
#
# Elastic Constant Matrix: (Units=GPa)
#
#
# Indices 1 2 3 4 5 6 
#
# 1 108.6102 46.1639 64.9091 0.0000 0.0000 0.0000
# 2 46.1639 59.3788 43.8311 0.0000 0.0000 0.0000
# 3 64.9091 43.8311 92.7591 0.0000 0.0000 0.0000
# 4 0.0000 0.0000 0.0000 19.0660 0.0000 0.0000
# 5 0.0000 0.0000 0.0000 0.0000 35.1539 0.0000
# 6 0.0000 0.0000 0.0000 0.0000 0.0000 4.3268
#
#
#
# Elastic Compliance Matrix: (Units=1/GPa)
#
#
# Indices 1 2 3 4 5 6 
#
# 1 0.017549 -0.007031 -0.008958 0.000000 0.000000 0.000000
# 2 -0.007031 0.028679 -0.008631 0.000000 0.000000 0.000000
# 3 -0.008958 -0.008631 0.021127 0.000000 0.000000 0.000000
# 4 0.000000 0.000000 0.000000 0.052449 0.000000 0.000000
# 5 0.000000 0.000000 0.000000 0.000000 0.028446 0.000000
# 6 0.000000 0.000000 0.000000 0.000000 0.000000 0.231115
#
#
# Mechanical properties :
#
#
# Convention : Reuss Voigt Hill
#
# Bulk Modulus (GPa) = 55.20372 63.39517 59.29944
# Shear Modulus (GPa) = 11.50363 18.76563 15.13463
#
# Velocity S-wave (km/s) = 2.52532 3.22538 2.89658
# Velocity P-wave (km/s) = 6.25350 7.00108 6.63782
#
# Compressibility (1/GPa) = 0.01811472
#
# Stress axis : x y z
#
# Youngs Moduli (GPa) = 56.98208 34.86905 47.33185
#
# Poissons Ratio (x) = 0.24518 0.42399
# Poissons Ratio (y) = 0.40066 0.40853
# Poissons Ratio (z) = 0.51044 0.30096
#
# Static dielectric constant tensor:
#      x y z
#    x 3.408890 0.000000 0.000000 
#    y 0.000000 3.193810 0.000000 
#    z 0.000000 0.000000 3.483850 
# 
# 
# High freq. dielectric constant tensor:
#      x y z
#    x 1.697860 0.000000 0.000000 
#    y 0.000000 1.680410 0.000000 
#    z 0.000000 0.000000 1.706710 
# 
# From -- ./inp_files/25702.got.cif
#   From: 2010.03.12/outbox.cif.g09.slc.cpg/sg51_13_cif.got.tgz:25702.got - 2010.04.16 13:43:02.
