data_PCOD8213893
_publ_section_title
;
Structure prediction by ZEFSAII (Michael W. Deem and Ramdas Pophale) SiO2 
 PCOD8213893
Probable space group: P M M A
;
_chemical_formula_sum "Si O2"
_cell_formula_units_Z 48
_cell_length_a 30.893470
_cell_length_b 8.908801
_cell_length_c 8.906374
_cell_angle_alpha 90.000000
_cell_angle_beta 90.000000
_cell_angle_gamma 90.000000
_cell_volume 2451.245887
_symmetry_space_group_name_H-M "P M M A"
_symmetry_group_IT_number 51
_symmetry_cell_setting 'orthorhombic'
loop_
_space_group_symop_operation_xyz
x,y,z
1/2-x,-y,z
1/2+x,-y,-z
-x,y,-z
-x,-y,-z
1/2+x,y,-z
1/2-x,y,z
x,-y,z
loop_
_atom_site_type_symbol
_atom_site_label
_atom_site_fract_x
_atom_site_fract_y
_atom_site_fract_z
Si Si1 0.499103 0.322650 0.168943
Si Si2 0.083669 0.674008 0.651177
Si Si3 0.919629 0.825650 0.665362
Si Si4 0.166547 0.824409 0.152037
Si Si5 0.750000 0.178148 0.328288
Si Si6 0.250000 0.177613 0.334036
Si Si7 0.329846 0.674184 0.834230
O O1 0.494598 0.500000 0.164848
O O2 0.542769 0.272270 0.251686
O O3 0.458505 0.260304 0.257385
O O4 0.500000 0.257298 0.000000
O O5 0.079428 0.500000 0.605769
O O6 0.086221 0.773667 0.504121
O O7 0.125924 0.705809 0.748104
O O8 0.875700 0.789114 0.751875
O O9 0.930637 0.000000 0.667172
O O10 0.207595 0.766193 0.246805
O O11 0.170848 0.000000 0.112144
O O12 0.163821 0.727782 0.002993
O O13 0.750000 0.243994 0.497462
O O14 0.792301 0.232827 0.243530
O O15 0.750000 0.000000 0.327656
O O16 0.250000 0.000000 0.345069
O O17 0.317316 0.500000 0.833050
#
# Coordination Sequence:
#
# PCOD8213893 Si02
#       7
#     8   8   8   8   4   4   8
#     4  10  21  39  61  83 112 154 198 237 286 347
#     4  10  22  39  59  83 114 153 195 239 287 341
#     4  11  23  37  57  87 119 150 190 241 292 345
#     4  10  21  38  59  84 114 150 191 234 287 345
#     4  11  22  39  62  86 118 157 190 229 286 346
#     4   9  19  37  60  82 108 149 194 227 268 338
#     4  11  23  39  60  88 117 148 193 242 284 334
#
# _framework density 19.581880000000002
#
# number of rings (size 3 to 8) (size 9 to 14) (size 15 to 20)
#    0.000    1.667    0.000    4.250    0.000    9.000 
#    0.000    1.667    0.000    0.000    0.000    0.000 
#    0.000    0.000    0.000    0.000    0.000    0.000 
#
# Total GULP energy -595455.243815 kJ/mol
# GULP energy per Si atom -12405.317579 kJ/mol
# Density = 1.953731 g / cm^3
# Si number density = 19.581880 Si / 1000 Ang^3
#
#
#
# Elastic Constant Matrix: (Units=GPa)
#
#
# Indices 1 2 3 4 5 6 
#
# 1 134.0168 27.0119 47.4261 0.0000 0.0000 0.0000
# 2 27.0119 32.7437 32.8672 0.0000 0.0000 0.0000
# 3 47.4261 32.8672 147.5449 0.0000 0.0000 0.0000
# 4 0.0000 0.0000 0.0000 34.5479 0.0000 0.0000
# 5 0.0000 0.0000 0.0000 0.0000 35.6101 0.0000
# 6 0.0000 0.0000 0.0000 0.0000 0.0000 25.5252
#
#
#
# Elastic Compliance Matrix: (Units=1/GPa)
#
#
# Indices 1 2 3 4 5 6 
#
# 1 0.009248 -0.005983 -0.001640 0.000000 0.000000 0.000000
# 2 -0.005983 0.043207 -0.007702 0.000000 0.000000 0.000000
# 3 -0.001640 -0.007702 0.009020 0.000000 0.000000 0.000000
# 4 0.000000 0.000000 0.000000 0.028945 0.000000 0.000000
# 5 0.000000 0.000000 0.000000 0.000000 0.028082 0.000000
# 6 0.000000 0.000000 0.000000 0.000000 0.000000 0.039177
#
#
# Mechanical properties :
#
#
# Convention : Reuss Voigt Hill
#
# Bulk Modulus (GPa) = 32.44021 58.76842 45.60431
# Shear Modulus (GPa) = 25.17580 32.93667 29.05624
#
# Velocity S-wave (km/s) = 3.58951 4.10567 3.85623
# Velocity P-wave (km/s) = 5.81222 7.24928 6.57016
#
# Compressibility (1/GPa) = 0.03082594
#
# Stress axis : x y z
#
# Youngs Moduli (GPa) = 108.13171 23.14458 110.86106
#
# Poissons Ratio (x) = 0.13848 0.18179
# Poissons Ratio (y) = 0.64696 0.85380
# Poissons Ratio (z) = 0.17732 0.17825
#
# Static dielectric constant tensor:
#      x y z
#    x 3.802530 0.000000 0.000000 
#    y 0.000000 3.487570 0.000000 
#    z 0.000000 0.000000 3.998950 
# 
# 
# High freq. dielectric constant tensor:
#      x y z
#    x 1.784200 0.000000 0.000000 
#    y 0.000000 1.752950 0.000000 
#    z 0.000000 0.000000 1.782370 
# 
# From -- ./inp_files/12871.got.cif
#   From: 2010.03.12/outbox.cif.g09.slc.cpg/sg51_7_cif.got.tgz:12871.got - 2010.04.16 13:43:02.
