data_PCOD8213954
_publ_section_title
;
Structure prediction by ZEFSAII (Michael W. Deem and Ramdas Pophale) SiO2 
 PCOD8213954
Probable space group: P M M A
;
_chemical_formula_sum "Si O2"
_cell_formula_units_Z 48
_cell_length_a 8.583444
_cell_length_b 30.154547
_cell_length_c 9.456563
_cell_angle_alpha 90.000000
_cell_angle_beta 90.000000
_cell_angle_gamma 90.000000
_cell_volume 2447.640930
_symmetry_space_group_name_H-M "P M M A"
_symmetry_group_IT_number 51
_symmetry_cell_setting 'orthorhombic'
loop_
_space_group_symop_operation_xyz
x,y,z
1/2-x,-y,z
1/2+x,-y,-z
-x,y,-z
-x,-y,-z
1/2+x,y,-z
1/2-x,y,z
x,-y,z
loop_
_atom_site_type_symbol
_atom_site_label
_atom_site_fract_x
_atom_site_fract_y
_atom_site_fract_z
Si Si1 0.429227 0.925772 0.346587
Si Si2 0.430177 0.175475 0.346890
Si Si3 0.065897 0.658709 0.154318
Si Si4 0.567519 0.246985 0.148440
Si Si5 0.065307 0.417194 0.656632
Si Si6 0.932412 0.000000 0.154907
Si Si7 0.566027 0.500000 0.157410
O O1 0.500000 0.934065 0.500000
O O2 0.250000 0.939704 0.353699
O O3 0.449607 0.875113 0.296129
O O4 0.515533 0.955717 0.233657
O O5 0.500000 0.180992 0.500000
O O6 0.250000 0.190170 0.343257
O O7 0.535425 0.206859 0.252371
O O8 0.250000 0.653845 0.149231
O O9 0.018502 0.708361 0.198100
O O10 0.997688 0.627914 0.276401
O O11 0.000000 0.645759 0.000000
O O12 0.750000 0.256966 0.136689
O O13 0.500000 0.231155 0.000000
O O14 0.250000 0.415468 0.647673
O O15 0.006874 0.457158 0.756610
O O16 0.000000 0.424114 0.500000
O O17 0.750000 0.000000 0.143280
O O18 0.000000 0.000000 0.000000
O O19 0.750000 0.500000 0.145216
O O20 0.500000 0.500000 0.000000
#
# Coordination Sequence:
#
# PCOD8213954 Si02
#       7
#     8   8   8   8   8   4   4
#     4  10  21  39  62  86 115 151 192 234 283 341
#     4  10  21  38  60  87 117 151 191 237 285 340
#     4  11  22  39  61  86 116 153 195 240 287 343
#     4  11  22  38  60  86 117 154 194 239 288 343
#     4  11  23  40  60  88 120 154 194 240 292 343
#     4  12  25  40  59  84 116 150 190 238 289 340
#     4  10  23  40  62  88 118 154 195 238 285 344
#
# _framework density 19.610720000000001
#
# number of rings (size 3 to 8) (size 9 to 14) (size 15 to 20)
#    0.000    1.333    0.000    7.250    0.000    6.000 
#    0.000    3.333    0.000    0.000    0.000    0.000 
#    0.000    0.000    0.000    0.000    0.000    0.000 
#
# Total GULP energy -595407.866105 kJ/mol
# GULP energy per Si atom -12404.330544 kJ/mol
# Density = 1.956609 g / cm^3
# Si number density = 19.610720 Si / 1000 Ang^3
#
#
#
# Elastic Constant Matrix: (Units=GPa)
#
#
# Indices 1 2 3 4 5 6 
#
# 1 127.7769 39.7597 52.3818 0.0000 0.0000 0.0000
# 2 39.7597 106.0005 74.3831 0.0000 0.0000 0.0000
# 3 52.3818 74.3831 126.6038 0.0000 0.0000 0.0000
# 4 0.0000 0.0000 0.0000 49.1612 0.0000 0.0000
# 5 0.0000 0.0000 0.0000 0.0000 37.9870 0.0000
# 6 0.0000 0.0000 0.0000 0.0000 0.0000 31.7307
#
#
#
# Elastic Compliance Matrix: (Units=1/GPa)
#
#
# Indices 1 2 3 4 5 6 
#
# 1 0.009541 -0.001376 -0.003139 0.000000 0.000000 0.000000
# 2 -0.001376 0.016250 -0.008978 0.000000 0.000000 0.000000
# 3 -0.003139 -0.008978 0.014472 0.000000 0.000000 0.000000
# 4 0.000000 0.000000 0.000000 0.020341 0.000000 0.000000
# 5 0.000000 0.000000 0.000000 0.000000 0.026325 0.000000
# 6 0.000000 0.000000 0.000000 0.000000 0.000000 0.031515
#
#
# Mechanical properties :
#
#
# Convention : Reuss Voigt Hill
#
# Bulk Modulus (GPa) = 75.31713 77.04781 76.18247
# Shear Modulus (GPa) = 33.36506 36.69956 35.03231
#
# Velocity S-wave (km/s) = 4.12924 4.33066 4.23115
# Velocity P-wave (km/s) = 7.82455 8.02372 7.92476
#
# Compressibility (1/GPa) = 0.01327719
#
# Stress axis : x y z
#
# Youngs Moduli (GPa) = 104.80858 61.53778 69.09707
#
# Poissons Ratio (x) = 0.08467 0.21691
# Poissons Ratio (y) = 0.14421 0.62036
# Poissons Ratio (z) = 0.32902 0.55249
#
# Static dielectric constant tensor:
#      x y z
#    x 3.740510 0.000000 0.000000 
#    y 0.000000 3.749400 0.000000 
#    z 0.000000 0.000000 3.501490 
# 
# 
# High freq. dielectric constant tensor:
#      x y z
#    x 1.783090 0.000000 0.000000 
#    y 0.000000 1.776810 0.000000 
#    z 0.000000 0.000000 1.766570 
# 
# From -- ./inp_files/6256.got.cif
#   From: 2010.03.12/outbox.cif.g09.slc.cpg/sg51_4_cif.got.tgz:6256.got - 2010.04.16 13:43:02.
