data_PCOD8213541
_publ_section_title
;
Structure prediction by ZEFSAII (Michael W. Deem and Ramdas Pophale) SiO2 
 PCOD8213541
Probable space group: P M M A
;
_chemical_formula_sum "Si O2"
_cell_formula_units_Z 64
_cell_length_a 19.637318
_cell_length_b 8.756698
_cell_length_c 19.970423
_cell_angle_alpha 90.000000
_cell_angle_beta 90.000000
_cell_angle_gamma 90.000000
_cell_volume 3434.075261
_symmetry_space_group_name_H-M "P M M A"
_symmetry_group_IT_number 51
_symmetry_cell_setting 'orthorhombic'
loop_
_space_group_symop_operation_xyz
x,y,z
1/2-x,-y,z
1/2+x,-y,-z
-x,y,-z
-x,-y,-z
1/2+x,y,-z
1/2-x,y,z
x,-y,z
loop_
_atom_site_type_symbol
_atom_site_label
_atom_site_fract_x
_atom_site_fract_y
_atom_site_fract_z
Si Si1 0.426977 0.677376 0.828684
Si Si2 0.171798 0.177020 0.932887
Si Si3 0.824752 0.179826 0.427092
Si Si4 0.829481 0.323320 0.928188
Si Si5 0.928554 0.821177 0.824326
Si Si6 0.426067 0.325814 0.674167
Si Si7 0.329923 0.826021 0.424003
Si Si8 0.920156 0.322480 0.685178
O O1 0.421167 0.500000 0.847488
O O2 0.373467 0.774568 0.870378
O O3 0.503248 0.731461 0.844562
O O4 0.408879 0.706593 0.751355
O O5 0.250000 0.210313 0.913967
O O6 0.159932 0.000000 0.949320
O O7 0.149308 0.274700 0.997120
O O8 0.750000 0.248150 0.408907
O O9 0.879155 0.222692 0.371732
O O10 0.847014 0.235029 0.501247
O O11 0.818459 0.000000 0.430466
O O12 0.750000 0.291656 0.916402
O O13 0.848066 0.500000 0.917690
O O14 0.869729 0.219754 0.876182
O O15 0.902300 0.774684 0.750868
O O16 0.943779 0.000000 0.826483
O O17 0.411298 0.500000 0.655300
O O18 0.504184 0.282234 0.659557
O O19 0.250000 0.815221 0.410149
O O20 0.367477 0.715172 0.372849
O O21 0.355335 0.000000 0.413984
O O22 0.915802 0.500000 0.704953
#
# Coordination Sequence:
#
# PCOD8213541 Si02
#       8
#     8   8   8   8   8   8   8   8
#     4  10  21  38  57  79 110 145 182 223 269 321
#     4  10  21  37  57  83 113 143 180 225 269 316
#     4   9  19  35  54  77 106 139 176 219 265 315
#     4  10  21  38  59  82 110 144 180 219 266 320
#     4  11  22  37  58  82 109 141 179 223 270 318
#     4   9  20  36  53  76 106 139 175 218 264 313
#     4   9  19  36  55  77 106 139 177 220 265 314
#     4  10  21  37  55  78 108 140 177 219 265 318
#
# _framework density 18.636748999999998
#
# number of rings (size 3 to 8) (size 9 to 14) (size 15 to 20)
#    0.000    2.250    0.000    4.125    0.000    7.500 
#    0.000    8.750    0.000    0.000    0.000    0.000 
#    0.000    0.000    0.000    0.000    0.000    0.000 
#
# Total GULP energy -793779.499062 kJ/mol
# GULP energy per Si atom -12402.804673 kJ/mol
# Density = 1.859433 g / cm^3
# Si number density = 18.636749 Si / 1000 Ang^3
#
#
#
# Elastic Constant Matrix: (Units=GPa)
#
#
# Indices 1 2 3 4 5 6 
#
# 1 73.7138 22.7329 58.6293 0.0000 0.0000 0.0000
# 2 22.7329 51.1991 25.8584 0.0000 0.0000 0.0000
# 3 58.6293 25.8584 94.4932 0.0000 0.0000 0.0000
# 4 0.0000 0.0000 0.0000 33.4498 0.0000 0.0000
# 5 0.0000 0.0000 0.0000 0.0000 36.2640 0.0000
# 6 0.0000 0.0000 0.0000 0.0000 0.0000 33.0584
#
#
#
# Elastic Compliance Matrix: (Units=1/GPa)
#
#
# Indices 1 2 3 4 5 6 
#
# 1 0.027531 -0.004174 -0.015940 0.000000 0.000000 0.000000
# 2 -0.004174 0.023297 -0.003786 0.000000 0.000000 0.000000
# 3 -0.015940 -0.003786 0.021509 0.000000 0.000000 0.000000
# 4 0.000000 0.000000 0.000000 0.029896 0.000000 0.000000
# 5 0.000000 0.000000 0.000000 0.000000 0.027576 0.000000
# 6 0.000000 0.000000 0.000000 0.000000 0.000000 0.030249
#
#
# Mechanical properties :
#
#
# Convention : Reuss Voigt Hill
#
# Bulk Modulus (GPa) = 40.75254 48.20526 44.47890
# Shear Modulus (GPa) = 23.14442 28.03348 25.58895
#
# Velocity S-wave (km/s) = 3.52784 3.88262 3.70947
# Velocity P-wave (km/s) = 6.20552 6.78391 6.50115
#
# Compressibility (1/GPa) = 0.02453835
#
# Stress axis : x y z
#
# Youngs Moduli (GPa) = 36.32256 42.92459 46.49262
#
# Poissons Ratio (x) = 0.17915 0.74109
# Poissons Ratio (y) = 0.15160 0.17601
# Poissons Ratio (z) = 0.57898 0.16250
#
# Static dielectric constant tensor:
#      x y z
#    x 3.373240 0.000000 0.000000 
#    y 0.000000 3.396240 0.000000 
#    z 0.000000 0.000000 3.437890 
# 
# 
# High freq. dielectric constant tensor:
#      x y z
#    x 1.722830 0.000000 0.000000 
#    y 0.000000 1.728420 0.000000 
#    z 0.000000 0.000000 1.726650 
# 
# From -- ./inp_files/30555.got.cif
#   From: 2010.03.12/outbox.cif.g09.slc.cpg/sg51_16_cif.got.tgz:30555.got - 2010.04.16 13:43:02.
