data_PCOD8213559
_publ_section_title
;
Structure prediction by ZEFSAII (Michael W. Deem and Ramdas Pophale) SiO2 
 PCOD8213559
Probable space group: P M M A
;
_chemical_formula_sum "Si O2"
_cell_formula_units_Z 56
_cell_length_a 9.004208
_cell_length_b 14.276733
_cell_length_c 23.432403
_cell_angle_alpha 90.000000
_cell_angle_beta 90.000000
_cell_angle_gamma 90.000000
_cell_volume 3012.251187
_symmetry_space_group_name_H-M "P M M A"
_symmetry_group_IT_number 51
_symmetry_cell_setting 'orthorhombic'
loop_
_space_group_symop_operation_xyz
x,y,z
1/2-x,-y,z
1/2+x,-y,-z
-x,y,-z
-x,-y,-z
1/2+x,y,-z
1/2-x,y,z
x,-y,z
loop_
_atom_site_type_symbol
_atom_site_label
_atom_site_fract_x
_atom_site_fract_y
_atom_site_fract_z
Si Si1 0.076167 0.763653 0.357175
Si Si2 0.418598 0.889349 0.556635
Si Si3 0.426217 0.747033 0.061180
Si Si4 0.076169 0.394736 0.442909
Si Si5 0.422159 0.891984 0.860356
Si Si6 0.421784 0.607993 0.856285
Si Si7 0.081340 0.246681 0.760451
O O1 0.250000 0.782316 0.360775
O O2 0.029177 0.668579 0.389454
O O3 0.994736 0.850617 0.386519
O O4 0.030658 0.755035 0.291787
O O5 0.500000 0.851423 0.500000
O O6 0.250000 0.854307 0.553494
O O7 0.429624 0.000000 0.560543
O O8 0.250000 0.747667 0.055473
O O9 0.478695 0.842213 0.091833
O O10 0.476631 0.655178 0.095750
O O11 0.500000 0.742125 0.000000
O O12 0.250000 0.391571 0.453691
O O13 0.020855 0.500000 0.429599
O O14 0.000000 0.355323 0.500000
O O15 0.250000 0.880318 0.877764
O O16 0.450911 0.844092 0.799300
O O17 0.469622 0.000000 0.856144
O O18 0.250000 0.619655 0.874555
O O19 0.467742 0.500000 0.849823
O O20 0.449193 0.658680 0.795942
O O21 0.250000 0.244604 0.737676
#
# Coordination Sequence:
#
# PCOD8213559 Si02
#       7
#     8   8   8   8   8   8   8
#     4  11  22  34  52  78 107 140 176 216 262 312
#     4  10  21  37  56  77 103 135 171 215 268 324
#     4  11  22  36  56  84 117 148 181 222 266 316
#     4   9  19  35  52  72 100 133 169 210 258 311
#     4   9  19  38  61  81 106 143 183 224 272 321
#     4   9  19  38  61  82 108 144 184 226 272 320
#     4   9  19  35  54  79 109 140 177 220 266 316
#
# _framework density 18.590747
#
# number of rings (size 3 to 8) (size 9 to 14) (size 15 to 20)
#    0.000    2.286    0.000    3.429    0.000    7.714 
#    0.000    1.429    0.000    0.000    0.000    0.000 
#    0.000    0.000    0.000    0.000    0.000    0.000 
#
# Total GULP energy -694573.027970 kJ/mol
# GULP energy per Si atom -12403.089785 kJ/mol
# Density = 1.854843 g / cm^3
# Si number density = 18.590747 Si / 1000 Ang^3
#
#
#
# Elastic Constant Matrix: (Units=GPa)
#
#
# Indices 1 2 3 4 5 6 
#
# 1 110.3550 50.7403 67.1073 0.0000 0.0000 0.0000
# 2 50.7403 117.2979 51.8669 0.0000 0.0000 0.0000
# 3 67.1073 51.8669 126.2231 0.0000 0.0000 0.0000
# 4 0.0000 0.0000 0.0000 14.8514 0.0000 0.0000
# 5 0.0000 0.0000 0.0000 0.0000 39.3835 0.0000
# 6 0.0000 0.0000 0.0000 0.0000 0.0000 24.3640
#
#
#
# Elastic Compliance Matrix: (Units=1/GPa)
#
#
# Indices 1 2 3 4 5 6 
#
# 1 0.014475 -0.003493 -0.006260 0.000000 0.000000 0.000000
# 2 -0.003493 0.011261 -0.002770 0.000000 0.000000 0.000000
# 3 -0.006260 -0.002770 0.012389 0.000000 0.000000 0.000000
# 4 0.000000 0.000000 0.000000 0.067334 0.000000 0.000000
# 5 0.000000 0.000000 0.000000 0.000000 0.025391 0.000000
# 6 0.000000 0.000000 0.000000 0.000000 0.000000 0.041044
#
#
# Mechanical properties :
#
#
# Convention : Reuss Voigt Hill
#
# Bulk Modulus (GPa) = 76.46541 77.03388 76.74965
# Shear Modulus (GPa) = 24.83848 27.99723 26.41785
#
# Velocity S-wave (km/s) = 3.65919 3.88490 3.77373
# Velocity P-wave (km/s) = 7.68590 7.85175 7.76927
#
# Compressibility (1/GPa) = 0.01307781
#
# Stress axis : x y z
#
# Youngs Moduli (GPa) = 69.08642 88.79926 80.71669
#
# Poissons Ratio (x) = 0.31020 0.50529
# Poissons Ratio (y) = 0.24134 0.22360
# Poissons Ratio (z) = 0.43249 0.24599
#
# Static dielectric constant tensor:
#      x y z
#    x 3.445950 0.000000 0.000000 
#    y 0.000000 3.616340 0.000000 
#    z 0.000000 0.000000 3.353480 
# 
# 
# High freq. dielectric constant tensor:
#      x y z
#    x 1.722230 0.000000 0.000000 
#    y 0.000000 1.728880 0.000000 
#    z 0.000000 0.000000 1.717640 
# 
# From -- ./inp_files/31877.got.cif
#   From: 2010.03.12/outbox.cif.g09.slc.cpg/sg51_16_cif.got.tgz:31877.got - 2010.04.16 13:43:02.
