data_PCOD8213794
_publ_section_title
;
Structure prediction by ZEFSAII (Michael W. Deem and Ramdas Pophale) SiO2 
 PCOD8213794
Probable space group: P M M A
;
_chemical_formula_sum "Si O2"
_cell_formula_units_Z 40
_cell_length_a 16.405653
_cell_length_b 9.095501
_cell_length_c 12.670197
_cell_angle_alpha 90.000000
_cell_angle_beta 90.000000
_cell_angle_gamma 90.000000
_cell_volume 1890.616809
_symmetry_space_group_name_H-M "P M M A"
_symmetry_group_IT_number 51
_symmetry_cell_setting 'orthorhombic'
loop_
_space_group_symop_operation_xyz
x,y,z
1/2-x,-y,z
1/2+x,-y,-z
-x,y,-z
-x,-y,-z
1/2+x,y,-z
1/2-x,y,z
x,-y,z
loop_
_atom_site_type_symbol
_atom_site_label
_atom_site_fract_x
_atom_site_fract_y
_atom_site_fract_z
Si Si1 0.156109 0.339078 0.324412
Si Si2 0.156419 0.840091 0.134497
Si Si3 0.154787 0.825631 0.746698
Si Si4 0.590448 0.670536 0.459172
Si Si5 0.087770 0.672304 0.950170
O O1 0.250000 0.355185 0.295147
O O2 0.113160 0.500000 0.316922
O O3 0.113539 0.234595 0.237112
O O4 0.147545 0.280019 0.443240
O O5 0.250000 0.865486 0.161502
O O6 0.115173 0.000000 0.114141
O O7 0.152215 0.735875 0.033103
O O8 0.250000 0.778552 0.753463
O O9 0.115015 0.772003 0.638024
O O10 0.102087 0.751978 0.839324
O O11 0.146151 0.000000 0.755215
O O12 0.500000 0.701807 0.500000
O O13 0.603536 0.500000 0.427767
O O14 0.101752 0.500000 0.934507
O O15 0.000000 0.708819 0.000000
#
# Coordination Sequence:
#
# PCOD8213794 Si02
#       5
#     8   8   8   8   8
#     4   9  18  34  57  84 117 159 203 246 295 355
#     4  10  21  37  59  88 121 156 196 245 302 364
#     4  11  25  44  66  94 129 169 213 260 314 379
#     4  10  22  39  62  92 127 164 208 259 308 363
#     4  11  25  42  63  90 122 160 206 257 309 368
#
# _framework density 21.157117
#
# number of rings (size 3 to 8) (size 9 to 14) (size 15 to 20)
#    0.000    1.800    0.000    3.000    2.800    8.800 
#    0.000    2.000    0.000    0.000    0.000    0.000 
#    0.000    0.000    0.000    0.000    0.000    0.000 
#
# Total GULP energy -495900.106411 kJ/mol
# GULP energy per Si atom -12397.502660 kJ/mol
# Density = 2.110896 g / cm^3
# Si number density = 21.157117 Si / 1000 Ang^3
#
#
#
# Elastic Constant Matrix: (Units=GPa)
#
#
# Indices 1 2 3 4 5 6 
#
# 1 55.9917 42.4913 31.1070 0.0000 0.0000 0.0000
# 2 42.4913 126.6431 83.7879 0.0000 0.0000 0.0000
# 3 31.1070 83.7879 177.2041 0.0000 0.0000 0.0000
# 4 0.0000 0.0000 0.0000 26.3293 0.0000 0.0000
# 5 0.0000 0.0000 0.0000 0.0000 32.3571 0.0000
# 6 0.0000 0.0000 0.0000 0.0000 0.0000 19.2482
#
#
#
# Elastic Compliance Matrix: (Units=1/GPa)
#
#
# Indices 1 2 3 4 5 6 
#
# 1 0.024003 -0.007663 -0.000590 0.000000 0.000000 0.000000
# 2 -0.007663 0.013937 -0.005245 0.000000 0.000000 0.000000
# 3 -0.000590 -0.005245 0.008227 0.000000 0.000000 0.000000
# 4 0.000000 0.000000 0.000000 0.037981 0.000000 0.000000
# 5 0.000000 0.000000 0.000000 0.000000 0.030905 0.000000
# 6 0.000000 0.000000 0.000000 0.000000 0.000000 0.051953
#
#
# Mechanical properties :
#
#
# Convention : Reuss Voigt Hill
#
# Bulk Modulus (GPa) = 52.16221 74.95680 63.55951
# Shear Modulus (GPa) = 24.95109 29.08378 27.01744
#
# Velocity S-wave (km/s) = 3.43785 3.71166 3.57738
# Velocity P-wave (km/s) = 6.36134 7.33990 6.86807
#
# Compressibility (1/GPa) = 0.01917097
#
# Stress axis : x y z
#
# Youngs Moduli (GPa) = 41.66136 71.74990 121.55459
#
# Poissons Ratio (x) = 0.54982 0.07175
# Poissons Ratio (y) = 0.31925 0.63753
# Poissons Ratio (z) = 0.02459 0.37632
#
# Static dielectric constant tensor:
#      x y z
#    x 3.694540 0.000000 0.000000 
#    y 0.000000 4.147220 0.000000 
#    z 0.000000 0.000000 3.922980 
# 
# 
# High freq. dielectric constant tensor:
#      x y z
#    x 1.815540 0.000000 0.000000 
#    y 0.000000 1.832440 0.000000 
#    z 0.000000 0.000000 1.844350 
# 
# From -- ./inp_files/17088.got.cif
#   From: 2010.03.12/outbox.cif.g09.slc.cpg/sg51_9_cif.got.tgz:17088.got - 2010.04.16 13:43:02.
