data_PCOD8213100
_publ_section_title
;
Structure prediction by ZEFSAII (Michael W. Deem and Ramdas Pophale) SiO2 
 PCOD8213100
Probable space group: P M M A
;
_chemical_formula_sum "Si O2"
_cell_formula_units_Z 64
_cell_length_a 18.299330
_cell_length_b 9.171057
_cell_length_c 20.242468
_cell_angle_alpha 90.000000
_cell_angle_beta 90.000000
_cell_angle_gamma 90.000000
_cell_volume 3397.175968
_symmetry_space_group_name_H-M "P M M A"
_symmetry_group_IT_number 51
_symmetry_cell_setting 'orthorhombic'
loop_
_space_group_symop_operation_xyz
x,y,z
1/2-x,-y,z
1/2+x,-y,-z
-x,y,-z
-x,-y,-z
1/2+x,y,-z
1/2-x,y,z
x,-y,z
loop_
_atom_site_type_symbol
_atom_site_label
_atom_site_fract_x
_atom_site_fract_y
_atom_site_fract_z
Si Si1 0.925302 0.169718 0.124973
Si Si2 0.083053 0.171923 0.505052
Si Si3 0.165127 0.169267 0.376248
Si Si4 0.833373 0.670859 0.754273
Si Si5 0.334081 0.332075 0.768563
Si Si6 0.332957 0.332210 0.616304
Si Si7 0.921893 0.672706 0.883052
Si Si8 0.335191 0.832856 0.005670
O O1 0.887767 0.229463 0.190780
O O2 0.000132 0.252286 0.110163
O O3 0.942556 0.000000 0.134489
O O4 0.870704 0.198701 0.064910
O O5 0.124314 0.232613 0.440389
O O6 0.114610 0.236159 0.572013
O O7 0.000000 0.221997 0.500000
O O8 0.092199 0.000000 0.509355
O O9 0.250000 0.200348 0.387458
O O10 0.136358 0.251258 0.311252
O O11 0.147850 0.000000 0.366074
O O12 0.750000 0.719439 0.769606
O O13 0.837739 0.500000 0.741937
O O14 0.884351 0.719776 0.814512
O O15 0.250000 0.288708 0.781947
O O16 0.347136 0.500000 0.788548
O O17 0.354199 0.307463 0.692313
O O18 0.250000 0.282037 0.603973
O O19 0.342685 0.500000 0.596754
O O20 0.931570 0.500000 0.887961
O O21 0.869903 0.724770 0.941602
O O22 0.250000 0.797113 0.999644
O O23 0.348859 0.000000 0.027433
#
# Coordination Sequence:
#
# PCOD8213100 Si02
#       8
#     8   8   8   8   8   8   8   8
#     4  11  23  38  57  83 115 149 185 224 269 324
#     4  10  21  35  51  76 110 143 177 220 269 322
#     4   9  18  33  53  76 103 137 177 220 265 315
#     4   9  19  36  56  78 104 135 175 222 268 318
#     4   9  19  37  59  83 112 144 180 225 274 323
#     4   9  19  36  57  80 106 139 181 226 271 322
#     4  11  23  38  57  83 114 146 182 225 274 327
#     4  10  22  40  60  82 110 144 183 228 274 321
#
# _framework density 18.839178
#
# number of rings (size 3 to 8) (size 9 to 14) (size 15 to 20)
#    0.000    2.250    0.000    3.000    0.000    8.000 
#    0.000    6.250    0.000    0.000    0.000    0.000 
#    0.000    0.000    0.000    0.000    0.000    0.000 
#
# Total GULP energy -793831.951357 kJ/mol
# GULP energy per Si atom -12403.624240 kJ/mol
# Density = 1.879630 g / cm^3
# Si number density = 18.839178 Si / 1000 Ang^3
#
#
#
# Elastic Constant Matrix: (Units=GPa)
#
#
# Indices 1 2 3 4 5 6 
#
# 1 118.6192 51.7308 65.8530 0.0000 0.0000 0.0000
# 2 51.7308 60.8771 49.7257 0.0000 0.0000 0.0000
# 3 65.8530 49.7257 110.7720 0.0000 0.0000 0.0000
# 4 0.0000 0.0000 0.0000 37.8263 0.0000 0.0000
# 5 0.0000 0.0000 0.0000 0.0000 7.8547 0.0000
# 6 0.0000 0.0000 0.0000 0.0000 0.0000 29.9089
#
#
#
# Elastic Compliance Matrix: (Units=1/GPa)
#
#
# Indices 1 2 3 4 5 6 
#
# 1 0.014987 -0.008618 -0.005041 0.000000 0.000000 0.000000
# 2 -0.008618 0.030892 -0.008744 0.000000 0.000000 0.000000
# 3 -0.005041 -0.008744 0.015950 0.000000 0.000000 0.000000
# 4 0.000000 0.000000 0.000000 0.026437 0.000000 0.000000
# 5 0.000000 0.000000 0.000000 0.000000 0.127312 0.000000
# 6 0.000000 0.000000 0.000000 0.000000 0.000000 0.033435
#
#
# Mechanical properties :
#
#
# Convention : Reuss Voigt Hill
#
# Bulk Modulus (GPa) = 58.74562 69.43192 64.08877
# Shear Modulus (GPa) = 16.69483 23.31524 20.00504
#
# Velocity S-wave (km/s) = 2.98010 3.52176 3.26219
# Velocity P-wave (km/s) = 6.56443 7.31246 6.94852
#
# Compressibility (1/GPa) = 0.01702255
#
# Stress axis : x y z
#
# Youngs Moduli (GPa) = 66.72273 32.37077 62.69629
#
# Poissons Ratio (x) = 0.27896 0.31607
# Poissons Ratio (y) = 0.57500 0.54823
# Poissons Ratio (z) = 0.33637 0.28306
#
# Static dielectric constant tensor:
#      x y z
#    x 3.524430 0.000000 0.000000 
#    y 0.000000 3.379390 0.000000 
#    z 0.000000 0.000000 3.534710 
# 
# 
# High freq. dielectric constant tensor:
#      x y z
#    x 1.735680 0.000000 0.000000 
#    y 0.000000 1.727870 0.000000 
#    z 0.000000 0.000000 1.742490 
# 
# From -- ./inp_files/33879.got.cif
#   From: 2010.03.12/outbox.cif.g09.slc.cpg/sg51_17_cif.got.tgz:33879.got - 2010.04.16 13:43:02.
