data_PCOD8213209
_publ_section_title
;
Structure prediction by ZEFSAII (Michael W. Deem and Ramdas Pophale) SiO2 
 PCOD8213209
Probable space group: P M M A
;
_chemical_formula_sum "Si O2"
_cell_formula_units_Z 48
_cell_length_a 8.976012
_cell_length_b 30.952447
_cell_length_c 9.170609
_cell_angle_alpha 90.000000
_cell_angle_beta 90.000000
_cell_angle_gamma 90.000000
_cell_volume 2547.866041
_symmetry_space_group_name_H-M "P M M A"
_symmetry_group_IT_number 51
_symmetry_cell_setting 'orthorhombic'
loop_
_space_group_symop_operation_xyz
x,y,z
1/2-x,-y,z
1/2+x,-y,-z
-x,y,-z
-x,-y,-z
1/2+x,y,-z
1/2-x,y,z
x,-y,z
loop_
_atom_site_type_symbol
_atom_site_label
_atom_site_fract_x
_atom_site_fract_y
_atom_site_fract_z
Si Si1 0.925910 0.882392 0.653377
Si Si2 0.922514 0.050625 0.149849
Si Si3 0.923931 0.545591 0.845545
Si Si4 0.074459 0.360976 0.156581
Si Si5 0.424141 0.200000 0.155135
Si Si6 0.426370 0.280875 0.344257
O O1 0.750000 0.888444 0.633655
O O2 0.966963 0.843457 0.760634
O O3 0.000000 0.871567 0.500000
O O4 0.996561 0.926142 0.716322
O O5 0.750000 0.064149 0.142100
O O6 0.942063 0.000000 0.176975
O O7 0.000000 0.065164 0.000000
O O8 0.750000 0.546194 0.874851
O O9 0.966414 0.500000 0.760940
O O10 0.967845 0.591669 0.772163
O O11 0.000000 0.544280 0.000000
O O12 0.250000 0.356037 0.132727
O O13 0.016489 0.324858 0.268071
O O14 0.000000 0.354228 0.000000
O O15 0.250000 0.203692 0.128966
O O16 0.481954 0.240836 0.247123
O O17 0.500000 0.199557 0.000000
O O18 0.500000 0.276808 0.500000
O O19 0.250000 0.280380 0.364426
#
# Coordination Sequence:
#
# PCOD8213209 Si02
#       6
#     8   8   8   8   8   8
#     4  11  23  38  57  82 112 145 180 218 263 313
#     4  10  21  38  60  85 113 146 184 225 267 311
#     4   8  13  22  38  62  91 121 154 196 245 292
#     4   9  17  29  47  71  97 126 163 205 248 298
#     4  10  22  38  57  81 106 134 170 212 257 307
#     4  10  21  36  52  73 101 132 168 207 250 301
#
# _framework density 18.839295
#
# number of rings (size 3 to 8) (size 9 to 14) (size 15 to 20)
#    0.000    2.333    0.000    2.500    0.000    5.333 
#    0.000    0.000    0.000    0.500    0.000    0.000 
#    0.000    0.000    0.000    0.000    0.000    0.000 
#
# Total GULP energy -594906.151412 kJ/mol
# GULP energy per Si atom -12393.878154 kJ/mol
# Density = 1.879642 g / cm^3
# Si number density = 18.839295 Si / 1000 Ang^3
#
#
#
# Elastic Constant Matrix: (Units=GPa)
#
#
# Indices 1 2 3 4 5 6 
#
# 1 58.9242 49.5152 50.5665 0.0000 0.0000 0.0000
# 2 49.5152 130.8313 69.9422 0.0000 0.0000 0.0000
# 3 50.5665 69.9422 134.0392 0.0000 0.0000 0.0000
# 4 0.0000 0.0000 0.0000 -0.5022 0.0000 0.0000
# 5 0.0000 0.0000 0.0000 0.0000 33.9837 0.0000
# 6 0.0000 0.0000 0.0000 0.0000 0.0000 13.4498
#
#
#
# Elastic Compliance Matrix: (Units=1/GPa)
#
#
# Indices 1 2 3 4 5 6 
#
# 1 0.029259 -0.007174 -0.007295 0.000000 0.000000 0.000000
# 2 -0.007174 0.012359 -0.003743 0.000000 0.000000 0.000000
# 3 -0.007295 -0.003743 0.012166 0.000000 0.000000 0.000000
# 4 0.000000 0.000000 0.000000 -1.991117 0.000000 0.000000
# 5 0.000000 0.000000 0.000000 0.000000 0.029426 0.000000
# 6 0.000000 0.000000 0.000000 0.000000 0.000000 0.074351
#
#
# Mechanical properties :
#
#
# Convention : Reuss Voigt Hill
#
# Bulk Modulus (GPa) = 57.59939 73.76027 65.67983
# Shear Modulus (GPa) = -2.79120 19.63762 8.42321
#
# Velocity S-wave (km/s) = -1.21852 3.23209 2.11679
# Velocity P-wave (km/s) = 5.35357 7.29149 6.39635
#
# Compressibility (1/GPa) = 0.01736130
#
# Stress axis : x y z
#
# Youngs Moduli (GPa) = 34.17700 80.90986 82.19963
#
# Poissons Ratio (x) = 0.58044 0.59963
# Poissons Ratio (y) = 0.24518 0.30766
# Poissons Ratio (z) = 0.24931 0.30283
#
# Static dielectric constant tensor:
#      x y z
#    x 3.421060 0.000000 0.000000 
#    y 0.000000 4.130250 0.000000 
#    z 0.000000 0.000000 3.227190 
# 
# 
# High freq. dielectric constant tensor:
#      x y z
#    x 1.730570 0.000000 0.000000 
#    y 0.000000 1.761070 0.000000 
#    z 0.000000 0.000000 1.705430 
# 
# From -- ./inp_files/6049.got.cif
#   From: 2010.03.12/outbox.cif.g09.slc.cpg/sg51_4_cif.got.tgz:6049.got - 2010.04.16 13:43:02.
