data_PCOD8213823
_publ_section_title
;
Structure prediction by ZEFSAII (Michael W. Deem and Ramdas Pophale) SiO2 
 PCOD8213823
Probable space group: P M M A
;
_chemical_formula_sum "Si O2"
_cell_formula_units_Z 64
_cell_length_a 22.762310
_cell_length_b 9.271763
_cell_length_c 16.254625
_cell_angle_alpha 90.000000
_cell_angle_beta 90.000000
_cell_angle_gamma 90.000000
_cell_volume 3430.485676
_symmetry_space_group_name_H-M "P M M A"
_symmetry_group_IT_number 51
_symmetry_cell_setting 'orthorhombic'
loop_
_space_group_symop_operation_xyz
x,y,z
1/2-x,-y,z
1/2+x,-y,-z
-x,y,-z
-x,-y,-z
1/2+x,y,-z
1/2-x,y,z
x,-y,z
loop_
_atom_site_type_symbol
_atom_site_label
_atom_site_fract_x
_atom_site_fract_y
_atom_site_fract_z
Si Si1 0.034254 0.165765 0.129552
Si Si2 0.633089 0.169330 0.441124
Si Si3 0.815836 0.330908 0.128780
Si Si4 0.819099 0.170687 0.618542
Si Si5 0.183280 0.655729 0.693515
Si Si6 0.916678 0.327907 0.714821
Si Si7 0.518851 0.340634 0.407054
Si Si8 0.085497 0.835593 0.951442
O O1 0.062587 0.270322 0.197166
O O2 0.967935 0.215020 0.107839
O O3 0.035716 0.000000 0.160780
O O4 0.071269 0.181956 0.046938
O O5 0.652539 0.220922 0.531585
O O6 0.681385 0.223665 0.376872
O O7 0.573603 0.234358 0.403596
O O8 0.627487 0.000000 0.439029
O O9 0.750000 0.268438 0.117875
O O10 0.816261 0.500000 0.112830
O O11 0.844199 0.295028 0.219101
O O12 0.856938 0.258090 0.061733
O O13 0.750000 0.212799 0.621226
O O14 0.854477 0.255122 0.689549
O O15 0.826722 0.000000 0.631138
O O16 0.250000 0.629019 0.717606
O O17 0.156786 0.500000 0.663806
O O18 0.908277 0.500000 0.717459
O O19 0.965745 0.279987 0.648201
O O20 0.500000 0.349540 0.500000
O O21 0.536675 0.500000 0.375195
O O22 0.099728 0.000000 0.930252
#
# Coordination Sequence:
#
# PCOD8213823 Si02
#       8
#     8   8   8   8   8   8   8   8
#     4   9  20  39  60  83 115 146 177 226 282 334
#     4  11  22  34  54  82 110 142 187 234 273 320
#     4   9  19  35  54  79 113 149 183 225 275 327
#     4  10  22  40  59  79 109 148 187 233 286 330
#     4   9  19  35  52  73 108 151 186 218 266 324
#     4  11  23  38  59  86 112 144 188 231 272 326
#     4  10  21  38  55  76 112 148 179 221 271 325
#     4   9  19  37  60  85 111 144 183 222 272 335
#
# _framework density 18.65625
#
# number of rings (size 3 to 8) (size 9 to 14) (size 15 to 20)
#    0.000    2.250    1.250    2.625    1.750    4.500 
#    0.000    3.125    0.000    0.750    0.000    0.000 
#    0.000    0.000    0.000    0.000    0.000    0.000 
#
# Total GULP energy -793265.033866 kJ/mol
# GULP energy per Si atom -12394.766154 kJ/mol
# Density = 1.861379 g / cm^3
# Si number density = 18.656250 Si / 1000 Ang^3
#
#
#
# Elastic Constant Matrix: (Units=GPa)
#
#
# Indices 1 2 3 4 5 6 
#
# 1 108.1562 48.1985 49.7139 0.0000 0.0000 0.0000
# 2 48.1985 65.5836 42.7084 0.0000 0.0000 0.0000
# 3 49.7139 42.7084 82.7399 0.0000 0.0000 0.0000
# 4 0.0000 0.0000 0.0000 33.6954 0.0000 0.0000
# 5 0.0000 0.0000 0.0000 0.0000 26.4863 0.0000
# 6 0.0000 0.0000 0.0000 0.0000 0.0000 33.2128
#
#
#
# Elastic Compliance Matrix: (Units=1/GPa)
#
#
# Indices 1 2 3 4 5 6 
#
# 1 0.015011 -0.007770 -0.005008 0.000000 0.000000 0.000000
# 2 -0.007770 0.026990 -0.009263 0.000000 0.000000 0.000000
# 3 -0.005008 -0.009263 0.019877 0.000000 0.000000 0.000000
# 4 0.000000 0.000000 0.000000 0.029678 0.000000 0.000000
# 5 0.000000 0.000000 0.000000 0.000000 0.037755 0.000000
# 6 0.000000 0.000000 0.000000 0.000000 0.000000 0.030109
#
#
# Mechanical properties :
#
#
# Convention : Reuss Voigt Hill
#
# Bulk Modulus (GPa) = 56.19708 59.74681 57.97194
# Shear Modulus (GPa) = 23.87386 26.40281 25.13833
#
# Velocity S-wave (km/s) = 3.58113 3.76603 3.67474
# Velocity P-wave (km/s) = 6.87656 7.14180 7.01043
#
# Compressibility (1/GPa) = 0.01779452
#
# Stress axis : x y z
#
# Youngs Moduli (GPa) = 66.61958 37.05038 50.31014
#
# Poissons Ratio (x) = 0.28788 0.25197
# Poissons Ratio (y) = 0.51764 0.46603
# Poissons Ratio (z) = 0.33365 0.34320
#
# Static dielectric constant tensor:
#      x y z
#    x 3.146600 0.000000 0.000000 
#    y 0.000000 3.364410 0.000000 
#    z 0.000000 0.000000 3.385800 
# 
# 
# High freq. dielectric constant tensor:
#      x y z
#    x 1.724640 0.000000 0.000000 
#    y 0.000000 1.719190 0.000000 
#    z 0.000000 0.000000 1.719380 
# 
# From -- ./inp_files/26212.got.cif
#   From: 2010.03.12/outbox.cif.g09.slc.cpg/sg51_14_cif.got.tgz:26212.got - 2010.04.16 13:43:02.
