data_PCOD8213770
_publ_section_title
;
Structure prediction by ZEFSAII (Michael W. Deem and Ramdas Pophale) SiO2 
 PCOD8213770
Probable space group: P M M A
;
_chemical_formula_sum "Si O2"
_cell_formula_units_Z 48
_cell_length_a 17.515723
_cell_length_b 8.907433
_cell_length_c 15.122023
_cell_angle_alpha 90.000000
_cell_angle_beta 90.000000
_cell_angle_gamma 90.000000
_cell_volume 2359.339980
_symmetry_space_group_name_H-M "P M M A"
_symmetry_group_IT_number 51
_symmetry_cell_setting 'orthorhombic'
loop_
_space_group_symop_operation_xyz
x,y,z
1/2-x,-y,z
1/2+x,-y,-z
-x,y,-z
-x,-y,-z
1/2+x,y,-z
1/2-x,y,z
x,-y,z
loop_
_atom_site_type_symbol
_atom_site_label
_atom_site_fract_x
_atom_site_fract_y
_atom_site_fract_z
Si Si1 0.087760 0.825411 0.989134
Si Si2 0.084302 0.176888 0.315058
Si Si3 0.837337 0.672306 0.526274
Si Si4 0.576525 0.675774 0.349092
Si Si5 0.337996 0.172284 0.804656
Si Si6 0.337896 0.675689 0.151376
O O1 0.112000 0.786202 0.889779
O O2 0.101126 0.000000 0.010876
O O3 0.139930 0.727720 0.053576
O O4 0.000000 0.779087 0.000000
O O5 0.143864 0.225851 0.389812
O O6 0.108954 0.239622 0.220658
O O7 0.000879 0.234218 0.338600
O O8 0.082325 0.000000 0.308121
O O9 0.750000 0.698499 0.498765
O O10 0.852221 0.500000 0.553163
O O11 0.889402 0.719559 0.444067
O O12 0.559659 0.500000 0.342562
O O13 0.637219 0.720751 0.274809
O O14 0.250000 0.202415 0.827292
O O15 0.351850 0.000000 0.776683
O O16 0.250000 0.716425 0.169605
O O17 0.352583 0.500000 0.160780
#
# Coordination Sequence:
#
# PCOD8213770 Si02
#       6
#     8   8   8   8   8   8
#     4  10  21  38  61  89 121 158 199 242 291 349
#     4  12  25  40  61  89 120 156 198 244 297 355
#     4  10  22  41  63  88 120 157 197 242 293 349
#     4  11  23  40  63  89 119 157 200 246 296 350
#     4  10  21  37  58  87 124 162 199 244 297 351
#     4  11  24  41  62  89 120 155 197 246 298 353
#
# _framework density 20.344674000000001
#
# number of rings (size 3 to 8) (size 9 to 14) (size 15 to 20)
#    0.000    1.333    0.000    5.500    0.000   11.000 
#    0.000    0.000    0.000    0.000    0.000    0.000 
#    0.000    0.000    0.000    0.000    0.000    0.000 
#
# Total GULP energy -595586.014659 kJ/mol
# GULP energy per Si atom -12408.041972 kJ/mol
# Density = 2.029837 g / cm^3
# Si number density = 20.344674 Si / 1000 Ang^3
#
#
#
# Elastic Constant Matrix: (Units=GPa)
#
#
# Indices 1 2 3 4 5 6 
#
# 1 80.3688 34.0477 13.6133 0.0000 0.0000 0.0000
# 2 34.0477 91.1928 36.7085 0.0000 0.0000 0.0000
# 3 13.6133 36.7085 84.0049 0.0000 0.0000 0.0000
# 4 0.0000 0.0000 0.0000 39.7507 0.0000 0.0000
# 5 0.0000 0.0000 0.0000 0.0000 42.6808 0.0000
# 6 0.0000 0.0000 0.0000 0.0000 0.0000 28.7812
#
#
#
# Elastic Compliance Matrix: (Units=1/GPa)
#
#
# Indices 1 2 3 4 5 6 
#
# 1 0.014781 -0.005526 0.000020 0.000000 0.000000 0.000000
# 2 -0.005526 0.015373 -0.005822 0.000000 0.000000 0.000000
# 3 0.000020 -0.005822 0.014445 0.000000 0.000000 0.000000
# 4 0.000000 0.000000 0.000000 0.025157 0.000000 0.000000
# 5 0.000000 0.000000 0.000000 0.000000 0.023430 0.000000
# 6 0.000000 0.000000 0.000000 0.000000 0.000000 0.034745
#
#
# Mechanical properties :
#
#
# Convention : Reuss Voigt Hill
#
# Bulk Modulus (GPa) = 45.57718 47.14505 46.36111
# Shear Modulus (GPa) = 31.66549 33.65566 32.66058
#
# Velocity S-wave (km/s) = 3.94947 4.07169 4.01104
# Velocity P-wave (km/s) = 6.57639 6.73263 6.65497
#
# Compressibility (1/GPa) = 0.02194081
#
# Stress axis : x y z
#
# Youngs Moduli (GPa) = 67.65664 65.05053 69.22818
#
# Poissons Ratio (x) = 0.35949 -0.00136
# Poissons Ratio (y) = 0.37389 0.40305
# Poissons Ratio (z) = -0.00133 0.37872
#
# Static dielectric constant tensor:
#      x y z
#    x 3.809490 0.000000 0.000000 
#    y 0.000000 3.732610 0.000000 
#    z 0.000000 0.000000 3.761160 
# 
# 
# High freq. dielectric constant tensor:
#      x y z
#    x 1.812230 0.000000 0.000000 
#    y 0.000000 1.792900 0.000000 
#    z 0.000000 0.000000 1.807180 
# 
# From -- ./inp_files/24681.got.cif
#   From: 2010.03.12/outbox.cif.g09.slc.cpg/sg51_13_cif.got.tgz:24681.got - 2010.04.16 13:43:02.
