data_PCOD8213903
_publ_section_title
;
Structure prediction by ZEFSAII (Michael W. Deem and Ramdas Pophale) SiO2 
 PCOD8213903
Probable space group: P M M A
;
_chemical_formula_sum "Si O2"
_cell_formula_units_Z 64
_cell_length_a 14.693390
_cell_length_b 23.182987
_cell_length_c 9.034292
_cell_angle_alpha 90.000000
_cell_angle_beta 90.000000
_cell_angle_gamma 90.000000
_cell_volume 3077.411137
_symmetry_space_group_name_H-M "P M M A"
_symmetry_group_IT_number 51
_symmetry_cell_setting 'orthorhombic'
loop_
_space_group_symop_operation_xyz
x,y,z
1/2-x,-y,z
1/2+x,-y,-z
-x,y,-z
-x,-y,-z
1/2+x,y,-z
1/2-x,y,z
x,-y,z
loop_
_atom_site_type_symbol
_atom_site_label
_atom_site_fract_x
_atom_site_fract_y
_atom_site_fract_z
Si Si1 0.355553 0.238291 0.735356
Si Si2 0.147433 0.728657 0.417259
Si Si3 0.473351 0.129943 0.832470
Si Si4 0.404001 0.063359 0.581023
Si Si5 0.643113 0.626692 0.793124
Si Si6 0.646955 0.359490 0.132344
Si Si7 0.847574 0.142474 0.664569
Si Si8 0.012508 0.565823 0.668146
O O1 0.250000 0.216016 0.717865
O O2 0.398095 0.261544 0.579032
O O3 0.423103 0.190557 0.803625
O O4 0.358787 0.291230 0.846598
O O5 0.250000 0.708435 0.450071
O O6 0.105321 0.680481 0.307143
O O7 0.143136 0.789050 0.335165
O O8 0.411577 0.080723 0.754959
O O9 0.570720 0.119740 0.759273
O O10 0.500000 0.118609 0.000000
O O11 0.500000 0.060608 0.500000
O O12 0.347065 0.113807 0.499577
O O13 0.357178 0.000000 0.572139
O O14 0.750000 0.616580 0.772142
O O15 0.587520 0.570747 0.740866
O O16 0.615925 0.633876 0.963506
O O17 0.750000 0.381754 0.156864
O O18 0.584531 0.394487 0.246112
O O19 0.750000 0.126717 0.738031
O O20 0.046311 0.500000 0.676965
O O21 0.000000 0.586815 0.500000
#
# Coordination Sequence:
#
# PCOD8213903 Si02
#       8
#     8   8   8   8   8   8   8   8
#     4  10  21  38  59  85 124 164 206 257 310 373
#     4   9  18  34  58  85 117 155 199 251 304 359
#     4  11  24  36  57  92 126 169 208 253 322 381
#     4   9  19  39  62  84 115 157 208 259 304 360
#     4  10  22  40  63  91 122 161 203 251 318 377
#     4  10  23  41  62  90 124 163 204 255 317 376
#     4  10  21  38  59  88 120 159 210 260 308 368
#     4  11  25  43  64  91 122 162 209 257 303 363
#
# _framework density 20.796700999999999
#
# number of rings (size 3 to 8) (size 9 to 14) (size 15 to 20)
#    0.000    2.000    1.250    1.125    3.500    4.000 
#    0.000    2.500    0.000    0.000    0.000    1.750 
#    0.000    0.000    0.000    0.000    0.000    0.000 
#
# Total GULP energy -792933.503529 kJ/mol
# GULP energy per Si atom -12389.585993 kJ/mol
# Density = 2.074937 g / cm^3
# Si number density = 20.796701 Si / 1000 Ang^3
#
#
#
# Elastic Constant Matrix: (Units=GPa)
#
#
# Indices 1 2 3 4 5 6 
#
# 1 78.3480 29.7063 36.1812 0.0000 0.0000 0.0000
# 2 29.7063 80.8542 33.8870 0.0000 0.0000 0.0000
# 3 36.1812 33.8870 138.9921 0.0000 0.0000 0.0000
# 4 0.0000 0.0000 0.0000 19.1959 0.0000 0.0000
# 5 0.0000 0.0000 0.0000 0.0000 25.2990 0.0000
# 6 0.0000 0.0000 0.0000 0.0000 0.0000 -2.4162
#
#
#
# Elastic Compliance Matrix: (Units=1/GPa)
#
#
# Indices 1 2 3 4 5 6 
#
# 1 0.015893 -0.004572 -0.003022 0.000000 0.000000 0.000000
# 2 -0.004572 0.015091 -0.002489 0.000000 0.000000 0.000000
# 3 -0.003022 -0.002489 0.008588 0.000000 0.000000 0.000000
# 4 0.000000 0.000000 0.000000 0.052094 0.000000 0.000000
# 5 0.000000 0.000000 0.000000 0.000000 0.039527 0.000000
# 6 0.000000 0.000000 0.000000 0.000000 0.000000 -0.413869
#
#
# Mechanical properties :
#
#
# Convention : Reuss Voigt Hill
#
# Bulk Modulus (GPa) = 51.53406 55.30482 53.41944
# Shear Modulus (GPa) = -19.52829 21.64371 1.05771
#
# Velocity S-wave (km/s) = -3.06765 3.22953 0.71393
# Velocity P-wave (km/s) = 3.50520 6.36846 5.14022
#
# Compressibility (1/GPa) = 0.01940464
#
# Stress axis : x y z
#
# Youngs Moduli (GPa) = 62.92084 66.26431 116.43841
#
# Poissons Ratio (x) = 0.30299 0.35191
# Poissons Ratio (y) = 0.28770 0.28982
# Poissons Ratio (z) = 0.19017 0.16493
#
# Static dielectric constant tensor:
#      x y z
#    x 3.836050 0.000000 0.000000 
#    y 0.000000 3.743390 0.000000 
#    z 0.000000 0.000000 3.887230 
# 
# 
# High freq. dielectric constant tensor:
#      x y z
#    x 1.814290 0.000000 0.000000 
#    y 0.000000 1.802060 0.000000 
#    z 0.000000 0.000000 1.812390 
# 
# From -- ./inp_files/8724.got.cif
#   From: 2010.03.12/outbox.cif.g09.slc.cpg/sg51_5_cif.got.tgz:8724.got - 2010.04.16 13:43:02.
