data_PCOD8213469
_publ_section_title
;
Structure prediction by ZEFSAII (Michael W. Deem and Ramdas Pophale) SiO2 
 PCOD8213469
Probable space group: P M M A
;
_chemical_formula_sum "Si O2"
_cell_formula_units_Z 56
_cell_length_a 15.987123
_cell_length_b 13.721194
_cell_length_c 12.784191
_cell_angle_alpha 90.000000
_cell_angle_beta 90.000000
_cell_angle_gamma 90.000000
_cell_volume 2804.371027
_symmetry_space_group_name_H-M "P M M A"
_symmetry_group_IT_number 51
_symmetry_cell_setting 'orthorhombic'
loop_
_space_group_symop_operation_xyz
x,y,z
1/2-x,-y,z
1/2+x,-y,-z
-x,y,-z
-x,-y,-z
1/2+x,y,-z
1/2-x,y,z
x,-y,z
loop_
_atom_site_type_symbol
_atom_site_label
_atom_site_fract_x
_atom_site_fract_y
_atom_site_fract_z
Si Si1 0.341563 0.721387 0.384666
Si Si2 0.451964 0.607341 0.105946
Si Si3 0.105504 0.200690 0.185371
Si Si4 0.431974 0.115948 0.776740
Si Si5 0.654439 0.756732 0.385167
Si Si6 0.989041 0.391017 0.329154
Si Si7 0.840273 0.887753 0.019305
O O1 0.250000 0.667197 0.389956
O O2 0.334662 0.796689 0.286441
O O3 0.353478 0.782704 0.491672
O O4 0.420306 0.649778 0.366518
O O5 0.408133 0.500000 0.099049
O O6 0.386733 0.694737 0.125631
O O7 0.516056 0.608012 0.203250
O O8 0.500000 0.630934 0.000000
O O9 0.125335 0.120120 0.098633
O O10 0.016296 0.176706 0.237299
O O11 0.370086 0.148973 0.683858
O O12 0.445718 0.000000 0.770444
O O13 0.399727 0.153470 0.890162
O O14 0.750000 0.727032 0.356754
O O15 0.591576 0.667117 0.368065
O O16 0.981910 0.500000 0.374804
O O17 0.750000 0.835313 0.026221
O O18 0.829531 0.000000 0.044938
#
# Coordination Sequence:
#
# PCOD8213469 Si02
#       7
#     8   8   8   8   8   8   8
#     4  10  22  39  60  85 120 157 198 245 293 357
#     4   9  17  31  54  83 116 152 188 227 283 352
#     4  11  20  35  60  87 116 152 199 244 300 351
#     4  11  22  38  60  87 117 155 202 250 305 361
#     4  11  23  40  60  85 119 159 200 247 301 356
#     4  10  21  38  63  90 119 155 197 247 300 353
#     4  10  21  36  56  85 119 152 194 249 300 353
#
# _framework density 19.968827000000001
#
# number of rings (size 3 to 8) (size 9 to 14) (size 15 to 20)
#    0.000    1.714    2.857    3.000    0.000    3.714 
#    0.000    3.571    0.000    3.000    0.000    4.000 
#    0.000    0.000    0.000    0.000    0.000    0.000 
#
# Total GULP energy -693769.189536 kJ/mol
# GULP energy per Si atom -12388.735527 kJ/mol
# Density = 1.992338 g / cm^3
# Si number density = 19.968827 Si / 1000 Ang^3
#
#
#
# Elastic Constant Matrix: (Units=GPa)
#
#
# Indices 1 2 3 4 5 6 
#
# 1 119.3731 30.5765 33.1419 0.0000 0.0000 0.0000
# 2 30.5765 69.3008 29.1229 0.0000 0.0000 0.0000
# 3 33.1419 29.1229 137.5968 0.0000 0.0000 0.0000
# 4 0.0000 0.0000 0.0000 16.8807 0.0000 0.0000
# 5 0.0000 0.0000 0.0000 0.0000 27.0338 0.0000
# 6 0.0000 0.0000 0.0000 0.0000 0.0000 16.6874
#
#
#
# Elastic Compliance Matrix: (Units=1/GPa)
#
#
# Indices 1 2 3 4 5 6 
#
# 1 0.009747 -0.003637 -0.001578 0.000000 0.000000 0.000000
# 2 -0.003637 0.017196 -0.002764 0.000000 0.000000 0.000000
# 3 -0.001578 -0.002764 0.008233 0.000000 0.000000 0.000000
# 4 0.000000 0.000000 0.000000 0.059239 0.000000 0.000000
# 5 0.000000 0.000000 0.000000 0.000000 0.036991 0.000000
# 6 0.000000 0.000000 0.000000 0.000000 0.000000 0.059925
#
#
# Mechanical properties :
#
#
# Convention : Reuss Voigt Hill
#
# Bulk Modulus (GPa) = 52.03436 56.88372 54.45904
# Shear Modulus (GPa) = 23.39791 27.68234 25.54012
#
# Velocity S-wave (km/s) = 3.42676 3.72731 3.58019
# Velocity P-wave (km/s) = 6.46307 6.86090 6.66495
#
# Compressibility (1/GPa) = 0.01921807
#
# Stress axis : x y z
#
# Youngs Moduli (GPa) = 102.59748 58.15289 121.46917
#
# Poissons Ratio (x) = 0.21153 0.19165
# Poissons Ratio (y) = 0.37319 0.33568
# Poissons Ratio (z) = 0.16188 0.16071
#
# Static dielectric constant tensor:
#      x y z
#    x 3.667190 0.000000 0.000000 
#    y 0.000000 3.589350 0.000000 
#    z 0.000000 0.000000 3.953340 
# 
# 
# High freq. dielectric constant tensor:
#      x y z
#    x 1.769790 0.000000 0.000000 
#    y 0.000000 1.758510 0.000000 
#    z 0.000000 0.000000 1.800870 
# 
# From -- ./inp_files/16616.got.cif
#   From: 2010.03.12/outbox.cif.g09.slc.cpg/sg51_9_cif.got.tgz:16616.got - 2010.04.16 13:43:02.
