data_PCOD8213286
_publ_section_title
;
Structure prediction by ZEFSAII (Michael W. Deem and Ramdas Pophale) SiO2 
 PCOD8213286
Probable space group: P M M A
;
_chemical_formula_sum "Si O2"
_cell_formula_units_Z 40
_cell_length_a 9.145060
_cell_length_b 7.695629
_cell_length_c 29.395897
_cell_angle_alpha 90.000000
_cell_angle_beta 90.000000
_cell_angle_gamma 90.000000
_cell_volume 2068.794718
_symmetry_space_group_name_H-M "P M M A"
_symmetry_group_IT_number 51
_symmetry_cell_setting 'orthorhombic'
loop_
_space_group_symop_operation_xyz
x,y,z
1/2-x,-y,z
1/2+x,-y,-z
-x,y,-z
-x,-y,-z
1/2+x,y,-z
1/2-x,y,z
x,-y,z
loop_
_atom_site_type_symbol
_atom_site_label
_atom_site_fract_x
_atom_site_fract_y
_atom_site_fract_z
Si Si1 0.076985 0.000000 0.712926
Si Si2 0.423666 0.000000 0.611682
Si Si3 0.589212 0.800654 0.041511
Si Si4 0.921389 0.696981 0.453474
Si Si5 0.415907 0.704207 0.129229
Si Si6 0.921224 0.301002 0.220745
O O1 0.007829 0.000000 0.662361
O O2 0.025809 0.174825 0.738777
O O3 0.250000 0.000000 0.709164
O O4 0.477840 0.826799 0.585708
O O5 0.250000 0.000000 0.614650
O O6 0.750000 0.711913 0.046110
O O7 0.501836 0.790703 0.088237
O O8 0.612368 0.000000 0.028854
O O9 0.500000 0.710005 0.000000
O O10 0.750000 0.719773 0.461909
O O11 0.960077 0.500000 0.438603
O O12 0.000000 0.748332 0.500000
O O13 0.250000 0.773642 0.129775
O O14 0.421481 0.500000 0.122323
O O15 0.492494 0.758389 0.176071
O O16 0.750000 0.278017 0.210505
O O17 0.957746 0.500000 0.234468
#
# Coordination Sequence:
#
# PCOD8213286 Si02
#       6
#     4   4   8   8   8   8
#     4   9  18  31  50  76 101 129 168 210 259 310
#     4   9  17  29  46  72 102 129 165 214 257 300
#     4  10  21  36  54  77 105 135 167 204 248 301
#     4   9  17  29  47  71  99 133 171 209 252 300
#     4  10  21  36  54  76 101 131 167 207 252 302
#     4   9  18  33  52  74 100 129 165 211 257 304
#
# _framework density 19.33493
#
# number of rings (size 3 to 8) (size 9 to 14) (size 15 to 20)
#    0.000    2.600    0.000    1.500    1.400    3.600 
#    0.000    4.000    0.000    2.400    0.000    5.600 
#    0.000    0.000    0.000    0.000    0.000    0.000 
#
# Total GULP energy -495941.310785 kJ/mol
# GULP energy per Si atom -12398.532770 kJ/mol
# Density = 1.929092 g / cm^3
# Si number density = 19.334930 Si / 1000 Ang^3
#
#
#
# Elastic Constant Matrix: (Units=GPa)
#
#
# Indices 1 2 3 4 5 6 
#
# 1 86.4773 30.6471 60.9878 0.0000 0.0000 0.0000
# 2 30.6471 92.0569 77.6308 0.0000 0.0000 0.0000
# 3 60.9878 77.6308 182.5590 0.0000 0.0000 0.0000
# 4 0.0000 0.0000 0.0000 95.8826 0.0000 0.0000
# 5 0.0000 0.0000 0.0000 0.0000 25.5239 0.0000
# 6 0.0000 0.0000 0.0000 0.0000 0.0000 14.0545
#
#
#
# Elastic Compliance Matrix: (Units=1/GPa)
#
#
# Indices 1 2 3 4 5 6 
#
# 1 0.015214 -0.001214 -0.004566 0.000000 0.000000 0.000000
# 2 -0.001214 0.017033 -0.006837 0.000000 0.000000 0.000000
# 3 -0.004566 -0.006837 0.009911 0.000000 0.000000 0.000000
# 4 0.000000 0.000000 0.000000 0.010429 0.000000 0.000000
# 5 0.000000 0.000000 0.000000 0.000000 0.039179 0.000000
# 6 0.000000 0.000000 0.000000 0.000000 0.000000 0.071151
#
#
# Mechanical properties :
#
#
# Convention : Reuss Voigt Hill
#
# Bulk Modulus (GPa) = 59.09468 77.73609 68.41538
# Shear Modulus (GPa) = 25.80048 39.88071 32.84060
#
# Velocity S-wave (km/s) = 3.65690 4.54654 4.12577
# Velocity P-wave (km/s) = 6.96137 8.23733 7.62608
#
# Compressibility (1/GPa) = 0.01692200
#
# Stress axis : x y z
#
# Youngs Moduli (GPa) = 65.72685 58.70943 100.90138
#
# Poissons Ratio (x) = 0.07130 0.46075
# Poissons Ratio (y) = 0.07982 0.68990
# Poissons Ratio (z) = 0.30013 0.40142
#
# Static dielectric constant tensor:
#      x y z
#    x 3.074280 0.000000 0.000000 
#    y 0.000000 3.572510 0.000000 
#    z 0.000000 0.000000 3.653700 
# 
# 
# High freq. dielectric constant tensor:
#      x y z
#    x 1.732620 0.000000 0.000000 
#    y 0.000000 1.754580 0.000000 
#    z 0.000000 0.000000 1.748710 
# 
# From -- ./inp_files/36013.got.cif
#   From: 2010.03.12/outbox.cif.g09.slc.cpg/sg51_19_cif.got.tgz:36013.got - 2010.04.16 13:43:02.
