data_PCOD8213854
_publ_section_title
;
Structure prediction by ZEFSAII (Michael W. Deem and Ramdas Pophale) SiO2 
 PCOD8213854
Probable space group: P M M A
;
_chemical_formula_sum "Si O2"
_cell_formula_units_Z 56
_cell_length_a 21.065869
_cell_length_b 14.394980
_cell_length_c 9.385462
_cell_angle_alpha 90.000000
_cell_angle_beta 90.000000
_cell_angle_gamma 90.000000
_cell_volume 2846.073428
_symmetry_space_group_name_H-M "P M M A"
_symmetry_group_IT_number 51
_symmetry_cell_setting 'orthorhombic'
loop_
_space_group_symop_operation_xyz
x,y,z
1/2-x,-y,z
1/2+x,-y,-z
-x,y,-z
-x,-y,-z
1/2+x,y,-z
1/2-x,y,z
x,-y,z
loop_
_atom_site_type_symbol
_atom_site_label
_atom_site_fract_x
_atom_site_fract_y
_atom_site_fract_z
Si Si1 0.677403 0.608113 0.305203
Si Si2 0.995807 0.104576 0.838410
Si Si3 0.678360 0.260019 0.048767
Si Si4 0.137829 0.104639 0.748869
Si Si5 0.572650 0.608402 0.540613
Si Si6 0.890738 0.239731 0.757417
Si Si7 0.676215 0.896721 0.558439
O O1 0.750000 0.634230 0.355221
O O2 0.673178 0.500000 0.271624
O O3 0.659495 0.659409 0.159024
O O4 0.623790 0.636400 0.419569
O O5 0.062952 0.108931 0.763682
O O6 0.952274 0.175031 0.753061
O O7 0.967546 0.000000 0.833495
O O8 0.000000 0.139128 0.000000
O O9 0.750000 0.272856 0.993479
O O10 0.672759 0.161722 0.128306
O O11 0.631325 0.265161 0.915751
O O12 0.152532 0.144692 0.592393
O O13 0.163803 0.000000 0.762931
O O14 0.500000 0.633609 0.500000
O O15 0.578260 0.500000 0.577699
O O16 0.592638 0.664172 0.680893
O O17 0.837514 0.178787 0.679336
O O18 0.750000 0.909775 0.550279
O O19 0.645928 0.000000 0.587658
#
# Coordination Sequence:
#
# PCOD8213854 Si02
#       7
#     8   8   8   8   8   8   8
#     4   9  20  42  68  88 114 157 204 248 297 360
#     4  10  21  38  58  84 119 155 201 248 286 345
#     4  11  23  37  58  90 120 150 195 244 295 357
#     4  10  21  38  59  82 114 159 205 244 285 340
#     4  10  24  43  63  91 124 157 200 254 308 364
#     4  12  24  36  61  87 123 158 197 239 312 360
#     4  10  22  39  58  86 123 159 200 249 299 355
#
# _framework density 19.676231000000001
#
# number of rings (size 3 to 8) (size 9 to 14) (size 15 to 20)
#    0.000    1.714    1.429    2.143    4.000    4.286 
#    0.000    2.143    0.000    3.000    0.000    0.000 
#    0.000    0.000    0.000    0.000    0.000    0.000 
#
# Total GULP energy -694434.707068 kJ/mol
# GULP energy per Si atom -12400.619769 kJ/mol
# Density = 1.963145 g / cm^3
# Si number density = 19.676231 Si / 1000 Ang^3
#
#
#
# Elastic Constant Matrix: (Units=GPa)
#
#
# Indices 1 2 3 4 5 6 
#
# 1 86.9524 41.8665 45.0640 0.0000 0.0000 0.0000
# 2 41.8665 80.3782 54.3990 0.0000 0.0000 0.0000
# 3 45.0640 54.3990 113.9552 0.0000 0.0000 0.0000
# 4 0.0000 0.0000 0.0000 35.2394 0.0000 0.0000
# 5 0.0000 0.0000 0.0000 0.0000 32.6329 0.0000
# 6 0.0000 0.0000 0.0000 0.0000 0.0000 63.9901
#
#
#
# Elastic Compliance Matrix: (Units=1/GPa)
#
#
# Indices 1 2 3 4 5 6 
#
# 1 0.016256 -0.006081 -0.003525 0.000000 0.000000 0.000000
# 2 -0.006081 0.020654 -0.007455 0.000000 0.000000 0.000000
# 3 -0.003525 -0.007455 0.013728 0.000000 0.000000 0.000000
# 4 0.000000 0.000000 0.000000 0.028377 0.000000 0.000000
# 5 0.000000 0.000000 0.000000 0.000000 0.030644 0.000000
# 6 0.000000 0.000000 0.000000 0.000000 0.000000 0.015627
#
#
# Mechanical properties :
#
#
# Convention : Reuss Voigt Hill
#
# Bulk Modulus (GPa) = 60.55037 62.66050 61.60543
# Shear Modulus (GPa) = 30.31882 35.70292 33.01087
#
# Velocity S-wave (km/s) = 3.92967 4.26434 4.10042
# Velocity P-wave (km/s) = 7.17146 7.49407 7.33454
#
# Compressibility (1/GPa) = 0.01651518
#
# Stress axis : x y z
#
# Youngs Moduli (GPa) = 61.51733 48.41682 72.84257
#
# Poissons Ratio (x) = 0.29443 0.25680
# Poissons Ratio (y) = 0.37409 0.54303
# Poissons Ratio (z) = 0.21687 0.36094
#
# Static dielectric constant tensor:
#      x y z
#    x 3.619840 0.000000 0.000000 
#    y 0.000000 3.676310 0.000000 
#    z 0.000000 0.000000 3.448060 
# 
# 
# High freq. dielectric constant tensor:
#      x y z
#    x 1.773630 0.000000 0.000000 
#    y 0.000000 1.772890 0.000000 
#    z 0.000000 0.000000 1.760410 
# 
# From -- ./inp_files/10961.got.cif
#   From: 2010.03.12/outbox.cif.g09.slc.cpg/sg51_6_cif.got.tgz:10961.got - 2010.04.16 13:43:02.
