data_PCOD8213258
_publ_section_title
;
Structure prediction by ZEFSAII (Michael W. Deem and Ramdas Pophale) SiO2 
 PCOD8213258
Probable space group: P M M A
;
_chemical_formula_sum "Si O2"
_cell_formula_units_Z 48
_cell_length_a 8.915340
_cell_length_b 9.712393
_cell_length_c 30.538212
_cell_angle_alpha 90.000000
_cell_angle_beta 90.000000
_cell_angle_gamma 90.000000
_cell_volume 2644.281967
_symmetry_space_group_name_H-M "P M M A"
_symmetry_group_IT_number 51
_symmetry_cell_setting 'orthorhombic'
loop_
_space_group_symop_operation_xyz
x,y,z
1/2-x,-y,z
1/2+x,-y,-z
-x,y,-z
-x,-y,-z
1/2+x,y,-z
1/2-x,y,z
x,-y,z
loop_
_atom_site_type_symbol
_atom_site_label
_atom_site_fract_x
_atom_site_fract_y
_atom_site_fract_z
Si Si1 0.076156 0.157882 0.708789
Si Si2 0.928147 0.347806 0.878474
Si Si3 0.075544 0.840068 0.381439
Si Si4 0.426033 0.658064 0.545126
Si Si5 0.427163 0.157259 0.044478
Si Si6 0.422551 0.338430 0.219686
O O1 0.250000 0.181149 0.697894
O O2 0.980757 0.201643 0.666581
O O3 0.029542 0.253516 0.748787
O O4 0.043178 0.000000 0.721627
O O5 0.750000 0.352038 0.880549
O O6 0.992286 0.500000 0.888673
O O7 0.992578 0.242780 0.914515
O O8 0.975078 0.301631 0.829670
O O9 0.250000 0.804674 0.384901
O O10 0.985721 0.751441 0.416129
O O11 0.042848 0.000000 0.390785
O O12 0.500000 0.707755 0.500000
O O13 0.250000 0.678640 0.540621
O O14 0.468884 0.500000 0.555148
O O15 0.250000 0.173453 0.040444
O O16 0.475526 0.000000 0.052192
O O17 0.500000 0.215094 0.000000
O O18 0.250000 0.294913 0.227248
O O19 0.442902 0.500000 0.228717
#
# Coordination Sequence:
#
# PCOD8213258 Si02
#       6
#     8   8   8   8   8   8
#     4  10  21  36  53  75 104 136 169 207 252 301
#     4   8  15  29  48  69  93 121 156 198 240 285
#     4  10  21  37  57  80 105 136 175 216 257 302
#     4  10  21  37  57  81 109 141 176 214 257 304
#     4   9  17  29  45  66  92 122 156 194 237 285
#     4   9  18  33  53  76 100 128 165 208 252 299
#
# _framework density 18.152374999999999
#
# number of rings (size 3 to 8) (size 9 to 14) (size 15 to 20)
#    0.000    2.667    0.000    2.500    0.000    5.333 
#    0.000    2.500    0.000    3.000    0.000    0.000 
#    0.000    0.000    0.000    0.000    0.000    0.000 
#
# Total GULP energy -595242.507394 kJ/mol
# GULP energy per Si atom -12400.885571 kJ/mol
# Density = 1.811106 g / cm^3
# Si number density = 18.152375 Si / 1000 Ang^3
#
#
#
# Elastic Constant Matrix: (Units=GPa)
#
#
# Indices 1 2 3 4 5 6 
#
# 1 48.8425 28.3715 33.7612 0.0000 0.0000 0.0000
# 2 28.3715 71.5203 70.5394 0.0000 0.0000 0.0000
# 3 33.7612 70.5394 136.1052 0.0000 0.0000 0.0000
# 4 0.0000 0.0000 0.0000 39.4910 0.0000 0.0000
# 5 0.0000 0.0000 0.0000 0.0000 33.7300 0.0000
# 6 0.0000 0.0000 0.0000 0.0000 0.0000 26.2525
#
#
#
# Elastic Compliance Matrix: (Units=1/GPa)
#
#
# Indices 1 2 3 4 5 6 
#
# 1 0.026964 -0.008387 -0.002342 0.000000 0.000000 0.000000
# 2 -0.008387 0.031211 -0.014096 0.000000 0.000000 0.000000
# 3 -0.002342 -0.014096 0.015234 0.000000 0.000000 0.000000
# 4 0.000000 0.000000 0.000000 0.025322 0.000000 0.000000
# 5 0.000000 0.000000 0.000000 0.000000 0.029647 0.000000
# 6 0.000000 0.000000 0.000000 0.000000 0.000000 0.038092
#
#
# Mechanical properties :
#
#
# Convention : Reuss Voigt Hill
#
# Bulk Modulus (GPa) = 42.08626 57.97911 50.03269
# Shear Modulus (GPa) = 22.31758 28.14779 25.23268
#
# Velocity S-wave (km/s) = 3.51017 3.94209 3.73238
# Velocity P-wave (km/s) = 6.29791 7.26152 6.79681
#
# Compressibility (1/GPa) = 0.02376072
#
# Stress axis : x y z
#
# Youngs Moduli (GPa) = 37.08587 32.03985 65.64477
#
# Poissons Ratio (x) = 0.26871 0.15374
# Poissons Ratio (y) = 0.31103 0.92530
# Poissons Ratio (z) = 0.08686 0.45162
#
# Static dielectric constant tensor:
#      x y z
#    x 3.051970 0.000000 0.000000 
#    y 0.000000 3.426380 0.000000 
#    z 0.000000 0.000000 3.522350 
# 
# 
# High freq. dielectric constant tensor:
#      x y z
#    x 1.690990 0.000000 0.000000 
#    y 0.000000 1.700170 0.000000 
#    z 0.000000 0.000000 1.712650 
# 
# From -- ./inp_files/36928.got.cif
#   From: 2010.03.12/outbox.cif.g09.slc.cpg/sg51_19_cif.got.tgz:36928.got - 2010.04.16 13:43:02.
