data_PCOD8213104
_publ_section_title
;
Structure prediction by ZEFSAII (Michael W. Deem and Ramdas Pophale) SiO2 
 PCOD8213104
Probable space group: P M M A
;
_chemical_formula_sum "Si O2"
_cell_formula_units_Z 64
_cell_length_a 8.882709
_cell_length_b 20.073455
_cell_length_c 18.518385
_cell_angle_alpha 90.000000
_cell_angle_beta 90.000000
_cell_angle_gamma 90.000000
_cell_volume 3301.951367
_symmetry_space_group_name_H-M "P M M A"
_symmetry_group_IT_number 51
_symmetry_cell_setting 'orthorhombic'
loop_
_space_group_symop_operation_xyz
x,y,z
1/2-x,-y,z
1/2+x,-y,-z
-x,y,-z
-x,-y,-z
1/2+x,y,-z
1/2-x,y,z
x,-y,z
loop_
_atom_site_type_symbol
_atom_site_label
_atom_site_fract_x
_atom_site_fract_y
_atom_site_fract_z
Si Si1 0.573893 0.691201 0.824013
Si Si2 0.426494 0.425258 0.574519
Si Si3 0.075099 0.923683 0.190277
Si Si4 0.425473 0.077212 0.660150
Si Si5 0.074100 0.185072 0.077525
Si Si6 0.574266 0.574627 0.927235
Si Si7 0.926898 0.303111 0.328562
Si Si8 0.071629 0.808863 0.423896
O O1 0.750000 0.696123 0.803001
O O2 0.527527 0.748741 0.879684
O O3 0.532144 0.620821 0.859995
O O4 0.469958 0.697036 0.754681
O O5 0.500000 0.401186 0.500000
O O6 0.250000 0.424285 0.561851
O O7 0.481577 0.500000 0.595549
O O8 0.473809 0.374341 0.637449
O O9 0.250000 0.910856 0.208298
O O10 0.020307 0.878898 0.123533
O O11 0.981053 0.902361 0.260345
O O12 0.044123 0.000000 0.168929
O O13 0.250000 0.094020 0.654253
O O14 0.515238 0.118329 0.600038
O O15 0.459609 0.000000 0.645068
O O16 0.250000 0.182583 0.064421
O O17 0.000000 0.183609 0.000000
O O18 0.750000 0.575808 0.941671
O O19 0.516058 0.500000 0.909846
O O20 0.500000 0.602757 0.000000
O O21 0.750000 0.289188 0.337804
O O22 0.020371 0.244916 0.365691
O O23 0.250000 0.809171 0.430876
O O24 0.000000 0.789152 0.500000
#
# Coordination Sequence:
#
# PCOD8213104 Si02
#       8
#     8   8   8   8   8   8   8   8
#     4  10  21  36  53  76 107 141 179 224 276 332
#     4   9  19  36  57  82 112 145 181 222 270 325
#     4   9  18  34  55  79 109 145 182 220 268 325
#     4  10  21  38  61  89 118 148 186 230 275 327
#     4  10  21  35  52  75 103 137 177 223 272 323
#     4   9  18  33  53  77 106 141 182 228 278 333
#     4  11  23  38  58  84 113 146 187 233 279 330
#     4  12  25  41  61  84 114 150 188 231 279 331
#
# _framework density 19.382479
#
# number of rings (size 3 to 8) (size 9 to 14) (size 15 to 20)
#    0.000    2.000    0.000    3.375    0.000    6.250 
#    0.000    0.000    0.000    0.000    0.000    0.000 
#    0.000    0.000    0.000    0.000    0.000    0.000 
#
# Total GULP energy -793842.478470 kJ/mol
# GULP energy per Si atom -12403.788726 kJ/mol
# Density = 1.933836 g / cm^3
# Si number density = 19.382479 Si / 1000 Ang^3
#
#
#
# Elastic Constant Matrix: (Units=GPa)
#
#
# Indices 1 2 3 4 5 6 
#
# 1 78.1795 39.0576 45.7816 0.0000 0.0000 0.0000
# 2 39.0576 94.8735 48.6208 0.0000 0.0000 0.0000
# 3 45.7816 48.6208 112.0637 0.0000 0.0000 0.0000
# 4 0.0000 0.0000 0.0000 27.9450 0.0000 0.0000
# 5 0.0000 0.0000 0.0000 0.0000 38.9037 0.0000
# 6 0.0000 0.0000 0.0000 0.0000 0.0000 20.8065
#
#
#
# Elastic Compliance Matrix: (Units=1/GPa)
#
#
# Indices 1 2 3 4 5 6 
#
# 1 0.018354 -0.004775 -0.005427 0.000000 0.000000 0.000000
# 2 -0.004775 0.014796 -0.004469 0.000000 0.000000 0.000000
# 3 -0.005427 -0.004469 0.013079 0.000000 0.000000 0.000000
# 4 0.000000 0.000000 0.000000 0.035785 0.000000 0.000000
# 5 0.000000 0.000000 0.000000 0.000000 0.025704 0.000000
# 6 0.000000 0.000000 0.000000 0.000000 0.000000 0.048062
#
#
# Mechanical properties :
#
#
# Convention : Reuss Voigt Hill
#
# Bulk Modulus (GPa) = 59.21030 61.33739 60.27384
# Shear Modulus (GPa) = 26.21202 27.64149 26.92676
#
# Velocity S-wave (km/s) = 3.68143 3.78048 3.73128
# Velocity P-wave (km/s) = 6.97748 7.12534 7.05180
#
# Compressibility (1/GPa) = 0.01688895
#
# Stress axis : x y z
#
# Youngs Moduli (GPa) = 54.48256 67.58399 76.45652
#
# Poissons Ratio (x) = 0.32273 0.41490
# Poissons Ratio (y) = 0.26016 0.34167
# Poissons Ratio (z) = 0.29566 0.30202
#
# Static dielectric constant tensor:
#      x y z
#    x 3.293500 0.000000 0.000000 
#    y 0.000000 3.944860 0.000000 
#    z 0.000000 0.000000 3.486730 
# 
# 
# High freq. dielectric constant tensor:
#      x y z
#    x 1.751130 0.000000 0.000000 
#    y 0.000000 1.769760 0.000000 
#    z 0.000000 0.000000 1.753360 
# 
# From -- ./inp_files/28474.got.cif
#   From: 2010.03.12/outbox.cif.g09.slc.cpg/sg51_15_cif.got.tgz:28474.got - 2010.04.16 13:43:02.
