data_PCOD8213107
_publ_section_title
;
Structure prediction by ZEFSAII (Michael W. Deem and Ramdas Pophale) SiO2 
 PCOD8213107
Probable space group: P M M A
;
_chemical_formula_sum "Si O2"
_cell_formula_units_Z 56
_cell_length_a 14.703017
_cell_length_b 9.296282
_cell_length_c 21.611638
_cell_angle_alpha 90.000000
_cell_angle_beta 90.000000
_cell_angle_gamma 90.000000
_cell_volume 2953.951995
_symmetry_space_group_name_H-M "P M M A"
_symmetry_group_IT_number 51
_symmetry_cell_setting 'orthorhombic'
loop_
_space_group_symop_operation_xyz
x,y,z
1/2-x,-y,z
1/2+x,-y,-z
-x,y,-z
-x,-y,-z
1/2+x,y,-z
1/2-x,y,z
x,-y,z
loop_
_atom_site_type_symbol
_atom_site_label
_atom_site_fract_x
_atom_site_fract_y
_atom_site_fract_z
Si Si1 0.003378 0.165994 0.647947
Si Si2 0.356741 0.333587 0.862996
Si Si3 0.002518 0.832034 0.789659
Si Si4 0.144331 0.332443 0.572718
Si Si5 0.857929 0.159461 0.019368
Si Si6 0.351059 0.170704 0.116579
Si Si7 0.646197 0.166139 0.549465
O O1 0.978106 0.198458 0.718655
O O2 0.088812 0.263000 0.628861
O O3 0.914932 0.207488 0.608084
O O4 0.030524 0.000000 0.638310
O O5 0.250000 0.308174 0.853899
O O6 0.382572 0.500000 0.862396
O O7 0.406182 0.253626 0.806656
O O8 0.392085 0.267849 0.927909
O O9 0.919182 0.771493 0.830911
O O10 0.019814 0.000000 0.802109
O O11 0.250000 0.303006 0.585882
O O12 0.122104 0.500000 0.568341
O O13 0.113363 0.259617 0.508648
O O14 0.750000 0.150822 0.018120
O O15 0.889571 0.214813 0.951503
O O16 0.897829 0.000000 0.033520
O O17 0.250000 0.236255 0.128099
O O18 0.343989 0.000000 0.119613
O O19 0.750000 0.201939 0.567459
O O20 0.634572 0.000000 0.530759
#
# Coordination Sequence:
#
# PCOD8213107 Si02
#       7
#     8   8   8   8   8   8   8
#     4  10  21  35  52  77 107 138 171 206 248 298
#     4  10  21  36  52  71  99 134 171 214 261 305
#     4  10  21  35  52  76 104 136 173 208 246 298
#     4  10  21  36  55  79 104 133 171 212 254 298
#     4   8  14  28  52  77  98 125 164 209 257 305
#     4   8  15  30  53  79 104 130 164 208 254 301
#     4   9  18  34  56  81 108 135 164 203 251 300
#
# _framework density 18.957653000000001
#
# number of rings (size 3 to 8) (size 9 to 14) (size 15 to 20)
#    0.000    2.714    0.000    2.143    0.000    6.286 
#    0.000    9.286    0.000    1.286    0.000    2.000 
#    0.000    0.000    0.000    0.000    0.000    0.000 
#
# Total GULP energy -694427.349996 kJ/mol
# GULP energy per Si atom -12400.488393 kJ/mol
# Density = 1.891450 g / cm^3
# Si number density = 18.957653 Si / 1000 Ang^3
#
#
#
# Elastic Constant Matrix: (Units=GPa)
#
#
# Indices 1 2 3 4 5 6 
#
# 1 63.1813 36.0092 39.0922 0.0000 0.0000 0.0000
# 2 36.0092 70.1257 41.9138 0.0000 0.0000 0.0000
# 3 39.0922 41.9138 106.1743 0.0000 0.0000 0.0000
# 4 0.0000 0.0000 0.0000 2.8629 0.0000 0.0000
# 5 0.0000 0.0000 0.0000 0.0000 30.2793 0.0000
# 6 0.0000 0.0000 0.0000 0.0000 0.0000 20.7653
#
#
#
# Elastic Compliance Matrix: (Units=1/GPa)
#
#
# Indices 1 2 3 4 5 6 
#
# 1 0.024459 -0.009393 -0.005297 0.000000 0.000000 0.000000
# 2 -0.009393 0.022271 -0.005333 0.000000 0.000000 0.000000
# 3 -0.005297 -0.005333 0.013474 0.000000 0.000000 0.000000
# 4 0.000000 0.000000 0.000000 0.349302 0.000000 0.000000
# 5 0.000000 0.000000 0.000000 0.000000 0.033026 0.000000
# 6 0.000000 0.000000 0.000000 0.000000 0.000000 0.048157
#
#
# Mechanical properties :
#
#
# Convention : Reuss Voigt Hill
#
# Bulk Modulus (GPa) = 49.61218 52.61241 51.11230
# Shear Modulus (GPa) = 9.30310 18.94591 14.12450
#
# Velocity S-wave (km/s) = 2.21765 3.16473 2.73253
# Velocity P-wave (km/s) = 5.72574 6.41614 6.08075
#
# Compressibility (1/GPa) = 0.02015634
#
# Stress axis : x y z
#
# Youngs Moduli (GPa) = 40.88551 44.90103 74.21536
#
# Poissons Ratio (x) = 0.42176 0.39314
# Poissons Ratio (y) = 0.38405 0.39582
# Poissons Ratio (z) = 0.21658 0.23948
#
# Static dielectric constant tensor:
#      x y z
#    x 3.544680 0.000000 0.000000 
#    y 0.000000 3.306950 0.000000 
#    z 0.000000 0.000000 3.543770 
# 
# 
# High freq. dielectric constant tensor:
#      x y z
#    x 1.737890 0.000000 0.000000 
#    y 0.000000 1.712050 0.000000 
#    z 0.000000 0.000000 1.735540 
# 
# From -- ./inp_files/33414.got.cif
#   From: 2010.03.12/outbox.cif.g09.slc.cpg/sg51_17_cif.got.tgz:33414.got - 2010.04.16 13:43:02.
