data_PCOD8213180
_publ_section_title
;
Structure prediction by ZEFSAII (Michael W. Deem and Ramdas Pophale) SiO2 
 PCOD8213180
Probable space group: P M M A
;
_chemical_formula_sum "Si O2"
_cell_formula_units_Z 48
_cell_length_a 14.548424
_cell_length_b 8.897296
_cell_length_c 19.689098
_cell_angle_alpha 90.000000
_cell_angle_beta 90.000000
_cell_angle_gamma 90.000000
_cell_volume 2548.589030
_symmetry_space_group_name_H-M "P M M A"
_symmetry_group_IT_number 51
_symmetry_cell_setting 'orthorhombic'
loop_
_space_group_symop_operation_xyz
x,y,z
1/2-x,-y,z
1/2+x,-y,-z
-x,y,-z
-x,-y,-z
1/2+x,y,-z
1/2-x,y,z
x,-y,z
loop_
_atom_site_type_symbol
_atom_site_label
_atom_site_fract_x
_atom_site_fract_y
_atom_site_fract_z
Si Si1 0.494117 0.176258 0.832467
Si Si2 0.144884 0.676319 0.085562
Si Si3 0.750000 0.179251 0.526473
Si Si4 0.055704 0.177707 0.680196
Si Si5 0.354654 0.823654 0.947310
Si Si6 0.561484 0.677806 0.564278
Si Si7 0.250000 0.822505 0.627092
O O1 0.588219 0.259273 0.851247
O O2 0.466280 0.222761 0.756979
O O3 0.413629 0.230130 0.883024
O O4 0.510711 0.000000 0.838557
O O5 0.250000 0.724730 0.097170
O O6 0.132690 0.500000 0.082048
O O7 0.107340 0.744730 0.015079
O O8 0.840056 0.242414 0.562978
O O9 0.750000 0.240182 0.449374
O O10 0.750000 0.000000 0.530964
O O11 0.159345 0.234284 0.665844
O O12 0.986932 0.268143 0.632604
O O13 0.045074 0.000000 0.666791
O O14 0.250000 0.774974 0.932607
O O15 0.363390 0.000000 0.959230
O O16 0.500000 0.728552 0.500000
O O17 0.575512 0.500000 0.565488
O O18 0.250000 0.000000 0.624950
#
# Coordination Sequence:
#
# PCOD8213180 Si02
#       7
#     8   8   4   8   8   8   4
#     4  10  21  35  56  84 113 145 182 228 280 333
#     4  10  21  37  56  77 105 146 192 234 277 329
#     4  11  21  37  65  91 111 146 195 242 285 333
#     4  10  21  38  59  86 117 150 189 232 280 340
#     4   9  18  33  55  84 114 143 178 225 279 332
#     4  11  23  39  59  86 120 154 190 234 284 339
#     4   9  18  33  59  89 115 144 181 230 281 331
#
# _framework density 18.833950999999999
#
# number of rings (size 3 to 8) (size 9 to 14) (size 15 to 20)
#    0.000    2.000    1.667    1.750    1.167    5.000 
#    1.500    0.417    0.000    0.000    0.000    0.000 
#    0.000    0.000    0.000    0.000    0.000    0.000 
#
# Total GULP energy -595393.215840 kJ/mol
# GULP energy per Si atom -12404.025330 kJ/mol
# Density = 1.879108 g / cm^3
# Si number density = 18.833951 Si / 1000 Ang^3
#
#
#
# Elastic Constant Matrix: (Units=GPa)
#
#
# Indices 1 2 3 4 5 6 
#
# 1 141.6901 45.4152 80.3043 0.0000 0.0000 0.0000
# 2 45.4152 48.0463 39.4793 0.0000 0.0000 0.0000
# 3 80.3043 39.4793 136.9235 0.0000 0.0000 0.0000
# 4 0.0000 0.0000 0.0000 19.3740 0.0000 0.0000
# 5 0.0000 0.0000 0.0000 0.0000 28.9904 0.0000
# 6 0.0000 0.0000 0.0000 0.0000 0.0000 24.1550
#
#
#
# Elastic Compliance Matrix: (Units=1/GPa)
#
#
# Indices 1 2 3 4 5 6 
#
# 1 0.012334 -0.007489 -0.005075 0.000000 0.000000 0.000000
# 2 -0.007489 0.031822 -0.004783 0.000000 0.000000 0.000000
# 3 -0.005075 -0.004783 0.011659 0.000000 0.000000 0.000000
# 4 0.000000 0.000000 0.000000 0.051616 0.000000 0.000000
# 5 0.000000 0.000000 0.000000 0.000000 0.034494 0.000000
# 6 0.000000 0.000000 0.000000 0.000000 0.000000 0.041399
#
#
# Mechanical properties :
#
#
# Convention : Reuss Voigt Hill
#
# Bulk Modulus (GPa) = 47.34444 73.00640 60.17542
# Shear Modulus (GPa) = 22.21648 25.26795 23.74221
#
# Velocity S-wave (km/s) = 3.43825 3.66678 3.55435
# Velocity P-wave (km/s) = 6.39957 7.53488 6.99031
#
# Compressibility (1/GPa) = 0.02112180
#
# Stress axis : x y z
#
# Youngs Moduli (GPa) = 81.07612 31.42440 85.77317
#
# Poissons Ratio (x) = 0.23534 0.43526
# Poissons Ratio (y) = 0.60717 0.41027
# Poissons Ratio (z) = 0.41142 0.15031
#
# Static dielectric constant tensor:
#      x y z
#    x 3.660390 0.000000 0.000000 
#    y 0.000000 3.279890 0.000000 
#    z 0.000000 0.000000 3.481260 
# 
# 
# High freq. dielectric constant tensor:
#      x y z
#    x 1.744840 0.000000 0.000000 
#    y 0.000000 1.719390 0.000000 
#    z 0.000000 0.000000 1.728620 
# 
# From -- ./inp_files/29543.got.cif
#   From: 2010.03.12/outbox.cif.g09.slc.cpg/sg51_15_cif.got.tgz:29543.got - 2010.04.16 13:43:02.
