data_PCOD8213064
_publ_section_title
;
Structure prediction by ZEFSAII (Michael W. Deem and Ramdas Pophale) SiO2 
 PCOD8213064
Probable space group: P M M A
;
_chemical_formula_sum "Si O2"
_cell_formula_units_Z 48
_cell_length_a 19.205242
_cell_length_b 7.982180
_cell_length_c 14.740363
_cell_angle_alpha 90.000000
_cell_angle_beta 90.000000
_cell_angle_gamma 90.000000
_cell_volume 2259.693205
_symmetry_space_group_name_H-M "P M M A"
_symmetry_group_IT_number 51
_symmetry_cell_setting 'orthorhombic'
loop_
_space_group_symop_operation_xyz
x,y,z
1/2-x,-y,z
1/2+x,-y,-z
-x,y,-z
-x,-y,-z
1/2+x,y,-z
1/2-x,y,z
x,-y,z
loop_
_atom_site_type_symbol
_atom_site_label
_atom_site_fract_x
_atom_site_fract_y
_atom_site_fract_z
Si Si1 0.828482 0.500000 0.689496
Si Si2 0.424030 0.808740 0.010476
Si Si3 0.828316 0.694954 0.143266
Si Si4 0.170267 0.195117 0.174919
Si Si5 0.032402 0.500000 0.398708
Si Si6 0.672723 0.696070 0.352317
Si Si7 0.467187 0.821507 0.598569
O O1 0.750000 0.500000 0.649656
O O2 0.841567 0.327677 0.744234
O O3 0.883635 0.500000 0.605995
O O4 0.378516 0.736276 0.093539
O O5 0.437103 0.000000 0.034766
O O6 0.500000 0.719508 0.000000
O O7 0.382627 0.796408 0.916623
O O8 0.750000 0.751800 0.118869
O O9 0.837740 0.500000 0.122939
O O10 0.843695 0.735897 0.247684
O O11 0.250000 0.206965 0.141224
O O12 0.154216 0.000000 0.203746
O O13 0.000000 0.500000 0.500000
O O14 0.002637 0.333892 0.347461
O O15 0.750000 0.760444 0.378306
O O16 0.667161 0.500000 0.371300
O O17 0.615766 0.792732 0.412209
O O18 0.500000 0.829939 0.500000
O O19 0.480896 0.000000 0.648338
#
# Coordination Sequence:
#
# PCOD8213064 Si02
#       7
#     4   8   8   8   4   8   8
#     4  10  22  40  65  91 112 151 208 249 297 364
#     4  10  21  35  50  77 117 156 196 242 295 348
#     4   9  19  34  53  78 110 149 194 241 287 340
#     4   9  19  37  59  84 117 156 202 257 302 341
#     4  10  22  42  62  87 124 151 184 239 301 364
#     4   9  18  35  58  87 121 156 198 249 299 351
#     4  10  21  38  61  88 119 156 194 236 296 366
#
# _framework density 21.241821999999999
#
# number of rings (size 3 to 8) (size 9 to 14) (size 15 to 20)
#    0.000    2.500    0.833    1.500    1.167    4.333 
#    0.000    6.667    0.000    1.000    0.000    0.000 
#    0.000    0.000    0.000    0.000    0.000    0.000 
#
# Total GULP energy -594722.743466 kJ/mol
# GULP energy per Si atom -12390.057156 kJ/mol
# Density = 2.119348 g / cm^3
# Si number density = 21.241822 Si / 1000 Ang^3
#
#
#
# Elastic Constant Matrix: (Units=GPa)
#
#
# Indices 1 2 3 4 5 6 
#
# 1 183.3166 49.7282 63.0140 0.0000 0.0000 0.0000
# 2 49.7282 120.6799 19.2590 0.0000 0.0000 0.0000
# 3 63.0140 19.2590 59.1368 0.0000 0.0000 0.0000
# 4 0.0000 0.0000 0.0000 2.8512 0.0000 0.0000
# 5 0.0000 0.0000 0.0000 0.0000 38.2212 0.0000
# 6 0.0000 0.0000 0.0000 0.0000 0.0000 13.6154
#
#
#
# Elastic Compliance Matrix: (Units=1/GPa)
#
#
# Indices 1 2 3 4 5 6 
#
# 1 0.009198 -0.002348 -0.009037 0.000000 0.000000 0.000000
# 2 -0.002348 0.009340 -0.000540 0.000000 0.000000 0.000000
# 3 -0.009037 -0.000540 0.026715 0.000000 0.000000 0.000000
# 4 0.000000 0.000000 0.000000 0.350734 0.000000 0.000000
# 5 0.000000 0.000000 0.000000 0.000000 0.026163 0.000000
# 6 0.000000 0.000000 0.000000 0.000000 0.000000 0.073446
#
#
# Mechanical properties :
#
#
# Convention : Reuss Voigt Hill
#
# Bulk Modulus (GPa) = 46.71965 69.68174 58.20070
# Shear Modulus (GPa) = 9.49522 26.34637 17.92079
#
# Velocity S-wave (km/s) = 2.11655 3.52562 2.90773
# Velocity P-wave (km/s) = 5.29292 7.03197 6.22348
#
# Compressibility (1/GPa) = 0.02140427
#
# Stress axis : x y z
#
# Youngs Moduli (GPa) = 108.71524 107.06510 37.43241
#
# Poissons Ratio (x) = 0.25141 0.33826
# Poissons Ratio (y) = 0.25528 0.02020
# Poissons Ratio (z) = 0.98242 0.05778
#
# Static dielectric constant tensor:
#      x y z
#    x 4.255630 0.000000 0.000000 
#    y 0.000000 4.978570 0.000000 
#    z 0.000000 0.000000 3.345450 
# 
# 
# High freq. dielectric constant tensor:
#      x y z
#    x 1.847790 0.000000 0.000000 
#    y 0.000000 1.837500 0.000000 
#    z 0.000000 0.000000 1.789000 
# 
# From -- ./inp_files/24892.got.cif
#   From: 2010.03.12/outbox.cif.g09.slc.cpg/sg51_13_cif.got.tgz:24892.got - 2010.04.16 13:43:02.
