data_PCOD8213727
_publ_section_title
;
Structure prediction by ZEFSAII (Michael W. Deem and Ramdas Pophale) SiO2 
 PCOD8213727
Probable space group: P M M A
;
_chemical_formula_sum "Si O2"
_cell_formula_units_Z 64
_cell_length_a 13.982634
_cell_length_b 9.104283
_cell_length_c 25.091420
_cell_angle_alpha 90.000000
_cell_angle_beta 90.000000
_cell_angle_gamma 90.000000
_cell_volume 3194.184361
_symmetry_space_group_name_H-M "P M M A"
_symmetry_group_IT_number 51
_symmetry_cell_setting 'orthorhombic'
loop_
_space_group_symop_operation_xyz
x,y,z
1/2-x,-y,z
1/2+x,-y,-z
-x,y,-z
-x,-y,-z
1/2+x,y,-z
1/2-x,y,z
x,-y,z
loop_
_atom_site_type_symbol
_atom_site_label
_atom_site_fract_x
_atom_site_fract_y
_atom_site_fract_z
Si Si1 0.458297 0.169870 0.186889
Si Si2 0.359929 0.666411 0.470390
Si Si3 0.642218 0.670386 0.405530
Si Si4 0.139343 0.671614 0.282956
Si Si5 0.636132 0.665676 0.025238
Si Si6 0.540065 0.826510 0.620862
Si Si7 0.143417 0.830804 0.870607
Si Si8 0.137472 0.168394 0.077618
O O1 0.424544 0.272096 0.234448
O O2 0.572560 0.192619 0.179404
O O3 0.407020 0.222961 0.132975
O O4 0.433563 0.000000 0.199761
O O5 0.250000 0.684749 0.453795
O O6 0.393980 0.500000 0.457888
O O7 0.374277 0.701833 0.532207
O O8 0.423240 0.780414 0.437434
O O9 0.750000 0.715773 0.389322
O O10 0.624844 0.500000 0.392722
O O11 0.568273 0.767728 0.371450
O O12 0.250000 0.704501 0.270577
O O13 0.120483 0.500000 0.291478
O O14 0.110242 0.756027 0.336140
O O15 0.750000 0.676570 0.023508
O O16 0.599020 0.500000 0.027247
O O17 0.600331 0.746958 0.078358
O O18 0.593723 0.739308 0.971664
O O19 0.541001 0.000000 0.627399
O O20 0.250000 0.775220 0.854666
O O21 0.146298 0.000000 0.887513
O O22 0.250000 0.192511 0.081980
O O23 0.110306 0.000000 0.067302
#
# Coordination Sequence:
#
# PCOD8213727 Si02
#       8
#     8   8   8   8   8   8   8   8
#     4  10  21  37  58  82 106 137 179 227 279 331
#     4   9  18  34  57  85 118 157 198 237 280 334
#     4   9  19  37  60  85 117 158 198 235 278 330
#     4  11  25  44  64  84 108 141 182 229 280 335
#     4   9  17  29  47  73 105 140 177 218 263 313
#     4  12  24  36  56  86 118 153 192 236 285 334
#     4   9  18  34  55  78 107 142 177 215 264 323
#     4   9  17  30  49  73 103 138 173 213 268 334
#
# _framework density 20.036415000000002
#
# number of rings (size 3 to 8) (size 9 to 14) (size 15 to 20)
#    0.000    2.250    0.000    3.750    0.000    8.500 
#    0.000    5.625    0.000    2.250    0.000    0.000 
#    0.000    0.000    0.000    0.000    0.000    0.000 
#
# Total GULP energy -793711.824236 kJ/mol
# GULP energy per Si atom -12401.747254 kJ/mol
# Density = 1.999081 g / cm^3
# Si number density = 20.036415 Si / 1000 Ang^3
#
#
#
# Elastic Constant Matrix: (Units=GPa)
#
#
# Indices 1 2 3 4 5 6 
#
# 1 72.2005 38.6245 30.9263 0.0000 0.0000 0.0000
# 2 38.6245 100.7810 34.6702 0.0000 0.0000 0.0000
# 3 30.9263 34.6702 50.2596 0.0000 0.0000 0.0000
# 4 0.0000 0.0000 0.0000 35.2749 0.0000 0.0000
# 5 0.0000 0.0000 0.0000 0.0000 31.4614 0.0000
# 6 0.0000 0.0000 0.0000 0.0000 0.0000 23.1517
#
#
#
# Elastic Compliance Matrix: (Units=1/GPa)
#
#
# Indices 1 2 3 4 5 6 
#
# 1 0.020292 -0.004565 -0.009337 0.000000 0.000000 0.000000
# 2 -0.004565 0.014037 -0.006874 0.000000 0.000000 0.000000
# 3 -0.009337 -0.006874 0.030384 0.000000 0.000000 0.000000
# 4 0.000000 0.000000 0.000000 0.028349 0.000000 0.000000
# 5 0.000000 0.000000 0.000000 0.000000 0.031785 0.000000
# 6 0.000000 0.000000 0.000000 0.000000 0.000000 0.043193
#
#
# Mechanical properties :
#
#
# Convention : Reuss Voigt Hill
#
# Bulk Modulus (GPa) = 43.17701 47.96479 45.57090
# Shear Modulus (GPa) = 23.00838 25.91227 24.46033
#
# Velocity S-wave (km/s) = 3.39238 3.60009 3.49778
# Velocity P-wave (km/s) = 6.07786 6.42430 6.25348
#
# Compressibility (1/GPa) = 0.02316047
#
# Stress axis : x y z
#
# Youngs Moduli (GPa) = 49.28103 71.24181 32.91194
#
# Poissons Ratio (x) = 0.32520 0.30731
# Poissons Ratio (y) = 0.22495 0.22624
# Poissons Ratio (z) = 0.46015 0.48972
#
# Static dielectric constant tensor:
#      x y z
#    x 3.843220 0.000000 0.000000 
#    y 0.000000 3.534470 0.000000 
#    z 0.000000 0.000000 3.499740 
# 
# 
# High freq. dielectric constant tensor:
#      x y z
#    x 1.797340 0.000000 0.000000 
#    y 0.000000 1.770840 0.000000 
#    z 0.000000 0.000000 1.762010 
# 
# From -- ./inp_files/35692.got.cif
#   From: 2010.03.12/outbox.cif.g09.slc.cpg/sg51_18_cif.got.tgz:35692.got - 2010.04.16 13:43:02.
