data_PCOD8213501
_publ_section_title
;
Structure prediction by ZEFSAII (Michael W. Deem and Ramdas Pophale) SiO2 
 PCOD8213501
Probable space group: P M M A
;
_chemical_formula_sum "Si O2"
_cell_formula_units_Z 64
_cell_length_a 14.796408
_cell_length_b 24.211423
_cell_length_c 9.212492
_cell_angle_alpha 90.000000
_cell_angle_beta 90.000000
_cell_angle_gamma 90.000000
_cell_volume 3300.302416
_symmetry_space_group_name_H-M "P M M A"
_symmetry_group_IT_number 51
_symmetry_cell_setting 'orthorhombic'
loop_
_space_group_symop_operation_xyz
x,y,z
1/2-x,-y,z
1/2+x,-y,-z
-x,y,-z
-x,-y,-z
1/2+x,y,-z
1/2-x,y,z
x,-y,z
loop_
_atom_site_type_symbol
_atom_site_label
_atom_site_fract_x
_atom_site_fract_y
_atom_site_fract_z
Si Si1 0.851246 0.725456 0.987459
Si Si2 0.496841 0.367710 0.663678
Si Si3 0.648388 0.064927 0.334502
Si Si4 0.644399 0.063627 0.664298
Si Si5 0.507819 0.749255 0.220741
Si Si6 0.001143 0.869212 0.825800
Si Si7 0.650564 0.396499 0.876201
Si Si8 0.355296 0.561362 0.824643
O O1 0.750000 0.751433 0.986450
O O2 0.846635 0.661113 0.959072
O O3 0.914864 0.753554 0.869145
O O4 0.899500 0.734142 0.140250
O O5 0.500000 0.388260 0.500000
O O6 0.502416 0.300398 0.663273
O O7 0.581349 0.396013 0.743999
O O8 0.406895 0.391150 0.736941
O O9 0.750000 0.086813 0.309978
O O10 0.616894 0.078715 0.498919
O O11 0.585019 0.092225 0.214445
O O12 0.644563 0.000000 0.309653
O O13 0.750000 0.074023 0.688792
O O14 0.591474 0.101932 0.777287
O O15 0.619544 0.000000 0.695691
O O16 0.516034 0.812918 0.270066
O O17 0.000000 0.857946 0.000000
O O18 0.750000 0.411329 0.813573
O O19 0.620362 0.438480 0.003093
O O20 0.250000 0.574740 0.804143
O O21 0.379337 0.500000 0.766203
#
# Coordination Sequence:
#
# PCOD8213501 Si02
#       8
#     8   8   8   8   8   8   8   8
#     4   9  16  33  58  75  98 142 191 232 269 318
#     4  11  23  37  58  85 121 157 189 232 291 344
#     4   9  20  40  61  79 106 149 196 234 276 340
#     4   9  20  40  62  80 106 153 200 233 277 343
#     4  10  21  37  51  82 114 150 191 225 275 347
#     4  12  23  34  54  90 119 144 181 238 299 342
#     4   9  18  35  60  84 108 145 194 238 277 332
#     4  10  21  38  62  89 114 149 199 244 282 334
#
# _framework density 19.392161999999999
#
# number of rings (size 3 to 8) (size 9 to 14) (size 15 to 20)
#    0.000    2.125    2.500    1.875    0.000    6.250 
#    0.000    1.250    0.000    1.500    0.000    0.000 
#    0.000    0.000    0.000    0.000    0.000    0.000 
#
# Total GULP energy -793092.765106 kJ/mol
# GULP energy per Si atom -12392.074455 kJ/mol
# Density = 1.934802 g / cm^3
# Si number density = 19.392162 Si / 1000 Ang^3
#
#
#
# Elastic Constant Matrix: (Units=GPa)
#
#
# Indices 1 2 3 4 5 6 
#
# 1 118.0088 27.7584 49.0664 0.0000 0.0000 0.0000
# 2 27.7584 65.8328 36.0489 0.0000 0.0000 0.0000
# 3 49.0664 36.0489 88.8709 0.0000 0.0000 0.0000
# 4 0.0000 0.0000 0.0000 9.5512 0.0000 0.0000
# 5 0.0000 0.0000 0.0000 0.0000 4.2426 0.0000
# 6 0.0000 0.0000 0.0000 0.0000 0.0000 5.1199
#
#
#
# Elastic Compliance Matrix: (Units=1/GPa)
#
#
# Indices 1 2 3 4 5 6 
#
# 1 0.011147 -0.001710 -0.005461 0.000000 0.000000 0.000000
# 2 -0.001710 0.019790 -0.007083 0.000000 0.000000 0.000000
# 3 -0.005461 -0.007083 0.017140 0.000000 0.000000 0.000000
# 4 0.000000 0.000000 0.000000 0.104699 0.000000 0.000000
# 5 0.000000 0.000000 0.000000 0.000000 0.235702 0.000000
# 6 0.000000 0.000000 0.000000 0.000000 0.000000 0.195316
#
#
# Mechanical properties :
#
#
# Convention : Reuss Voigt Hill
#
# Bulk Modulus (GPa) = 51.10090 55.38445 53.24268
# Shear Modulus (GPa) = 8.07984 14.43867 11.25925
#
# Velocity S-wave (km/s) = 2.04343 2.73163 2.41220
# Velocity P-wave (km/s) = 5.65473 6.21058 5.93916
#
# Compressibility (1/GPa) = 0.01956913
#
# Stress axis : x y z
#
# Youngs Moduli (GPa) = 89.71381 50.53155 58.34208
#
# Poissons Ratio (x) = 0.08640 0.31858
# Poissons Ratio (y) = 0.15340 0.41325
# Poissons Ratio (z) = 0.48989 0.35793
#
# Static dielectric constant tensor:
#      x y z
#    x 3.932840 0.000000 0.000000 
#    y 0.000000 3.615200 0.000000 
#    z 0.000000 0.000000 3.228100 
# 
# 
# High freq. dielectric constant tensor:
#      x y z
#    x 1.767630 0.000000 0.000000 
#    y 0.000000 1.755340 0.000000 
#    z 0.000000 0.000000 1.721030 
# 
# From -- ./inp_files/8744.got.cif
#   From: 2010.03.12/outbox.cif.g09.slc.cpg/sg51_5_cif.got.tgz:8744.got - 2010.04.16 13:43:02.
