data_PCOD8213463
_publ_section_title
;
Structure prediction by ZEFSAII (Michael W. Deem and Ramdas Pophale) SiO2 
 PCOD8213463
Probable space group: P M M A
;
_chemical_formula_sum "Si O2"
_cell_formula_units_Z 48
_cell_length_a 15.901358
_cell_length_b 8.762685
_cell_length_c 17.881020
_cell_angle_alpha 90.000000
_cell_angle_beta 90.000000
_cell_angle_gamma 90.000000
_cell_volume 2491.516136
_symmetry_space_group_name_H-M "P M M A"
_symmetry_group_IT_number 51
_symmetry_cell_setting 'orthorhombic'
loop_
_space_group_symop_operation_xyz
x,y,z
1/2-x,-y,z
1/2+x,-y,-z
-x,y,-z
-x,-y,-z
1/2+x,y,-z
1/2-x,y,z
x,-y,z
loop_
_atom_site_type_symbol
_atom_site_label
_atom_site_fract_x
_atom_site_fract_y
_atom_site_fract_z
Si Si1 0.750000 0.676744 0.712292
Si Si2 0.410011 0.320846 0.530145
Si Si3 0.091902 0.174663 0.222053
Si Si4 0.345632 0.672776 0.821902
Si Si5 0.573274 0.824540 0.313440
Si Si6 0.479159 0.177302 0.916097
Si Si7 0.750000 0.820139 0.551266
O O1 0.750000 0.500000 0.690025
O O2 0.668709 0.713345 0.762085
O O3 0.750000 0.777146 0.637933
O O4 0.500000 0.261304 0.500000
O O5 0.400395 0.500000 0.517800
O O6 0.405130 0.282527 0.617250
O O7 0.334286 0.241665 0.486686
O O8 0.056780 0.212840 0.139459
O O9 0.021081 0.205145 0.284674
O O10 0.122764 0.000000 0.226051
O O11 0.250000 0.687521 0.846938
O O12 0.369138 0.500000 0.799161
O O13 0.362162 0.783054 0.752009
O O14 0.399133 0.723483 0.893311
O O15 0.586390 0.000000 0.336439
O O16 0.454836 0.000000 0.910047
O O17 0.500000 0.226087 0.000000
O O18 0.750000 0.000000 0.543041
#
# Coordination Sequence:
#
# PCOD8213463 Si02
#       7
#     4   8   8   8   8   8   4
#     4  12  24  38  58  84 115 150 195 242 286 344
#     4  11  24  41  61  87 120 156 195 245 303 358
#     4   9  19  37  60  85 114 151 193 238 286 340
#     4  10  21  36  56  84 117 154 190 231 283 340
#     4  10  21  37  60  85 113 151 196 242 287 343
#     4   9  19  38  62  87 115 148 190 237 286 339
#     4  12  26  42  62  86 117 158 201 250 300 350
#
# _framework density 19.265377999999998
#
# number of rings (size 3 to 8) (size 9 to 14) (size 15 to 20)
#    0.000    1.833    0.000    5.000    1.167    9.000 
#    1.500    0.000    0.000    0.000    0.000    0.000 
#    0.000    0.000    0.000    0.000    0.000    0.000 
#
# Total GULP energy -595403.408183 kJ/mol
# GULP energy per Si atom -12404.237670 kJ/mol
# Density = 1.922153 g / cm^3
# Si number density = 19.265378 Si / 1000 Ang^3
#
#
#
# Elastic Constant Matrix: (Units=GPa)
#
#
# Indices 1 2 3 4 5 6 
#
# 1 132.5406 60.1244 56.2608 0.0000 0.0000 0.0000
# 2 60.1244 85.3721 29.1325 0.0000 0.0000 0.0000
# 3 56.2608 29.1325 119.3098 0.0000 0.0000 0.0000
# 4 0.0000 0.0000 0.0000 28.0591 0.0000 0.0000
# 5 0.0000 0.0000 0.0000 0.0000 17.1606 0.0000
# 6 0.0000 0.0000 0.0000 0.0000 0.0000 28.3956
#
#
#
# Elastic Compliance Matrix: (Units=1/GPa)
#
#
# Indices 1 2 3 4 5 6 
#
# 1 0.012736 -0.007549 -0.004162 0.000000 0.000000 0.000000
# 2 -0.007549 0.017253 -0.000653 0.000000 0.000000 0.000000
# 3 -0.004162 -0.000653 0.010504 0.000000 0.000000 0.000000
# 4 0.000000 0.000000 0.000000 0.035639 0.000000 0.000000
# 5 0.000000 0.000000 0.000000 0.000000 0.058273 0.000000
# 6 0.000000 0.000000 0.000000 0.000000 0.000000 0.035217
#
#
# Mechanical properties :
#
#
# Convention : Reuss Voigt Hill
#
# Bulk Modulus (GPa) = 63.43673 69.80642 66.62157
# Shear Modulus (GPa) = 25.04937 27.50338 26.27638
#
# Velocity S-wave (km/s) = 3.60978 3.78247 3.69713
# Velocity P-wave (km/s) = 7.09742 7.44237 7.27194
#
# Compressibility (1/GPa) = 0.01576374
#
# Stress axis : x y z
#
# Youngs Moduli (GPa) = 78.51542 57.96125 95.20385
#
# Poissons Ratio (x) = 0.43757 0.39629
# Poissons Ratio (y) = 0.59274 0.06215
# Poissons Ratio (z) = 0.32682 0.03784
#
# Static dielectric constant tensor:
#      x y z
#    x 3.586040 0.000000 0.000000 
#    y 0.000000 3.588800 0.000000 
#    z 0.000000 0.000000 3.495910 
# 
# 
# High freq. dielectric constant tensor:
#      x y z
#    x 1.752310 0.000000 0.000000 
#    y 0.000000 1.755830 0.000000 
#    z 0.000000 0.000000 1.749060 
# 
# From -- ./inp_files/29617.got.cif
#   From: 2010.03.12/outbox.cif.g09.slc.cpg/sg51_15_cif.got.tgz:29617.got - 2010.04.16 13:43:02.
