data_PCOD8213532
_publ_section_title
;
Structure prediction by ZEFSAII (Michael W. Deem and Ramdas Pophale) SiO2 
 PCOD8213532
Probable space group: P M M A
;
_chemical_formula_sum "Si O2"
_cell_formula_units_Z 64
_cell_length_a 17.754755
_cell_length_b 9.421144
_cell_length_c 20.524762
_cell_angle_alpha 90.000000
_cell_angle_beta 90.000000
_cell_angle_gamma 90.000000
_cell_volume 3433.179065
_symmetry_space_group_name_H-M "P M M A"
_symmetry_group_IT_number 51
_symmetry_cell_setting 'orthorhombic'
loop_
_space_group_symop_operation_xyz
x,y,z
1/2-x,-y,z
1/2+x,-y,-z
-x,y,-z
-x,-y,-z
1/2+x,y,-z
1/2-x,y,z
x,-y,z
loop_
_atom_site_type_symbol
_atom_site_label
_atom_site_fract_x
_atom_site_fract_y
_atom_site_fract_z
Si Si1 0.837050 0.835915 0.764013
Si Si2 0.663261 0.338421 0.995983
Si Si3 0.421470 0.662587 0.873160
Si Si4 0.663776 0.334004 0.256383
Si Si5 0.160314 0.159822 0.479127
Si Si6 0.571589 0.832228 0.892263
Si Si7 0.660219 0.659907 0.640412
Si Si8 0.339469 0.159522 0.622733
O O1 0.750000 0.802247 0.778757
O O2 0.883513 0.791469 0.827260
O O3 0.868211 0.743338 0.704088
O O4 0.848369 0.000000 0.745623
O O5 0.750000 0.295976 0.988391
O O6 0.648926 0.500000 0.972360
O O7 0.614260 0.231243 0.953907
O O8 0.641403 0.322609 0.071353
O O9 0.450227 0.500000 0.868613
O O10 0.384218 0.713151 0.805865
O O11 0.489388 0.766152 0.889380
O O12 0.750000 0.286520 0.244832
O O13 0.658599 0.500000 0.268666
O O14 0.628197 0.259327 0.320282
O O15 0.250000 0.162097 0.476654
O O16 0.127032 0.264508 0.424205
O O17 0.132293 0.209472 0.550981
O O18 0.131882 0.000000 0.464930
O O19 0.565132 0.000000 0.901730
O O20 0.750000 0.661926 0.638413
O O21 0.628911 0.500000 0.643042
O O22 0.250000 0.166438 0.623183
O O23 0.367489 0.000000 0.636272
#
# Coordination Sequence:
#
# PCOD8213532 Si02
#       8
#     8   8   8   8   8   8   8   8
#     4   9  18  33  50  67  93 130 166 201 246 299
#     4  10  21  38  60  82 104 134 170 206 247 298
#     4  10  21  37  55  76 104 137 171 206 248 300
#     4   9  17  30  49  72  98 130 169 212 254 296
#     4   8  13  22  36  56  88 129 164 195 241 299
#     4  11  23  37  54  78 106 135 169 209 252 298
#     4   9  16  24  38  64  94 122 158 205 249 290
#     4   8  14  24  39  62  93 128 165 204 247 297
#
# _framework density 18.641615999999999
#
# number of rings (size 3 to 8) (size 9 to 14) (size 15 to 20)
#    0.000    2.750    0.000    2.625    0.000    7.750 
#    0.000    3.750    0.000    2.250    0.000    0.875 
#    0.000    7.000    0.000    0.000    0.000    0.000 
#
# Total GULP energy -793514.264830 kJ/mol
# GULP energy per Si atom -12398.660388 kJ/mol
# Density = 1.859919 g / cm^3
# Si number density = 18.641616 Si / 1000 Ang^3
#
#
#
# Elastic Constant Matrix: (Units=GPa)
#
#
# Indices 1 2 3 4 5 6 
#
# 1 41.7413 20.2158 14.8453 0.0000 0.0000 0.0000
# 2 20.2158 78.7101 51.8667 0.0000 0.0000 0.0000
# 3 14.8453 51.8667 117.8999 0.0000 0.0000 0.0000
# 4 0.0000 0.0000 0.0000 37.9858 0.0000 0.0000
# 5 0.0000 0.0000 0.0000 0.0000 15.1251 0.0000
# 6 0.0000 0.0000 0.0000 0.0000 0.0000 14.7032
#
#
#
# Elastic Compliance Matrix: (Units=1/GPa)
#
#
# Indices 1 2 3 4 5 6 
#
# 1 0.027381 -0.006704 -0.000498 0.000000 0.000000 0.000000
# 2 -0.006704 0.019533 -0.007749 0.000000 0.000000 0.000000
# 3 -0.000498 -0.007749 0.011953 0.000000 0.000000 0.000000
# 4 0.000000 0.000000 0.000000 0.026326 0.000000 0.000000
# 5 0.000000 0.000000 0.000000 0.000000 0.066115 0.000000
# 6 0.000000 0.000000 0.000000 0.000000 0.000000 0.068013
#
#
# Mechanical properties :
#
#
# Convention : Reuss Voigt Hill
#
# Bulk Modulus (GPa) = 34.52461 45.80076 40.16269
# Shear Modulus (GPa) = 19.31409 23.65773 21.48591
#
# Velocity S-wave (km/s) = 3.22230 3.56628 3.39865
# Velocity P-wave (km/s) = 5.69251 6.44828 6.08214
#
# Compressibility (1/GPa) = 0.02896484
#
# Stress axis : x y z
#
# Youngs Moduli (GPa) = 36.52138 51.19579 83.65835
#
# Poissons Ratio (x) = 0.34322 0.04170
# Poissons Ratio (y) = 0.24484 0.64825
# Poissons Ratio (z) = 0.01820 0.39670
#
# Static dielectric constant tensor:
#      x y z
#    x 3.006170 0.000000 0.000000 
#    y 0.000000 3.489150 0.000000 
#    z 0.000000 0.000000 3.725130 
# 
# 
# High freq. dielectric constant tensor:
#      x y z
#    x 1.679010 0.000000 0.000000 
#    y 0.000000 1.721060 0.000000 
#    z 0.000000 0.000000 1.740760 
# 
# From -- ./inp_files/33899.got.cif
#   From: 2010.03.12/outbox.cif.g09.slc.cpg/sg51_17_cif.got.tgz:33899.got - 2010.04.16 13:43:02.
