data_PCOD8213506
_publ_section_title
;
Structure prediction by ZEFSAII (Michael W. Deem and Ramdas Pophale) SiO2 
 PCOD8213506
Probable space group: P M M A
;
_chemical_formula_sum "Si O2"
_cell_formula_units_Z 64
_cell_length_a 8.942138
_cell_length_b 23.414516
_cell_length_c 15.083219
_cell_angle_alpha 90.000000
_cell_angle_beta 90.000000
_cell_angle_gamma 90.000000
_cell_volume 3158.061547
_symmetry_space_group_name_H-M "P M M A"
_symmetry_group_IT_number 51
_symmetry_cell_setting 'orthorhombic'
loop_
_space_group_symop_operation_xyz
x,y,z
1/2-x,-y,z
1/2+x,-y,-z
-x,y,-z
-x,-y,-z
1/2+x,y,-z
1/2-x,y,z
x,-y,z
loop_
_atom_site_type_symbol
_atom_site_label
_atom_site_fract_x
_atom_site_fract_y
_atom_site_fract_z
Si Si1 0.927585 0.061602 0.405395
Si Si2 0.924206 0.355497 0.765340
Si Si3 0.083361 0.833553 0.848179
Si Si4 0.430544 0.695631 0.592779
Si Si5 0.922552 0.063939 0.906509
Si Si6 0.078041 0.432631 0.908027
Si Si7 0.416556 0.182840 0.650709
Si Si8 0.080120 0.268514 0.081647
O O1 0.750000 0.066611 0.411312
O O2 0.994857 0.120463 0.362936
O O3 0.000000 0.058206 0.500000
O O4 0.967336 0.000000 0.357101
O O5 0.750000 0.369461 0.747253
O O6 0.942086 0.299493 0.825362
O O7 0.007690 0.344693 0.671944
O O8 0.997791 0.406895 0.821068
O O9 0.250000 0.843315 0.884578
O O10 0.085782 0.802763 0.753924
O O11 0.001366 0.894392 0.836661
O O12 0.993614 0.793877 0.915301
O O13 0.500000 0.673246 0.500000
O O14 0.250000 0.692048 0.592433
O O15 0.490732 0.761326 0.604921
O O16 0.750000 0.079225 0.916159
O O17 0.947314 0.000000 0.871535
O O18 0.000000 0.073953 0.000000
O O19 0.250000 0.412086 0.911592
O O20 0.066053 0.500000 0.896675
O O21 0.000000 0.413284 0.000000
O O22 0.250000 0.178226 0.611857
O O23 0.250000 0.261350 0.055162
O O24 0.000000 0.302039 0.000000
#
# Coordination Sequence:
#
# PCOD8213506 Si02
#       8
#     8   8   8   8   8   8   8   8
#     4   9  17  31  50  72  98 128 168 219 279 349
#     4  11  23  39  61  91 124 163 210 256 303 354
#     4  11  21  35  54  76 104 138 180 229 287 348
#     4  11  22  39  61  86 119 158 206 259 314 372
#     4  10  21  37  54  72  96 130 175 227 283 345
#     4  10  21  38  63  97 137 179 217 254 299 351
#     4   9  19  34  53  77 105 142 184 234 293 355
#     4  11  23  37  55  81 115 153 193 236 290 349
#
# _framework density 20.265597
#
# number of rings (size 3 to 8) (size 9 to 14) (size 15 to 20)
#    0.000    1.750    1.250    3.375    0.000    4.500 
#    0.000    3.125    0.000    1.875    0.000    0.000 
#    0.000    0.000    0.000    0.000    0.000    0.000 
#
# Total GULP energy -793046.482380 kJ/mol
# GULP energy per Si atom -12391.351287 kJ/mol
# Density = 2.021947 g / cm^3
# Si number density = 20.265597 Si / 1000 Ang^3
#
#
#
# Elastic Constant Matrix: (Units=GPa)
#
#
# Indices 1 2 3 4 5 6 
#
# 1 126.0433 44.9320 50.2620 0.0000 0.0000 0.0000
# 2 44.9320 77.7611 33.2702 0.0000 0.0000 0.0000
# 3 50.2620 33.2702 111.8962 0.0000 0.0000 0.0000
# 4 0.0000 0.0000 0.0000 12.5850 0.0000 0.0000
# 5 0.0000 0.0000 0.0000 0.0000 32.3896 0.0000
# 6 0.0000 0.0000 0.0000 0.0000 0.0000 26.6312
#
#
#
# Elastic Compliance Matrix: (Units=1/GPa)
#
#
# Indices 1 2 3 4 5 6 
#
# 1 0.011084 -0.004898 -0.003523 0.000000 0.000000 0.000000
# 2 -0.004898 0.016898 -0.002824 0.000000 0.000000 0.000000
# 3 -0.003523 -0.002824 0.011359 0.000000 0.000000 0.000000
# 4 0.000000 0.000000 0.000000 0.079460 0.000000 0.000000
# 5 0.000000 0.000000 0.000000 0.000000 0.030874 0.000000
# 6 0.000000 0.000000 0.000000 0.000000 0.000000 0.037550
#
#
# Mechanical properties :
#
#
# Convention : Reuss Voigt Hill
#
# Bulk Modulus (GPa) = 59.33972 63.62545 61.48259
# Shear Modulus (GPa) = 23.21991 26.80359 25.01175
#
# Velocity S-wave (km/s) = 3.38861 3.64072 3.51693
# Velocity P-wave (km/s) = 6.68243 7.00979 6.84806
#
# Compressibility (1/GPa) = 0.01685212
#
# Stress axis : x y z
#
# Youngs Moduli (GPa) = 90.21657 59.17760 88.03580
#
# Poissons Ratio (x) = 0.28983 0.31013
# Poissons Ratio (y) = 0.44185 0.24865
# Poissons Ratio (z) = 0.31781 0.16714
#
# Static dielectric constant tensor:
#      x y z
#    x 3.723360 0.000000 0.000000 
#    y 0.000000 3.765980 0.000000 
#    z 0.000000 0.000000 3.482190 
# 
# 
# High freq. dielectric constant tensor:
#      x y z
#    x 1.789260 0.000000 0.000000 
#    y 0.000000 1.787280 0.000000 
#    z 0.000000 0.000000 1.780480 
# 
# From -- ./inp_files/22227.got.cif
#   From: 2010.03.12/outbox.cif.g09.slc.cpg/sg51_12_cif.got.tgz:22227.got - 2010.04.16 13:43:02.
