data_PCOD8213830
_publ_section_title
;
Structure prediction by ZEFSAII (Michael W. Deem and Ramdas Pophale) SiO2 
 PCOD8213830
Probable space group: P M M A
;
_chemical_formula_sum "Si O2"
_cell_formula_units_Z 64
_cell_length_a 31.291760
_cell_length_b 8.744333
_cell_length_c 12.126568
_cell_angle_alpha 90.000000
_cell_angle_beta 90.000000
_cell_angle_gamma 90.000000
_cell_volume 3318.139076
_symmetry_space_group_name_H-M "P M M A"
_symmetry_group_IT_number 51
_symmetry_cell_setting 'orthorhombic'
loop_
_space_group_symop_operation_xyz
x,y,z
1/2-x,-y,z
1/2+x,-y,-z
-x,y,-z
-x,-y,-z
1/2+x,y,-z
1/2-x,y,z
x,-y,z
loop_
_atom_site_type_symbol
_atom_site_label
_atom_site_fract_x
_atom_site_fract_y
_atom_site_fract_z
Si Si1 0.397537 0.675747 0.863821
Si Si2 0.549036 0.181161 0.514590
Si Si3 0.298701 0.180250 0.490223
Si Si4 0.513865 0.177659 0.120947
Si Si5 0.375523 0.324162 0.619625
Si Si6 0.057071 0.320064 0.254562
Si Si7 0.868575 0.319987 0.902974
Si Si8 0.201644 0.678746 0.259058
O O1 0.413161 0.500000 0.879642
O O2 0.436753 0.791033 0.860911
O O3 0.371200 0.693879 0.751551
O O4 0.368733 0.728158 0.968539
O O5 0.500000 0.240173 0.500000
O O6 0.580639 0.245089 0.420671
O O7 0.567503 0.237147 0.630990
O O8 0.550413 0.000000 0.507828
O O9 0.250000 0.235008 0.516700
O O10 0.332016 0.251960 0.574870
O O11 0.312072 0.231515 0.368209
O O12 0.302251 0.000000 0.498705
O O13 0.489861 0.275376 0.213660
O O14 0.503621 0.000000 0.139041
O O15 0.500000 0.233563 0.000000
O O16 0.377795 0.500000 0.583453
O O17 0.060353 0.500000 0.274208
O O18 0.089957 0.257857 0.162194
O O19 0.868745 0.500000 0.892733
O O20 0.826245 0.257279 0.842788
O O21 0.250000 0.713961 0.225936
O O22 0.193880 0.500000 0.282166
#
# Coordination Sequence:
#
# PCOD8213830 Si02
#       8
#     8   8   8   8   8   8   8   8
#     4  10  21  38  57  78 109 149 192 233 276 335
#     4  11  24  40  57  80 116 155 191 236 289 344
#     4  10  21  38  61  87 115 149 188 234 292 353
#     4  11  22  35  52  78 111 146 189 234 280 333
#     4  11  23  38  59  85 114 152 197 242 290 343
#     4  11  21  34  57  81 107 143 186 234 279 330
#     4   9  18  33  53  80 109 138 175 219 271 324
#     4   9  17  32  57  86 114 142 175 222 277 335
#
# _framework density 19.28792
#
# number of rings (size 3 to 8) (size 9 to 14) (size 15 to 20)
#    0.000    1.750    1.250    3.375    0.000    6.250 
#    0.000    1.875    0.000    2.250    0.000    1.750 
#    0.000    0.000    0.000    0.000    0.000    0.000 
#
# Total GULP energy -793668.231553 kJ/mol
# GULP energy per Si atom -12401.066118 kJ/mol
# Density = 1.924402 g / cm^3
# Si number density = 19.287920 Si / 1000 Ang^3
#
#
#
# Elastic Constant Matrix: (Units=GPa)
#
#
# Indices 1 2 3 4 5 6 
#
# 1 118.3299 31.8924 67.4298 0.0000 0.0000 0.0000
# 2 31.8924 56.1831 35.1209 0.0000 0.0000 0.0000
# 3 67.4298 35.1209 141.1579 0.0000 0.0000 0.0000
# 4 0.0000 0.0000 0.0000 15.9914 0.0000 0.0000
# 5 0.0000 0.0000 0.0000 0.0000 35.8096 0.0000
# 6 0.0000 0.0000 0.0000 0.0000 0.0000 23.5515
#
#
#
# Elastic Compliance Matrix: (Units=1/GPa)
#
#
# Indices 1 2 3 4 5 6 
#
# 1 0.012300 -0.003919 -0.004900 0.000000 0.000000 0.000000
# 2 -0.003919 0.022326 -0.003683 0.000000 0.000000 0.000000
# 3 -0.004900 -0.003683 0.010341 0.000000 0.000000 0.000000
# 4 0.000000 0.000000 0.000000 0.062534 0.000000 0.000000
# 5 0.000000 0.000000 0.000000 0.000000 0.027925 0.000000
# 6 0.000000 0.000000 0.000000 0.000000 0.000000 0.042460
#
#
# Mechanical properties :
#
#
# Convention : Reuss Voigt Hill
#
# Bulk Modulus (GPa) = 50.09294 64.95077 57.52185
# Shear Modulus (GPa) = 23.86138 27.15237 25.50687
#
# Velocity S-wave (km/s) = 3.52108 3.75606 3.64046
# Velocity P-wave (km/s) = 6.52366 7.24969 6.89624
#
# Compressibility (1/GPa) = 0.01996289
#
# Stress axis : x y z
#
# Youngs Moduli (GPa) = 81.30372 44.79183 96.69807
#
# Poissons Ratio (x) = 0.17552 0.47386
# Poissons Ratio (y) = 0.31859 0.35613
# Poissons Ratio (z) = 0.39842 0.16496
#
# Static dielectric constant tensor:
#      x y z
#    x 3.613510 0.000000 0.000000 
#    y 0.000000 3.403820 0.000000 
#    z 0.000000 0.000000 3.809860 
# 
# 
# High freq. dielectric constant tensor:
#      x y z
#    x 1.744800 0.000000 0.000000 
#    y 0.000000 1.741760 0.000000 
#    z 0.000000 0.000000 1.757320 
# 
# From -- ./inp_files/19447.got.cif
#   From: 2010.03.12/outbox.cif.g09.slc.cpg/sg51_10_cif.got.tgz:19447.got - 2010.04.16 13:43:02.
