data_PCOD8213222
_publ_section_title
;
Structure prediction by ZEFSAII (Michael W. Deem and Ramdas Pophale) SiO2 
 PCOD8213222
Probable space group: P M M A
;
_chemical_formula_sum "Si O2"
_cell_formula_units_Z 40
_cell_length_a 9.426349
_cell_length_b 15.026932
_cell_length_c 14.707873
_cell_angle_alpha 90.000000
_cell_angle_beta 90.000000
_cell_angle_gamma 90.000000
_cell_volume 2083.357053
_symmetry_space_group_name_H-M "P M M A"
_symmetry_group_IT_number 51
_symmetry_cell_setting 'orthorhombic'
loop_
_space_group_symop_operation_xyz
x,y,z
1/2-x,-y,z
1/2+x,-y,-z
-x,y,-z
-x,-y,-z
1/2+x,y,-z
1/2-x,y,z
x,-y,z
loop_
_atom_site_type_symbol
_atom_site_label
_atom_site_fract_x
_atom_site_fract_y
_atom_site_fract_z
Si Si1 0.910752 0.394007 0.915144
Si Si2 0.906683 0.894377 0.081082
Si Si3 0.084547 0.255739 0.591970
Si Si4 0.580833 0.098871 0.280765
Si Si5 0.587258 0.397580 0.257390
O O1 0.750000 0.357165 0.917806
O O2 0.910502 0.500000 0.919073
O O3 0.987440 0.361811 0.823152
O O4 0.000000 0.355520 0.000000
O O5 0.750000 0.852738 0.071975
O O6 0.973709 0.871831 0.180267
O O7 0.897968 0.000000 0.071046
O O8 0.000000 0.852308 0.000000
O O9 0.250000 0.245636 0.569438
O O10 0.026407 0.168340 0.644297
O O11 0.054100 0.342250 0.652387
O O12 0.000000 0.267519 0.500000
O O13 0.750000 0.098346 0.275820
O O14 0.524650 0.000000 0.306405
O O15 0.750000 0.384327 0.226083
O O16 0.555179 0.500000 0.280687
#
# Coordination Sequence:
#
# PCOD8213222 Si02
#       5
#     8   8   8   8   8
#     4   9  16  27  47  75 104 134 167 202 241 287
#     4   8  13  23  42  67  93 121 151 182 220 269
#     4  10  21  36  53  72  95 124 161 207 255 299
#     4   8  15  30  51  72  96 128 161 192 235 293
#     4   9  18  33  51  71  98 132 167 202 242 290
#
# _framework density 19.199781999999999
#
# number of rings (size 3 to 8) (size 9 to 14) (size 15 to 20)
#    0.000    3.200    0.000    1.800    0.000    4.000 
#    0.000    2.000    0.000    3.600    0.000    0.000 
#    0.000    0.000    0.000    0.000    0.000    0.000 
#
# Total GULP energy -495854.459473 kJ/mol
# GULP energy per Si atom -12396.361487 kJ/mol
# Density = 1.915608 g / cm^3
# Si number density = 19.199782 Si / 1000 Ang^3
#
#
#
# Elastic Constant Matrix: (Units=GPa)
#
#
# Indices 1 2 3 4 5 6 
#
# 1 92.8088 33.7334 80.9068 0.0000 0.0000 0.0000
# 2 33.7334 68.0537 57.2921 0.0000 0.0000 0.0000
# 3 80.9068 57.2921 172.6197 0.0000 0.0000 0.0000
# 4 0.0000 0.0000 0.0000 9.3175 0.0000 0.0000
# 5 0.0000 0.0000 0.0000 0.0000 40.4287 0.0000
# 6 0.0000 0.0000 0.0000 0.0000 0.0000 11.1159
#
#
#
# Elastic Compliance Matrix: (Units=1/GPa)
#
#
# Indices 1 2 3 4 5 6 
#
# 1 0.018545 -0.002602 -0.007829 0.000000 0.000000 0.000000
# 2 -0.002602 0.020757 -0.005670 0.000000 0.000000 0.000000
# 3 -0.007829 -0.005670 0.011344 0.000000 0.000000 0.000000
# 4 0.000000 0.000000 0.000000 0.107325 0.000000 0.000000
# 5 0.000000 0.000000 0.000000 0.000000 0.024735 0.000000
# 6 0.000000 0.000000 0.000000 0.000000 0.000000 0.089961
#
#
# Mechanical properties :
#
#
# Convention : Reuss Voigt Hill
#
# Bulk Modulus (GPa) = 54.21251 75.26077 64.73664
# Shear Modulus (GPa) = 16.07632 22.94241 19.50936
#
# Velocity S-wave (km/s) = 2.89678 3.46053 3.19113
# Velocity P-wave (km/s) = 6.28377 7.43309 6.88246
#
# Compressibility (1/GPa) = 0.01844593
#
# Stress axis : x y z
#
# Youngs Moduli (GPa) = 53.92236 48.17605 88.15191
#
# Poissons Ratio (x) = 0.12536 0.69010
# Poissons Ratio (y) = 0.14031 0.49979
# Poissons Ratio (z) = 0.42213 0.27314
#
# Static dielectric constant tensor:
#      x y z
#    x 3.455980 0.000000 0.000000 
#    y 0.000000 3.441960 0.000000 
#    z 0.000000 0.000000 3.530010 
# 
# 
# High freq. dielectric constant tensor:
#      x y z
#    x 1.719430 0.000000 0.000000 
#    y 0.000000 1.732780 0.000000 
#    z 0.000000 0.000000 1.746090 
# 
# From -- ./inp_files/20499.got.cif
#   From: 2010.03.12/outbox.cif.g09.slc.cpg/sg51_11_cif.got.tgz:20499.got - 2010.04.16 13:43:02.
