data_PCOD8213275
_publ_section_title
;
Structure prediction by ZEFSAII (Michael W. Deem and Ramdas Pophale) SiO2 
 PCOD8213275
Probable space group: P M M A
;
_chemical_formula_sum "Si O2"
_cell_formula_units_Z 52
_cell_length_a 8.943277
_cell_length_b 15.012461
_cell_length_c 19.943050
_cell_angle_alpha 90.000000
_cell_angle_beta 90.000000
_cell_angle_gamma 90.000000
_cell_volume 2677.565802
_symmetry_space_group_name_H-M "P M M A"
_symmetry_group_IT_number 51
_symmetry_cell_setting 'orthorhombic'
loop_
_space_group_symop_operation_xyz
x,y,z
1/2-x,-y,z
1/2+x,-y,-z
-x,y,-z
-x,-y,-z
1/2+x,y,-z
1/2-x,y,z
x,-y,z
loop_
_atom_site_type_symbol
_atom_site_label
_atom_site_fract_x
_atom_site_fract_y
_atom_site_fract_z
Si Si1 0.426337 0.753237 0.710901
Si Si2 0.423623 0.692068 0.570379
Si Si3 0.426678 0.396948 0.202695
Si Si4 0.917945 0.394485 0.065537
Si Si5 0.418065 0.105835 0.934545
Si Si6 0.924730 0.103810 0.799332
Si Si7 0.575821 0.500000 0.429943
O O1 0.250000 0.748900 0.724810
O O2 0.461271 0.759279 0.630972
O O3 0.500494 0.664707 0.741064
O O4 0.495388 0.843158 0.740181
O O5 0.500000 0.718301 0.500000
O O6 0.250000 0.692595 0.553179
O O7 0.472325 0.594788 0.602115
O O8 0.250000 0.382950 0.201768
O O9 0.468721 0.500000 0.217868
O O10 0.490369 0.365642 0.131047
O O11 0.750000 0.355342 0.069804
O O12 0.911788 0.500000 0.059805
O O13 0.000000 0.354525 0.000000
O O14 0.250000 0.143949 0.931115
O O15 0.508591 0.137896 0.869602
O O16 0.415425 0.000000 0.938238
O O17 0.500000 0.145111 0.000000
O O18 0.750000 0.124903 0.799415
O O19 0.957967 0.000000 0.787767
O O20 0.750000 0.500000 0.440445
O O21 0.500000 0.500000 0.500000
#
# Coordination Sequence:
#
# PCOD8213275 Si02
#       7
#     8   8   8   8   8   8   4
#     4  11  23  37  57  84 113 146 183 226 278 334
#     4   9  19  34  55  81 111 146 182 222 269 324
#     4  10  21  36  53  77 110 147 186 227 271 323
#     4   9  16  28  48  72  99 137 184 231 276 322
#     4   9  16  28  50  80 112 145 182 225 276 335
#     4  10  21  38  59  82 111 148 189 234 283 334
#     4   8  14  28  48  74 106 140 175 210 251 308
#
# _framework density 19.420624
#
# number of rings (size 3 to 8) (size 9 to 14) (size 15 to 20)
#    0.000    2.462    0.000    2.308    1.077    6.769 
#    0.000    0.769    0.000    0.462    0.000    0.000 
#    0.000    0.000    0.000    0.000    0.000    0.000 
#
# Total GULP energy -644459.799643 kJ/mol
# GULP energy per Si atom -12393.457685 kJ/mol
# Density = 1.937642 g / cm^3
# Si number density = 19.420624 Si / 1000 Ang^3
#
#
#
# Elastic Constant Matrix: (Units=GPa)
#
#
# Indices 1 2 3 4 5 6 
#
# 1 125.0782 39.8427 68.5805 0.0000 0.0000 0.0000
# 2 39.8427 60.3623 50.0605 0.0000 0.0000 0.0000
# 3 68.5805 50.0605 148.6433 0.0000 0.0000 0.0000
# 4 0.0000 0.0000 0.0000 1.8814 0.0000 0.0000
# 5 0.0000 0.0000 0.0000 0.0000 33.9742 0.0000
# 6 0.0000 0.0000 0.0000 0.0000 0.0000 23.1873
#
#
#
# Elastic Compliance Matrix: (Units=1/GPa)
#
#
# Indices 1 2 3 4 5 6 
#
# 1 0.011495 -0.004425 -0.003813 0.000000 0.000000 0.000000
# 2 -0.004425 0.024690 -0.006274 0.000000 0.000000 0.000000
# 3 -0.003813 -0.006274 0.010600 0.000000 0.000000 0.000000
# 4 0.000000 0.000000 0.000000 0.531523 0.000000 0.000000
# 5 0.000000 0.000000 0.000000 0.000000 0.029434 0.000000
# 6 0.000000 0.000000 0.000000 0.000000 0.000000 0.043127
#
#
# Mechanical properties :
#
#
# Convention : Reuss Voigt Hill
#
# Bulk Modulus (GPa) = 56.30219 72.33901 64.32060
# Shear Modulus (GPa) = 7.29060 23.51525 15.40292
#
# Velocity S-wave (km/s) = 1.93964 3.48349 2.81930
# Velocity P-wave (km/s) = 5.83696 7.31498 6.61737
#
# Compressibility (1/GPa) = 0.01776130
#
# Stress axis : x y z
#
# Youngs Moduli (GPa) = 86.99060 40.50158 94.34126
#
# Poissons Ratio (x) = 0.17922 0.35977
# Poissons Ratio (y) = 0.38494 0.59187
# Poissons Ratio (z) = 0.33174 0.25409
#
# Static dielectric constant tensor:
#      x y z
#    x 3.681380 0.000000 0.000000 
#    y 0.000000 3.267940 0.000000 
#    z 0.000000 0.000000 3.500810 
# 
# 
# High freq. dielectric constant tensor:
#      x y z
#    x 1.768060 0.000000 0.000000 
#    y 0.000000 1.732090 0.000000 
#    z 0.000000 0.000000 1.750510 
# 
# From -- ./inp_files/31775.got.cif
#   From: 2010.03.12/outbox.cif.g09.slc.cpg/sg51_16_cif.got.tgz:31775.got - 2010.04.16 13:43:02.
