data_PCOD8213354
_publ_section_title
;
Structure prediction by ZEFSAII (Michael W. Deem and Ramdas Pophale) SiO2 
 PCOD8213354
Probable space group: P M M A
;
_chemical_formula_sum "Si O2"
_cell_formula_units_Z 64
_cell_length_a 16.121761
_cell_length_b 9.078231
_cell_length_c 22.237759
_cell_angle_alpha 90.000000
_cell_angle_beta 90.000000
_cell_angle_gamma 90.000000
_cell_volume 3254.653261
_symmetry_space_group_name_H-M "P M M A"
_symmetry_group_IT_number 51
_symmetry_cell_setting 'orthorhombic'
loop_
_space_group_symop_operation_xyz
x,y,z
1/2-x,-y,z
1/2+x,-y,-z
-x,y,-z
-x,-y,-z
1/2+x,y,-z
1/2-x,y,z
x,-y,z
loop_
_atom_site_type_symbol
_atom_site_label
_atom_site_fract_x
_atom_site_fract_y
_atom_site_fract_z
Si Si1 0.846513 0.173658 0.636302
Si Si2 0.655360 0.325777 0.354659
Si Si3 0.153391 0.166993 0.767710
Si Si4 0.101022 0.674033 0.116530
Si Si5 0.346216 0.339158 0.247032
Si Si6 0.070961 0.174996 0.888470
Si Si7 0.342317 0.837606 0.006541
Si Si8 0.004783 0.670967 0.429723
O O1 0.750000 0.220413 0.622344
O O2 0.876406 0.224658 0.702611
O O3 0.912173 0.244772 0.590824
O O4 0.854987 0.000000 0.632529
O O5 0.750000 0.271905 0.372877
O O6 0.656225 0.500000 0.350396
O O7 0.629125 0.262847 0.290039
O O8 0.583036 0.273059 0.400877
O O9 0.250000 0.172048 0.780425
O O10 0.110760 0.236943 0.826810
O O11 0.123271 0.000000 0.755763
O O12 0.087222 0.500000 0.113222
O O13 0.136680 0.723414 0.180862
O O14 0.160184 0.726688 0.062962
O O15 0.019966 0.766255 0.106163
O O16 0.250000 0.361910 0.254708
O O17 0.389475 0.500000 0.256255
O O18 0.076402 0.000000 0.887073
O O19 0.112765 0.235380 0.949245
O O20 0.250000 0.860977 0.984190
O O21 0.380161 0.000000 0.023286
O O22 0.017679 0.500000 0.414240
O O23 0.000000 0.700436 0.500000
#
# Coordination Sequence:
#
# PCOD8213354 Si02
#       8
#     8   8   8   8   8   8   8   8
#     4  10  22  39  60  88 121 155 195 246 297 343
#     4   9  19  36  57  83 117 152 190 239 289 339
#     4   9  18  34  56  81 108 141 183 228 276 331
#     4  11  23  36  53  80 112 143 179 228 283 336
#     4   9  19  37  58  79 107 146 188 230 281 340
#     4  10  21  36  54  78 108 142 182 227 275 333
#     4  10  21  38  58  76 100 140 186 231 278 331
#     4  10  22  39  61  89 120 158 200 238 283 344
#
# _framework density 19.664154
#
# number of rings (size 3 to 8) (size 9 to 14) (size 15 to 20)
#    0.000    2.250    0.000    1.875    1.750    7.750 
#    0.000    2.500    0.000    3.750    0.000    0.000 
#    0.000    0.000    0.000    0.000    0.000    0.000 
#
# Total GULP energy -793182.999301 kJ/mol
# GULP energy per Si atom -12393.484364 kJ/mol
# Density = 1.961940 g / cm^3
# Si number density = 19.664154 Si / 1000 Ang^3
#
#
#
# Elastic Constant Matrix: (Units=GPa)
#
#
# Indices 1 2 3 4 5 6 
#
# 1 72.6275 21.4309 54.5518 0.0000 0.0000 0.0000
# 2 21.4309 21.3344 39.6726 0.0000 0.0000 0.0000
# 3 54.5518 39.6726 131.0310 0.0000 0.0000 0.0000
# 4 0.0000 0.0000 0.0000 28.4864 0.0000 0.0000
# 5 0.0000 0.0000 0.0000 0.0000 37.6188 0.0000
# 6 0.0000 0.0000 0.0000 0.0000 0.0000 24.0470
#
#
#
# Elastic Compliance Matrix: (Units=1/GPa)
#
#
# Indices 1 2 3 4 5 6 
#
# 1 0.021130 -0.011138 -0.005425 0.000000 0.000000 0.000000
# 2 -0.011138 0.113137 -0.029618 0.000000 0.000000 0.000000
# 3 -0.005425 -0.029618 0.018858 0.000000 0.000000 0.000000
# 4 0.000000 0.000000 0.000000 0.035104 0.000000 0.000000
# 5 0.000000 0.000000 0.000000 0.000000 0.026582 0.000000
# 6 0.000000 0.000000 0.000000 0.000000 0.000000 0.041585
#
#
# Mechanical properties :
#
#
# Convention : Reuss Voigt Hill
#
# Bulk Modulus (GPa) = 16.45717 50.70040 33.57879
# Shear Modulus (GPa) = 13.54966 25.31961 19.43463
#
# Velocity S-wave (km/s) = 2.62783 3.59221 3.14718
# Velocity P-wave (km/s) = 4.19459 6.56083 5.50632
#
# Compressibility (1/GPa) = 0.06076378
#
# Stress axis : x y z
#
# Youngs Moduli (GPa) = 47.32571 8.83883 53.02870
#
# Poissons Ratio (x) = 0.09845 0.28767
# Poissons Ratio (y) = 0.52712 1.57059
# Poissons Ratio (z) = 0.25673 0.26179
#
# Static dielectric constant tensor:
#      x y z
#    x 3.664800 0.000000 0.000000 
#    y 0.000000 3.516690 0.000000 
#    z 0.000000 0.000000 3.672400 
# 
# 
# High freq. dielectric constant tensor:
#      x y z
#    x 1.771590 0.000000 0.000000 
#    y 0.000000 1.751610 0.000000 
#    z 0.000000 0.000000 1.771150 
# 
# From -- ./inp_files/35751.got.cif
#   From: 2010.03.12/outbox.cif.g09.slc.cpg/sg51_18_cif.got.tgz:35751.got - 2010.04.16 13:43:02.
