data_PCOD8213737
_publ_section_title
;
Structure prediction by ZEFSAII (Michael W. Deem and Ramdas Pophale) SiO2 
 PCOD8213737
Probable space group: P M M A
;
_chemical_formula_sum "Si O2"
_cell_formula_units_Z 56
_cell_length_a 8.767454
_cell_length_b 22.986124
_cell_length_c 14.235400
_cell_angle_alpha 90.000000
_cell_angle_beta 90.000000
_cell_angle_gamma 90.000000
_cell_volume 2868.857099
_symmetry_space_group_name_H-M "P M M A"
_symmetry_group_IT_number 51
_symmetry_cell_setting 'orthorhombic'
loop_
_space_group_symop_operation_xyz
x,y,z
1/2-x,-y,z
1/2+x,-y,-z
-x,y,-z
-x,-y,-z
1/2+x,y,-z
1/2-x,y,z
x,-y,z
loop_
_atom_site_type_symbol
_atom_site_label
_atom_site_fract_x
_atom_site_fract_y
_atom_site_fract_z
Si Si1 0.928342 0.434294 0.094604
Si Si2 0.071177 0.125922 0.899699
Si Si3 0.930678 0.500000 0.602150
Si Si4 0.928072 0.823636 0.290020
Si Si5 0.569643 0.390871 0.294342
Si Si6 0.930342 0.718592 0.603676
Si Si7 0.571981 0.935723 0.402351
Si Si8 0.070213 0.000000 0.899306
O O1 0.750000 0.436142 0.079560
O O2 0.990741 0.500000 0.111642
O O3 0.970811 0.394258 0.183658
O O4 0.000000 0.407111 0.000000
O O5 0.250000 0.123560 0.917078
O O6 0.032629 0.175034 0.821498
O O7 0.016799 0.062492 0.856900
O O8 0.000000 0.142732 0.000000
O O9 0.750000 0.500000 0.595755
O O10 0.000000 0.500000 0.500000
O O11 0.986534 0.556881 0.654589
O O12 0.750000 0.808291 0.307683
O O13 0.970145 0.887950 0.325578
O O14 0.034671 0.778659 0.344011
O O15 0.750000 0.395961 0.311591
O O16 0.507305 0.331028 0.334270
O O17 0.750000 0.708775 0.596546
O O18 0.000000 0.718694 0.500000
O O19 0.500000 0.916179 0.500000
O O20 0.750000 0.938281 0.418952
O O21 0.513159 0.000000 0.369963
O O22 0.250000 0.000000 0.901970
O O23 0.000000 0.000000 0.000000
#
# Coordination Sequence:
#
# PCOD8213737 Si02
#       8
#     8   8   4   8   8   8   8   4
#     4   9  18  34  58  90 126 163 198 238 288 340
#     4   9  18  32  53  80 113 149 190 235 289 348
#     4  12  24  38  59  90 125 160 197 244 300 354
#     4  10  21  37  58  83 111 151 195 239 292 350
#     4  11  22  41  64  90 124 160 201 247 295 348
#     4  12  26  44  64  87 115 153 199 246 297 354
#     4   9  18  32  52  78 108 140 179 230 288 349
#     4   8  14  26  46  74 107 144 181 226 281 344
#
# _framework density 19.519967999999999
#
# number of rings (size 3 to 8) (size 9 to 14) (size 15 to 20)
#    0.000    2.000    0.714    3.214    1.000    3.429 
#    0.000    0.714    0.000    0.000    0.000    0.000 
#    0.000    0.000    0.000    0.000    0.000    0.000 
#
# Total GULP energy -694010.659567 kJ/mol
# GULP energy per Si atom -12393.047492 kJ/mol
# Density = 1.947554 g / cm^3
# Si number density = 19.519968 Si / 1000 Ang^3
#
#
#
# Elastic Constant Matrix: (Units=GPa)
#
#
# Indices 1 2 3 4 5 6 
#
# 1 76.0058 35.5977 54.4661 0.0000 0.0000 0.0000
# 2 35.5977 78.9439 62.4609 0.0000 0.0000 0.0000
# 3 54.4661 62.4609 153.2006 0.0000 0.0000 0.0000
# 4 0.0000 0.0000 0.0000 29.0967 0.0000 0.0000
# 5 0.0000 0.0000 0.0000 0.0000 30.9225 0.0000
# 6 0.0000 0.0000 0.0000 0.0000 0.0000 34.3789
#
#
#
# Elastic Compliance Matrix: (Units=1/GPa)
#
#
# Indices 1 2 3 4 5 6 
#
# 1 0.018766 -0.004699 -0.004756 0.000000 0.000000 0.000000
# 2 -0.004699 0.019876 -0.006433 0.000000 0.000000 0.000000
# 3 -0.004756 -0.006433 0.010841 0.000000 0.000000 0.000000
# 4 0.000000 0.000000 0.000000 0.034368 0.000000 0.000000
# 5 0.000000 0.000000 0.000000 0.000000 0.032339 0.000000
# 6 0.000000 0.000000 0.000000 0.000000 0.000000 0.029088
#
#
# Mechanical properties :
#
#
# Convention : Reuss Voigt Hill
#
# Bulk Modulus (GPa) = 56.47492 68.13330 62.30411
# Shear Modulus (GPa) = 27.32911 29.25467 28.29189
#
# Velocity S-wave (km/s) = 3.74580 3.87551 3.81121
# Velocity P-wave (km/s) = 6.90671 7.41662 7.16620
#
# Compressibility (1/GPa) = 0.01770698
#
# Stress axis : x y z
#
# Youngs Moduli (GPa) = 53.28861 50.31216 92.24336
#
# Poissons Ratio (x) = 0.23642 0.43869
# Poissons Ratio (y) = 0.25041 0.59339
# Poissons Ratio (z) = 0.25343 0.32365
#
# Static dielectric constant tensor:
#      x y z
#    x 3.527160 0.000000 0.000000 
#    y 0.000000 3.272600 0.000000 
#    z 0.000000 0.000000 3.704550 
# 
# 
# High freq. dielectric constant tensor:
#      x y z
#    x 1.752850 0.000000 0.000000 
#    y 0.000000 1.751580 0.000000 
#    z 0.000000 0.000000 1.770130 
# 
# From -- ./inp_files/21921.got.cif
#   From: 2010.03.12/outbox.cif.g09.slc.cpg/sg51_11_cif.got.tgz:21921.got - 2010.04.16 13:43:02.
