data_PCOD8213512
_publ_section_title
;
Structure prediction by ZEFSAII (Michael W. Deem and Ramdas Pophale) SiO2 
 PCOD8213512
Probable space group: P M M A
;
_chemical_formula_sum "Si O2"
_cell_formula_units_Z 64
_cell_length_a 19.323923
_cell_length_b 9.157965
_cell_length_c 19.963805
_cell_angle_alpha 90.000000
_cell_angle_beta 90.000000
_cell_angle_gamma 90.000000
_cell_volume 3532.950860
_symmetry_space_group_name_H-M "P M M A"
_symmetry_group_IT_number 51
_symmetry_cell_setting 'orthorhombic'
loop_
_space_group_symop_operation_xyz
x,y,z
1/2-x,-y,z
1/2+x,-y,-z
-x,y,-z
-x,-y,-z
1/2+x,y,-z
1/2-x,y,z
x,-y,z
loop_
_atom_site_type_symbol
_atom_site_label
_atom_site_fract_x
_atom_site_fract_y
_atom_site_fract_z
Si Si1 0.567621 0.670925 0.163497
Si Si2 0.829208 0.166504 0.257067
Si Si3 0.424627 0.329294 0.986467
Si Si4 0.050359 0.169068 0.355609
Si Si5 0.428350 0.173010 0.203718
Si Si6 0.169875 0.672409 0.105925
Si Si7 0.419802 0.334893 0.481745
Si Si8 0.604045 0.832991 0.392486
O O1 0.552661 0.500000 0.173865
O O2 0.624911 0.722090 0.215536
O O3 0.598034 0.703783 0.089600
O O4 0.496408 0.756626 0.171769
O O5 0.750000 0.192769 0.237624
O O6 0.838436 0.197061 0.336089
O O7 0.852482 0.000000 0.241302
O O8 0.430561 0.500000 0.999798
O O9 0.500000 0.257558 0.000000
O O10 0.367766 0.268405 0.038456
O O11 0.076792 0.212226 0.282164
O O12 0.094526 0.257091 0.410825
O O13 0.969564 0.211135 0.360135
O O14 0.062021 0.000000 0.370762
O O15 0.360995 0.241669 0.169245
O O16 0.431430 0.000000 0.192528
O O17 0.250000 0.713008 0.099263
O O18 0.159021 0.500000 0.116725
O O19 0.500000 0.320263 0.500000
O O20 0.394755 0.500000 0.475176
O O21 0.376932 0.260848 0.541962
O O22 0.602930 0.000000 0.415959
#
# Coordination Sequence:
#
# PCOD8213512 Si02
#       8
#     8   8   8   8   8   8   8   8
#     4  11  21  34  57  83 109 141 186 234 276 324
#     4  10  21  37  54  75 109 150 188 227 275 331
#     4   9  17  33  56  81 108 141 181 223 268 324
#     4   9  17  30  49  73 101 137 175 215 263 322
#     4  11  21  35  56  82 113 145 182 225 276 330
#     4  10  21  38  59  82 109 144 185 227 275 329
#     4   9  17  27  43  73 105 130 164 217 271 311
#     4   9  16  30  49  69  99 140 180 214 261 324
#
# _framework density 18.115168000000001
#
# number of rings (size 3 to 8) (size 9 to 14) (size 15 to 20)
#    0.000    2.250    2.500    1.125    0.000    4.000 
#    0.000    3.125    0.000    0.750    0.000    1.750 
#    0.000    0.000    0.000    0.000    0.000    0.000 
#
# Total GULP energy -793596.984949 kJ/mol
# GULP energy per Si atom -12399.952890 kJ/mol
# Density = 1.807394 g / cm^3
# Si number density = 18.115168 Si / 1000 Ang^3
#
#
#
# Elastic Constant Matrix: (Units=GPa)
#
#
# Indices 1 2 3 4 5 6 
#
# 1 85.2012 37.4133 51.7912 0.0000 0.0000 0.0000
# 2 37.4133 77.6024 61.2080 0.0000 0.0000 0.0000
# 3 51.7912 61.2080 135.9310 0.0000 0.0000 0.0000
# 4 0.0000 0.0000 0.0000 30.5709 0.0000 0.0000
# 5 0.0000 0.0000 0.0000 0.0000 22.4579 0.0000
# 6 0.0000 0.0000 0.0000 0.0000 0.0000 19.5898
#
#
#
# Elastic Compliance Matrix: (Units=1/GPa)
#
#
# Indices 1 2 3 4 5 6 
#
# 1 0.016260 -0.004579 -0.004133 0.000000 0.000000 0.000000
# 2 -0.004579 0.021273 -0.007834 0.000000 0.000000 0.000000
# 3 -0.004133 -0.007834 0.012459 0.000000 0.000000 0.000000
# 4 0.000000 0.000000 0.000000 0.032711 0.000000 0.000000
# 5 0.000000 0.000000 0.000000 0.000000 0.044528 0.000000
# 6 0.000000 0.000000 0.000000 0.000000 0.000000 0.051047
#
#
# Mechanical properties :
#
#
# Convention : Reuss Voigt Hill
#
# Bulk Modulus (GPa) = 59.17551 66.61774 62.89663
# Shear Modulus (GPa) = 23.04096 24.41186 23.72641
#
# Velocity S-wave (km/s) = 3.57026 3.67494 3.62298
# Velocity P-wave (km/s) = 7.05215 7.40684 7.23167
#
# Compressibility (1/GPa) = 0.01689888
#
# Stress axis : x y z
#
# Youngs Moduli (GPa) = 61.49956 47.00773 80.26180
#
# Poissons Ratio (x) = 0.21526 0.33175
# Poissons Ratio (y) = 0.28162 0.62879
# Poissons Ratio (z) = 0.25420 0.36827
#
# Static dielectric constant tensor:
#      x y z
#    x 3.119490 0.000000 0.000000 
#    y 0.000000 3.258380 0.000000 
#    z 0.000000 0.000000 3.516360 
# 
# 
# High freq. dielectric constant tensor:
#      x y z
#    x 1.668140 0.000000 0.000000 
#    y 0.000000 1.691230 0.000000 
#    z 0.000000 0.000000 1.715280 
# 
# From -- ./inp_files/34082.got.cif
#   From: 2010.03.12/outbox.cif.g09.slc.cpg/sg51_18_cif.got.tgz:34082.got - 2010.04.16 13:43:02.
