data_PCOD8213214
_publ_section_title
;
Structure prediction by ZEFSAII (Michael W. Deem and Ramdas Pophale) SiO2 
 PCOD8213214
Probable space group: P M M A
;
_chemical_formula_sum "Si O2"
_cell_formula_units_Z 64
_cell_length_a 22.299818
_cell_length_b 9.006682
_cell_length_c 16.548026
_cell_angle_alpha 90.000000
_cell_angle_beta 90.000000
_cell_angle_gamma 90.000000
_cell_volume 3323.627491
_symmetry_space_group_name_H-M "P M M A"
_symmetry_group_IT_number 51
_symmetry_cell_setting 'orthorhombic'
loop_
_space_group_symop_operation_xyz
x,y,z
1/2-x,-y,z
1/2+x,-y,-z
-x,y,-z
-x,-y,-z
1/2+x,y,-z
1/2-x,y,z
x,-y,z
loop_
_atom_site_type_symbol
_atom_site_label
_atom_site_fract_x
_atom_site_fract_y
_atom_site_fract_z
Si Si1 0.816864 0.339470 0.699811
Si Si2 0.820462 0.323653 0.388075
Si Si3 0.918289 0.822865 0.284275
Si Si4 0.037276 0.328781 0.874742
Si Si5 0.853462 0.171558 0.553624
Si Si6 0.087290 0.329424 0.049124
Si Si7 0.819933 0.829213 0.852475
Si Si8 0.012769 0.829165 0.413838
O O1 0.750000 0.368406 0.729952
O O2 0.849088 0.500000 0.686365
O O3 0.809484 0.248277 0.616747
O O4 0.847695 0.249018 0.772407
O O5 0.750000 0.282298 0.381931
O O6 0.829330 0.500000 0.389703
O O7 0.855873 0.253340 0.312127
O O8 0.849921 0.253789 0.468254
O O9 0.934728 0.774460 0.194083
O O10 0.972324 0.762193 0.342026
O O11 0.910827 0.000000 0.286979
O O12 0.039407 0.500000 0.846887
O O13 0.969545 0.280282 0.896414
O O14 0.076463 0.305020 0.954676
O O15 0.916737 0.189863 0.600568
O O16 0.836945 0.000000 0.539141
O O17 0.101930 0.500000 0.067312
O O18 0.144747 0.231081 0.070299
O O19 0.750000 0.799694 0.867209
O O20 0.833830 0.000000 0.840039
O O21 0.000000 0.750227 0.500000
O O22 0.993135 0.000000 0.420911
#
# Coordination Sequence:
#
# PCOD8213214 Si02
#       8
#     8   8   8   8   8   8   8   8
#     4  10  21  36  52  75 111 151 191 232 275 330
#     4  11  24  41  59  80 111 151 195 243 291 338
#     4  11  22  38  61  87 115 149 190 235 285 338
#     4   9  20  39  61  87 118 149 185 233 286 343
#     4  11  21  35  57  82 111 148 190 234 283 337
#     4   9  19  38  62  86 115 151 188 228 281 345
#     4  10  21  36  55  82 116 151 189 236 286 338
#     4   9  18  35  54  78 113 146 176 221 276 329
#
# _framework density 19.256067999999999
#
# number of rings (size 3 to 8) (size 9 to 14) (size 15 to 20)
#    0.000    2.000    1.250    3.000    1.750    5.000 
#    0.000    4.375    0.000    0.750    0.000    0.000 
#    0.000    0.000    0.000    0.000    0.000    0.000 
#
# Total GULP energy -793344.258853 kJ/mol
# GULP energy per Si atom -12396.004045 kJ/mol
# Density = 1.921224 g / cm^3
# Si number density = 19.256068 Si / 1000 Ang^3
#
#
#
# Elastic Constant Matrix: (Units=GPa)
#
#
# Indices 1 2 3 4 5 6 
#
# 1 74.3729 54.0239 48.0258 0.0000 0.0000 0.0000
# 2 54.0239 109.5667 52.4335 0.0000 0.0000 0.0000
# 3 48.0258 52.4335 106.7926 0.0000 0.0000 0.0000
# 4 0.0000 0.0000 0.0000 36.4634 0.0000 0.0000
# 5 0.0000 0.0000 0.0000 0.0000 29.4772 0.0000
# 6 0.0000 0.0000 0.0000 0.0000 0.0000 23.9627
#
#
#
# Elastic Compliance Matrix: (Units=1/GPa)
#
#
# Indices 1 2 3 4 5 6 
#
# 1 0.023970 -0.008706 -0.006505 0.000000 0.000000 0.000000
# 2 -0.008706 0.015092 -0.003495 0.000000 0.000000 0.000000
# 3 -0.006505 -0.003495 0.014005 0.000000 0.000000 0.000000
# 4 0.000000 0.000000 0.000000 0.027425 0.000000 0.000000
# 5 0.000000 0.000000 0.000000 0.000000 0.033924 0.000000
# 6 0.000000 0.000000 0.000000 0.000000 0.000000 0.041731
#
#
# Mechanical properties :
#
#
# Convention : Reuss Voigt Hill
#
# Bulk Modulus (GPa) = 63.87443 66.63319 65.25381
# Shear Modulus (GPa) = 25.15360 27.06395 26.10878
#
# Velocity S-wave (km/s) = 3.61815 3.75304 3.68621
# Velocity P-wave (km/s) = 7.12024 7.31158 7.21654
#
# Compressibility (1/GPa) = 0.01565572
#
# Stress axis : x y z
#
# Youngs Moduli (GPa) = 41.71814 66.26071 71.40161
#
# Poissons Ratio (x) = 0.57686 0.46449
# Poissons Ratio (y) = 0.36320 0.24953
# Poissons Ratio (z) = 0.27139 0.23156
#
# Static dielectric constant tensor:
#      x y z
#    x 3.471690 0.000000 0.000000 
#    y 0.000000 3.528430 0.000000 
#    z 0.000000 0.000000 3.410090 
# 
# 
# High freq. dielectric constant tensor:
#      x y z
#    x 1.743620 0.000000 0.000000 
#    y 0.000000 1.746840 0.000000 
#    z 0.000000 0.000000 1.745130 
# 
# From -- ./inp_files/26263.got.cif
#   From: 2010.03.12/outbox.cif.g09.slc.cpg/sg51_14_cif.got.tgz:26263.got - 2010.04.16 13:43:02.
