data_PCOD8213780
_publ_section_title
;
Structure prediction by ZEFSAII (Michael W. Deem and Ramdas Pophale) SiO2 
 PCOD8213780
Probable space group: P M M A
;
_chemical_formula_sum "Si O2"
_cell_formula_units_Z 56
_cell_length_a 14.695523
_cell_length_b 9.190398
_cell_length_c 21.351676
_cell_angle_alpha 90.000000
_cell_angle_beta 90.000000
_cell_angle_gamma 90.000000
_cell_volume 2883.708362
_symmetry_space_group_name_H-M "P M M A"
_symmetry_group_IT_number 51
_symmetry_cell_setting 'orthorhombic'
loop_
_space_group_symop_operation_xyz
x,y,z
1/2-x,-y,z
1/2+x,-y,-z
-x,y,-z
-x,-y,-z
1/2+x,y,-z
1/2-x,y,z
x,-y,z
loop_
_atom_site_type_symbol
_atom_site_label
_atom_site_fract_x
_atom_site_fract_y
_atom_site_fract_z
Si Si1 0.358108 0.336149 0.513822
Si Si2 0.645786 0.667361 0.953203
Si Si3 0.352938 0.832230 0.634827
Si Si4 0.496547 0.329018 0.153224
Si Si5 0.855867 0.830417 0.078380
Si Si6 0.644948 0.831084 0.607276
Si Si7 0.483333 0.168224 0.279168
O O1 0.250000 0.329154 0.513198
O O2 0.395284 0.500000 0.513830
O O3 0.393127 0.257461 0.576439
O O4 0.395387 0.256527 0.451907
O O5 0.750000 0.698769 0.934355
O O6 0.631623 0.500000 0.973007
O O7 0.584214 0.709892 0.894488
O O8 0.614941 0.764923 0.011573
O O9 0.250000 0.785220 0.652171
O O10 0.414949 0.802942 0.695272
O O11 0.357174 0.000000 0.614619
O O12 0.515042 0.500000 0.156848
O O13 0.588925 0.248769 0.133107
O O14 0.465228 0.270423 0.220228
O O15 0.750000 0.801421 0.091550
O O16 0.879547 0.000000 0.078519
O O17 0.750000 0.792248 0.619777
O O18 0.589662 0.785612 0.668682
O O19 0.631486 0.000000 0.591856
O O20 0.470962 0.000000 0.259774
#
# Coordination Sequence:
#
# PCOD8213780 Si02
#       7
#     8   8   8   8   8   8   8
#     4   9  17  30  51  78 103 128 163 211 265 315
#     4   9  19  37  59  83 112 144 178 217 264 318
#     4   9  18  34  54  73  97 131 169 211 260 312
#     4  11  23  37  55  80 111 147 182 218 265 318
#     4  10  21  37  59  86 112 140 177 221 267 313
#     4   9  18  34  54  74 100 135 173 215 264 315
#     4  10  22  37  52  74 103 138 181 220 256 308
#
# _framework density 19.419440999999999
#
# number of rings (size 3 to 8) (size 9 to 14) (size 15 to 20)
#    0.000    2.429    0.000    1.714    0.000    8.286 
#    0.000    4.286    0.000    0.000    0.000    0.000 
#    0.000    0.000    0.000    0.000    0.000    0.000 
#
# Total GULP energy -694592.311637 kJ/mol
# GULP energy per Si atom -12403.434136 kJ/mol
# Density = 1.937524 g / cm^3
# Si number density = 19.419441 Si / 1000 Ang^3
#
#
#
# Elastic Constant Matrix: (Units=GPa)
#
#
# Indices 1 2 3 4 5 6 
#
# 1 44.9498 14.6230 9.8702 0.0000 0.0000 0.0000
# 2 14.6230 81.9724 39.4822 0.0000 0.0000 0.0000
# 3 9.8702 39.4822 82.5811 0.0000 0.0000 0.0000
# 4 0.0000 0.0000 0.0000 35.4610 0.0000 0.0000
# 5 0.0000 0.0000 0.0000 0.0000 24.3053 0.0000
# 6 0.0000 0.0000 0.0000 0.0000 0.0000 19.6518
#
#
#
# Elastic Compliance Matrix: (Units=1/GPa)
#
#
# Indices 1 2 3 4 5 6 
#
# 1 0.023688 -0.003718 -0.001054 0.000000 0.000000 0.000000
# 2 -0.003718 0.016433 -0.007412 0.000000 0.000000 0.000000
# 3 -0.001054 -0.007412 0.015779 0.000000 0.000000 0.000000
# 4 0.000000 0.000000 0.000000 0.028200 0.000000 0.000000
# 5 0.000000 0.000000 0.000000 0.000000 0.041143 0.000000
# 6 0.000000 0.000000 0.000000 0.000000 0.000000 0.050886
#
#
# Mechanical properties :
#
#
# Convention : Reuss Voigt Hill
#
# Bulk Modulus (GPa) = 31.71394 37.49490 34.60442
# Shear Modulus (GPa) = 23.69590 25.58548 24.64069
#
# Velocity S-wave (km/s) = 3.49695 3.63370 3.56598
# Velocity P-wave (km/s) = 5.71588 6.07905 5.90026
#
# Compressibility (1/GPa) = 0.03153187
#
# Stress axis : x y z
#
# Youngs Moduli (GPa) = 42.21550 60.85487 63.37564
#
# Poissons Ratio (x) = 0.22627 0.06677
# Poissons Ratio (y) = 0.15697 0.46974
# Poissons Ratio (z) = 0.04447 0.45106
#
# Static dielectric constant tensor:
#      x y z
#    x 3.613420 0.000000 0.000000 
#    y 0.000000 3.563730 0.000000 
#    z 0.000000 0.000000 3.433510 
# 
# 
# High freq. dielectric constant tensor:
#      x y z
#    x 1.760230 0.000000 0.000000 
#    y 0.000000 1.754650 0.000000 
#    z 0.000000 0.000000 1.749240 
# 
# From -- ./inp_files/33309.got.cif
#   From: 2010.03.12/outbox.cif.g09.slc.cpg/sg51_17_cif.got.tgz:33309.got - 2010.04.16 13:43:02.
