data_PCOD8213874
_publ_section_title
;
Structure prediction by ZEFSAII (Michael W. Deem and Ramdas Pophale) SiO2 
 PCOD8213874
Probable space group: P M M A
;
_chemical_formula_sum "Si O2"
_cell_formula_units_Z 64
_cell_length_a 15.425161
_cell_length_b 8.703115
_cell_length_c 24.345488
_cell_angle_alpha 90.000000
_cell_angle_beta 90.000000
_cell_angle_gamma 90.000000
_cell_volume 3268.307512
_symmetry_space_group_name_H-M "P M M A"
_symmetry_group_IT_number 51
_symmetry_cell_setting 'orthorhombic'
loop_
_space_group_symop_operation_xyz
x,y,z
1/2-x,-y,z
1/2+x,-y,-z
-x,y,-z
-x,-y,-z
1/2+x,y,-z
1/2-x,y,z
x,-y,z
loop_
_atom_site_type_symbol
_atom_site_label
_atom_site_fract_x
_atom_site_fract_y
_atom_site_fract_z
Si Si1 0.598307 0.182447 0.000000
Si Si2 0.345113 0.817686 0.116802
Si Si3 0.845113 0.182317 0.116804
Si Si4 0.500427 0.817711 0.684861
Si Si5 0.649768 0.318777 0.386570
Si Si6 0.000010 0.816910 0.809505
Si Si7 0.850094 0.318554 0.612693
Si Si8 0.647486 0.171718 0.499638
O O1 0.642544 0.248723 0.055164
O O2 0.605651 0.000000 0.999997
O O3 0.500000 0.237815 0.000000
O O4 0.642541 0.248733 0.944836
O O5 0.250000 0.769562 0.138137
O O6 0.415583 0.750483 0.159142
O O7 0.355687 0.000000 0.114358
O O8 0.750000 0.230434 0.138139
O O9 0.915580 0.249588 0.159137
O O10 0.855692 0.000000 0.114363
O O11 0.411588 0.757794 0.658405
O O12 0.499964 0.757619 0.747315
O O13 0.588275 0.753127 0.658527
O O14 0.502164 0.000000 0.680510
O O15 0.750000 0.269529 0.375966
O O16 0.639322 0.500000 0.383786
O O17 0.616240 0.263123 0.446023
O O18 0.000094 0.000000 0.810429
O O19 0.750000 0.268614 0.623555
O O20 0.859309 0.500000 0.613462
O O21 0.884553 0.259033 0.553926
O O22 0.750000 0.164902 0.500039
O O23 0.607913 0.000000 0.498722
#
# Coordination Sequence:
#
# PCOD8213874 Si02
#       8
#     8   8   8   8   8   8   8   8
#     4   9  13  19  33  52  79 113 154 205 252 302
#     4   9  15  23  36  54  79 116 161 206 254 308
#     4   9  15  23  36  54  79 116 161 206 254 308
#     4  11  23  36  53  77 106 142 186 231 274 321
#     4  10  21  38  59  82 110 144 181 222 269 322
#     4   9  18  30  40  57  87 124 167 215 260 305
#     4  10  21  38  59  82 110 144 181 222 269 322
#     4   9  17  32  57  88 118 143 171 214 269 326
#
# _framework density 19.582001999999999
#
# number of rings (size 3 to 8) (size 9 to 14) (size 15 to 20)
#    0.000    2.500    1.250    1.875    0.000    6.000 
#    0.000    5.000    0.000    0.000    0.000    0.000 
#    0.000    0.000    0.000    9.000    0.000   44.000 
#
# Total GULP energy -793374.524440 kJ/mol
# GULP energy per Si atom -12396.476944 kJ/mol
# Density = 1.953743 g / cm^3
# Si number density = 19.582002 Si / 1000 Ang^3
#
#
#
# Elastic Constant Matrix: (Units=GPa)
#
#
# Indices 1 2 3 4 5 6 
#
# 1 282.1724 183.6707 279.9082 0.0000 0.0000 0.0000
# 2 183.6707 231.1285 243.7884 0.0000 0.0000 0.0000
# 3 279.9082 243.7884 434.1177 0.0000 0.0000 0.0000
# 4 0.0000 0.0000 0.0000 -1.7203 0.0000 0.0000
# 5 0.0000 0.0000 0.0000 0.0000 29.7995 0.0000
# 6 0.0000 0.0000 0.0000 0.0000 0.0000 18.3224
#
#
#
# Elastic Compliance Matrix: (Units=1/GPa)
#
#
# Indices 1 2 3 4 5 6 
#
# 1 0.010610 -0.002982 -0.005166 0.000000 0.000000 0.000000
# 2 -0.002982 0.011451 -0.004508 0.000000 0.000000 0.000000
# 3 -0.005166 -0.004508 0.008166 0.000000 0.000000 0.000000
# 4 0.000000 0.000000 0.000000 -0.581284 0.000000 0.000000
# 5 0.000000 0.000000 0.000000 0.000000 0.033558 0.000000
# 6 0.000000 0.000000 0.000000 0.000000 0.000000 0.054578
#
#
# Mechanical properties :
#
#
# Convention : Reuss Voigt Hill
#
# Bulk Modulus (GPa) = 203.47412 262.46146 232.96779
# Shear Modulus (GPa) = -11.46866 25.28375 6.90754
#
# Velocity S-wave (km/s) = -2.42269 3.59719 1.88020
# Velocity P-wave (km/s) = 9.81368 12.31162 11.13293
#
# Compressibility (1/GPa) = 0.00491463
#
# Stress axis : x y z
#
# Youngs Moduli (GPa) = 94.25169 87.32765 122.45564
#
# Poissons Ratio (x) = 0.26041 0.63266
# Poissons Ratio (y) = 0.28105 0.55202
# Poissons Ratio (z) = 0.48694 0.39367
#
# Static dielectric constant tensor:
#      x y z
#    x 3.674980 0.000000 0.000000 
#    y 0.000000 3.076360 0.000000 
#    z 0.000000 0.000000 3.778240 
# 
# 
# High freq. dielectric constant tensor:
#      x y z
#    x 1.771870 0.000000 0.000000 
#    y 0.000000 1.708880 0.000000 
#    z 0.000000 0.000000 1.766530 
# 
# From -- ./inp_files/35789.got.cif
#   From: 2010.03.12/outbox.cif.g09.slc.cpg/sg51_18_cif.got.tgz:35789.got - 2010.04.16 13:43:02.
