data_PCOD8213887
_publ_section_title
;
Structure prediction by ZEFSAII (Michael W. Deem and Ramdas Pophale) SiO2 
 PCOD8213887
Probable space group: P M M A
;
_chemical_formula_sum "Si O2"
_cell_formula_units_Z 44
_cell_length_a 8.845541
_cell_length_b 16.665223
_cell_length_c 15.709449
_cell_angle_alpha 90.000000
_cell_angle_beta 90.000000
_cell_angle_gamma 90.000000
_cell_volume 2315.775644
_symmetry_space_group_name_H-M "P M M A"
_symmetry_group_IT_number 51
_symmetry_cell_setting 'orthorhombic'
loop_
_space_group_symop_operation_xyz
x,y,z
1/2-x,-y,z
1/2+x,-y,-z
-x,y,-z
-x,-y,-z
1/2+x,y,-z
1/2-x,y,z
x,-y,z
loop_
_atom_site_type_symbol
_atom_site_label
_atom_site_fract_x
_atom_site_fract_y
_atom_site_fract_z
Si Si1 0.573012 0.633855 0.697351
Si Si2 0.069533 0.798768 0.727519
Si Si3 0.920891 0.588295 0.136583
Si Si4 0.927939 0.500000 0.410389
Si Si5 0.421812 0.762001 0.916799
Si Si6 0.075883 0.094898 0.411958
O O1 0.750000 0.635106 0.678344
O O2 0.503762 0.721420 0.684675
O O3 0.543964 0.596494 0.789894
O O4 0.485473 0.580347 0.631651
O O5 0.250000 0.794928 0.722880
O O6 0.015928 0.798957 0.827404
O O7 0.008462 0.873442 0.672945
O O8 0.750000 0.593101 0.174796
O O9 0.943729 0.500000 0.092070
O O10 0.943599 0.664994 0.075746
O O11 0.750000 0.500000 0.413268
O O12 0.000000 0.500000 0.500000
O O13 0.250000 0.787285 0.924215
O O14 0.500000 0.800507 0.000000
O O15 0.250000 0.122857 0.411442
O O16 0.000000 0.126414 0.500000
O O17 0.061129 0.000000 0.407135
#
# Coordination Sequence:
#
# PCOD8213887 Si02
#       6
#     8   8   8   4   8   8
#     4  11  21  34  52  76 102 135 183 230 275 329
#     4  10  21  38  59  83 113 152 191 229 279 334
#     4   9  17  31  50  69  97 138 180 227 282 334
#     4  12  24  38  52  70  99 136 179 230 282 332
#     4   9  19  33  50  76 108 146 190 236 285 334
#     4  10  21  38  62  93 124 150 179 221 274 333
#
# _framework density 19.000112999999999
#
# number of rings (size 3 to 8) (size 9 to 14) (size 15 to 20)
#    0.000    2.000    0.909    4.636    0.000    5.818 
#    0.000    3.636    0.000    0.545    0.000    0.000 
#    0.000    0.000    0.000    0.000    0.000    0.000 
#
# Total GULP energy -545232.361933 kJ/mol
# GULP energy per Si atom -12391.644589 kJ/mol
# Density = 1.895687 g / cm^3
# Si number density = 19.000113 Si / 1000 Ang^3
#
#
#
# Elastic Constant Matrix: (Units=GPa)
#
#
# Indices 1 2 3 4 5 6 
#
# 1 128.1599 29.0881 58.1909 0.0000 0.0000 0.0000
# 2 29.0881 42.9110 33.9481 0.0000 0.0000 0.0000
# 3 58.1909 33.9481 117.3800 0.0000 0.0000 0.0000
# 4 0.0000 0.0000 0.0000 19.0378 0.0000 0.0000
# 5 0.0000 0.0000 0.0000 0.0000 34.1904 0.0000
# 6 0.0000 0.0000 0.0000 0.0000 0.0000 28.7694
#
#
#
# Elastic Compliance Matrix: (Units=1/GPa)
#
#
# Indices 1 2 3 4 5 6 
#
# 1 0.010552 -0.003909 -0.004101 0.000000 0.000000 0.000000
# 2 -0.003909 0.031666 -0.007221 0.000000 0.000000 0.000000
# 3 -0.004101 -0.007221 0.012640 0.000000 0.000000 0.000000
# 4 0.000000 0.000000 0.000000 0.052527 0.000000 0.000000
# 5 0.000000 0.000000 0.000000 0.000000 0.029248 0.000000
# 6 0.000000 0.000000 0.000000 0.000000 0.000000 0.034759
#
#
# Mechanical properties :
#
#
# Convention : Reuss Voigt Hill
#
# Bulk Modulus (GPa) = 40.98586 58.98943 49.98765
# Shear Modulus (GPa) = 23.81124 27.54778 25.67951
#
# Velocity S-wave (km/s) = 3.54392 3.81185 3.68032
# Velocity P-wave (km/s) = 6.19387 7.10548 6.66528
#
# Compressibility (1/GPa) = 0.02439866
#
# Stress axis : x y z
#
# Youngs Moduli (GPa) = 94.77104 31.57959 79.11082
#
# Poissons Ratio (x) = 0.12343 0.32440
# Poissons Ratio (y) = 0.37043 0.57123
# Poissons Ratio (z) = 0.38862 0.22802
#
# Static dielectric constant tensor:
#      x y z
#    x 3.560660 0.000000 0.000000 
#    y 0.000000 3.323510 0.000000 
#    z 0.000000 0.000000 3.447870 
# 
# 
# High freq. dielectric constant tensor:
#      x y z
#    x 1.747660 0.000000 0.000000 
#    y 0.000000 1.715970 0.000000 
#    z 0.000000 0.000000 1.732630 
# 
# From -- ./inp_files/20878.got.cif
#   From: 2010.03.12/outbox.cif.g09.slc.cpg/sg51_11_cif.got.tgz:20878.got - 2010.04.16 13:43:02.
