data_PCOD8213477
_publ_section_title
;
Structure prediction by ZEFSAII (Michael W. Deem and Ramdas Pophale) SiO2 
 PCOD8213477
Probable space group: P M M A
;
_chemical_formula_sum "Si O2"
_cell_formula_units_Z 56
_cell_length_a 9.441450
_cell_length_b 13.949408
_cell_length_c 22.614480
_cell_angle_alpha 90.000000
_cell_angle_beta 90.000000
_cell_angle_gamma 90.000000
_cell_volume 2978.386677
_symmetry_space_group_name_H-M "P M M A"
_symmetry_group_IT_number 51
_symmetry_cell_setting 'orthorhombic'
loop_
_space_group_symop_operation_xyz
x,y,z
1/2-x,-y,z
1/2+x,-y,-z
-x,y,-z
-x,-y,-z
1/2+x,y,-z
1/2-x,y,z
x,-y,z
loop_
_atom_site_type_symbol
_atom_site_label
_atom_site_fract_x
_atom_site_fract_y
_atom_site_fract_z
Si Si1 0.586146 0.388767 0.871897
Si Si2 0.750000 0.615188 0.433988
Si Si3 0.750000 0.388073 0.568584
Si Si4 0.085246 0.109582 0.441110
Si Si5 0.502503 0.714262 0.630083
Si Si6 0.910940 0.727974 0.757545
Si Si7 0.922005 0.768858 0.061226
Si Si8 0.913245 0.889397 0.847264
O O1 0.750000 0.366571 0.889421
O O2 0.550763 0.500000 0.877884
O O3 0.559268 0.356211 0.804611
O O4 0.478516 0.333240 0.914857
O O5 0.750000 0.500000 0.429127
O O6 0.750000 0.652176 0.501639
O O7 0.626336 0.663735 0.399364
O O8 0.750000 0.500000 0.562723
O O9 0.621460 0.354501 0.606746
O O10 0.250000 0.131410 0.452679
O O11 0.000000 0.134583 0.500000
O O12 0.025750 0.175503 0.388820
O O13 0.060757 0.000000 0.421610
O O14 0.488451 0.713007 0.701183
O O15 0.750000 0.723905 0.734542
O O16 0.941731 0.830960 0.787186
O O17 0.750000 0.768698 0.056130
O O18 0.975424 0.853910 0.103776
O O19 0.000000 0.789440 0.000000
O O20 0.750000 0.871769 0.868310
O O21 0.942288 0.000000 0.833816
#
# Coordination Sequence:
#
# PCOD8213477 Si02
#       8
#     8   4   4   8   8   8   8   8
#     4   9  19  37  60  84 115 154 197 247 296 342
#     4  11  26  42  55  81 119 155 195 246 304 364
#     4  11  22  38  61  83 109 149 201 248 300 364
#     4  10  21  36  57  85 113 144 184 231 289 358
#     4  12  22  38  60  85 115 154 194 247 303 358
#     4   9  18  36  58  87 114 144 195 243 289 349
#     4  11  22  37  59  88 125 161 199 242 284 341
#     4   9  19  38  64  88 117 155 194 242 294 341
#
# _framework density 18.802126000000001
#
# number of rings (size 3 to 8) (size 9 to 14) (size 15 to 20)
#    0.000    1.857    1.429    3.857    1.000    4.000 
#    5.143    1.429    0.000    0.000    0.000    0.000 
#    0.000    0.000    0.000    0.000    0.000    0.000 
#
# Total GULP energy -694145.065133 kJ/mol
# GULP energy per Si atom -12395.447592 kJ/mol
# Density = 1.875933 g / cm^3
# Si number density = 18.802126 Si / 1000 Ang^3
#
#
#
# Elastic Constant Matrix: (Units=GPa)
#
#
# Indices 1 2 3 4 5 6 
#
# 1 111.2891 33.2453 43.7161 0.0000 0.0000 0.0000
# 2 33.2453 94.5681 27.6737 0.0000 0.0000 0.0000
# 3 43.7161 27.6737 109.2614 0.0000 0.0000 0.0000
# 4 0.0000 0.0000 0.0000 13.7440 0.0000 0.0000
# 5 0.0000 0.0000 0.0000 0.0000 44.9056 0.0000
# 6 0.0000 0.0000 0.0000 0.0000 0.0000 31.6059
#
#
#
# Elastic Compliance Matrix: (Units=1/GPa)
#
#
# Indices 1 2 3 4 5 6 
#
# 1 0.011340 -0.002872 -0.003810 0.000000 0.000000 0.000000
# 2 -0.002872 0.012148 -0.001928 0.000000 0.000000 0.000000
# 3 -0.003810 -0.001928 0.011165 0.000000 0.000000 0.000000
# 4 0.000000 0.000000 0.000000 0.072759 0.000000 0.000000
# 5 0.000000 0.000000 0.000000 0.000000 0.022269 0.000000
# 6 0.000000 0.000000 0.000000 0.000000 0.000000 0.031640
#
#
# Mechanical properties :
#
#
# Convention : Reuss Voigt Hill
#
# Bulk Modulus (GPa) = 57.35837 58.26542 57.81189
# Shear Modulus (GPa) = 27.12219 32.08334 29.60276
#
# Velocity S-wave (km/s) = 3.80215 4.13530 3.97222
# Velocity P-wave (km/s) = 7.06029 7.33873 7.20086
#
# Compressibility (1/GPa) = 0.01743425
#
# Stress axis : x y z
#
# Youngs Moduli (GPa) = 88.18307 82.31749 89.56547
#
# Poissons Ratio (x) = 0.23639 0.34123
# Poissons Ratio (y) = 0.25323 0.17267
# Poissons Ratio (z) = 0.33597 0.15870
#
# Static dielectric constant tensor:
#      x y z
#    x 3.399180 0.000000 0.000000 
#    y 0.000000 3.755650 0.000000 
#    z 0.000000 0.000000 3.434110 
# 
# 
# High freq. dielectric constant tensor:
#      x y z
#    x 1.724600 0.000000 0.000000 
#    y 0.000000 1.742390 0.000000 
#    z 0.000000 0.000000 1.727060 
# 
# From -- ./inp_files/32103.got.cif
#   From: 2010.03.12/outbox.cif.g09.slc.cpg/sg51_17_cif.got.tgz:32103.got - 2010.04.16 13:43:02.
