data_PCOD8213624
_publ_section_title
;
Structure prediction by ZEFSAII (Michael W. Deem and Ramdas Pophale) SiO2 
 PCOD8213624
Probable space group: P M M A
;
_chemical_formula_sum "Si O2"
_cell_formula_units_Z 40
_cell_length_a 9.437959
_cell_length_b 8.967865
_cell_length_c 25.612612
_cell_angle_alpha 90.000000
_cell_angle_beta 90.000000
_cell_angle_gamma 90.000000
_cell_volume 2167.809019
_symmetry_space_group_name_H-M "P M M A"
_symmetry_group_IT_number 51
_symmetry_cell_setting 'orthorhombic'
loop_
_space_group_symop_operation_xyz
x,y,z
1/2-x,-y,z
1/2+x,-y,-z
-x,y,-z
-x,-y,-z
1/2+x,y,-z
1/2-x,y,z
x,-y,z
loop_
_atom_site_type_symbol
_atom_site_label
_atom_site_fract_x
_atom_site_fract_y
_atom_site_fract_z
Si Si1 0.414034 0.175116 0.752500
Si Si2 0.087711 0.675836 0.156258
Si Si3 0.583659 0.672731 0.662804
Si Si4 0.094280 0.676493 0.453948
Si Si5 0.585918 0.828109 0.950207
O O1 0.250000 0.222112 0.749598
O O2 0.485286 0.254721 0.801270
O O3 0.490990 0.223969 0.699697
O O4 0.432186 0.000000 0.759629
O O5 0.250000 0.724766 0.167635
O O6 0.071855 0.500000 0.158072
O O7 0.038762 0.733079 0.099742
O O8 0.750000 0.706076 0.670631
O O9 0.553015 0.500000 0.675657
O O10 0.535275 0.712836 0.603778
O O11 0.250000 0.746384 0.460080
O O12 0.103105 0.500000 0.460633
O O13 0.000000 0.748002 0.500000
O O14 0.750000 0.804920 0.962965
O O15 0.549449 0.000000 0.938583
O O16 0.500000 0.768390 0.000000
#
# Coordination Sequence:
#
# PCOD8213624 Si02
#       5
#     8   8   8   8   8
#     4  11  24  38  52  74 103 134 171 215 261 309
#     4  10  21  37  57  80 105 135 173 214 256 306
#     4   9  18  33  53  77 104 134 170 211 254 304
#     4   8  14  25  43  70 102 132 163 201 246 297
#     4   9  18  33  53  77 106 140 175 209 247 294
#
# _framework density 18.451809000000001
#
# number of rings (size 3 to 8) (size 9 to 14) (size 15 to 20)
#    0.000    2.600    0.000    3.000    0.000    7.600 
#    0.000    4.000    0.000    0.600    0.000    0.000 
#    0.000    0.000    0.000    0.000    0.000    0.000 
#
# Total GULP energy -495982.249887 kJ/mol
# GULP energy per Si atom -12399.556247 kJ/mol
# Density = 1.840981 g / cm^3
# Si number density = 18.451809 Si / 1000 Ang^3
#
#
#
# Elastic Constant Matrix: (Units=GPa)
#
#
# Indices 1 2 3 4 5 6 
#
# 1 85.0430 36.8601 78.6575 0.0000 0.0000 0.0000
# 2 36.8601 51.7070 46.1379 0.0000 0.0000 0.0000
# 3 78.6575 46.1379 158.7183 0.0000 0.0000 0.0000
# 4 0.0000 0.0000 0.0000 211.1556 0.0000 0.0000
# 5 0.0000 0.0000 0.0000 0.0000 40.4400 0.0000
# 6 0.0000 0.0000 0.0000 0.0000 0.0000 23.6597
#
#
#
# Elastic Compliance Matrix: (Units=1/GPa)
#
#
# Indices 1 2 3 4 5 6 
#
# 1 0.024422 -0.008925 -0.009508 0.000000 0.000000 0.000000
# 2 -0.008925 0.029375 -0.004116 0.000000 0.000000 0.000000
# 3 -0.009508 -0.004116 0.012209 0.000000 0.000000 0.000000
# 4 0.000000 0.000000 0.000000 0.004736 0.000000 0.000000
# 5 0.000000 0.000000 0.000000 0.000000 0.024728 0.000000
# 6 0.000000 0.000000 0.000000 0.000000 0.000000 0.042266
#
#
# Mechanical properties :
#
#
# Convention : Reuss Voigt Hill
#
# Bulk Modulus (GPa) = 47.83149 68.75325 58.29237
# Shear Modulus (GPa) = 26.34318 63.97192 45.15755
#
# Velocity S-wave (km/s) = 3.78256 5.89449 4.95241
# Velocity P-wave (km/s) = 6.71235 9.14705 8.02260
#
# Compressibility (1/GPa) = 0.02090673
#
# Stress axis : x y z
#
# Youngs Moduli (GPa) = 40.94743 34.04304 81.90618
#
# Poissons Ratio (x) = 0.30383 0.77880
# Poissons Ratio (y) = 0.36545 0.33712
# Poissons Ratio (z) = 0.38935 0.14012
#
# Static dielectric constant tensor:
#      x y z
#    x 3.551180 0.000000 0.000000 
#    y 0.000000 3.168480 0.000000 
#    z 0.000000 0.000000 3.604890 
# 
# 
# High freq. dielectric constant tensor:
#      x y z
#    x 1.711840 0.000000 0.000000 
#    y 0.000000 1.692340 0.000000 
#    z 0.000000 0.000000 1.731470 
# 
# From -- ./inp_files/34311.got.cif
#   From: 2010.03.12/outbox.cif.g09.slc.cpg/sg51_18_cif.got.tgz:34311.got - 2010.04.16 13:43:02.
