data_PCOD8213387
_publ_section_title
;
Structure prediction by ZEFSAII (Michael W. Deem and Ramdas Pophale) SiO2 
 PCOD8213387
Probable space group: P M M A
;
_chemical_formula_sum "Si O2"
_cell_formula_units_Z 64
_cell_length_a 23.535025
_cell_length_b 9.161167
_cell_length_c 15.106554
_cell_angle_alpha 90.000000
_cell_angle_beta 90.000000
_cell_angle_gamma 90.000000
_cell_volume 3257.098342
_symmetry_space_group_name_H-M "P M M A"
_symmetry_group_IT_number 51
_symmetry_cell_setting 'orthorhombic'
loop_
_space_group_symop_operation_xyz
x,y,z
1/2-x,-y,z
1/2+x,-y,-z
-x,y,-z
-x,-y,-z
1/2+x,y,-z
1/2-x,y,z
x,-y,z
loop_
_atom_site_type_symbol
_atom_site_label
_atom_site_fract_x
_atom_site_fract_y
_atom_site_fract_z
Si Si1 0.620577 0.827452 0.154987
Si Si2 0.183833 0.329959 0.002513
Si Si3 0.814649 0.340676 0.496202
Si Si4 0.025501 0.332145 0.404049
Si Si5 0.183109 0.167061 0.668656
Si Si6 0.136651 0.827429 0.353185
Si Si7 0.116929 0.331115 0.179721
Si Si8 0.987210 0.332955 0.214053
O O1 0.652909 0.777414 0.243089
O O2 0.556505 0.767072 0.160023
O O3 0.618121 0.000000 0.143562
O O4 0.656178 0.762905 0.074775
O O5 0.250000 0.287452 0.015287
O O6 0.177619 0.500000 0.979747
O O7 0.148333 0.289324 0.089713
O O8 0.750000 0.365261 0.471059
O O9 0.844204 0.500000 0.509869
O O10 0.843113 0.259683 0.412491
O O11 0.815831 0.241772 0.583712
O O12 0.046221 0.500000 0.397358
O O13 0.077490 0.222661 0.395373
O O14 0.000000 0.298746 0.500000
O O15 0.983864 0.301453 0.320330
O O16 0.250000 0.188887 0.681292
O O17 0.168046 0.000000 0.648615
O O18 0.145964 0.766922 0.254894
O O19 0.141828 0.000000 0.352152
O O20 0.126386 0.500000 0.204427
O O21 0.049754 0.296147 0.175670
O O22 0.971399 0.500000 0.194078
#
# Coordination Sequence:
#
# PCOD8213387 Si02
#       8
#     8   8   8   8   8   8   8   8
#     4  11  23  37  57  86 122 156 189 236 293 357
#     4  10  22  41  66  92 114 144 193 248 299 355
#     4  10  21  36  55  79 108 148 197 242 285 341
#     4   9  19  36  57  82 113 153 199 243 284 332
#     4   9  19  36  54  75 109 150 188 233 292 352
#     4  11  22  35  55  84 117 151 186 233 291 349
#     4   9  20  41  63  84 115 153 196 245 296 348
#     4   9  19  36  57  83 116 156 199 241 287 342
#
# _framework density 19.649391999999999
#
# number of rings (size 3 to 8) (size 9 to 14) (size 15 to 20)
#    0.000    2.250    0.000    3.000    1.750    6.250 
#    0.000    5.000    0.000    0.000    0.000    0.000 
#    0.000    0.000    0.000    0.000    0.000    0.000 
#
# Total GULP energy -793503.942715 kJ/mol
# GULP energy per Si atom -12398.499105 kJ/mol
# Density = 1.960467 g / cm^3
# Si number density = 19.649392 Si / 1000 Ang^3
#
#
#
# Elastic Constant Matrix: (Units=GPa)
#
#
# Indices 1 2 3 4 5 6 
#
# 1 77.3206 41.5088 66.6086 0.0000 0.0000 0.0000
# 2 41.5088 115.9489 78.5215 0.0000 0.0000 0.0000
# 3 66.6086 78.5215 136.5072 0.0000 0.0000 0.0000
# 4 0.0000 0.0000 0.0000 33.6001 0.0000 0.0000
# 5 0.0000 0.0000 0.0000 0.0000 34.5984 0.0000
# 6 0.0000 0.0000 0.0000 0.0000 0.0000 24.2690
#
#
#
# Elastic Compliance Matrix: (Units=1/GPa)
#
#
# Indices 1 2 3 4 5 6 
#
# 1 0.022384 -0.001010 -0.010341 0.000000 0.000000 0.000000
# 2 -0.001010 0.014174 -0.007660 0.000000 0.000000 0.000000
# 3 -0.010341 -0.007660 0.016778 0.000000 0.000000 0.000000
# 4 0.000000 0.000000 0.000000 0.029762 0.000000 0.000000
# 5 0.000000 0.000000 0.000000 0.000000 0.028903 0.000000
# 6 0.000000 0.000000 0.000000 0.000000 0.000000 0.041205
#
#
# Mechanical properties :
#
#
# Convention : Reuss Voigt Hill
#
# Bulk Modulus (GPa) = 65.30562 78.11716 71.71139
# Shear Modulus (GPa) = 25.46709 28.03601 26.75155
#
# Velocity S-wave (km/s) = 3.60401 3.78142 3.69378
# Velocity P-wave (km/s) = 7.11520 7.67511 7.40045
#
# Compressibility (1/GPa) = 0.01531262
#
# Stress axis : x y z
#
# Youngs Moduli (GPa) = 44.67485 70.55416 59.60277
#
# Poissons Ratio (x) = 0.07127 0.61636
# Poissons Ratio (y) = 0.04513 0.45655
# Poissons Ratio (z) = 0.46199 0.54044
#
# Static dielectric constant tensor:
#      x y z
#    x 3.486860 0.000000 0.000000 
#    y 0.000000 3.601860 0.000000 
#    z 0.000000 0.000000 3.697290 
# 
# 
# High freq. dielectric constant tensor:
#      x y z
#    x 1.758920 0.000000 0.000000 
#    y 0.000000 1.762750 0.000000 
#    z 0.000000 0.000000 1.771330 
# 
# From -- ./inp_files/26338.got.cif
#   From: 2010.03.12/outbox.cif.g09.slc.cpg/sg51_14_cif.got.tgz:26338.got - 2010.04.16 13:43:02.
