data_PCOD8213328
_publ_section_title
;
Structure prediction by ZEFSAII (Michael W. Deem and Ramdas Pophale) SiO2 
 PCOD8213328
Probable space group: P M M A
;
_chemical_formula_sum "Si O2"
_cell_formula_units_Z 48
_cell_length_a 13.912523
_cell_length_b 8.957633
_cell_length_c 20.413513
_cell_angle_alpha 90.000000
_cell_angle_beta 90.000000
_cell_angle_gamma 90.000000
_cell_volume 2543.998847
_symmetry_space_group_name_H-M "P M M A"
_symmetry_group_IT_number 51
_symmetry_cell_setting 'orthorhombic'
loop_
_space_group_symop_operation_xyz
x,y,z
1/2-x,-y,z
1/2+x,-y,-z
-x,y,-z
-x,-y,-z
1/2+x,y,-z
1/2-x,y,z
x,-y,z
loop_
_atom_site_type_symbol
_atom_site_label
_atom_site_fract_x
_atom_site_fract_y
_atom_site_fract_z
Si Si1 0.042497 0.323213 0.101859
Si Si2 0.139647 0.175945 0.223863
Si Si3 0.859279 0.669122 0.524291
Si Si4 0.140376 0.174550 0.609346
Si Si5 0.463621 0.674394 0.342523
Si Si6 0.143979 0.676840 0.970523
O O1 0.050281 0.500000 0.113442
O O2 0.072966 0.238106 0.166575
O O3 0.110479 0.269577 0.042334
O O4 0.932802 0.274388 0.084694
O O5 0.250000 0.222160 0.211203
O O6 0.105844 0.245460 0.291783
O O7 0.127371 0.000000 0.227755
O O8 0.750000 0.687759 0.547660
O O9 0.879541 0.500000 0.500433
O O10 0.884103 0.778060 0.464793
O O11 0.925256 0.711267 0.585253
O O12 0.250000 0.217963 0.626631
O O13 0.071819 0.260418 0.660714
O O14 0.122125 0.000000 0.616331
O O15 0.464792 0.500000 0.326443
O O16 0.250000 0.743593 0.954876
O O17 0.147516 0.500000 0.972077
#
# Coordination Sequence:
#
# PCOD8213328 Si02
#       6
#     8   8   8   8   8   8
#     4   9  17  31  54  81 107 140 179 216 257 306
#     4  11  24  39  54  75 106 141 174 213 265 322
#     4   9  18  33  53  78 106 134 169 216 267 317
#     4  10  21  36  54  77 106 139 173 213 265 321
#     4  11  22  36  56  79 103 136 179 223 264 309
#     4   8  14  27  51  83 113 138 171 217 262 304
#
# _framework density 18.867933000000001
#
# number of rings (size 3 to 8) (size 9 to 14) (size 15 to 20)
#    0.000    2.333    0.000    4.000    0.000    7.000 
#    0.000    4.167    0.000    4.500    0.000    0.000 
#    0.000    0.000    0.000    0.000    0.000    0.000 
#
# Total GULP energy -595187.198507 kJ/mol
# GULP energy per Si atom -12399.733302 kJ/mol
# Density = 1.882499 g / cm^3
# Si number density = 18.867933 Si / 1000 Ang^3
#
#
#
# Elastic Constant Matrix: (Units=GPa)
#
#
# Indices 1 2 3 4 5 6 
#
# 1 140.5200 43.6203 39.4749 0.0000 0.0000 0.0000
# 2 43.6203 63.8685 29.4269 0.0000 0.0000 0.0000
# 3 39.4749 29.4269 36.6612 0.0000 0.0000 0.0000
# 4 0.0000 0.0000 0.0000 -116.2577 0.0000 0.0000
# 5 0.0000 0.0000 0.0000 0.0000 29.3091 0.0000
# 6 0.0000 0.0000 0.0000 0.0000 0.0000 24.4126
#
#
#
# Elastic Compliance Matrix: (Units=1/GPa)
#
#
# Indices 1 2 3 4 5 6 
#
# 1 0.010585 -0.003139 -0.008878 0.000000 0.000000 0.000000
# 2 -0.003139 0.025776 -0.017310 0.000000 0.000000 0.000000
# 3 -0.008878 -0.017310 0.050730 0.000000 0.000000 0.000000
# 4 0.000000 0.000000 0.000000 -0.008602 0.000000 0.000000
# 5 0.000000 0.000000 0.000000 0.000000 0.034119 0.000000
# 6 0.000000 0.000000 0.000000 0.000000 0.000000 0.040962
#
#
# Mechanical properties :
#
#
# Convention : Reuss Voigt Hill
#
# Bulk Modulus (GPa) = 35.16438 51.78822 43.47630
# Shear Modulus (GPa) = 22.55257 -3.93868 9.30694
#
# Velocity S-wave (km/s) = 3.46104 -1.44639 2.22337
# Velocity P-wave (km/s) = 5.88637 4.97172 5.44827
#
# Compressibility (1/GPa) = 0.02843787
#
# Stress axis : x y z
#
# Youngs Moduli (GPa) = 94.47652 38.79508 19.71208
#
# Poissons Ratio (x) = 0.12177 0.17500
# Poissons Ratio (y) = 0.29653 0.34122
# Poissons Ratio (z) = 0.83873 0.67156
#
# Static dielectric constant tensor:
#      x y z
#    x 3.970920 0.000000 0.000000 
#    y 0.000000 3.269480 0.000000 
#    z 0.000000 0.000000 3.244950 
# 
# 
# High freq. dielectric constant tensor:
#      x y z
#    x 1.752200 0.000000 0.000000 
#    y 0.000000 1.716390 0.000000 
#    z 0.000000 0.000000 1.713210 
# 
# From -- ./inp_files/33191.got.cif
#   From: 2010.03.12/outbox.cif.g09.slc.cpg/sg51_17_cif.got.tgz:33191.got - 2010.04.16 13:43:02.
