data_PCOD8213431
_publ_section_title
;
Structure prediction by ZEFSAII (Michael W. Deem and Ramdas Pophale) SiO2 
 PCOD8213431
Probable space group: P M M A
;
_chemical_formula_sum "Si O2"
_cell_formula_units_Z 64
_cell_length_a 15.313827
_cell_length_b 8.748221
_cell_length_c 24.036069
_cell_angle_alpha 90.000000
_cell_angle_beta 90.000000
_cell_angle_gamma 90.000000
_cell_volume 3220.081949
_symmetry_space_group_name_H-M "P M M A"
_symmetry_group_IT_number 51
_symmetry_cell_setting 'orthorhombic'
loop_
_space_group_symop_operation_xyz
x,y,z
1/2-x,-y,z
1/2+x,-y,-z
-x,y,-z
-x,-y,-z
1/2+x,y,-z
1/2-x,y,z
x,-y,z
loop_
_atom_site_type_symbol
_atom_site_label
_atom_site_fract_x
_atom_site_fract_y
_atom_site_fract_z
Si Si1 0.907576 0.820339 0.444324
Si Si2 0.153701 0.674858 0.662000
Si Si3 0.347899 0.825980 0.332533
Si Si4 0.848736 0.319778 0.054177
Si Si5 0.849398 0.179930 0.937386
Si Si6 0.998145 0.680284 0.865822
Si Si7 0.003782 0.680190 0.261052
Si Si8 0.596302 0.680337 0.557030
O O1 0.845585 0.779703 0.392952
O O2 0.864726 0.762873 0.502124
O O3 0.996988 0.730367 0.433678
O O4 0.925079 0.000000 0.447722
O O5 0.250000 0.688831 0.689210
O O6 0.133671 0.500000 0.644964
O O7 0.082696 0.733920 0.706153
O O8 0.250000 0.816235 0.308281
O O9 0.411537 0.760697 0.285876
O O10 0.349636 0.729099 0.389150
O O11 0.374690 0.000000 0.346045
O O12 0.750000 0.268454 0.070089
O O13 0.853647 0.500000 0.046242
O O14 0.915023 0.263515 0.101936
O O15 0.879583 0.244899 0.996721
O O16 0.750000 0.230748 0.924290
O O17 0.910985 0.244179 0.889469
O O18 0.858397 0.000000 0.939469
O O19 0.987586 0.500000 0.871120
O O20 0.008429 0.732797 0.802275
O O21 0.017452 0.500000 0.265976
O O22 0.602523 0.500000 0.548816
#
# Coordination Sequence:
#
# PCOD8213431 Si02
#       8
#     8   8   8   8   8   8   8   8
#     4  11  21  35  58  87 119 152 187 231 287 345
#     4  10  21  38  60  85 114 151 193 236 285 342
#     4  11  24  41  61  85 114 150 191 238 292 346
#     4   9  18  34  57  85 118 152 186 229 281 336
#     4  10  21  36  55  82 116 152 190 233 284 338
#     4  10  21  36  57  85 114 149 193 236 282 335
#     4  10  22  40  60  83 114 151 192 240 286 335
#     4  11  21  36  60  87 116 149 187 233 289 347
#
# _framework density 19.87527
#
# number of rings (size 3 to 8) (size 9 to 14) (size 15 to 20)
#    0.000    1.750    1.250    4.125    0.000    6.000 
#    0.000    5.000    0.000    0.000    0.000    3.500 
#    0.000    0.000    0.000    0.000    0.000    0.000 
#
# Total GULP energy -793770.653021 kJ/mol
# GULP energy per Si atom -12402.666453 kJ/mol
# Density = 1.983003 g / cm^3
# Si number density = 19.875270 Si / 1000 Ang^3
#
#
#
# Elastic Constant Matrix: (Units=GPa)
#
#
# Indices 1 2 3 4 5 6 
#
# 1 111.9188 32.3949 66.8814 0.0000 0.0000 0.0000
# 2 32.3949 66.2509 44.9111 0.0000 0.0000 0.0000
# 3 66.8814 44.9111 137.2979 0.0000 0.0000 0.0000
# 4 0.0000 0.0000 0.0000 9.9365 0.0000 0.0000
# 5 0.0000 0.0000 0.0000 0.0000 11.9178 0.0000
# 6 0.0000 0.0000 0.0000 0.0000 0.0000 22.9772
#
#
#
# Elastic Compliance Matrix: (Units=1/GPa)
#
#
# Indices 1 2 3 4 5 6 
#
# 1 0.012954 -0.002643 -0.005446 0.000000 0.000000 0.000000
# 2 -0.002643 0.019934 -0.005233 0.000000 0.000000 0.000000
# 3 -0.005446 -0.005233 0.011648 0.000000 0.000000 0.000000
# 4 0.000000 0.000000 0.000000 0.100639 0.000000 0.000000
# 5 0.000000 0.000000 0.000000 0.000000 0.083908 0.000000
# 6 0.000000 0.000000 0.000000 0.000000 0.000000 0.043521
#
#
# Mechanical properties :
#
#
# Convention : Reuss Voigt Hill
#
# Bulk Modulus (GPa) = 55.88842 67.09359 61.49100
# Shear Modulus (GPa) = 16.38198 20.38497 18.38347
#
# Velocity S-wave (km/s) = 2.87407 3.20604 3.04459
# Velocity P-wave (km/s) = 6.26054 6.89460 6.58521
#
# Compressibility (1/GPa) = 0.01789280
#
# Stress axis : x y z
#
# Youngs Moduli (GPa) = 77.19370 50.16592 85.85029
#
# Poissons Ratio (x) = 0.13256 0.46754
# Poissons Ratio (y) = 0.20399 0.44928
# Poissons Ratio (z) = 0.42040 0.26253
#
# Static dielectric constant tensor:
#      x y z
#    x 4.060470 0.000000 0.000000 
#    y 0.000000 3.557120 0.000000 
#    z 0.000000 0.000000 3.671760 
# 
# 
# High freq. dielectric constant tensor:
#      x y z
#    x 1.779300 0.000000 0.000000 
#    y 0.000000 1.772540 0.000000 
#    z 0.000000 0.000000 1.770350 
# 
# From -- ./inp_files/35714.got.cif
#   From: 2010.03.12/outbox.cif.g09.slc.cpg/sg51_18_cif.got.tgz:35714.got - 2010.04.16 13:43:02.
