data_PCOD8213368
_publ_section_title
;
Structure prediction by ZEFSAII (Michael W. Deem and Ramdas Pophale) SiO2 
 PCOD8213368
Probable space group: P M M A
;
_chemical_formula_sum "Si O2"
_cell_formula_units_Z 56
_cell_length_a 9.148046
_cell_length_b 18.688385
_cell_length_c 18.393424
_cell_angle_alpha 90.000000
_cell_angle_beta 90.000000
_cell_angle_gamma 90.000000
_cell_volume 3144.580336
_symmetry_space_group_name_H-M "P M M A"
_symmetry_group_IT_number 51
_symmetry_cell_setting 'orthorhombic'
loop_
_space_group_symop_operation_xyz
x,y,z
1/2-x,-y,z
1/2+x,-y,-z
-x,y,-z
-x,-y,-z
1/2+x,y,-z
1/2-x,y,z
x,-y,z
loop_
_atom_site_type_symbol
_atom_site_label
_atom_site_fract_x
_atom_site_fract_y
_atom_site_fract_z
Si Si1 0.417259 0.212566 0.650681
Si Si2 0.578265 0.355760 0.425883
Si Si3 0.918170 0.918293 0.851255
Si Si4 0.578272 0.921155 0.684529
Si Si5 0.580143 0.698345 0.210014
Si Si6 0.918136 0.417533 0.710608
Si Si7 0.078576 0.207148 0.926722
O O1 0.250000 0.189681 0.651012
O O2 0.449816 0.271625 0.589104
O O3 0.507382 0.140386 0.634714
O O4 0.463833 0.244212 0.728684
O O5 0.500000 0.378157 0.500000
O O6 0.750000 0.372666 0.430714
O O7 0.510304 0.403109 0.362009
O O8 0.750000 0.894268 0.859620
O O9 0.969579 0.910371 0.768019
O O10 0.018741 0.869519 0.901670
O O11 0.937844 0.000000 0.877004
O O12 0.750000 0.914871 0.676997
O O13 0.526645 0.000000 0.658013
O O14 0.750000 0.677577 0.218288
O O15 0.483500 0.627424 0.221887
O O16 0.543614 0.731586 0.132068
O O17 0.750000 0.395552 0.697116
O O18 0.932104 0.500000 0.732305
O O19 0.250000 0.198993 0.940205
O O20 0.000000 0.232202 0.000000
#
# Coordination Sequence:
#
# PCOD8213368 Si02
#       7
#     8   8   8   8   8   8   8
#     4   9  17  31  50  73  99 129 169 214 256 301
#     4  10  21  36  54  79 111 143 175 207 246 298
#     4   9  18  32  48  69  99 134 173 216 263 313
#     4   9  17  28  45  71  99 128 167 214 261 306
#     4   9  19  35  53  75 103 133 170 213 255 304
#     4  10  21  36  57  85 111 137 169 203 245 298
#     4  11  22  35  51  73 101 135 176 218 264 313
#
# _framework density 17.808416999999999
#
# number of rings (size 3 to 8) (size 9 to 14) (size 15 to 20)
#    0.000    2.429    1.429    3.000    0.000    6.286 
#    0.000    1.429    0.000    0.857    0.000    0.000 
#    0.000    0.000    0.000    0.000    0.000    0.000 
#
# Total GULP energy -694420.880667 kJ/mol
# GULP energy per Si atom -12400.372869 kJ/mol
# Density = 1.776788 g / cm^3
# Si number density = 17.808417 Si / 1000 Ang^3
#
#
#
# Elastic Constant Matrix: (Units=GPa)
#
#
# Indices 1 2 3 4 5 6 
#
# 1 90.2474 52.0512 35.8128 0.0000 0.0000 0.0000
# 2 52.0512 98.7176 25.2229 0.0000 0.0000 0.0000
# 3 35.8128 25.2229 55.0652 0.0000 0.0000 0.0000
# 4 0.0000 0.0000 0.0000 18.0162 0.0000 0.0000
# 5 0.0000 0.0000 0.0000 0.0000 28.3597 0.0000
# 6 0.0000 0.0000 0.0000 0.0000 0.0000 33.7237
#
#
#
# Elastic Compliance Matrix: (Units=1/GPa)
#
#
# Indices 1 2 3 4 5 6 
#
# 1 0.019092 -0.007808 -0.008840 0.000000 0.000000 0.000000
# 2 -0.007808 0.014666 -0.001640 0.000000 0.000000 0.000000
# 3 -0.008840 -0.001640 0.024661 0.000000 0.000000 0.000000
# 4 0.000000 0.000000 0.000000 0.055506 0.000000 0.000000
# 5 0.000000 0.000000 0.000000 0.000000 0.035261 0.000000
# 6 0.000000 0.000000 0.000000 0.000000 0.000000 0.029653
#
#
# Mechanical properties :
#
#
# Convention : Reuss Voigt Hill
#
# Bulk Modulus (GPa) = 45.78208 52.24490 49.01349
# Shear Modulus (GPa) = 22.45215 24.74946 23.60081
#
# Velocity S-wave (km/s) = 3.55457 3.73200 3.64436
# Velocity P-wave (km/s) = 6.52768 6.92613 6.72985
#
# Compressibility (1/GPa) = 0.02184261
#
# Stress axis : x y z
#
# Youngs Moduli (GPa) = 52.37750 68.18574 40.55002
#
# Poissons Ratio (x) = 0.53240 0.35848
# Poissons Ratio (y) = 0.40896 0.06649
# Poissons Ratio (z) = 0.46304 0.11180
#
# Static dielectric constant tensor:
#      x y z
#    x 3.307580 0.000000 0.000000 
#    y 0.000000 3.269600 0.000000 
#    z 0.000000 0.000000 3.116990 
# 
# 
# High freq. dielectric constant tensor:
#      x y z
#    x 1.695160 0.000000 0.000000 
#    y 0.000000 1.685150 0.000000 
#    z 0.000000 0.000000 1.661350 
# 
# From -- ./inp_files/32244.got.cif
#   From: 2010.03.12/outbox.cif.g09.slc.cpg/sg51_17_cif.got.tgz:32244.got - 2010.04.16 13:43:02.
