data_PCOD8213742
_publ_section_title
;
Structure prediction by ZEFSAII (Michael W. Deem and Ramdas Pophale) SiO2 
 PCOD8213742
Probable space group: P M M A
;
_chemical_formula_sum "Si O2"
_cell_formula_units_Z 40
_cell_length_a 16.645763
_cell_length_b 9.831543
_cell_length_c 12.630482
_cell_angle_alpha 90.000000
_cell_angle_beta 90.000000
_cell_angle_gamma 90.000000
_cell_volume 2067.023024
_symmetry_space_group_name_H-M "P M M A"
_symmetry_group_IT_number 51
_symmetry_cell_setting 'orthorhombic'
loop_
_space_group_symop_operation_xyz
x,y,z
1/2-x,-y,z
1/2+x,-y,-z
-x,y,-z
-x,-y,-z
1/2+x,y,-z
1/2-x,y,z
x,-y,z
loop_
_atom_site_type_symbol
_atom_site_label
_atom_site_fract_x
_atom_site_fract_y
_atom_site_fract_z
Si Si1 0.344744 0.838546 0.738070
Si Si2 0.414575 0.839830 0.960691
Si Si3 0.842714 0.148460 0.827013
Si Si4 0.657497 0.647793 0.660489
Si Si5 0.085760 0.342402 0.552851
O O1 0.250000 0.803218 0.734126
O O2 0.381644 0.783519 0.849219
O O3 0.394064 0.757321 0.649111
O O4 0.357720 0.000000 0.722555
O O5 0.421024 0.000000 0.947102
O O6 0.500000 0.779029 0.000000
O O7 0.352144 0.798445 0.053108
O O8 0.750000 0.134847 0.799040
O O9 0.885115 0.247961 0.741910
O O10 0.884588 0.000000 0.815673
O O11 0.750000 0.636457 0.691310
O O12 0.615332 0.500000 0.674710
O O13 0.649935 0.693033 0.538895
O O14 0.091859 0.500000 0.589899
O O15 0.000000 0.310305 0.500000
#
# Coordination Sequence:
#
# PCOD8213742 Si02
#       5
#     8   8   8   8   8
#     4  10  21  37  58  84 113 147 189 234 279 334
#     4   9  18  32  52  78 109 143 177 217 272 329
#     4   9  17  30  51  77 103 133 171 214 259 315
#     4   9  18  33  52  73 101 137 173 213 265 322
#     4  10  22  38  56  79 110 147 186 228 279 335
#
# _framework density 19.351500000000001
#
# number of rings (size 3 to 8) (size 9 to 14) (size 15 to 20)
#    0.000    2.600    0.000    1.200    2.800    4.800 
#    0.000    3.000    0.000    3.600    0.000    0.000 
#    0.000    0.000    0.000    0.000    0.000    0.000 
#
# Total GULP energy -495635.022419 kJ/mol
# GULP energy per Si atom -12390.875560 kJ/mol
# Density = 1.930746 g / cm^3
# Si number density = 19.351500 Si / 1000 Ang^3
#
#
#
# Elastic Constant Matrix: (Units=GPa)
#
#
# Indices 1 2 3 4 5 6 
#
# 1 65.5129 27.8683 35.9303 0.0000 0.0000 0.0000
# 2 27.8683 76.6336 81.7701 0.0000 0.0000 0.0000
# 3 35.9303 81.7701 171.8382 0.0000 0.0000 0.0000
# 4 0.0000 0.0000 0.0000 -32.8975 0.0000 0.0000
# 5 0.0000 0.0000 0.0000 0.0000 34.5278 0.0000
# 6 0.0000 0.0000 0.0000 0.0000 0.0000 15.5192
#
#
#
# Elastic Compliance Matrix: (Units=1/GPa)
#
#
# Indices 1 2 3 4 5 6 
#
# 1 0.018207 -0.005198 -0.001333 0.000000 0.000000 0.000000
# 2 -0.005198 0.027993 -0.012234 0.000000 0.000000 0.000000
# 3 -0.001333 -0.012234 0.011920 0.000000 0.000000 0.000000
# 4 0.000000 0.000000 0.000000 -0.030397 0.000000 0.000000
# 5 0.000000 0.000000 0.000000 0.000000 0.028962 0.000000
# 6 0.000000 0.000000 0.000000 0.000000 0.000000 0.064436
#
#
# Mechanical properties :
#
#
# Convention : Reuss Voigt Hill
#
# Bulk Modulus (GPa) = 48.56989 67.23579 57.90284
# Shear Modulus (GPa) = 30.20880 14.65763 22.43322
#
# Velocity S-wave (km/s) = 3.95531 2.75515 3.40847
# Velocity P-wave (km/s) = 6.78325 6.70381 6.74365
#
# Compressibility (1/GPa) = 0.02058889
#
# Stress axis : x y z
#
# Youngs Moduli (GPa) = 54.92488 35.72271 83.89442
#
# Poissons Ratio (x) = 0.18570 0.11185
# Poissons Ratio (y) = 0.28552 1.02635
# Poissons Ratio (z) = 0.07323 0.43703
#
# Static dielectric constant tensor:
#      x y z
#    x 3.469130 0.000000 0.000000 
#    y 0.000000 3.675830 0.000000 
#    z 0.000000 0.000000 3.707840 
# 
# 
# High freq. dielectric constant tensor:
#      x y z
#    x 1.746670 0.000000 0.000000 
#    y 0.000000 1.724280 0.000000 
#    z 0.000000 0.000000 1.763280 
# 
# From -- ./inp_files/9291.got.cif
#   From: 2010.03.12/outbox.cif.g09.slc.cpg/sg51_5_cif.got.tgz:9291.got - 2010.04.16 13:43:02.
