data_PCOD8213361
_publ_section_title
;
Structure prediction by ZEFSAII (Michael W. Deem and Ramdas Pophale) SiO2 
 PCOD8213361
Probable space group: P M M A
;
_chemical_formula_sum "Si O2"
_cell_formula_units_Z 40
_cell_length_a 14.317564
_cell_length_b 8.625524
_cell_length_c 16.482065
_cell_angle_alpha 90.000000
_cell_angle_beta 90.000000
_cell_angle_gamma 90.000000
_cell_volume 2035.477207
_symmetry_space_group_name_H-M "P M M A"
_symmetry_group_IT_number 51
_symmetry_cell_setting 'orthorhombic'
loop_
_space_group_symop_operation_xyz
x,y,z
1/2-x,-y,z
1/2+x,-y,-z
-x,y,-z
-x,-y,-z
1/2+x,y,-z
1/2-x,y,z
x,-y,z
loop_
_atom_site_type_symbol
_atom_site_label
_atom_site_fract_x
_atom_site_fract_y
_atom_site_fract_z
Si Si1 0.857381 0.180059 0.437186
Si Si2 0.010700 0.819205 0.707861
Si Si3 0.142489 0.817145 0.012270
Si Si4 0.988334 0.681706 0.119479
Si Si5 0.858367 0.320725 0.604917
O O1 0.750000 0.217481 0.418705
O O2 0.893731 0.273205 0.515479
O O3 0.914359 0.235215 0.358931
O O4 0.874477 0.000000 0.455525
O O5 0.032528 0.722683 0.788013
O O6 0.908416 0.779824 0.673950
O O7 0.018548 0.000000 0.728007
O O8 0.250000 0.766152 0.023629
O O9 0.100437 0.735149 0.932977
O O10 0.133589 0.000000 0.000583
O O11 0.083483 0.766168 0.091006
O O12 0.002767 0.500000 0.108514
O O13 0.750000 0.281005 0.613166
O O14 0.880272 0.500000 0.619612
#
# Coordination Sequence:
#
# PCOD8213361 Si02
#       5
#     8   8   8   8   8
#     4   9  19  36  56  78 106 143 186 228 272 325
#     4  11  22  36  56  81 111 147 186 228 274 325
#     4  10  21  40  65  87 111 146 184 223 271 330
#     4  11  23  38  58  86 118 147 181 228 277 330
#     4  10  21  36  54  78 109 145 185 230 280 330
#
# _framework density 19.651411
#
# number of rings (size 3 to 8) (size 9 to 14) (size 15 to 20)
#    0.000    1.800    0.000    5.400    0.000    8.400 
#    0.000    2.000    0.000    0.000    0.000    0.000 
#    0.000    0.000    0.000    0.000    0.000    0.000 
#
# Total GULP energy -496202.250038 kJ/mol
# GULP energy per Si atom -12405.056251 kJ/mol
# Density = 1.960668 g / cm^3
# Si number density = 19.651411 Si / 1000 Ang^3
#
#
#
# Elastic Constant Matrix: (Units=GPa)
#
#
# Indices 1 2 3 4 5 6 
#
# 1 61.8746 16.5444 2.7396 0.0000 0.0000 0.0000
# 2 16.5444 56.8887 12.9206 0.0000 0.0000 0.0000
# 3 2.7396 12.9206 76.4154 0.0000 0.0000 0.0000
# 4 0.0000 0.0000 0.0000 10.5578 0.0000 0.0000
# 5 0.0000 0.0000 0.0000 0.0000 17.2142 0.0000
# 6 0.0000 0.0000 0.0000 0.0000 0.0000 24.0538
#
#
#
# Elastic Compliance Matrix: (Units=1/GPa)
#
#
# Indices 1 2 3 4 5 6 
#
# 1 0.017529 -0.005153 0.000243 0.000000 0.000000 0.000000
# 2 -0.005153 0.019795 -0.003162 0.000000 0.000000 0.000000
# 3 0.000243 -0.003162 0.013612 0.000000 0.000000 0.000000
# 4 0.000000 0.000000 0.000000 0.094717 0.000000 0.000000
# 5 0.000000 0.000000 0.000000 0.000000 0.058092 0.000000
# 6 0.000000 0.000000 0.000000 0.000000 0.000000 0.041573
#
#
# Mechanical properties :
#
#
# Convention : Reuss Voigt Hill
#
# Bulk Modulus (GPa) = 28.74266 28.84308 28.79287
# Shear Modulus (GPa) = 18.31099 21.23009 19.77054
#
# Velocity S-wave (km/s) = 3.05584 3.29041 3.17529
# Velocity P-wave (km/s) = 5.20662 5.39861 5.30348
#
# Compressibility (1/GPa) = 0.03479149
#
# Stress axis : x y z
#
# Youngs Moduli (GPa) = 57.04903 50.51793 73.46266
#
# Poissons Ratio (x) = 0.26031 -0.01784
# Poissons Ratio (y) = 0.29397 0.23231
# Poissons Ratio (z) = -0.01385 0.15975
#
# Static dielectric constant tensor:
#      x y z
#    x 3.688770 0.000000 0.000000 
#    y 0.000000 3.580720 0.000000 
#    z 0.000000 0.000000 3.560810 
# 
# 
# High freq. dielectric constant tensor:
#      x y z
#    x 1.770010 0.000000 0.000000 
#    y 0.000000 1.772480 0.000000 
#    z 0.000000 0.000000 1.764850 
# 
# From -- ./inp_files/23678.got.cif
#   From: 2010.03.12/outbox.cif.g09.slc.cpg/sg51_12_cif.got.tgz:23678.got - 2010.04.16 13:43:02.
