data_PCOD8213485
_publ_section_title
;
Structure prediction by ZEFSAII (Michael W. Deem and Ramdas Pophale) SiO2 
 PCOD8213485
Probable space group: P M M A
;
_chemical_formula_sum "Si O2"
_cell_formula_units_Z 64
_cell_length_a 18.675224
_cell_length_b 12.911863
_cell_length_c 13.321430
_cell_angle_alpha 90.000000
_cell_angle_beta 90.000000
_cell_angle_gamma 90.000000
_cell_volume 3212.222177
_symmetry_space_group_name_H-M "P M M A"
_symmetry_group_IT_number 51
_symmetry_cell_setting 'orthorhombic'
loop_
_space_group_symop_operation_xyz
x,y,z
1/2-x,-y,z
1/2+x,-y,-z
-x,y,-z
-x,-y,-z
1/2+x,y,-z
1/2-x,y,z
x,-y,z
loop_
_atom_site_type_symbol
_atom_site_label
_atom_site_fract_x
_atom_site_fract_y
_atom_site_fract_z
Si Si1 0.668867 0.739130 0.382544
Si Si2 0.669243 0.121023 0.887330
Si Si3 0.827654 0.377591 0.181114
Si Si4 0.022781 0.615705 0.886622
Si Si5 0.432885 0.120270 0.940088
Si Si6 0.333510 0.620944 0.415145
Si Si7 0.554716 0.122764 0.289450
Si Si8 0.425151 0.253344 0.257927
O O1 0.750000 0.781588 0.389460
O O2 0.660119 0.654691 0.295769
O O3 0.646268 0.680856 0.483530
O O4 0.617813 0.837574 0.362092
O O5 0.750000 0.160313 0.888243
O O6 0.628987 0.178741 0.799042
O O7 0.662346 0.000000 0.863495
O O8 0.638710 0.145479 0.998258
O O9 0.750000 0.333836 0.142053
O O10 0.824499 0.500000 0.176384
O O11 0.895860 0.337067 0.116639
O O12 0.023901 0.500000 0.842056
O O13 0.967385 0.678914 0.821727
O O14 0.000000 0.615920 0.000000
O O15 0.426665 0.157381 0.825215
O O16 0.449710 0.000000 0.935668
O O17 0.500000 0.173851 0.000000
O O18 0.250000 0.634994 0.388163
O O19 0.352616 0.500000 0.426852
O O20 0.381663 0.670083 0.328735
O O21 0.480630 0.180198 0.319343
O O22 0.546611 0.000000 0.303115
#
# Coordination Sequence:
#
# PCOD8213485 Si02
#       8
#     8   8   8   8   8   8   8   8
#     4  10  21  40  63  88 116 153 199 249 310 368
#     4  10  21  36  57  88 123 161 210 257 295 350
#     4   9  17  34  60  87 114 149 196 248 301 362
#     4  10  22  38  56  85 125 162 198 246 301 358
#     4   9  17  33  56  81 115 162 205 245 294 344
#     4  10  23  45  69  91 117 151 198 258 317 373
#     4  11  23  38  59  90 127 166 206 251 300 356
#     4  12  22  37  62  89 121 162 204 247 303 363
#
# _framework density 19.923901999999998
#
# number of rings (size 3 to 8) (size 9 to 14) (size 15 to 20)
#    0.000    1.875    2.500    1.500    1.750    2.750 
#    0.000    6.250    0.000    4.500    0.000    0.000 
#    0.000    0.000    0.000    0.000    0.000    0.000 
#
# Total GULP energy -793344.812733 kJ/mol
# GULP energy per Si atom -12396.012699 kJ/mol
# Density = 1.987855 g / cm^3
# Si number density = 19.923902 Si / 1000 Ang^3
#
#
#
# Elastic Constant Matrix: (Units=GPa)
#
#
# Indices 1 2 3 4 5 6 
#
# 1 148.7483 50.7591 55.4397 0.0000 0.0000 0.0000
# 2 50.7591 89.2640 32.3047 0.0000 0.0000 0.0000
# 3 55.4397 32.3047 77.6919 0.0000 0.0000 0.0000
# 4 0.0000 0.0000 0.0000 25.0675 0.0000 0.0000
# 5 0.0000 0.0000 0.0000 0.0000 31.5428 0.0000
# 6 0.0000 0.0000 0.0000 0.0000 0.0000 31.9819
#
#
#
# Elastic Compliance Matrix: (Units=1/GPa)
#
#
# Indices 1 2 3 4 5 6 
#
# 1 0.010094 -0.003688 -0.005670 0.000000 0.000000 0.000000
# 2 -0.003688 0.014535 -0.003412 0.000000 0.000000 0.000000
# 3 -0.005670 -0.003412 0.018336 0.000000 0.000000 0.000000
# 4 0.000000 0.000000 0.000000 0.039892 0.000000 0.000000
# 5 0.000000 0.000000 0.000000 0.000000 0.031703 0.000000
# 6 0.000000 0.000000 0.000000 0.000000 0.000000 0.031268
#
#
# Mechanical properties :
#
#
# Convention : Reuss Voigt Hill
#
# Bulk Modulus (GPa) = 57.38666 65.85680 61.62173
# Shear Modulus (GPa) = 28.22055 29.53181 28.87618
#
# Velocity S-wave (km/s) = 3.76761 3.85415 3.81113
# Velocity P-wave (km/s) = 6.91318 7.27543 7.09662
#
# Compressibility (1/GPa) = 0.01742565
#
# Stress axis : x y z
#
# Youngs Moduli (GPa) = 99.06388 68.80068 54.53823
#
# Poissons Ratio (x) = 0.25376 0.30921
# Poissons Ratio (y) = 0.36538 0.18607
# Poissons Ratio (z) = 0.56166 0.23473
#
# Static dielectric constant tensor:
#      x y z
#    x 4.110190 0.000000 0.000000 
#    y 0.000000 3.811160 0.000000 
#    z 0.000000 0.000000 3.470680 
# 
# 
# High freq. dielectric constant tensor:
#      x y z
#    x 1.789140 0.000000 0.000000 
#    y 0.000000 1.790210 0.000000 
#    z 0.000000 0.000000 1.756480 
# 
# From -- ./inp_files/17601.got.cif
#   From: 2010.03.12/outbox.cif.g09.slc.cpg/sg51_9_cif.got.tgz:17601.got - 2010.04.16 13:43:02.
