data_PCOD8213080
_publ_section_title
;
Structure prediction by ZEFSAII (Michael W. Deem and Ramdas Pophale) SiO2 
 PCOD8213080
Probable space group: P M M A
;
_chemical_formula_sum "Si O2"
_cell_formula_units_Z 48
_cell_length_a 9.202654
_cell_length_b 9.307429
_cell_length_c 30.772577
_cell_angle_alpha 90.000000
_cell_angle_beta 90.000000
_cell_angle_gamma 90.000000
_cell_volume 2635.765037
_symmetry_space_group_name_H-M "P M M A"
_symmetry_group_IT_number 51
_symmetry_cell_setting 'orthorhombic'
loop_
_space_group_symop_operation_xyz
x,y,z
1/2-x,-y,z
1/2+x,-y,-z
-x,y,-z
-x,-y,-z
1/2+x,y,-z
1/2-x,y,z
x,-y,z
loop_
_atom_site_type_symbol
_atom_site_label
_atom_site_fract_x
_atom_site_fract_y
_atom_site_fract_z
Si Si1 0.417071 0.166519 0.794411
Si Si2 0.918355 0.667292 0.290989
Si Si3 0.082409 0.831282 0.119082
Si Si4 0.909805 0.170300 0.539774
Si Si5 0.577114 0.162469 0.635695
Si Si6 0.581535 0.668241 0.043631
O O1 0.250000 0.201397 0.806445
O O2 0.470470 0.256691 0.753127
O O3 0.518333 0.212758 0.834309
O O4 0.437307 0.000000 0.782840
O O5 0.750000 0.700245 0.299597
O O6 0.950445 0.500000 0.286035
O O7 0.008472 0.726654 0.331127
O O8 0.250000 0.783005 0.116851
O O9 0.989906 0.750832 0.083183
O O10 0.065079 0.000000 0.111068
O O11 0.750000 0.238241 0.536486
O O12 0.977419 0.205792 0.587182
O O13 0.000000 0.238661 0.500000
O O14 0.900331 0.000000 0.534695
O O15 0.750000 0.172802 0.637687
O O16 0.527076 0.000000 0.646957
O O17 0.750000 0.711347 0.039465
O O18 0.562066 0.500000 0.052101
O O19 0.500000 0.716467 0.000000
#
# Coordination Sequence:
#
# PCOD8213080 Si02
#       6
#     8   8   8   8   8   8
#     4   9  18  34  54  74 100 135 172 210 253 301
#     4  10  21  35  51  74 103 133 168 210 253 300
#     4  10  21  36  55  81 110 138 170 210 256 305
#     4   8  14  25  42  67  97 125 156 198 246 294
#     4   9  18  32  50  73 101 132 166 205 250 300
#     4  10  21  37  57  80 107 141 179 217 257 301
#
# _framework density 18.211030999999998
#
# number of rings (size 3 to 8) (size 9 to 14) (size 15 to 20)
#    0.000    2.667    0.000    2.500    0.000    5.667 
#    0.000    5.000    0.000    0.500    0.000    0.000 
#    0.000    0.000    0.000    0.000    0.000    0.000 
#
# Total GULP energy -595187.877312 kJ/mol
# GULP energy per Si atom -12399.747444 kJ/mol
# Density = 1.816958 g / cm^3
# Si number density = 18.211031 Si / 1000 Ang^3
#
#
#
# Elastic Constant Matrix: (Units=GPa)
#
#
# Indices 1 2 3 4 5 6 
#
# 1 93.8826 36.7326 75.6396 0.0000 0.0000 0.0000
# 2 36.7326 54.5169 62.3057 0.0000 0.0000 0.0000
# 3 75.6396 62.3057 165.1434 0.0000 0.0000 0.0000
# 4 0.0000 0.0000 0.0000 -16.7399 0.0000 0.0000
# 5 0.0000 0.0000 0.0000 0.0000 37.5419 0.0000
# 6 0.0000 0.0000 0.0000 0.0000 0.0000 25.2006
#
#
#
# Elastic Compliance Matrix: (Units=1/GPa)
#
#
# Indices 1 2 3 4 5 6 
#
# 1 0.017522 -0.004630 -0.006278 0.000000 0.000000 0.000000
# 2 -0.004630 0.033471 -0.010507 0.000000 0.000000 0.000000
# 3 -0.006278 -0.010507 0.012895 0.000000 0.000000 0.000000
# 4 0.000000 0.000000 0.000000 -0.059737 0.000000 0.000000
# 5 0.000000 0.000000 0.000000 0.000000 0.026637 0.000000
# 6 0.000000 0.000000 0.000000 0.000000 0.000000 0.039682
#
#
# Mechanical properties :
#
#
# Convention : Reuss Voigt Hill
#
# Bulk Modulus (GPa) = 47.49244 73.65542 60.57393
# Shear Modulus (GPa) = 41.55581 18.45818 30.00699
#
# Velocity S-wave (km/s) = 4.78211 3.18712 4.06364
# Velocity P-wave (km/s) = 7.52509 7.35370 7.43989
#
# Compressibility (1/GPa) = 0.02105598
#
# Stress axis : x y z
#
# Youngs Moduli (GPa) = 57.07212 29.87631 77.54824
#
# Poissons Ratio (x) = 0.13834 0.48688
# Poissons Ratio (y) = 0.26427 0.81482
# Poissons Ratio (z) = 0.35832 0.31392
#
# Static dielectric constant tensor:
#      x y z
#    x 3.182160 0.000000 0.000000 
#    y 0.000000 3.134320 0.000000 
#    z 0.000000 0.000000 3.530890 
# 
# 
# High freq. dielectric constant tensor:
#      x y z
#    x 1.705380 0.000000 0.000000 
#    y 0.000000 1.680770 0.000000 
#    z 0.000000 0.000000 1.720090 
# 
# From -- ./inp_files/36919.got.cif
#   From: 2010.03.12/outbox.cif.g09.slc.cpg/sg51_19_cif.got.tgz:36919.got - 2010.04.16 13:43:02.
