data_PCOD8213315
_publ_section_title
;
Structure prediction by ZEFSAII (Michael W. Deem and Ramdas Pophale) SiO2 
 PCOD8213315
Probable space group: P M M A
;
_chemical_formula_sum "Si O2"
_cell_formula_units_Z 48
_cell_length_a 18.933146
_cell_length_b 8.838815
_cell_length_c 15.262775
_cell_angle_alpha 90.000000
_cell_angle_beta 90.000000
_cell_angle_gamma 90.000000
_cell_volume 2554.173119
_symmetry_space_group_name_H-M "P M M A"
_symmetry_group_IT_number 51
_symmetry_cell_setting 'orthorhombic'
loop_
_space_group_symop_operation_xyz
x,y,z
1/2-x,-y,z
1/2+x,-y,-z
-x,y,-z
-x,-y,-z
1/2+x,y,-z
1/2-x,y,z
x,-y,z
loop_
_atom_site_type_symbol
_atom_site_label
_atom_site_fract_x
_atom_site_fract_y
_atom_site_fract_z
Si Si1 0.668638 0.675879 0.505990
Si Si2 0.586642 0.323437 0.838330
Si Si3 0.564371 0.679225 0.353273
Si Si4 0.670294 0.680582 0.006376
Si Si5 0.073984 0.324034 0.840648
Si Si6 0.583490 0.821937 0.654138
O O1 0.750000 0.708928 0.484670
O O2 0.655252 0.500000 0.526252
O O3 0.623967 0.728760 0.421636
O O4 0.646047 0.772438 0.589734
O O5 0.598682 0.500000 0.818398
O O6 0.506483 0.293494 0.869159
O O7 0.604620 0.232612 0.750778
O O8 0.637107 0.262382 0.915142
O O9 0.553174 0.500000 0.350212
O O10 0.587258 0.741138 0.257167
O O11 0.489524 0.750121 0.380371
O O12 0.750000 0.740715 0.013355
O O13 0.666790 0.500000 0.008025
O O14 0.626274 0.750967 0.087968
O O15 0.091091 0.500000 0.838837
O O16 0.575366 0.000000 0.653934
#
# Coordination Sequence:
#
# PCOD8213315 Si02
#       6
#     8   8   8   8   8   8
#     4  10  21  36  54  77 105 136 168 204 251 307
#     4   9  17  31  50  71  97 131 168 205 248 296
#     4   9  18  34  56  79 103 133 168 207 252 302
#     4   9  16  25  43  74 104 127 157 201 250 297
#     4   8  14  26  46  71  98 126 157 197 244 293
#     4  11  22  35  53  76 101 133 174 217 257 296
#
# _framework density 18.792774000000001
#
# number of rings (size 3 to 8) (size 9 to 14) (size 15 to 20)
#    0.000    2.667    0.000    3.500    0.000    6.333 
#    0.000    5.000    0.000    8.000    0.000    0.000 
#    0.000    0.000    0.000    0.000    0.000    0.000 
#
# Total GULP energy -595167.750772 kJ/mol
# GULP energy per Si atom -12399.328141 kJ/mol
# Density = 1.875000 g / cm^3
# Si number density = 18.792774 Si / 1000 Ang^3
#
#
#
# Elastic Constant Matrix: (Units=GPa)
#
#
# Indices 1 2 3 4 5 6 
#
# 1 96.2596 18.9385 57.1308 0.0000 0.0000 0.0000
# 2 18.9385 37.7618 24.4907 0.0000 0.0000 0.0000
# 3 57.1308 24.4907 105.7291 0.0000 0.0000 0.0000
# 4 0.0000 0.0000 0.0000 4.5771 0.0000 0.0000
# 5 0.0000 0.0000 0.0000 0.0000 24.0174 0.0000
# 6 0.0000 0.0000 0.0000 0.0000 0.0000 5.5320
#
#
#
# Elastic Compliance Matrix: (Units=1/GPa)
#
#
# Indices 1 2 3 4 5 6 
#
# 1 0.015534 -0.002762 -0.007754 0.000000 0.000000 0.000000
# 2 -0.002762 0.031654 -0.005840 0.000000 0.000000 0.000000
# 3 -0.007754 -0.005840 0.015001 0.000000 0.000000 0.000000
# 4 0.000000 0.000000 0.000000 0.218478 0.000000 0.000000
# 5 0.000000 0.000000 0.000000 0.000000 0.041636 0.000000
# 6 0.000000 0.000000 0.000000 0.000000 0.000000 0.180768
#
#
# Mechanical properties :
#
#
# Convention : Reuss Voigt Hill
#
# Bulk Modulus (GPa) = 33.92409 48.98563 41.45486
# Shear Modulus (GPa) = 9.16407 16.10467 12.63437
#
# Velocity S-wave (km/s) = 2.21065 2.93056 2.59569
# Velocity P-wave (km/s) = 4.96052 6.12974 5.57587
#
# Compressibility (1/GPa) = 0.02947758
#
# Stress axis : x y z
#
# Youngs Moduli (GPa) = 64.37472 31.59116 66.66300
#
# Poissons Ratio (x) = 0.08725 0.51691
# Poissons Ratio (y) = 0.17779 0.38931
# Poissons Ratio (z) = 0.49917 0.18449
#
# Static dielectric constant tensor:
#      x y z
#    x 3.484380 0.000000 0.000000 
#    y 0.000000 2.960990 0.000000 
#    z 0.000000 0.000000 3.774460 
# 
# 
# High freq. dielectric constant tensor:
#      x y z
#    x 1.727330 0.000000 0.000000 
#    y 0.000000 1.678170 0.000000 
#    z 0.000000 0.000000 1.745170 
# 
# From -- ./inp_files/24742.got.cif
#   From: 2010.03.12/outbox.cif.g09.slc.cpg/sg51_13_cif.got.tgz:24742.got - 2010.04.16 13:43:02.
