data_PCOD8213913
_publ_section_title
;
Structure prediction by ZEFSAII (Michael W. Deem and Ramdas Pophale) SiO2 
 PCOD8213913
Probable space group: P M M A
;
_chemical_formula_sum "Si O2"
_cell_formula_units_Z 64
_cell_length_a 8.893932
_cell_length_b 14.424075
_cell_length_c 26.152178
_cell_angle_alpha 90.000000
_cell_angle_beta 90.000000
_cell_angle_gamma 90.000000
_cell_volume 3354.977717
_symmetry_space_group_name_H-M "P M M A"
_symmetry_group_IT_number 51
_symmetry_cell_setting 'orthorhombic'
loop_
_space_group_symop_operation_xyz
x,y,z
1/2-x,-y,z
1/2+x,-y,-z
-x,y,-z
-x,-y,-z
1/2+x,y,-z
1/2-x,y,z
x,-y,z
loop_
_atom_site_type_symbol
_atom_site_label
_atom_site_fract_x
_atom_site_fract_y
_atom_site_fract_z
Si Si1 0.574987 0.603503 0.696955
Si Si2 0.572521 0.224276 0.051478
Si Si3 0.082210 0.390164 0.799365
Si Si4 0.922714 0.890207 0.860484
Si Si5 0.926108 0.212646 0.649991
Si Si6 0.426873 0.606713 0.097992
Si Si7 0.071067 0.103371 0.253075
Si Si8 0.573062 0.893422 0.552334
O O1 0.750000 0.602452 0.711242
O O2 0.521534 0.500000 0.680528
O O3 0.489509 0.643170 0.746325
O O4 0.542185 0.676362 0.651173
O O5 0.750000 0.226151 0.045828
O O6 0.527750 0.160847 0.099160
O O7 0.511436 0.329407 0.057121
O O8 0.500000 0.181878 0.000000
O O9 0.250000 0.348758 0.805669
O O10 0.088122 0.500000 0.798382
O O11 0.978110 0.357681 0.846098
O O12 0.750000 0.860126 0.869678
O O13 0.977832 0.860704 0.803328
O O14 0.939984 0.000000 0.867118
O O15 0.750000 0.190919 0.649348
O O16 0.995169 0.167218 0.701514
O O17 0.995579 0.167929 0.598719
O O18 0.250000 0.620633 0.093065
O O19 0.473762 0.500000 0.088388
O O20 0.250000 0.101566 0.254084
O O21 0.008343 0.000000 0.262324
O O22 0.500000 0.857429 0.500000
O O23 0.750000 0.880366 0.547114
O O24 0.529668 0.000000 0.563023
#
# Coordination Sequence:
#
# PCOD8213913 Si02
#       8
#     8   8   8   8   8   8   8   8
#     4   9  17  28  43  68 101 136 174 214 256 301
#     4  12  26  42  60  82 108 140 179 224 271 325
#     4   9  17  30  48  72 103 137 172 210 254 307
#     4   9  19  37  60  84 110 140 175 218 269 324
#     4   9  16  26  45  73 101 135 174 214 255 304
#     4  10  21  38  60  83 108 140 177 219 267 320
#     4   8  14  26  47  76 105 130 161 204 253 306
#     4   9  17  30  49  72  99 131 171 217 264 313
#
# _framework density 19.076132999999999
#
# number of rings (size 3 to 8) (size 9 to 14) (size 15 to 20)
#    0.000    2.625    0.000    3.000    1.750    4.500 
#    0.000    0.625    0.000    1.125    0.000    1.750 
#    0.000    0.000    0.000    0.000    0.000    0.000 
#
# Total GULP energy -793381.414386 kJ/mol
# GULP energy per Si atom -12396.584600 kJ/mol
# Density = 1.903272 g / cm^3
# Si number density = 19.076133 Si / 1000 Ang^3
#
#
#
# Elastic Constant Matrix: (Units=GPa)
#
#
# Indices 1 2 3 4 5 6 
#
# 1 69.3309 23.4565 37.5388 0.0000 0.0000 0.0000
# 2 23.4565 76.3043 65.4151 0.0000 0.0000 0.0000
# 3 37.5388 65.4151 147.2680 0.0000 0.0000 0.0000
# 4 0.0000 0.0000 0.0000 30.5187 0.0000 0.0000
# 5 0.0000 0.0000 0.0000 0.0000 25.7303 0.0000
# 6 0.0000 0.0000 0.0000 0.0000 0.0000 18.6266
#
#
#
# Elastic Compliance Matrix: (Units=1/GPa)
#
#
# Indices 1 2 3 4 5 6 
#
# 1 0.017010 -0.002442 -0.003251 0.000000 0.000000 0.000000
# 2 -0.002442 0.021516 -0.008935 0.000000 0.000000 0.000000
# 3 -0.003251 -0.008935 0.011588 0.000000 0.000000 0.000000
# 4 0.000000 0.000000 0.000000 0.032767 0.000000 0.000000
# 5 0.000000 0.000000 0.000000 0.000000 0.038865 0.000000
# 6 0.000000 0.000000 0.000000 0.000000 0.000000 0.053687
#
#
# Mechanical properties :
#
#
# Convention : Reuss Voigt Hill
#
# Bulk Modulus (GPa) = 47.94282 60.63600 54.28941
# Shear Modulus (GPa) = 23.62507 26.07465 24.84986
#
# Velocity S-wave (km/s) = 3.52300 3.70114 3.61316
# Velocity P-wave (km/s) = 6.46031 7.07954 6.77700
#
# Compressibility (1/GPa) = 0.02085818
#
# Stress axis : x y z
#
# Youngs Moduli (GPa) = 58.78866 46.47781 86.29761
#
# Poissons Ratio (x) = 0.11348 0.28058
# Poissons Ratio (y) = 0.14354 0.77104
# Poissons Ratio (z) = 0.19114 0.41526
#
# Static dielectric constant tensor:
#      x y z
#    x 3.256800 0.000000 0.000000 
#    y 0.000000 3.538240 0.000000 
#    z 0.000000 0.000000 3.590520 
# 
# 
# High freq. dielectric constant tensor:
#      x y z
#    x 1.711190 0.000000 0.000000 
#    y 0.000000 1.740470 0.000000 
#    z 0.000000 0.000000 1.731140 
# 
# From -- ./inp_files/35024.got.cif
#   From: 2010.03.12/outbox.cif.g09.slc.cpg/sg51_18_cif.got.tgz:35024.got - 2010.04.16 13:43:02.
