data_PCOD8213672
_publ_section_title
;
Structure prediction by ZEFSAII (Michael W. Deem and Ramdas Pophale) SiO2 
 PCOD8213672
Probable space group: P M M A
;
_chemical_formula_sum "Si O2"
_cell_formula_units_Z 48
_cell_length_a 8.889623
_cell_length_b 29.449091
_cell_length_c 9.460318
_cell_angle_alpha 90.000000
_cell_angle_beta 90.000000
_cell_angle_gamma 90.000000
_cell_volume 2476.629105
_symmetry_space_group_name_H-M "P M M A"
_symmetry_group_IT_number 51
_symmetry_cell_setting 'orthorhombic'
loop_
_space_group_symop_operation_xyz
x,y,z
1/2-x,-y,z
1/2+x,-y,-z
-x,y,-z
-x,-y,-z
1/2+x,y,-z
1/2-x,y,z
x,-y,z
loop_
_atom_site_type_symbol
_atom_site_label
_atom_site_fract_x
_atom_site_fract_y
_atom_site_fract_z
Si Si1 0.425793 0.724032 0.647444
Si Si2 0.423846 0.946646 0.854665
Si Si3 0.922935 0.550169 0.850415
Si Si4 0.926015 0.120972 0.650731
Si Si5 0.924422 0.618765 0.355809
Si Si6 0.573718 0.206181 0.848920
O O1 0.500000 0.739689 0.500000
O O2 0.250000 0.735465 0.638685
O O3 0.456995 0.671291 0.676812
O O4 0.500363 0.749749 0.778187
O O5 0.250000 0.932554 0.861116
O O6 0.502330 0.923563 0.720856
O O7 0.445669 0.000000 0.834165
O O8 0.500000 0.929928 0.000000
O O9 0.750000 0.564212 0.867111
O O10 0.937571 0.500000 0.779366
O O11 0.006521 0.588747 0.765560
O O12 0.000000 0.548487 0.000000
O O13 0.750000 0.112715 0.629800
O O14 0.961044 0.163388 0.750535
O O15 0.000000 0.130494 0.500000
O O16 0.750000 0.608493 0.368607
O O17 0.000000 0.603270 0.500000
O O18 0.750000 0.214672 0.868443
O O19 0.500000 0.196993 0.000000
#
# Coordination Sequence:
#
# PCOD8213672 Si02
#       6
#     8   8   8   8   8   8
#     4  10  21  38  60  85 114 148 186 229 279 334
#     4  10  21  38  61  88 118 153 192 235 284 337
#     4  10  21  37  57  81 110 146 187 231 280 333
#     4  11  24  40  60  86 116 152 192 235 284 337
#     4  10  21  37  58  84 113 147 186 229 278 332
#     4  11  24  40  60  86 115 149 189 233 281 334
#
# _framework density 19.381183
#
# number of rings (size 3 to 8) (size 9 to 14) (size 15 to 20)
#    0.000    1.667    0.000    4.000    0.000   10.667 
#    0.000    0.000    0.000    0.000    0.000    0.000 
#    0.000    0.000    0.000    0.000    0.000    0.000 
#
# Total GULP energy -595443.647060 kJ/mol
# GULP energy per Si atom -12405.075980 kJ/mol
# Density = 1.933707 g / cm^3
# Si number density = 19.381183 Si / 1000 Ang^3
#
#
#
# Elastic Constant Matrix: (Units=GPa)
#
#
# Indices 1 2 3 4 5 6 
#
# 1 140.2044 64.4466 78.5812 0.0000 0.0000 0.0000
# 2 64.4466 74.2771 59.0394 0.0000 0.0000 0.0000
# 3 78.5812 59.0394 138.5496 0.0000 0.0000 0.0000
# 4 0.0000 0.0000 0.0000 53.8399 0.0000 0.0000
# 5 0.0000 0.0000 0.0000 0.0000 43.8481 0.0000
# 6 0.0000 0.0000 0.0000 0.0000 0.0000 28.6028
#
#
#
# Elastic Compliance Matrix: (Units=1/GPa)
#
#
# Indices 1 2 3 4 5 6 
#
# 1 0.013137 -0.008281 -0.003922 0.000000 0.000000 0.000000
# 2 -0.008281 0.025578 -0.006203 0.000000 0.000000 0.000000
# 3 -0.003922 -0.006203 0.012086 0.000000 0.000000 0.000000
# 4 0.000000 0.000000 0.000000 0.018574 0.000000 0.000000
# 5 0.000000 0.000000 0.000000 0.000000 0.022806 0.000000
# 6 0.000000 0.000000 0.000000 0.000000 0.000000 0.034962
#
#
# Mechanical properties :
#
#
# Convention : Reuss Voigt Hill
#
# Bulk Modulus (GPa) = 71.48556 84.12951 77.80753
# Shear Modulus (GPa) = 29.65290 35.32241 32.48766
#
# Velocity S-wave (km/s) = 3.91574 4.27372 4.09864
# Velocity P-wave (km/s) = 7.57682 8.23741 7.91401
#
# Compressibility (1/GPa) = 0.01398884
#
# Stress axis : x y z
#
# Youngs Moduli (GPa) = 76.11960 39.09553 82.74366
#
# Poissons Ratio (x) = 0.32374 0.32455
# Poissons Ratio (y) = 0.63033 0.51325
# Poissons Ratio (z) = 0.29857 0.24251
#
# Static dielectric constant tensor:
#      x y z
#    x 3.750080 0.000000 0.000000 
#    y 0.000000 3.604680 0.000000 
#    z 0.000000 0.000000 3.537890 
# 
# 
# High freq. dielectric constant tensor:
#      x y z
#    x 1.775450 0.000000 0.000000 
#    y 0.000000 1.761390 0.000000 
#    z 0.000000 0.000000 1.756440 
# 
# From -- ./inp_files/5952.got.cif
#   From: 2010.03.12/outbox.cif.g09.slc.cpg/sg51_3_cif.got.tgz:5952.got - 2010.04.16 13:43:02.
