data_PCOD8213452
_publ_section_title
;
Structure prediction by ZEFSAII (Michael W. Deem and Ramdas Pophale) SiO2 
 PCOD8213452
Probable space group: P M M A
;
_chemical_formula_sum "Si O2"
_cell_formula_units_Z 56
_cell_length_a 8.850347
_cell_length_b 19.502409
_cell_length_c 15.632588
_cell_angle_alpha 90.000000
_cell_angle_beta 90.000000
_cell_angle_gamma 90.000000
_cell_volume 2698.232946
_symmetry_space_group_name_H-M "P M M A"
_symmetry_group_IT_number 51
_symmetry_cell_setting 'orthorhombic'
loop_
_space_group_symop_operation_xyz
x,y,z
1/2-x,-y,z
1/2+x,-y,-z
-x,y,-z
-x,-y,-z
1/2+x,y,-z
1/2-x,y,z
x,-y,z
loop_
_atom_site_type_symbol
_atom_site_label
_atom_site_fract_x
_atom_site_fract_y
_atom_site_fract_z
Si Si1 0.071844 0.216440 0.911296
Si Si2 0.584019 0.422175 0.078578
Si Si3 0.576601 0.077353 0.356920
Si Si4 0.426299 0.204565 0.415316
Si Si5 0.573360 0.576168 0.745859
Si Si6 0.429289 0.074675 0.838606
Si Si7 0.426555 0.286568 0.734015
O O1 0.250000 0.213344 0.922807
O O2 0.006813 0.139679 0.891596
O O3 0.030322 0.268764 0.833159
O O4 0.000000 0.242985 0.000000
O O5 0.750000 0.387680 0.099125
O O6 0.617380 0.500000 0.052328
O O7 0.467496 0.419169 0.155298
O O8 0.500000 0.384001 0.000000
O O9 0.750000 0.102749 0.365219
O O10 0.468170 0.124111 0.414902
O O11 0.520425 0.083000 0.259260
O O12 0.560368 0.000000 0.390257
O O13 0.500000 0.238894 0.500000
O O14 0.250000 0.217477 0.419433
O O15 0.491571 0.234034 0.327687
O O16 0.750000 0.589348 0.732682
O O17 0.528821 0.500000 0.710138
O O18 0.478912 0.637440 0.703031
O O19 0.250000 0.075242 0.842041
O O20 0.488208 0.000000 0.873590
O O21 0.250000 0.279147 0.719316
#
# Coordination Sequence:
#
# PCOD8213452 Si02
#       7
#     8   8   8   8   8   8   8
#     4  10  21  36  56  83 117 158 205 251 300 355
#     4   9  16  27  45  71 104 142 184 231 283 339
#     4   9  17  34  61  89 121 161 203 250 305 361
#     4  12  25  41  64  92 124 160 202 250 302 364
#     4  10  21  37  58  85 115 148 188 236 296 365
#     4   8  14  29  54  80 111 154 200 247 300 350
#     4  11  23  42  64  87 120 159 202 250 301 359
#
# _framework density 20.754324
#
# number of rings (size 3 to 8) (size 9 to 14) (size 15 to 20)
#    0.000    2.143    1.429    3.429    0.000    5.143 
#    0.000    1.429    0.000    0.429    0.000    0.000 
#    0.000    0.000    0.000    0.000    0.000    0.000 
#
# Total GULP energy -693958.312268 kJ/mol
# GULP energy per Si atom -12392.112719 kJ/mol
# Density = 2.070709 g / cm^3
# Si number density = 20.754324 Si / 1000 Ang^3
#
#
#
# Elastic Constant Matrix: (Units=GPa)
#
#
# Indices 1 2 3 4 5 6 
#
# 1 96.6232 36.9228 38.8279 0.0000 0.0000 0.0000
# 2 36.9228 116.1379 20.6813 0.0000 0.0000 0.0000
# 3 38.8279 20.6813 78.2889 0.0000 0.0000 0.0000
# 4 0.0000 0.0000 0.0000 2.5391 0.0000 0.0000
# 5 0.0000 0.0000 0.0000 0.0000 27.8750 0.0000
# 6 0.0000 0.0000 0.0000 0.0000 0.0000 26.2034
#
#
#
# Elastic Compliance Matrix: (Units=1/GPa)
#
#
# Indices 1 2 3 4 5 6 
#
# 1 0.014096 -0.003396 -0.006094 0.000000 0.000000 0.000000
# 2 -0.003396 0.009854 -0.000919 0.000000 0.000000 0.000000
# 3 -0.006094 -0.000919 0.016038 0.000000 0.000000 0.000000
# 4 0.000000 0.000000 0.000000 0.393848 0.000000 0.000000
# 5 0.000000 0.000000 0.000000 0.000000 0.035874 0.000000
# 6 0.000000 0.000000 0.000000 0.000000 0.000000 0.038163
#
#
# Mechanical properties :
#
#
# Convention : Reuss Voigt Hill
#
# Bulk Modulus (GPa) = 52.16348 53.76819 52.96584
# Shear Modulus (GPa) = 9.34438 24.29802 16.82120
#
# Velocity S-wave (km/s) = 2.12418 3.42533 2.85000
# Velocity P-wave (km/s) = 5.58610 6.45035 6.03372
#
# Compressibility (1/GPa) = 0.01917050
#
# Stress axis : x y z
#
# Youngs Moduli (GPa) = 70.94141 101.48372 62.35121
#
# Poissons Ratio (x) = 0.34467 0.37996
# Poissons Ratio (y) = 0.24094 0.05728
# Poissons Ratio (z) = 0.43231 0.09323
#
# Static dielectric constant tensor:
#      x y z
#    x 3.817780 0.000000 0.000000 
#    y 0.000000 4.324430 0.000000 
#    z 0.000000 0.000000 3.543660 
# 
# 
# High freq. dielectric constant tensor:
#      x y z
#    x 1.794270 0.000000 0.000000 
#    y 0.000000 1.823000 0.000000 
#    z 0.000000 0.000000 1.782800 
# 
# From -- ./inp_files/21807.got.cif
#   From: 2010.03.12/outbox.cif.g09.slc.cpg/sg51_11_cif.got.tgz:21807.got - 2010.04.16 13:43:02.
