data_PCOD8213930
_publ_section_title
;
Structure prediction by ZEFSAII (Michael W. Deem and Ramdas Pophale) SiO2 
 PCOD8213930
Probable space group: P M M A
;
_chemical_formula_sum "Si O2"
_cell_formula_units_Z 64
_cell_length_a 8.788984
_cell_length_b 14.482191
_cell_length_c 25.103643
_cell_angle_alpha 90.000000
_cell_angle_beta 90.000000
_cell_angle_gamma 90.000000
_cell_volume 3195.285694
_symmetry_space_group_name_H-M "P M M A"
_symmetry_group_IT_number 51
_symmetry_cell_setting 'orthorhombic'
loop_
_space_group_symop_operation_xyz
x,y,z
1/2-x,-y,z
1/2+x,-y,-z
-x,y,-z
-x,-y,-z
1/2+x,y,-z
1/2-x,y,z
x,-y,z
loop_
_atom_site_type_symbol
_atom_site_label
_atom_site_fract_x
_atom_site_fract_y
_atom_site_fract_z
Si Si1 0.927177 0.396915 0.422454
Si Si2 0.069350 0.219571 0.751102
Si Si3 0.928356 0.211534 0.552782
Si Si4 0.070000 0.401716 0.699269
Si Si5 0.422423 0.109146 0.946274
Si Si6 0.071727 0.234042 0.134879
Si Si7 0.429285 0.395045 0.056348
Si Si8 0.428734 0.106753 0.341779
O O1 0.750000 0.371332 0.428988
O O2 0.959539 0.500000 0.445542
O O3 0.979239 0.394106 0.361529
O O4 0.028959 0.319990 0.450929
O O5 0.250000 0.215340 0.748264
O O6 0.999198 0.316991 0.731348
O O7 0.017171 0.212846 0.811318
O O8 0.006514 0.139245 0.713014
O O9 0.750000 0.198024 0.549777
O O10 0.991619 0.163833 0.606933
O O11 0.000000 0.163536 0.500000
O O12 0.250000 0.398802 0.703521
O O13 0.010084 0.500000 0.722633
O O14 0.250000 0.147802 0.942491
O O15 0.529836 0.145798 0.899931
O O16 0.421791 0.000000 0.942813
O O17 0.500000 0.144937 0.000000
O O18 0.250000 0.238016 0.146670
O O19 0.016068 0.327352 0.104166
O O20 0.250000 0.387553 0.049616
O O21 0.479804 0.500000 0.070552
O O22 0.500000 0.363665 0.000000
O O23 0.250000 0.122129 0.335488
O O24 0.469854 0.000000 0.350864
#
# Coordination Sequence:
#
# PCOD8213930 Si02
#       8
#     8   8   8   8   8   8   8   8
#     4   9  17  33  58  85 116 153 189 227 274 329
#     4  11  22  37  60  87 115 148 190 237 286 342
#     4  11  23  38  60  88 119 151 189 236 286 342
#     4   8  15  30  54  82 111 144 181 223 273 328
#     4  10  21  38  60  85 113 145 184 232 287 345
#     4  11  23  37  56  83 118 156 194 238 286 338
#     4   9  19  36  57  82 115 156 200 243 287 336
#     4  10  23  44  65  84 111 148 189 236 292 351
#
# _framework density 20.029508
#
# number of rings (size 3 to 8) (size 9 to 14) (size 15 to 20)
#    0.000    2.125    1.250    2.625    0.000    5.250 
#    0.000    0.000    0.000    1.125    0.000    0.000 
#    0.000    0.000    0.000    0.000    0.000    0.000 
#
# Total GULP energy -793374.376131 kJ/mol
# GULP energy per Si atom -12396.474627 kJ/mol
# Density = 1.998392 g / cm^3
# Si number density = 20.029508 Si / 1000 Ang^3
#
#
#
# Elastic Constant Matrix: (Units=GPa)
#
#
# Indices 1 2 3 4 5 6 
#
# 1 48.2261 35.8288 29.6812 0.0000 0.0000 0.0000
# 2 35.8288 87.7609 53.6781 0.0000 0.0000 0.0000
# 3 29.6812 53.6781 134.0200 0.0000 0.0000 0.0000
# 4 0.0000 0.0000 0.0000 10.6417 0.0000 0.0000
# 5 0.0000 0.0000 0.0000 0.0000 32.3965 0.0000
# 6 0.0000 0.0000 0.0000 0.0000 0.0000 26.6929
#
#
#
# Elastic Compliance Matrix: (Units=1/GPa)
#
#
# Indices 1 2 3 4 5 6 
#
# 1 0.030301 -0.010948 -0.002326 0.000000 0.000000 0.000000
# 2 -0.010948 0.019047 -0.005204 0.000000 0.000000 0.000000
# 3 -0.002326 -0.005204 0.010061 0.000000 0.000000 0.000000
# 4 0.000000 0.000000 0.000000 0.093970 0.000000 0.000000
# 5 0.000000 0.000000 0.000000 0.000000 0.030867 0.000000
# 6 0.000000 0.000000 0.000000 0.000000 0.000000 0.037463
#
#
# Mechanical properties :
#
#
# Convention : Reuss Voigt Hill
#
# Bulk Modulus (GPa) = 44.53707 56.48703 50.51205
# Shear Modulus (GPa) = 18.78644 24.00083 21.39363
#
# Velocity S-wave (km/s) = 3.06590 3.46536 3.27173
# Velocity P-wave (km/s) = 5.90059 6.65393 6.28855
#
# Compressibility (1/GPa) = 0.02245321
#
# Stress axis : x y z
#
# Youngs Moduli (GPa) = 33.00261 52.50107 99.39292
#
# Poissons Ratio (x) = 0.57477 0.23117
# Poissons Ratio (y) = 0.36131 0.51727
# Poissons Ratio (z) = 0.07676 0.27323
#
# Static dielectric constant tensor:
#      x y z
#    x 3.463810 0.000000 0.000000 
#    y 0.000000 5.820470 0.000000 
#    z 0.000000 0.000000 3.753430 
# 
# 
# High freq. dielectric constant tensor:
#      x y z
#    x 1.766580 0.000000 0.000000 
#    y 0.000000 1.786400 0.000000 
#    z 0.000000 0.000000 1.783790 
# 
# From -- ./inp_files/34998.got.cif
#   From: 2010.03.12/outbox.cif.g09.slc.cpg/sg51_18_cif.got.tgz:34998.got - 2010.04.16 13:43:02.
