data_PCOD8213131
_publ_section_title
;
Structure prediction by ZEFSAII (Michael W. Deem and Ramdas Pophale) SiO2 
 PCOD8213131
Probable space group: P M M A
;
_chemical_formula_sum "Si O2"
_cell_formula_units_Z 56
_cell_length_a 13.572381
_cell_length_b 22.559995
_cell_length_c 9.145388
_cell_angle_alpha 90.000000
_cell_angle_beta 90.000000
_cell_angle_gamma 90.000000
_cell_volume 2800.252393
_symmetry_space_group_name_H-M "P M M A"
_symmetry_group_IT_number 51
_symmetry_cell_setting 'orthorhombic'
loop_
_space_group_symop_operation_xyz
x,y,z
1/2-x,-y,z
1/2+x,-y,-z
-x,y,-z
-x,-y,-z
1/2+x,y,-z
1/2-x,y,z
x,-y,z
loop_
_atom_site_type_symbol
_atom_site_label
_atom_site_fract_x
_atom_site_fract_y
_atom_site_fract_z
Si Si1 0.137626 0.649594 0.669225
Si Si2 0.476056 0.748546 0.834931
Si Si3 0.982007 0.932891 0.670744
Si Si4 0.862424 0.136936 0.139195
Si Si5 0.636764 0.432587 0.602365
Si Si6 0.475034 0.567947 0.844293
Si Si7 0.861605 0.840832 0.810826
O O1 0.250000 0.673723 0.671095
O O2 0.056361 0.698581 0.718075
O O3 0.110961 0.618196 0.515650
O O4 0.125516 0.597772 0.788124
O O5 0.385354 0.794284 0.831142
O O6 0.573384 0.782561 0.777772
O O7 0.500000 0.724714 0.000000
O O8 0.885419 0.892867 0.696409
O O9 0.000000 0.930195 0.500000
O O10 0.072863 0.907037 0.763643
O O11 0.963108 0.000000 0.722336
O O12 0.750000 0.123180 0.178489
O O13 0.885045 0.128864 0.967230
O O14 0.750000 0.426874 0.652306
O O15 0.617150 0.500000 0.541599
O O16 0.568102 0.419687 0.739945
O O17 0.449218 0.500000 0.862120
O O18 0.500000 0.596659 0.000000
O O19 0.750000 0.819759 0.795222
#
# Coordination Sequence:
#
# PCOD8213131 Si02
#       7
#     8   8   8   8   8   8   8
#     4  11  21  33  54  82 111 146 184 222 272 332
#     4   9  18  35  57  82 112 143 181 229 280 331
#     4  10  21  35  52  79 117 155 186 223 274 330
#     4   9  18  35  59  83 109 145 188 232 278 326
#     4   9  19  37  59  82 111 146 182 224 275 329
#     4  10  21  37  57  81 110 145 184 228 279 331
#     4   9  19  37  61  84 107 143 188 233 280 328
#
# _framework density 19.998196
#
# number of rings (size 3 to 8) (size 9 to 14) (size 15 to 20)
#    0.000    2.429    0.000    3.000    0.000    5.429 
#    0.000   10.714    0.000    7.714    0.000    0.000 
#    0.000    0.000    0.000    0.000    0.000    0.000 
#
# Total GULP energy -693949.573768 kJ/mol
# GULP energy per Si atom -12391.956674 kJ/mol
# Density = 1.995268 g / cm^3
# Si number density = 19.998196 Si / 1000 Ang^3
#
#
#
# Elastic Constant Matrix: (Units=GPa)
#
#
# Indices 1 2 3 4 5 6 
#
# 1 104.0189 49.1041 37.7650 0.0000 0.0000 0.0000
# 2 49.1041 113.6240 56.7142 0.0000 0.0000 0.0000
# 3 37.7650 56.7142 90.8232 0.0000 0.0000 0.0000
# 4 0.0000 0.0000 0.0000 58.2282 0.0000 0.0000
# 5 0.0000 0.0000 0.0000 0.0000 21.7960 0.0000
# 6 0.0000 0.0000 0.0000 0.0000 0.0000 15.4802
#
#
#
# Elastic Compliance Matrix: (Units=1/GPa)
#
#
# Indices 1 2 3 4 5 6 
#
# 1 0.012502 -0.004080 -0.002651 0.000000 0.000000 0.000000
# 2 -0.004080 0.014118 -0.007119 0.000000 0.000000 0.000000
# 3 -0.002651 -0.007119 0.016558 0.000000 0.000000 0.000000
# 4 0.000000 0.000000 0.000000 0.017174 0.000000 0.000000
# 5 0.000000 0.000000 0.000000 0.000000 0.045880 0.000000
# 6 0.000000 0.000000 0.000000 0.000000 0.000000 0.064599
#
#
# Mechanical properties :
#
#
# Convention : Reuss Voigt Hill
#
# Bulk Modulus (GPa) = 64.60751 66.18140 65.39445
# Shear Modulus (GPa) = 24.54717 30.09305 27.32011
#
# Velocity S-wave (km/s) = 3.50733 3.88337 3.70013
# Velocity P-wave (km/s) = 6.98417 7.29883 7.14323
#
# Compressibility (1/GPa) = 0.01547808
#
# Stress axis : x y z
#
# Youngs Moduli (GPa) = 79.98735 70.83355 60.39280
#
# Poissons Ratio (x) = 0.28898 0.16009
# Poissons Ratio (y) = 0.32633 0.42995
# Poissons Ratio (z) = 0.21203 0.50428
#
# Static dielectric constant tensor:
#      x y z
#    x 3.679110 0.000000 0.000000 
#    y 0.000000 3.624790 0.000000 
#    z 0.000000 0.000000 3.649930 
# 
# 
# High freq. dielectric constant tensor:
#      x y z
#    x 1.782530 0.000000 0.000000 
#    y 0.000000 1.775530 0.000000 
#    z 0.000000 0.000000 1.773910 
# 
# From -- ./inp_files/8477.got.cif
#   From: 2010.03.12/outbox.cif.g09.slc.cpg/sg51_5_cif.got.tgz:8477.got - 2010.04.16 13:43:02.
