data_PCOD8213023
_publ_section_title
;
Structure prediction by ZEFSAII (Michael W. Deem and Ramdas Pophale) SiO2 
 PCOD8213023
Probable space group: P M M A
;
_chemical_formula_sum "Si O2"
_cell_formula_units_Z 36
_cell_length_a 9.473849
_cell_length_b 23.729234
_cell_length_c 8.917645
_cell_angle_alpha 90.000000
_cell_angle_beta 90.000000
_cell_angle_gamma 90.000000
_cell_volume 2004.750623
_symmetry_space_group_name_H-M "P M M A"
_symmetry_group_IT_number 51
_symmetry_cell_setting 'orthorhombic'
loop_
_space_group_symop_operation_xyz
x,y,z
1/2-x,-y,z
1/2+x,-y,-z
-x,y,-z
-x,-y,-z
1/2+x,y,-z
1/2-x,y,z
x,-y,z
loop_
_atom_site_type_symbol
_atom_site_label
_atom_site_fract_x
_atom_site_fract_y
_atom_site_fract_z
Si Si1 0.914750 0.285906 0.349534
Si Si2 0.414972 0.818322 0.846279
Si Si3 0.914929 0.500000 0.347842
Si Si4 0.588131 0.940486 0.149179
Si Si5 0.913949 0.606888 0.151403
O O1 0.750000 0.285181 0.389823
O O2 0.964935 0.227474 0.274318
O O3 0.952157 0.335649 0.235635
O O4 0.000000 0.295906 0.500000
O O5 0.250000 0.809744 0.883825
O O6 0.445258 0.880494 0.770593
O O7 0.500000 0.810432 0.000000
O O8 0.750000 0.500000 0.386851
O O9 0.959037 0.554907 0.254954
O O10 0.000000 0.500000 0.500000
O O11 0.750000 0.939452 0.099659
O O12 0.557738 0.000000 0.240447
O O13 0.500000 0.942444 0.000000
O O14 0.750000 0.603787 0.109764
O O15 0.000000 0.603853 0.000000
#
# Coordination Sequence:
#
# PCOD8213023 Si02
#       5
#     8   8   4   8   8
#     4  10  21  35  50  70  96 126 161 198 237 284
#     4   9  17  29  46  69  94 120 154 194 235 282
#     4  10  21  36  54  78 106 134 165 198 234 280
#     4   8  13  22  38  61  88 116 146 184 230 276
#     4  10  21  36  54  77 102 128 162 201 239 282
#
# _framework density 17.957346000000001
#
# number of rings (size 3 to 8) (size 9 to 14) (size 15 to 20)
#    0.000    2.667    0.000    1.667    0.000    2.667 
#    0.000    0.000    0.000    0.667    0.000    0.000 
#    0.000    0.000    0.000    0.000    0.000    0.000 
#
# Total GULP energy -446031.742938 kJ/mol
# GULP energy per Si atom -12389.770637 kJ/mol
# Density = 1.791647 g / cm^3
# Si number density = 17.957346 Si / 1000 Ang^3
#
#
#
# Elastic Constant Matrix: (Units=GPa)
#
#
# Indices 1 2 3 4 5 6 
#
# 1 48.6545 43.1823 55.1489 0.0000 0.0000 0.0000
# 2 43.1823 182.5975 70.2891 0.0000 0.0000 0.0000
# 3 55.1489 70.2891 116.3923 0.0000 0.0000 0.0000
# 4 0.0000 0.0000 0.0000 -3.1653 0.0000 0.0000
# 5 0.0000 0.0000 0.0000 0.0000 32.5365 0.0000
# 6 0.0000 0.0000 0.0000 0.0000 0.0000 11.6165
#
#
#
# Elastic Compliance Matrix: (Units=1/GPa)
#
#
# Indices 1 2 3 4 5 6 
#
# 1 0.045813 -0.003229 -0.019757 0.000000 0.000000 0.000000
# 2 -0.003229 0.007363 -0.002916 0.000000 0.000000 0.000000
# 3 -0.019757 -0.002916 0.019714 0.000000 0.000000 0.000000
# 4 0.000000 0.000000 0.000000 -0.315923 0.000000 0.000000
# 5 0.000000 0.000000 0.000000 0.000000 0.030735 0.000000
# 6 0.000000 0.000000 0.000000 0.000000 0.000000 0.086085
#
#
# Mechanical properties :
#
#
# Convention : Reuss Voigt Hill
#
# Bulk Modulus (GPa) = 47.42701 76.09834 61.76267
# Shear Modulus (GPa) = -74.20706 20.13246 -27.03730
#
# Velocity S-wave (km/s) = -6.43535 3.35196 -3.88447
# Velocity P-wave (km/s) = 5.36191 7.57958 3.78814
#
# Compressibility (1/GPa) = 0.02108503
#
# Stress axis : x y z
#
# Youngs Moduli (GPa) = 21.82766 135.81794 50.72471
#
# Poissons Ratio (x) = 0.43856 1.00218
# Poissons Ratio (y) = 0.07048 0.14793
# Poissons Ratio (z) = 0.43126 0.39610
#
# Static dielectric constant tensor:
#      x y z
#    x 3.293960 0.000000 0.000000 
#    y 0.000000 4.222930 0.000000 
#    z 0.000000 0.000000 3.004940 
# 
# 
# High freq. dielectric constant tensor:
#      x y z
#    x 1.693230 0.000000 0.000000 
#    y 0.000000 1.734050 0.000000 
#    z 0.000000 0.000000 1.653300 
# 
# From -- ./inp_files/5245.got.cif
#   From: 2010.03.12/outbox.cif.g09.slc.cpg/sg51_3_cif.got.tgz:5245.got - 2010.04.16 13:43:02.
