data_PCOD8213297
_publ_section_title
;
Structure prediction by ZEFSAII (Michael W. Deem and Ramdas Pophale) SiO2 
 PCOD8213297
Probable space group: P M M A
;
_chemical_formula_sum "Si O2"
_cell_formula_units_Z 64
_cell_length_a 13.777825
_cell_length_b 9.230980
_cell_length_c 26.972560
_cell_angle_alpha 90.000000
_cell_angle_beta 90.000000
_cell_angle_gamma 90.000000
_cell_volume 3430.446433
_symmetry_space_group_name_H-M "P M M A"
_symmetry_group_IT_number 51
_symmetry_cell_setting 'orthorhombic'
loop_
_space_group_symop_operation_xyz
x,y,z
1/2-x,-y,z
1/2+x,-y,-z
-x,y,-z
-x,-y,-z
1/2+x,y,-z
1/2-x,y,z
x,-y,z
loop_
_atom_site_type_symbol
_atom_site_label
_atom_site_fract_x
_atom_site_fract_y
_atom_site_fract_z
Si Si1 0.495131 0.336560 0.708834
Si Si2 0.641135 0.661130 0.383411
Si Si3 0.360915 0.331098 0.083504
Si Si4 0.640777 0.162479 0.015246
Si Si5 0.861285 0.670684 0.201575
Si Si6 0.138371 0.171460 0.357242
Si Si7 0.999505 0.170793 0.444540
Si Si8 0.464153 0.831551 0.883458
O O1 0.533458 0.500000 0.716934
O O2 0.412747 0.331075 0.668072
O O3 0.440959 0.277296 0.757842
O O4 0.586359 0.239725 0.691168
O O5 0.750000 0.705432 0.371800
O O6 0.632413 0.500000 0.406410
O O7 0.601446 0.776891 0.422140
O O8 0.250000 0.300457 0.099625
O O9 0.385872 0.500000 0.085899
O O10 0.430655 0.245327 0.121656
O O11 0.379410 0.277054 0.027734
O O12 0.750000 0.177198 0.035534
O O13 0.569040 0.193929 0.060239
O O14 0.623001 0.000000 0.994035
O O15 0.750000 0.706904 0.217494
O O16 0.871849 0.500000 0.192183
O O17 0.885450 0.756999 0.151786
O O18 0.250000 0.222373 0.358710
O O19 0.087832 0.224929 0.408849
O O20 0.129408 0.000000 0.352061
O O21 0.000000 0.236449 0.500000
O O22 0.001062 0.000000 0.447010
O O23 0.472606 0.000000 0.869702
#
# Coordination Sequence:
#
# PCOD8213297 Si02
#       8
#     8   8   8   8   8   8   8   8
#     4   9  18  34  55  77 100 128 166 209 253 303
#     4   9  17  30  49  72  98 128 162 202 247 295
#     4  10  21  36  54  76 102 135 177 221 260 300
#     4   9  18  33  52  75 105 139 172 207 252 307
#     4  10  21  37  57  80 106 135 165 203 256 313
#     4   9  18  33  52  74 102 136 174 216 259 302
#     4   9  18  31  47  70 101 136 172 209 250 297
#     4  11  22  35  53  78 108 140 173 210 255 309
#
# _framework density 18.656464
#
# number of rings (size 3 to 8) (size 9 to 14) (size 15 to 20)
#    0.000    2.500    0.000    1.875    0.000    7.250 
#    0.000    3.125    0.000    3.000    0.000    0.000 
#    0.000    0.000    0.000    0.000    0.000    0.000 
#
# Total GULP energy -793404.667338 kJ/mol
# GULP energy per Si atom -12396.947927 kJ/mol
# Density = 1.861400 g / cm^3
# Si number density = 18.656464 Si / 1000 Ang^3
#
#
#
# Elastic Constant Matrix: (Units=GPa)
#
#
# Indices 1 2 3 4 5 6 
#
# 1 125.7173 44.8187 31.1812 0.0000 0.0000 0.0000
# 2 44.8187 51.8293 30.0562 0.0000 0.0000 0.0000
# 3 31.1812 30.0562 50.5705 0.0000 0.0000 0.0000
# 4 0.0000 0.0000 0.0000 27.5986 0.0000 0.0000
# 5 0.0000 0.0000 0.0000 0.0000 20.2312 0.0000
# 6 0.0000 0.0000 0.0000 0.0000 0.0000 39.0890
#
#
#
# Elastic Compliance Matrix: (Units=1/GPa)
#
#
# Indices 1 2 3 4 5 6 
#
# 1 0.011608 -0.008984 -0.001818 0.000000 0.000000 0.000000
# 2 -0.008984 0.036394 -0.016091 0.000000 0.000000 0.000000
# 3 -0.001818 -0.016091 0.030459 0.000000 0.000000 0.000000
# 4 0.000000 0.000000 0.000000 0.036234 0.000000 0.000000
# 5 0.000000 0.000000 0.000000 0.000000 0.049429 0.000000
# 6 0.000000 0.000000 0.000000 0.000000 0.000000 0.025583
#
#
# Mechanical properties :
#
#
# Convention : Reuss Voigt Hill
#
# Bulk Modulus (GPa) = 40.52646 48.91437 44.72041
# Shear Modulus (GPa) = 19.86358 25.52115 22.69236
#
# Velocity S-wave (km/s) = 3.26652 3.70260 3.49137
# Velocity P-wave (km/s) = 5.99971 6.67490 6.34629
#
# Compressibility (1/GPa) = 0.02467524
#
# Stress axis : x y z
#
# Youngs Moduli (GPa) = 86.14792 27.47706 32.83087
#
# Poissons Ratio (x) = 0.24684 0.05969
# Poissons Ratio (y) = 0.77391 0.52829
# Poissons Ratio (z) = 0.15662 0.44214
#
# Static dielectric constant tensor:
#      x y z
#    x 3.602530 0.000000 0.000000 
#    y 0.000000 3.416430 0.000000 
#    z 0.000000 0.000000 3.365740 
# 
# 
# High freq. dielectric constant tensor:
#      x y z
#    x 1.733190 0.000000 0.000000 
#    y 0.000000 1.718390 0.000000 
#    z 0.000000 0.000000 1.706550 
# 
# From -- ./inp_files/35798.got.cif
#   From: 2010.03.12/outbox.cif.g09.slc.cpg/sg51_18_cif.got.tgz:35798.got - 2010.04.16 13:43:02.
