data_PCOD8213404
_publ_section_title
;
Structure prediction by ZEFSAII (Michael W. Deem and Ramdas Pophale) SiO2 
 PCOD8213404
Probable space group: P M M A
;
_chemical_formula_sum "Si O2"
_cell_formula_units_Z 44
_cell_length_a 9.286215
_cell_length_b 7.966253
_cell_length_c 29.610001
_cell_angle_alpha 90.000000
_cell_angle_beta 90.000000
_cell_angle_gamma 90.000000
_cell_volume 2190.439445
_symmetry_space_group_name_H-M "P M M A"
_symmetry_group_IT_number 51
_symmetry_cell_setting 'orthorhombic'
loop_
_space_group_symop_operation_xyz
x,y,z
1/2-x,-y,z
1/2+x,-y,-z
-x,y,-z
-x,-y,-z
1/2+x,y,-z
1/2-x,y,z
x,-y,z
loop_
_atom_site_type_symbol
_atom_site_label
_atom_site_fract_x
_atom_site_fract_y
_atom_site_fract_z
Si Si1 0.086909 0.804716 0.301604
Si Si2 0.919151 0.808580 0.390479
Si Si3 0.419756 0.500000 0.546952
Si Si4 0.090718 0.306261 0.040890
Si Si5 0.913688 0.308022 0.794916
Si Si6 0.412243 0.808293 0.876508
O O1 0.250000 0.753686 0.313726
O O2 0.033657 0.708884 0.256797
O O3 0.989187 0.751399 0.343550
O O4 0.072832 0.000000 0.291194
O O5 0.750000 0.802500 0.383188
O O6 0.967219 0.671080 0.427412
O O7 0.967362 0.000000 0.404258
O O8 0.250000 0.500000 0.538539
O O9 0.500000 0.500000 0.500000
O O10 0.250000 0.222035 0.043993
O O11 0.111403 0.500000 0.029508
O O12 0.008487 0.292106 0.088097
O O13 0.000000 0.220927 0.000000
O O14 0.750000 0.238898 0.799160
O O15 0.921220 0.500000 0.810166
O O16 0.018817 0.203527 0.826922
O O17 0.250000 0.734419 0.875637
O O18 0.409188 0.000000 0.891846
#
# Coordination Sequence:
#
# PCOD8213404 Si02
#       6
#     8   8   4   8   8   8
#     4   9  18  33  54  81 111 143 181 224 271 325
#     4   9  19  36  56  79 111 148 185 229 280 335
#     4  10  22  38  56  82 112 146 188 234 283 334
#     4  10  21  38  61  86 110 139 176 220 272 329
#     4  10  21  36  55  81 111 144 182 225 274 328
#     4  11  24  39  55  78 109 145 185 227 271 323
#
# _framework density 20.087295000000001
#
# number of rings (size 3 to 8) (size 9 to 14) (size 15 to 20)
#    0.000    2.182    0.000    2.182    1.273    8.000 
#    0.000    1.818    0.000    0.000    0.000    0.000 
#    0.000    0.000    0.000    0.000    0.000    0.000 
#
# Total GULP energy -545605.968885 kJ/mol
# GULP energy per Si atom -12400.135656 kJ/mol
# Density = 2.004158 g / cm^3
# Si number density = 20.087295 Si / 1000 Ang^3
#
#
#
# Elastic Constant Matrix: (Units=GPa)
#
#
# Indices 1 2 3 4 5 6 
#
# 1 111.4118 29.9420 73.6496 0.0000 0.0000 0.0000
# 2 29.9420 62.2889 39.8588 0.0000 0.0000 0.0000
# 3 73.6496 39.8588 146.0314 0.0000 0.0000 0.0000
# 4 0.0000 0.0000 0.0000 17.3266 0.0000 0.0000
# 5 0.0000 0.0000 0.0000 0.0000 43.1290 0.0000
# 6 0.0000 0.0000 0.0000 0.0000 0.0000 19.4038
#
#
#
# Elastic Compliance Matrix: (Units=1/GPa)
#
#
# Indices 1 2 3 4 5 6 
#
# 1 0.013815 -0.002644 -0.006246 0.000000 0.000000 0.000000
# 2 -0.002644 0.019958 -0.004114 0.000000 0.000000 0.000000
# 3 -0.006246 -0.004114 0.011121 0.000000 0.000000 0.000000
# 4 0.000000 0.000000 0.000000 0.057715 0.000000 0.000000
# 5 0.000000 0.000000 0.000000 0.000000 0.023186 0.000000
# 6 0.000000 0.000000 0.000000 0.000000 0.000000 0.051536
#
#
# Mechanical properties :
#
#
# Convention : Reuss Voigt Hill
#
# Bulk Modulus (GPa) = 52.94942 67.40365 60.17653
# Shear Modulus (GPa) = 23.85112 27.72401 25.78756
#
# Velocity S-wave (km/s) = 3.44957 3.71910 3.58687
# Velocity P-wave (km/s) = 6.50253 7.21599 6.86853
#
# Compressibility (1/GPa) = 0.01888595
#
# Stress axis : x y z
#
# Youngs Moduli (GPa) = 72.38409 50.10591 89.92208
#
# Poissons Ratio (x) = 0.13249 0.56164
# Poissons Ratio (y) = 0.19140 0.36993
# Poissons Ratio (z) = 0.45210 0.20613
#
# Static dielectric constant tensor:
#      x y z
#    x 3.818260 0.000000 0.000000 
#    y 0.000000 3.652660 0.000000 
#    z 0.000000 0.000000 3.533100 
# 
# 
# High freq. dielectric constant tensor:
#      x y z
#    x 1.782870 0.000000 0.000000 
#    y 0.000000 1.779620 0.000000 
#    z 0.000000 0.000000 1.781720 
# 
# From -- ./inp_files/36789.got.cif
#   From: 2010.03.12/outbox.cif.g09.slc.cpg/sg51_19_cif.got.tgz:36789.got - 2010.04.16 13:43:02.
