data_PCOD8213743
_publ_section_title
;
Structure prediction by ZEFSAII (Michael W. Deem and Ramdas Pophale) SiO2 
 PCOD8213743
Probable space group: P M M A
;
_chemical_formula_sum "Si O2"
_cell_formula_units_Z 64
_cell_length_a 8.934078
_cell_length_b 14.477558
_cell_length_c 24.031883
_cell_angle_alpha 90.000000
_cell_angle_beta 90.000000
_cell_angle_gamma 90.000000
_cell_volume 3108.371041
_symmetry_space_group_name_H-M "P M M A"
_symmetry_group_IT_number 51
_symmetry_cell_setting 'orthorhombic'
loop_
_space_group_symop_operation_xyz
x,y,z
1/2-x,-y,z
1/2+x,-y,-z
-x,y,-z
-x,-y,-z
1/2+x,y,-z
1/2-x,y,z
x,-y,z
loop_
_atom_site_type_symbol
_atom_site_label
_atom_site_fract_x
_atom_site_fract_y
_atom_site_fract_z
Si Si1 0.427119 0.235435 0.557395
Si Si2 0.084927 0.109468 0.230062
Si Si3 0.424661 0.892360 0.353612
Si Si4 0.423283 0.107561 0.879167
Si Si5 0.081216 0.609770 0.732090
Si Si6 0.925255 0.392750 0.619991
Si Si7 0.925064 0.394068 0.842613
Si Si8 0.426193 0.262949 0.057274
O O1 0.500000 0.201615 0.500000
O O2 0.250000 0.240152 0.551096
O O3 0.471106 0.162647 0.604482
O O4 0.490338 0.336882 0.571879
O O5 0.250000 0.149219 0.215475
O O6 0.033165 0.142763 0.291237
O O7 0.970990 0.142315 0.182384
O O8 0.094627 0.000000 0.232528
O O9 0.250000 0.872391 0.365513
O O10 0.460595 0.000000 0.360998
O O11 0.250000 0.129072 0.887110
O O12 0.515190 0.161705 0.926009
O O13 0.460602 0.000000 0.887001
O O14 0.250000 0.647217 0.726028
O O15 0.077677 0.500000 0.734796
O O16 0.984591 0.643177 0.679527
O O17 0.008456 0.648543 0.788802
O O18 0.750000 0.372089 0.617051
O O19 0.962014 0.500000 0.610629
O O20 0.750000 0.385137 0.830991
O O21 0.971570 0.500000 0.853295
O O22 0.975556 0.336698 0.896305
O O23 0.250000 0.258813 0.049336
O O24 0.500000 0.295532 0.000000
#
# Coordination Sequence:
#
# PCOD8213743 Si02
#       8
#     8   8   8   8   8   8   8   8
#     4  12  26  42  60  83 114 152 196 243 286 337
#     4   8  15  31  57  87 116 146 181 223 275 334
#     4   9  19  38  63  89 119 154 191 234 284 338
#     4  10  21  37  58  84 114 147 183 227 277 329
#     4   9  17  31  55  88 120 148 183 228 278 333
#     4  10  21  39  63  88 116 151 189 233 286 342
#     4   9  19  37  59  83 113 149 186 225 275 334
#     4  11  24  40  58  80 108 145 189 235 279 329
#
# _framework density 20.589562000000001
#
# number of rings (size 3 to 8) (size 9 to 14) (size 15 to 20)
#    0.000    2.250    0.000    3.375    0.000    6.750 
#    0.000    2.500    0.000    0.000    0.000    0.000 
#    0.000    0.000    0.000    0.000    0.000    0.000 
#
# Total GULP energy -793747.993296 kJ/mol
# GULP energy per Si atom -12402.312395 kJ/mol
# Density = 2.054270 g / cm^3
# Si number density = 20.589562 Si / 1000 Ang^3
#
#
#
# Elastic Constant Matrix: (Units=GPa)
#
#
# Indices 1 2 3 4 5 6 
#
# 1 92.0731 15.5276 28.3364 0.0000 0.0000 0.0000
# 2 15.5276 43.7559 8.8050 0.0000 0.0000 0.0000
# 3 28.3364 8.8050 87.6383 0.0000 0.0000 0.0000
# 4 0.0000 0.0000 0.0000 32.1583 0.0000 0.0000
# 5 0.0000 0.0000 0.0000 0.0000 41.7515 0.0000
# 6 0.0000 0.0000 0.0000 0.0000 0.0000 27.7939
#
#
#
# Elastic Compliance Matrix: (Units=1/GPa)
#
#
# Indices 1 2 3 4 5 6 
#
# 1 0.012633 -0.003737 -0.003709 0.000000 0.000000 0.000000
# 2 -0.003737 0.024431 -0.001246 0.000000 0.000000 0.000000
# 3 -0.003709 -0.001246 0.012735 0.000000 0.000000 0.000000
# 4 0.000000 0.000000 0.000000 0.031096 0.000000 0.000000
# 5 0.000000 0.000000 0.000000 0.000000 0.023951 0.000000
# 6 0.000000 0.000000 0.000000 0.000000 0.000000 0.035979
#
#
# Mechanical properties :
#
#
# Convention : Reuss Voigt Hill
#
# Bulk Modulus (GPa) = 30.85052 36.53390 33.69221
# Shear Modulus (GPa) = 29.58335 31.72730 30.65532
#
# Velocity S-wave (km/s) = 3.79464 3.92974 3.86278
# Velocity P-wave (km/s) = 5.84938 6.19459 6.02445
#
# Compressibility (1/GPa) = 0.03241437
#
# Stress axis : x y z
#
# Youngs Moduli (GPa) = 79.16026 40.93183 78.52342
#
# Poissons Ratio (x) = 0.15294 0.29125
# Poissons Ratio (y) = 0.29579 0.09787
# Poissons Ratio (z) = 0.29362 0.05102
#
# Static dielectric constant tensor:
#      x y z
#    x 3.714990 0.000000 0.000000 
#    y 0.000000 3.625480 0.000000 
#    z 0.000000 0.000000 3.839370 
# 
# 
# High freq. dielectric constant tensor:
#      x y z
#    x 1.804410 0.000000 0.000000 
#    y 0.000000 1.799760 0.000000 
#    z 0.000000 0.000000 1.807430 
# 
# From -- ./inp_files/34871.got.cif
#   From: 2010.03.12/outbox.cif.g09.slc.cpg/sg51_18_cif.got.tgz:34871.got - 2010.04.16 13:43:02.
