data_PCOD8213865
_publ_section_title
;
Structure prediction by ZEFSAII (Michael W. Deem and Ramdas Pophale) SiO2 
 PCOD8213865
Probable space group: P M M A
;
_chemical_formula_sum "Si O2"
_cell_formula_units_Z 48
_cell_length_a 14.209705
_cell_length_b 8.816215
_cell_length_c 18.991127
_cell_angle_alpha 90.000000
_cell_angle_beta 90.000000
_cell_angle_gamma 90.000000
_cell_volume 2379.128901
_symmetry_space_group_name_H-M "P M M A"
_symmetry_group_IT_number 51
_symmetry_cell_setting 'orthorhombic'
loop_
_space_group_symop_operation_xyz
x,y,z
1/2-x,-y,z
1/2+x,-y,-z
-x,y,-z
-x,-y,-z
1/2+x,y,-z
1/2-x,y,z
x,-y,z
loop_
_atom_site_type_symbol
_atom_site_label
_atom_site_fract_x
_atom_site_fract_y
_atom_site_fract_z
Si Si1 0.361760 0.328816 0.023006
Si Si2 0.861758 0.173821 0.118433
Si Si3 0.142582 0.821150 0.166145
Si Si4 0.972294 0.179543 0.388400
Si Si5 0.645627 0.179618 0.521693
Si Si6 0.977110 0.679022 0.241141
O O1 0.250000 0.325916 0.020039
O O2 0.400329 0.500000 0.028287
O O3 0.402311 0.251621 0.952479
O O4 0.396408 0.235181 0.090805
O O5 0.750000 0.187177 0.121302
O O6 0.902165 0.257886 0.185949
O O7 0.895167 0.000000 0.119044
O O8 0.250000 0.770150 0.178056
O O9 0.081078 0.744909 0.226956
O O10 0.131521 0.000000 0.169942
O O11 0.075699 0.231461 0.415842
O O12 0.945582 0.268981 0.318256
O O13 0.895306 0.229487 0.446151
O O14 0.969475 0.000000 0.374165
O O15 0.750000 0.250226 0.532787
O O16 0.650830 0.000000 0.522794
O O17 0.979125 0.500000 0.236045
#
# Coordination Sequence:
#
# PCOD8213865 Si02
#       6
#     8   8   8   8   8   8
#     4   9  17  32  55  82 112 143 179 230 289 342
#     4  10  21  38  59  81 107 144 192 240 282 329
#     4  10  21  38  59  81 107 144 192 240 282 329
#     4   9  18  34  55  81 111 140 179 225 264 316
#     4   8  15  31  58  86 108 136 176 221 266 313
#     4  12  25  38  54  80 117 154 186 226 279 336
#
# _framework density 20.175453000000001
#
# number of rings (size 3 to 8) (size 9 to 14) (size 15 to 20)
#    0.000    2.333    0.000    4.000    0.000    6.000 
#    0.000    8.333    0.000    1.000    0.000    0.000 
#    0.000    0.000    0.000    0.000    0.000    0.000 
#
# Total GULP energy -595241.071455 kJ/mol
# GULP energy per Si atom -12400.855655 kJ/mol
# Density = 2.012953 g / cm^3
# Si number density = 20.175453 Si / 1000 Ang^3
#
#
#
# Elastic Constant Matrix: (Units=GPa)
#
#
# Indices 1 2 3 4 5 6 
#
# 1 35.4671 -1.5484 -15.6974 0.0000 0.0000 0.0000
# 2 -1.5484 101.5139 23.5129 0.0000 0.0000 0.0000
# 3 -15.6974 23.5129 81.8957 0.0000 0.0000 0.0000
# 4 0.0000 0.0000 0.0000 13.8426 0.0000 0.0000
# 5 0.0000 0.0000 0.0000 0.0000 20.3049 0.0000
# 6 0.0000 0.0000 0.0000 0.0000 0.0000 19.6347
#
#
#
# Elastic Compliance Matrix: (Units=1/GPa)
#
#
# Indices 1 2 3 4 5 6 
#
# 1 0.030897 -0.000965 0.006199 0.000000 0.000000 0.000000
# 2 -0.000965 0.010583 -0.003223 0.000000 0.000000 0.000000
# 3 0.006199 -0.003223 0.014324 0.000000 0.000000 0.000000
# 4 0.000000 0.000000 0.000000 0.072241 0.000000 0.000000
# 5 0.000000 0.000000 0.000000 0.000000 0.049249 0.000000
# 6 0.000000 0.000000 0.000000 0.000000 0.000000 0.050930
#
#
# Mechanical properties :
#
#
# Convention : Reuss Voigt Hill
#
# Bulk Modulus (GPa) = 16.71511 25.71233 21.21372
# Shear Modulus (GPa) = 20.47975 24.93040 22.70508
#
# Velocity S-wave (km/s) = 3.18949 3.51904 3.35831
# Velocity P-wave (km/s) = 4.67618 5.41143 5.05718
#
# Compressibility (1/GPa) = 0.05982610
#
# Stress axis : x y z
#
# Youngs Moduli (GPa) = 32.36599 94.49348 69.81149
#
# Poissons Ratio (x) = 0.09115 -0.43277
# Poissons Ratio (y) = 0.03122 0.22502
# Poissons Ratio (z) = -0.20064 0.30458
#
# Static dielectric constant tensor:
#      x y z
#    x 3.897880 0.000000 0.000000 
#    y 0.000000 3.511030 0.000000 
#    z 0.000000 0.000000 3.658120 
# 
# 
# High freq. dielectric constant tensor:
#      x y z
#    x 1.792590 0.000000 0.000000 
#    y 0.000000 1.772100 0.000000 
#    z 0.000000 0.000000 1.787280 
# 
# From -- ./inp_files/29453.got.cif
#   From: 2010.03.12/outbox.cif.g09.slc.cpg/sg51_15_cif.got.tgz:29453.got - 2010.04.16 13:43:02.
