data_PCOD8213278
_publ_section_title
;
Structure prediction by ZEFSAII (Michael W. Deem and Ramdas Pophale) SiO2 
 PCOD8213278
Probable space group: P M M A
;
_chemical_formula_sum "Si O2"
_cell_formula_units_Z 48
_cell_length_a 8.722005
_cell_length_b 31.109493
_cell_length_c 9.178058
_cell_angle_alpha 90.000000
_cell_angle_beta 90.000000
_cell_angle_gamma 90.000000
_cell_volume 2490.348132
_symmetry_space_group_name_H-M "P M M A"
_symmetry_group_IT_number 51
_symmetry_cell_setting 'orthorhombic'
loop_
_space_group_symop_operation_xyz
x,y,z
1/2-x,-y,z
1/2+x,-y,-z
-x,y,-z
-x,-y,-z
1/2+x,y,-z
1/2-x,y,z
x,-y,z
loop_
_atom_site_type_symbol
_atom_site_label
_atom_site_fract_x
_atom_site_fract_y
_atom_site_fract_z
Si Si1 0.430358 0.292703 0.158434
Si Si2 0.570618 0.953448 0.841452
Si Si3 0.931706 0.790354 0.659006
Si Si4 0.569074 0.548117 0.846636
Si Si5 0.068365 0.132171 0.838387
Si Si6 0.931452 0.626669 0.657717
O O1 0.250000 0.295138 0.141498
O O2 0.480982 0.251327 0.249942
O O3 0.492949 0.335157 0.239423
O O4 0.500000 0.289326 0.000000
O O5 0.750000 0.942705 0.853014
O O6 0.484457 0.913377 0.765159
O O7 0.544981 0.000000 0.761681
O O8 0.500000 0.957344 0.000000
O O9 0.750000 0.796022 0.650815
O O10 0.000000 0.784660 0.500000
O O11 0.005587 0.831354 0.734215
O O12 0.750000 0.550037 0.863100
O O13 0.513688 0.500000 0.803952
O O14 0.511804 0.581155 0.723492
O O15 0.500000 0.562659 0.000000
O O16 0.250000 0.134761 0.847185
O O17 0.000000 0.137584 0.000000
O O18 0.750000 0.628386 0.644971
O O19 0.000000 0.632994 0.500000
#
# Coordination Sequence:
#
# PCOD8213278 Si02
#       6
#     8   8   8   8   8   8
#     4  10  22  38  58  82 107 137 175 220 266 317
#     4   9  16  27  46  74 107 141 178 222 269 315
#     4  11  23  39  57  79 107 139 177 219 268 323
#     4   9  18  33  53  77 106 140 180 225 269 316
#     4  11  21  34  54  80 110 144 182 224 269 318
#     4  10  21  36  53  78 110 142 178 219 266 319
#
# _framework density 19.274411000000001
#
# number of rings (size 3 to 8) (size 9 to 14) (size 15 to 20)
#    0.000    2.000    0.000    5.000    0.000    5.333 
#    0.000    0.000    0.000    0.500    0.000    0.000 
#    0.000    0.000    0.000    0.000    0.000    0.000 
#
# Total GULP energy -595091.880201 kJ/mol
# GULP energy per Si atom -12397.747504 kJ/mol
# Density = 1.923054 g / cm^3
# Si number density = 19.274411 Si / 1000 Ang^3
#
#
#
# Elastic Constant Matrix: (Units=GPa)
#
#
# Indices 1 2 3 4 5 6 
#
# 1 73.5534 56.9250 47.5194 0.0000 0.0000 0.0000
# 2 56.9250 178.2231 89.2989 0.0000 0.0000 0.0000
# 3 47.5194 89.2989 138.2845 0.0000 0.0000 0.0000
# 4 0.0000 0.0000 0.0000 15.6883 0.0000 0.0000
# 5 0.0000 0.0000 0.0000 0.0000 32.7521 0.0000
# 6 0.0000 0.0000 0.0000 0.0000 0.0000 13.5415
#
#
#
# Elastic Compliance Matrix: (Units=1/GPa)
#
#
# Indices 1 2 3 4 5 6 
#
# 1 0.019412 -0.004225 -0.003942 0.000000 0.000000 0.000000
# 2 -0.004225 0.009214 -0.004498 0.000000 0.000000 0.000000
# 3 -0.003942 -0.004498 0.011491 0.000000 0.000000 0.000000
# 4 0.000000 0.000000 0.000000 0.063742 0.000000 0.000000
# 5 0.000000 0.000000 0.000000 0.000000 0.030532 0.000000
# 6 0.000000 0.000000 0.000000 0.000000 0.000000 0.073847
#
#
# Mechanical properties :
#
#
# Convention : Reuss Voigt Hill
#
# Bulk Modulus (GPa) = 67.63069 86.39417 77.01243
# Shear Modulus (GPa) = 20.96437 25.48423 23.22430
#
# Velocity S-wave (km/s) = 3.30158 3.64012 3.47497
# Velocity P-wave (km/s) = 7.04971 7.91125 7.49287
#
# Compressibility (1/GPa) = 0.01478619
#
# Stress axis : x y z
#
# Youngs Moduli (GPa) = 51.51330 108.52610 87.02360
#
# Poissons Ratio (x) = 0.45853 0.34308
# Poissons Ratio (y) = 0.21765 0.39147
# Poissons Ratio (z) = 0.20309 0.48820
#
# Static dielectric constant tensor:
#      x y z
#    x 3.543580 0.000000 0.000000 
#    y 0.000000 4.334530 0.000000 
#    z 0.000000 0.000000 2.981230 
# 
# 
# High freq. dielectric constant tensor:
#      x y z
#    x 1.751760 0.000000 0.000000 
#    y 0.000000 1.778050 0.000000 
#    z 0.000000 0.000000 1.725850 
# 
# From -- ./inp_files/5941.got.cif
#   From: 2010.03.12/outbox.cif.g09.slc.cpg/sg51_3_cif.got.tgz:5941.got - 2010.04.16 13:43:02.
