data_PCOD8213211
_publ_section_title
;
Structure prediction by ZEFSAII (Michael W. Deem and Ramdas Pophale) SiO2 
 PCOD8213211
Probable space group: P M M A
;
_chemical_formula_sum "Si O2"
_cell_formula_units_Z 44
_cell_length_a 8.988547
_cell_length_b 28.108846
_cell_length_c 9.167551
_cell_angle_alpha 90.000000
_cell_angle_beta 90.000000
_cell_angle_gamma 90.000000
_cell_volume 2316.252198
_symmetry_space_group_name_H-M "P M M A"
_symmetry_group_IT_number 51
_symmetry_cell_setting 'orthorhombic'
loop_
_space_group_symop_operation_xyz
x,y,z
1/2-x,-y,z
1/2+x,-y,-z
-x,y,-z
-x,-y,-z
1/2+x,y,-z
1/2-x,y,z
x,-y,z
loop_
_atom_site_type_symbol
_atom_site_label
_atom_site_fract_x
_atom_site_fract_y
_atom_site_fract_z
Si Si1 0.426146 0.190854 0.344344
Si Si2 0.925660 0.370674 0.653246
Si Si3 0.924892 0.102744 0.843407
Si Si4 0.577967 0.000000 0.847856
Si Si5 0.922235 0.444235 0.149750
Si Si6 0.576211 0.720078 0.845025
O O1 0.500000 0.195341 0.500000
O O2 0.250000 0.191253 0.364881
O O3 0.483567 0.142482 0.267888
O O4 0.481317 0.234987 0.247221
O O5 0.750000 0.377490 0.633234
O O6 0.966075 0.327787 0.760652
O O7 0.000000 0.358683 0.500000
O O8 0.996670 0.418775 0.716291
O O9 0.750000 0.108992 0.868407
O O10 0.963427 0.050473 0.770758
O O11 0.000000 0.109511 0.000000
O O12 0.750000 0.000000 0.883074
O O13 0.500000 0.000000 0.000000
O O14 0.750000 0.429200 0.141915
O O15 0.941125 0.500000 0.176778
O O16 0.000000 0.428260 0.000000
O O17 0.750000 0.724220 0.871845
O O18 0.500000 0.719565 0.000000
#
# Coordination Sequence:
#
# PCOD8213211 Si02
#       6
#     8   8   8   4   8   8
#     4  10  21  36  52  74 104 137 172 211 258 310
#     4  11  23  38  57  82 112 145 180 220 267 318
#     4   9  17  30  50  74 100 131 170 213 257 306
#     4   8  14  26  45  70  98 128 164 210 257 300
#     4  10  21  38  60  85 113 146 184 225 267 313
#     4  10  22  38  57  81 106 135 174 217 262 313
#
# _framework density 18.996205
#
# number of rings (size 3 to 8) (size 9 to 14) (size 15 to 20)
#    0.000    2.182    0.000    2.727    0.000    5.818 
#    0.000    0.455    0.000    0.000    0.000    0.000 
#    0.000    0.000    0.000    0.000    0.000    0.000 
#
# Total GULP energy -545520.519913 kJ/mol
# GULP energy per Si atom -12398.193634 kJ/mol
# Density = 1.895297 g / cm^3
# Si number density = 18.996205 Si / 1000 Ang^3
#
#
#
# Elastic Constant Matrix: (Units=GPa)
#
#
# Indices 1 2 3 4 5 6 
#
# 1 66.9613 51.6963 57.4802 0.0000 0.0000 0.0000
# 2 51.6963 121.6913 71.4477 0.0000 0.0000 0.0000
# 3 57.4802 71.4477 148.4593 0.0000 0.0000 0.0000
# 4 0.0000 0.0000 0.0000 5.6702 0.0000 0.0000
# 5 0.0000 0.0000 0.0000 0.0000 37.5207 0.0000
# 6 0.0000 0.0000 0.0000 0.0000 0.0000 17.3487
#
#
#
# Elastic Compliance Matrix: (Units=1/GPa)
#
#
# Indices 1 2 3 4 5 6 
#
# 1 0.026253 -0.007227 -0.006687 0.000000 0.000000 0.000000
# 2 -0.007227 0.013443 -0.003672 0.000000 0.000000 0.000000
# 3 -0.006687 -0.003672 0.011092 0.000000 0.000000 0.000000
# 4 0.000000 0.000000 0.000000 0.176360 0.000000 0.000000
# 5 0.000000 0.000000 0.000000 0.000000 0.026652 0.000000
# 6 0.000000 0.000000 0.000000 0.000000 0.000000 0.057641
#
#
# Mechanical properties :
#
#
# Convention : Reuss Voigt Hill
#
# Bulk Modulus (GPa) = 64.02876 77.59561 70.81219
# Shear Modulus (GPa) = 14.21190 22.54042 18.37616
#
# Velocity S-wave (km/s) = 2.73819 3.44841 3.11361
# Velocity P-wave (km/s) = 6.61636 7.53605 7.09113
#
# Compressibility (1/GPa) = 0.01561798
#
# Stress axis : x y z
#
# Youngs Moduli (GPa) = 38.09035 74.38637 90.15647
#
# Poissons Ratio (x) = 0.53758 0.60285
# Poissons Ratio (y) = 0.27528 0.33102
# Poissons Ratio (z) = 0.25470 0.27312
#
# Static dielectric constant tensor:
#      x y z
#    x 3.454770 0.000000 0.000000 
#    y 0.000000 4.006120 0.000000 
#    z 0.000000 0.000000 3.319230 
# 
# 
# High freq. dielectric constant tensor:
#      x y z
#    x 1.737750 0.000000 0.000000 
#    y 0.000000 1.761750 0.000000 
#    z 0.000000 0.000000 1.725500 
# 
# From -- ./inp_files/5719.got.cif
#   From: 2010.03.12/outbox.cif.g09.slc.cpg/sg51_3_cif.got.tgz:5719.got - 2010.04.16 13:43:02.
