data_PCOD8213259
_publ_section_title
;
Structure prediction by ZEFSAII (Michael W. Deem and Ramdas Pophale) SiO2 
 PCOD8213259
Probable space group: P M M A
;
_chemical_formula_sum "Si O2"
_cell_formula_units_Z 64
_cell_length_a 14.734760
_cell_length_b 9.476834
_cell_length_c 24.229730
_cell_angle_alpha 90.000000
_cell_angle_beta 90.000000
_cell_angle_gamma 90.000000
_cell_volume 3383.412228
_symmetry_space_group_name_H-M "P M M A"
_symmetry_group_IT_number 51
_symmetry_cell_setting 'orthorhombic'
loop_
_space_group_symop_operation_xyz
x,y,z
1/2-x,-y,z
1/2+x,-y,-z
-x,y,-z
-x,-y,-z
1/2+x,y,-z
1/2-x,y,z
x,-y,z
loop_
_atom_site_type_symbol
_atom_site_label
_atom_site_fract_x
_atom_site_fract_y
_atom_site_fract_z
Si Si1 0.642267 0.161922 0.392808
Si Si2 0.857676 0.843913 0.996339
Si Si3 0.354005 0.166025 0.126012
Si Si4 0.649677 0.332894 0.616514
Si Si5 0.020765 0.334606 0.685486
Si Si6 0.853631 0.335628 0.098109
Si Si7 0.357292 0.343341 0.505388
Si Si8 0.000477 0.663544 0.812646
O O1 0.750000 0.173007 0.388135
O O2 0.601211 0.244356 0.340929
O O3 0.605378 0.235416 0.448799
O O4 0.609893 0.000000 0.392796
O O5 0.750000 0.849238 0.996417
O O6 0.894133 0.740961 0.043926
O O7 0.896807 0.000000 0.008281
O O8 0.888211 0.791591 0.935614
O O9 0.250000 0.211514 0.134826
O O10 0.412719 0.248195 0.170662
O O11 0.365630 0.000000 0.134946
O O12 0.750000 0.269146 0.630451
O O13 0.658220 0.500000 0.616355
O O14 0.576275 0.282485 0.661379
O O15 0.616232 0.285414 0.555410
O O16 0.036738 0.500000 0.673192
O O17 0.024042 0.301330 0.749947
O O18 0.750000 0.289037 0.110119
O O19 0.859571 0.500000 0.085517
O O20 0.912578 0.292055 0.151018
O O21 0.250000 0.354107 0.509007
O O22 0.398850 0.500000 0.516142
O O23 0.976568 0.500000 0.820680
#
# Coordination Sequence:
#
# PCOD8213259 Si02
#       8
#     8   8   8   8   8   8   8   8
#     4  10  21  36  53  75 105 137 168 209 259 306
#     4   8  15  30  52  77 101 127 166 210 252 305
#     4   9  19  36  56  77 104 137 169 206 254 305
#     4   8  15  30  53  79 104 130 165 211 257 301
#     4  10  21  36  54  76 102 136 178 217 251 295
#     4   9  18  33  51  72 102 136 167 207 261 313
#     4   8  14  28  52  78 101 128 164 205 253 310
#     4  10  22  36  51  76 105 135 175 217 255 299
#
# _framework density 18.915814000000001
#
# number of rings (size 3 to 8) (size 9 to 14) (size 15 to 20)
#    0.000    3.000    0.000    1.875    0.000    4.500 
#    0.000    9.375    0.000    2.625    0.000    0.000 
#    0.000    0.000    0.000    0.000    0.000    0.000 
#
# Total GULP energy -793416.110991 kJ/mol
# GULP energy per Si atom -12397.126734 kJ/mol
# Density = 1.887276 g / cm^3
# Si number density = 18.915814 Si / 1000 Ang^3
#
#
#
# Elastic Constant Matrix: (Units=GPa)
#
#
# Indices 1 2 3 4 5 6 
#
# 1 42.3356 15.8647 2.8525 0.0000 0.0000 0.0000
# 2 15.8647 50.5598 21.9940 0.0000 0.0000 0.0000
# 3 2.8525 21.9940 60.0905 0.0000 0.0000 0.0000
# 4 0.0000 0.0000 0.0000 -9.9266 0.0000 0.0000
# 5 0.0000 0.0000 0.0000 0.0000 30.5095 0.0000
# 6 0.0000 0.0000 0.0000 0.0000 0.0000 21.4580
#
#
#
# Elastic Compliance Matrix: (Units=1/GPa)
#
#
# Indices 1 2 3 4 5 6 
#
# 1 0.027003 -0.009414 0.002164 0.000000 0.000000 0.000000
# 2 -0.009414 0.026806 -0.009365 0.000000 0.000000 0.000000
# 3 0.002164 -0.009365 0.019966 0.000000 0.000000 0.000000
# 4 0.000000 0.000000 0.000000 -0.100740 0.000000 0.000000
# 5 0.000000 0.000000 0.000000 0.000000 0.032777 0.000000
# 6 0.000000 0.000000 0.000000 0.000000 0.000000 0.046603
#
#
# Mechanical properties :
#
#
# Convention : Reuss Voigt Hill
#
# Bulk Modulus (GPa) = 24.66354 26.04534 25.35444
# Shear Modulus (GPa) = 50.42337 15.89317 33.15827
#
# Velocity S-wave (km/s) = 5.16862 2.90177 4.19135
# Velocity P-wave (km/s) = 6.97756 5.00260 6.07093
#
# Compressibility (1/GPa) = 0.04054569
#
# Stress axis : x y z
#
# Youngs Moduli (GPa) = 37.03306 37.30465 50.08410
#
# Poissons Ratio (x) = 0.35120 -0.10838
# Poissons Ratio (y) = 0.34864 0.46902
# Poissons Ratio (z) = -0.08014 0.34934
#
# Static dielectric constant tensor:
#      x y z
#    x 3.446470 0.000000 0.000000 
#    y 0.000000 3.383950 0.000000 
#    z 0.000000 0.000000 3.583480 
# 
# 
# High freq. dielectric constant tensor:
#      x y z
#    x 1.732060 0.000000 0.000000 
#    y 0.000000 1.711440 0.000000 
#    z 0.000000 0.000000 1.734590 
# 
# From -- ./inp_files/35675.got.cif
#   From: 2010.03.12/outbox.cif.g09.slc.cpg/sg51_18_cif.got.tgz:35675.got - 2010.04.16 13:43:02.
