data_PCOD8213790
_publ_section_title
;
Structure prediction by ZEFSAII (Michael W. Deem and Ramdas Pophale) SiO2 
 PCOD8213790
Probable space group: P M M A
;
_chemical_formula_sum "Si O2"
_cell_formula_units_Z 48
_cell_length_a 17.880599
_cell_length_b 8.769126
_cell_length_c 16.078174
_cell_angle_alpha 90.000000
_cell_angle_beta 90.000000
_cell_angle_gamma 90.000000
_cell_volume 2521.013076
_symmetry_space_group_name_H-M "P M M A"
_symmetry_group_IT_number 51
_symmetry_cell_setting 'orthorhombic'
loop_
_space_group_symop_operation_xyz
x,y,z
1/2-x,-y,z
1/2+x,-y,-z
-x,y,-z
-x,-y,-z
1/2+x,y,-z
1/2-x,y,z
x,-y,z
loop_
_atom_site_type_symbol
_atom_site_label
_atom_site_fract_x
_atom_site_fract_y
_atom_site_fract_z
Si Si1 0.250000 0.681263 0.292737
Si Si2 0.662609 0.320339 0.437208
Si Si3 0.028677 0.822356 0.868272
Si Si4 0.614205 0.820590 0.607461
Si Si5 0.250000 0.323358 0.107808
Si Si6 0.453701 0.819139 0.682772
Si Si7 0.111464 0.821492 0.029136
O O1 0.250000 0.500000 0.297340
O O2 0.325015 0.738671 0.335826
O O3 0.250000 0.750756 0.199604
O O4 0.750000 0.276035 0.427655
O O5 0.653743 0.500000 0.451149
O O6 0.625099 0.231789 0.513368
O O7 0.617088 0.267021 0.356460
O O8 0.042270 0.753050 0.777023
O O9 0.954621 0.757541 0.912334
O O10 0.015839 0.000000 0.856233
O O11 0.096863 0.790376 0.931307
O O12 0.530797 0.775771 0.636460
O O13 0.626962 0.000000 0.614330
O O14 0.250000 0.500000 0.123047
O O15 0.318699 0.276465 0.052551
O O16 0.439305 0.000000 0.679423
O O17 0.125245 0.000000 0.044652
#
# Coordination Sequence:
#
# PCOD8213790 Si02
#       7
#     4   8   8   8   4   8   8
#     4  11  23  37  55  82 119 156 187 227 282 341
#     4  11  24  41  58  79 114 157 194 230 280 337
#     4   8  16  34  59  85 109 139 184 237 282 323
#     4  11  22  37  61  89 114 144 186 236 289 337
#     4  11  23  35  49  80 119 150 181 223 274 329
#     4  10  21  37  59  88 115 143 189 241 284 334
#     4   9  17  34  60  82 108 146 186 228 278 333
#
# _framework density 19.039964999999999
#
# number of rings (size 3 to 8) (size 9 to 14) (size 15 to 20)
#    0.000    2.000    0.833    4.000    0.000    7.000 
#    1.500    3.333    0.000    0.000    0.000    0.000 
#    0.000    0.000    0.000    0.000    0.000    0.000 
#
# Total GULP energy -595125.806756 kJ/mol
# GULP energy per Si atom -12398.454307 kJ/mol
# Density = 1.899663 g / cm^3
# Si number density = 19.039965 Si / 1000 Ang^3
#
#
#
# Elastic Constant Matrix: (Units=GPa)
#
#
# Indices 1 2 3 4 5 6 
#
# 1 101.2231 31.0276 72.4985 0.0000 0.0000 0.0000
# 2 31.0276 50.0452 29.8908 0.0000 0.0000 0.0000
# 3 72.4985 29.8908 145.4023 0.0000 0.0000 0.0000
# 4 0.0000 0.0000 0.0000 23.2549 0.0000 0.0000
# 5 0.0000 0.0000 0.0000 0.0000 27.9296 0.0000
# 6 0.0000 0.0000 0.0000 0.0000 0.0000 50.3010
#
#
#
# Elastic Compliance Matrix: (Units=1/GPa)
#
#
# Indices 1 2 3 4 5 6 
#
# 1 0.016905 -0.006209 -0.007153 0.000000 0.000000 0.000000
# 2 -0.006209 0.025059 -0.002056 0.000000 0.000000 0.000000
# 3 -0.007153 -0.002056 0.010866 0.000000 0.000000 0.000000
# 4 0.000000 0.000000 0.000000 0.043002 0.000000 0.000000
# 5 0.000000 0.000000 0.000000 0.000000 0.035804 0.000000
# 6 0.000000 0.000000 0.000000 0.000000 0.000000 0.019880
#
#
# Mechanical properties :
#
#
# Convention : Reuss Voigt Hill
#
# Bulk Modulus (GPa) = 45.46222 62.61161 54.03691
# Shear Modulus (GPa) = 26.35960 31.18069 28.77014
#
# Velocity S-wave (km/s) = 3.72484 4.05117 3.89143
# Velocity P-wave (km/s) = 6.51370 7.40529 6.97376
#
# Compressibility (1/GPa) = 0.02199629
#
# Stress axis : x y z
#
# Youngs Moduli (GPa) = 59.15283 39.90536 92.02645
#
# Poissons Ratio (x) = 0.24777 0.65824
# Poissons Ratio (y) = 0.36728 0.18917
# Poissons Ratio (z) = 0.42310 0.08203
#
# Static dielectric constant tensor:
#      x y z
#    x 3.536670 0.000000 0.000000 
#    y 0.000000 3.278960 0.000000 
#    z 0.000000 0.000000 3.861870 
# 
# 
# High freq. dielectric constant tensor:
#      x y z
#    x 1.744080 0.000000 0.000000 
#    y 0.000000 1.722010 0.000000 
#    z 0.000000 0.000000 1.754160 
# 
# From -- ./inp_files/24867.got.cif
#   From: 2010.03.12/outbox.cif.g09.slc.cpg/sg51_13_cif.got.tgz:24867.got - 2010.04.16 13:43:02.
