data_PCOD8213636
_publ_section_title
;
Structure prediction by ZEFSAII (Michael W. Deem and Ramdas Pophale) SiO2 
 PCOD8213636
Probable space group: P M M A
;
_chemical_formula_sum "Si O2"
_cell_formula_units_Z 48
_cell_length_a 15.419681
_cell_length_b 9.305530
_cell_length_c 17.130169
_cell_angle_alpha 90.000000
_cell_angle_beta 90.000000
_cell_angle_gamma 90.000000
_cell_volume 2457.978899
_symmetry_space_group_name_H-M "P M M A"
_symmetry_group_IT_number 51
_symmetry_cell_setting 'orthorhombic'
loop_
_space_group_symop_operation_xyz
x,y,z
1/2-x,-y,z
1/2+x,-y,-z
-x,y,-z
-x,-y,-z
1/2+x,y,-z
1/2-x,y,z
x,-y,z
loop_
_atom_site_type_symbol
_atom_site_label
_atom_site_fract_x
_atom_site_fract_y
_atom_site_fract_z
Si Si1 0.601081 0.658490 0.999448
Si Si2 0.851194 0.840851 0.850234
Si Si3 0.648726 0.156407 0.144039
Si Si4 0.349805 0.667569 0.299396
Si Si5 0.150617 0.831236 0.682463
Si Si6 0.505512 0.332099 0.410437
O O1 0.643925 0.500000 0.989847
O O2 0.626780 0.722219 0.082450
O O3 0.500000 0.641460 0.000000
O O4 0.630553 0.761692 0.930781
O O5 0.750000 0.857764 0.840587
O O6 0.885934 0.751141 0.776579
O O7 0.894326 0.000000 0.851556
O O8 0.750000 0.134663 0.149783
O O9 0.616940 0.204344 0.229843
O O10 0.607921 0.000000 0.120928
O O11 0.250000 0.709560 0.320962
O O12 0.355232 0.500000 0.279091
O O13 0.413667 0.709541 0.370188
O O14 0.250000 0.778926 0.669611
O O15 0.087611 0.749185 0.624345
O O16 0.144063 0.000000 0.666187
O O17 0.500000 0.285487 0.500000
O O18 0.523784 0.500000 0.400861
#
# Coordination Sequence:
#
# PCOD8213636 Si02
#       6
#     8   8   8   8   8   8
#     4  11  24  36  49  77 114 148 184 227 274 327
#     4  10  21  37  57  80 106 141 187 234 279 329
#     4   9  19  37  58  79 106 143 187 232 278 329
#     4   9  19  37  59  82 114 154 191 232 284 339
#     4   9  20  39  61  86 117 153 192 236 288 342
#     4  10  22  38  59  89 120 151 189 234 285 344
#
# _framework density 19.528238000000002
#
# number of rings (size 3 to 8) (size 9 to 14) (size 15 to 20)
#    0.000    2.333    0.000    2.500    2.333    7.333 
#    0.000    3.333    0.000    2.000    0.000    0.000 
#    0.000    0.000    0.000    0.000    0.000    0.000 
#
# Total GULP energy -595048.806725 kJ/mol
# GULP energy per Si atom -12396.850140 kJ/mol
# Density = 1.948379 g / cm^3
# Si number density = 19.528238 Si / 1000 Ang^3
#
#
#
# Elastic Constant Matrix: (Units=GPa)
#
#
# Indices 1 2 3 4 5 6 
#
# 1 72.5219 37.4771 56.0752 0.0000 0.0000 0.0000
# 2 37.4771 104.7210 75.8872 0.0000 0.0000 0.0000
# 3 56.0752 75.8872 160.5907 0.0000 0.0000 0.0000
# 4 0.0000 0.0000 0.0000 36.3420 0.0000 0.0000
# 5 0.0000 0.0000 0.0000 0.0000 38.6737 0.0000
# 6 0.0000 0.0000 0.0000 0.0000 0.0000 20.5076
#
#
#
# Elastic Compliance Matrix: (Units=1/GPa)
#
#
# Indices 1 2 3 4 5 6 
#
# 1 0.019535 -0.003114 -0.005349 0.000000 0.000000 0.000000
# 2 -0.003114 0.015019 -0.006010 0.000000 0.000000 0.000000
# 3 -0.005349 -0.006010 0.010935 0.000000 0.000000 0.000000
# 4 0.000000 0.000000 0.000000 0.027516 0.000000 0.000000
# 5 0.000000 0.000000 0.000000 0.000000 0.025857 0.000000
# 6 0.000000 0.000000 0.000000 0.000000 0.000000 0.048763
#
#
# Mechanical properties :
#
#
# Convention : Reuss Voigt Hill
#
# Bulk Modulus (GPa) = 60.45510 75.19030 67.82270
# Shear Modulus (GPa) = 27.45973 30.33093 28.89533
#
# Velocity S-wave (km/s) = 3.75394 3.94532 3.85082
# Velocity P-wave (km/s) = 7.05793 7.70331 7.38767
#
# Compressibility (1/GPa) = 0.01654120
#
# Stress axis : x y z
#
# Youngs Moduli (GPa) = 51.19112 66.58376 91.45176
#
# Poissons Ratio (x) = 0.20737 0.48921
# Poissons Ratio (y) = 0.15943 0.54959
# Poissons Ratio (z) = 0.27384 0.40014
#
# Static dielectric constant tensor:
#      x y z
#    x 3.560120 0.000000 0.000000 
#    y 0.000000 2.882380 0.000000 
#    z 0.000000 0.000000 3.559600 
# 
# 
# High freq. dielectric constant tensor:
#      x y z
#    x 1.760980 0.000000 0.000000 
#    y 0.000000 1.762790 0.000000 
#    z 0.000000 0.000000 1.759140 
# 
# From -- ./inp_files/29400.got.cif
#   From: 2010.03.12/outbox.cif.g09.slc.cpg/sg51_15_cif.got.tgz:29400.got - 2010.04.16 13:43:02.
