data_PCOD8213793
_publ_section_title
;
Structure prediction by ZEFSAII (Michael W. Deem and Ramdas Pophale) SiO2 
 PCOD8213793
Probable space group: P M M A
;
_chemical_formula_sum "Si O2"
_cell_formula_units_Z 64
_cell_length_a 14.464092
_cell_length_b 9.002200
_cell_length_c 24.095395
_cell_angle_alpha 90.000000
_cell_angle_beta 90.000000
_cell_angle_gamma 90.000000
_cell_volume 3137.428830
_symmetry_space_group_name_H-M "P M M A"
_symmetry_group_IT_number 51
_symmetry_cell_setting 'orthorhombic'
loop_
_space_group_symop_operation_xyz
x,y,z
1/2-x,-y,z
1/2+x,-y,-z
-x,y,-z
-x,-y,-z
1/2+x,y,-z
1/2-x,y,z
x,-y,z
loop_
_atom_site_type_symbol
_atom_site_label
_atom_site_fract_x
_atom_site_fract_y
_atom_site_fract_z
Si Si1 0.357764 0.327528 0.572404
Si Si2 0.360294 0.167772 0.038897
Si Si3 0.991127 0.324565 0.752504
Si Si4 0.640004 0.667116 0.069210
Si Si5 0.357931 0.826726 0.819276
Si Si6 0.643714 0.828997 0.539709
Si Si7 0.355614 0.673230 0.148946
Si Si8 0.009319 0.174976 0.361187
O O1 0.250000 0.296881 0.581695
O O2 0.382776 0.500000 0.576638
O O3 0.389229 0.268865 0.512202
O O4 0.410136 0.237915 0.620334
O O5 0.250000 0.174447 0.037687
O O6 0.396825 0.243507 0.095211
O O7 0.396698 0.000000 0.036611
O O8 0.400964 0.254149 0.985564
O O9 0.002643 0.500000 0.746213
O O10 0.914235 0.280460 0.797599
O O11 0.089282 0.253754 0.769218
O O12 0.958070 0.254256 0.694897
O O13 0.750000 0.665888 0.066122
O O14 0.600827 0.500000 0.073233
O O15 0.606776 0.757344 0.122951
O O16 0.250000 0.796772 0.809967
O O17 0.381286 0.000000 0.819720
O O18 0.750000 0.798088 0.554655
O O19 0.584923 0.782159 0.592888
O O20 0.626698 0.000000 0.523458
O O21 0.250000 0.720898 0.160580
O O22 0.362973 0.500000 0.136132
O O23 0.001912 0.000000 0.351409
#
# Coordination Sequence:
#
# PCOD8213793 Si02
#       8
#     8   8   8   8   8   8   8   8
#     4  10  21  37  59  88 119 150 185 227 275 325
#     4   9  16  27  48  79 110 140 177 222 274 331
#     4  11  24  40  58  81 110 146 189 234 276 324
#     4   9  16  28  50  79 109 141 177 220 274 335
#     4  10  21  38  59  81 108 143 182 228 281 334
#     4   9  19  37  60  87 119 152 185 223 271 327
#     4   9  19  37  58  79 107 144 183 225 277 333
#     4  11  23  38  58  83 113 151 190 229 274 323
#
# _framework density 20.398869000000001
#
# number of rings (size 3 to 8) (size 9 to 14) (size 15 to 20)
#    0.000    2.250    0.000    2.625    0.000    9.000 
#    0.000    0.625    0.000    3.750    0.000    0.000 
#    0.000    0.000    0.000    0.000    0.000    0.000 
#
# Total GULP energy -793916.180421 kJ/mol
# GULP energy per Si atom -12404.940319 kJ/mol
# Density = 2.035244 g / cm^3
# Si number density = 20.398869 Si / 1000 Ang^3
#
#
#
# Elastic Constant Matrix: (Units=GPa)
#
#
# Indices 1 2 3 4 5 6 
#
# 1 40.1553 19.8683 20.4174 0.0000 0.0000 0.0000
# 2 19.8683 92.1197 34.2924 0.0000 0.0000 0.0000
# 3 20.4174 34.2924 100.2128 0.0000 0.0000 0.0000
# 4 0.0000 0.0000 0.0000 44.9053 0.0000 0.0000
# 5 0.0000 0.0000 0.0000 0.0000 27.1541 0.0000
# 6 0.0000 0.0000 0.0000 0.0000 0.0000 21.8584
#
#
#
# Elastic Compliance Matrix: (Units=1/GPa)
#
#
# Indices 1 2 3 4 5 6 
#
# 1 0.029471 -0.004723 -0.004388 0.000000 0.000000 0.000000
# 2 -0.004723 0.013197 -0.003554 0.000000 0.000000 0.000000
# 3 -0.004388 -0.003554 0.012089 0.000000 0.000000 0.000000
# 4 0.000000 0.000000 0.000000 0.022269 0.000000 0.000000
# 5 0.000000 0.000000 0.000000 0.000000 0.036827 0.000000
# 6 0.000000 0.000000 0.000000 0.000000 0.000000 0.045749
#
#
# Mechanical properties :
#
#
# Convention : Reuss Voigt Hill
#
# Bulk Modulus (GPa) = 33.98180 42.40489 38.19335
# Shear Modulus (GPa) = 25.67509 29.31087 27.49298
#
# Velocity S-wave (km/s) = 3.55160 3.79474 3.67518
# Velocity P-wave (km/s) = 5.78907 6.32717 6.06409
#
# Compressibility (1/GPa) = 0.02942752
#
# Stress axis : x y z
#
# Youngs Moduli (GPa) = 33.93118 75.77513 82.72031
#
# Poissons Ratio (x) = 0.35787 0.36301
# Poissons Ratio (y) = 0.16025 0.29396
# Poissons Ratio (z) = 0.14890 0.26928
#
# Static dielectric constant tensor:
#      x y z
#    x 3.586530 0.000000 0.000000 
#    y 0.000000 3.760750 0.000000 
#    z 0.000000 0.000000 3.707180 
# 
# 
# High freq. dielectric constant tensor:
#      x y z
#    x 1.791320 0.000000 0.000000 
#    y 0.000000 1.804460 0.000000 
#    z 0.000000 0.000000 1.796670 
# 
# From -- ./inp_files/35747.got.cif
#   From: 2010.03.12/outbox.cif.g09.slc.cpg/sg51_18_cif.got.tgz:35747.got - 2010.04.16 13:43:02.
