data_PCOD8213622
_publ_section_title
;
Structure prediction by ZEFSAII (Michael W. Deem and Ramdas Pophale) SiO2 
 PCOD8213622
Probable space group: P M M A
;
_chemical_formula_sum "Si O2"
_cell_formula_units_Z 48
_cell_length_a 9.483856
_cell_length_b 8.838245
_cell_length_c 31.301927
_cell_angle_alpha 90.000000
_cell_angle_beta 90.000000
_cell_angle_gamma 90.000000
_cell_volume 2623.747644
_symmetry_space_group_name_H-M "P M M A"
_symmetry_group_IT_number 51
_symmetry_cell_setting 'orthorhombic'
loop_
_space_group_symop_operation_xyz
x,y,z
1/2-x,-y,z
1/2+x,-y,-z
-x,y,-z
-x,-y,-z
1/2+x,y,-z
1/2-x,y,z
x,-y,z
loop_
_atom_site_type_symbol
_atom_site_label
_atom_site_fract_x
_atom_site_fract_y
_atom_site_fract_z
Si Si1 0.091708 0.181383 0.961312
Si Si2 0.582987 0.165437 0.129918
Si Si3 0.586996 0.673896 0.459416
Si Si4 0.087267 0.322129 0.296892
Si Si5 0.586882 0.823403 0.371462
Si Si6 0.909902 0.819194 0.222315
O O1 0.250000 0.236930 0.969828
O O2 0.035798 0.245311 0.914877
O O3 0.084023 0.000000 0.959884
O O4 0.000000 0.248589 0.000000
O O5 0.750000 0.146070 0.127348
O O6 0.546509 0.247021 0.175094
O O7 0.511791 0.000000 0.131404
O O8 0.500000 0.732836 0.500000
O O9 0.750000 0.693676 0.470891
O O10 0.549933 0.500000 0.448743
O O11 0.543923 0.775790 0.419179
O O12 0.250000 0.273107 0.299520
O O13 0.069940 0.500000 0.292537
O O14 0.009792 0.268717 0.339380
O O15 0.019036 0.245679 0.255792
O O16 0.750000 0.782537 0.362563
O O17 0.558753 0.000000 0.365155
O O18 0.750000 0.768916 0.234056
O O19 0.917985 0.000000 0.222068
#
# Coordination Sequence:
#
# PCOD8213622 Si02
#       6
#     8   8   8   8   8   8
#     4   8  12  18  29  47  75 111 147 181 218 264
#     4   7  11  21  37  57  82 113 148 186 229 276
#     4   9  18  33  53  77 106 139 172 205 241 282
#     4  11  24  38  51  71 100 131 162 199 246 298
#     4  10  21  37  57  80 104 132 169 209 246 288
#     4   9  17  31  52  74  94 121 160 202 243 290
#
# _framework density 18.294440999999999
#
# number of rings (size 3 to 8) (size 9 to 14) (size 15 to 20)
#    0.000    3.000    0.000    3.500    0.000    5.667 
#    0.000    2.500    0.000    3.000    0.000    0.000 
#    0.000    0.667    0.000    1.500    0.000    4.333 
#
# Total GULP energy -594742.585004 kJ/mol
# GULP energy per Si atom -12390.470521 kJ/mol
# Density = 1.825280 g / cm^3
# Si number density = 18.294441 Si / 1000 Ang^3
#
#
#
# Elastic Constant Matrix: (Units=GPa)
#
#
# Indices 1 2 3 4 5 6 
#
# 1 80.5477 21.7738 70.3688 0.0000 0.0000 0.0000
# 2 21.7738 23.9990 19.5732 0.0000 0.0000 0.0000
# 3 70.3688 19.5732 156.2227 0.0000 0.0000 0.0000
# 4 0.0000 0.0000 0.0000 -14.4299 0.0000 0.0000
# 5 0.0000 0.0000 0.0000 0.0000 33.7737 0.0000
# 6 0.0000 0.0000 0.0000 0.0000 0.0000 17.5492
#
#
#
# Elastic Compliance Matrix: (Units=1/GPa)
#
#
# Indices 1 2 3 4 5 6 
#
# 1 0.024355 -0.014646 -0.009136 0.000000 0.000000 0.000000
# 2 -0.014646 0.055219 -0.000321 0.000000 0.000000 0.000000
# 3 -0.009136 -0.000321 0.010556 0.000000 0.000000 0.000000
# 4 0.000000 0.000000 0.000000 -0.069301 0.000000 0.000000
# 5 0.000000 0.000000 0.000000 0.000000 0.029609 0.000000
# 6 0.000000 0.000000 0.000000 0.000000 0.000000 0.056983
#
#
# Mechanical properties :
#
#
# Convention : Reuss Voigt Hill
#
# Bulk Modulus (GPa) = 23.85246 53.80011 38.82629
# Shear Modulus (GPa) = 29.48086 17.31551 23.39819
#
# Velocity S-wave (km/s) = 4.01866 3.07985 3.58016
# Velocity P-wave (km/s) = 5.88211 6.48992 6.19347
#
# Compressibility (1/GPa) = 0.04192439
#
# Stress axis : x y z
#
# Youngs Moduli (GPa) = 41.05885 18.10985 94.72973
#
# Poissons Ratio (x) = 0.26524 0.86541
# Poissons Ratio (y) = 0.60136 0.03042
# Poissons Ratio (z) = 0.37509 0.00582
#
# Static dielectric constant tensor:
#      x y z
#    x 3.273440 0.000000 0.000000 
#    y 0.000000 2.988380 0.000000 
#    z 0.000000 0.000000 3.873800 
# 
# 
# High freq. dielectric constant tensor:
#      x y z
#    x 1.685290 0.000000 0.000000 
#    y 0.000000 1.665460 0.000000 
#    z 0.000000 0.000000 1.736060 
# 
# From -- ./inp_files/37025.got.cif
#   From: 2010.03.12/outbox.cif.g09.slc.cpg/sg51_19_cif.got.tgz:37025.got - 2010.04.16 13:43:02.
