data_PCOD8213156
_publ_section_title
;
Structure prediction by ZEFSAII (Michael W. Deem and Ramdas Pophale) SiO2 
 PCOD8213156
Probable space group: P M M A
;
_chemical_formula_sum "Si O2"
_cell_formula_units_Z 48
_cell_length_a 19.313927
_cell_length_b 7.723260
_cell_length_c 16.491616
_cell_angle_alpha 90.000000
_cell_angle_beta 90.000000
_cell_angle_gamma 90.000000
_cell_volume 2459.996306
_symmetry_space_group_name_H-M "P M M A"
_symmetry_group_IT_number 51
_symmetry_cell_setting 'orthorhombic'
loop_
_space_group_symop_operation_xyz
x,y,z
1/2-x,-y,z
1/2+x,-y,-z
-x,y,-z
-x,-y,-z
1/2+x,y,-z
1/2-x,y,z
x,-y,z
loop_
_atom_site_type_symbol
_atom_site_label
_atom_site_fract_x
_atom_site_fract_y
_atom_site_fract_z
Si Si1 0.830433 0.699930 0.133472
Si Si2 0.896828 0.500000 0.555420
Si Si3 0.940851 0.804473 0.256342
Si Si4 0.325058 0.301041 0.044393
Si Si5 0.450217 0.500000 0.621661
Si Si6 0.088286 0.798599 0.193656
Si Si7 0.668760 0.198697 0.648414
O O1 0.750000 0.726513 0.154713
O O2 0.852317 0.500000 0.141718
O O3 0.875265 0.807266 0.197400
O O4 0.846490 0.776974 0.043321
O O5 0.905451 0.500000 0.459450
O O6 0.854909 0.674734 0.576555
O O7 0.968807 0.500000 0.602984
O O8 0.929537 0.673481 0.330343
O O9 0.008679 0.745064 0.205905
O O10 0.951681 0.000000 0.290555
O O11 0.250000 0.222729 0.072986
O O12 0.312903 0.500000 0.025517
O O13 0.384632 0.282312 0.110489
O O14 0.132976 0.731839 0.269624
O O15 0.098971 0.000000 0.184250
O O16 0.750000 0.213226 0.661266
O O17 0.646796 0.000000 0.628231
#
# Coordination Sequence:
#
# PCOD8213156 Si02
#       7
#     8   4   8   8   4   8   8
#     4   9  19  38  60  83 116 157 204 255 299 344
#     4  11  23  40  66  91 114 156 202 233 299 368
#     4  11  23  40  62  89 120 155 199 246 299 357
#     4   9  19  33  53  84 118 158 204 245 291 345
#     4  11  24  42  64  90 118 150 194 252 298 351
#     4  10  21  35  53  83 121 157 197 241 286 348
#     4  10  21  38  60  90 127 160 194 241 295 354
#
# _framework density 19.512222999999999
#
# number of rings (size 3 to 8) (size 9 to 14) (size 15 to 20)
#    0.000    2.000    2.500    1.750    2.333    3.333 
#    0.000    8.333    0.000    0.000    0.000    0.000 
#    0.000    0.000    0.000    0.000    0.000    0.000 
#
# Total GULP energy -595136.432186 kJ/mol
# GULP energy per Si atom -12398.675671 kJ/mol
# Density = 1.946781 g / cm^3
# Si number density = 19.512223 Si / 1000 Ang^3
#
#
#
# Elastic Constant Matrix: (Units=GPa)
#
#
# Indices 1 2 3 4 5 6 
#
# 1 101.4529 33.3427 61.7639 0.0000 0.0000 0.0000
# 2 33.3427 84.9425 49.6874 0.0000 0.0000 0.0000
# 3 61.7639 49.6874 127.2511 0.0000 0.0000 0.0000
# 4 0.0000 0.0000 0.0000 6.9452 0.0000 0.0000
# 5 0.0000 0.0000 0.0000 0.0000 31.7354 0.0000
# 6 0.0000 0.0000 0.0000 0.0000 0.0000 26.2000
#
#
#
# Elastic Compliance Matrix: (Units=1/GPa)
#
#
# Indices 1 2 3 4 5 6 
#
# 1 0.014250 -0.002006 -0.006133 0.000000 0.000000 0.000000
# 2 -0.002006 0.015540 -0.005094 0.000000 0.000000 0.000000
# 3 -0.006133 -0.005094 0.012825 0.000000 0.000000 0.000000
# 4 0.000000 0.000000 0.000000 0.143985 0.000000 0.000000
# 5 0.000000 0.000000 0.000000 0.000000 0.031511 0.000000
# 6 0.000000 0.000000 0.000000 0.000000 0.000000 0.038168
#
#
# Mechanical properties :
#
#
# Convention : Reuss Voigt Hill
#
# Bulk Modulus (GPa) = 61.92869 67.02606 64.47737
# Shear Modulus (GPa) = 17.35347 24.23294 20.79320
#
# Velocity S-wave (km/s) = 2.98546 3.52793 3.26797
# Velocity P-wave (km/s) = 6.60993 7.14286 6.88156
#
# Compressibility (1/GPa) = 0.01614761
#
# Stress axis : x y z
#
# Youngs Moduli (GPa) = 70.17584 64.35034 77.97570
#
# Poissons Ratio (x) = 0.12908 0.47824
# Poissons Ratio (y) = 0.14076 0.39723
# Poissons Ratio (z) = 0.43041 0.32782
#
# Static dielectric constant tensor:
#      x y z
#    x 3.530670 0.000000 0.000000 
#    y 0.000000 3.553720 0.000000 
#    z 0.000000 0.000000 3.475400 
# 
# 
# High freq. dielectric constant tensor:
#      x y z
#    x 1.760580 0.000000 0.000000 
#    y 0.000000 1.761080 0.000000 
#    z 0.000000 0.000000 1.746030 
# 
# From -- ./inp_files/24989.got.cif
#   From: 2010.03.12/outbox.cif.g09.slc.cpg/sg51_13_cif.got.tgz:24989.got - 2010.04.16 13:43:02.
