data_PCOD8213955
_publ_section_title
;
Structure prediction by ZEFSAII (Michael W. Deem and Ramdas Pophale) SiO2 
 PCOD8213955
Probable space group: P M M A
;
_chemical_formula_sum "Si O2"
_cell_formula_units_Z 48
_cell_length_a 30.117475
_cell_length_b 8.536536
_cell_length_c 9.453553
_cell_angle_alpha 90.000000
_cell_angle_beta 90.000000
_cell_angle_gamma 90.000000
_cell_volume 2430.498168
_symmetry_space_group_name_H-M "P M M A"
_symmetry_group_IT_number 51
_symmetry_cell_setting 'orthorhombic'
loop_
_space_group_symop_operation_xyz
x,y,z
1/2-x,-y,z
1/2+x,-y,-z
-x,y,-z
-x,-y,-z
1/2+x,y,-z
1/2-x,y,z
x,-y,z
loop_
_atom_site_type_symbol
_atom_site_label
_atom_site_fract_x
_atom_site_fract_y
_atom_site_fract_z
Si Si1 0.373000 0.816691 0.144107
Si Si2 0.301520 0.319208 0.338983
Si Si3 0.550005 0.185575 0.336121
Si Si4 0.300512 0.181199 0.635186
Si Si5 0.549836 0.184971 0.654011
Si Si6 0.371203 0.318658 0.837062
O O1 0.327815 0.788683 0.229533
O O2 0.414130 0.749047 0.236250
O O3 0.378430 0.000000 0.110475
O O4 0.372073 0.719229 0.001561
O O5 0.250000 0.279124 0.317691
O O6 0.312024 0.500000 0.308664
O O7 0.315931 0.279696 0.499010
O O8 0.560440 0.244611 0.495426
O O9 0.499543 0.233968 0.297393
O O10 0.581475 0.275264 0.228534
O O11 0.557362 0.000000 0.320814
O O12 0.250000 0.222230 0.678139
O O13 0.331649 0.220984 0.766517
O O14 0.305689 0.000000 0.595672
O O15 0.552816 0.000000 0.648514
O O16 0.361202 0.500000 0.814222
#
# Coordination Sequence:
#
# PCOD8213955 Si02
#       6
#     8   8   8   8   8   8
#     4  11  22  37  57  82 113 152 195 233 274 329
#     4  10  21  38  60  87 118 149 181 224 280 335
#     4   9  17  36  62  85 109 140 184 233 281 336
#     4  10  21  39  63  87 109 141 188 234 275 329
#     4   8  17  34  60  87 108 138 183 235 282 328
#     4  12  25  38  53  80 117 153 187 230 288 339
#
# _framework density 19.749037999999999
#
# number of rings (size 3 to 8) (size 9 to 14) (size 15 to 20)
#    0.000    2.000    0.000    5.000    0.000    4.667 
#    0.000    7.500    0.000    0.000    0.000    0.000 
#    0.000    0.000    0.000    0.000    0.000    0.000 
#
# Total GULP energy -595354.636975 kJ/mol
# GULP energy per Si atom -12403.221604 kJ/mol
# Density = 1.970409 g / cm^3
# Si number density = 19.749038 Si / 1000 Ang^3
#
#
#
# Elastic Constant Matrix: (Units=GPa)
#
#
# Indices 1 2 3 4 5 6 
#
# 1 111.0885 20.5938 65.4880 0.0000 0.0000 0.0000
# 2 20.5938 48.3332 10.3434 0.0000 0.0000 0.0000
# 3 65.4880 10.3434 113.3950 0.0000 0.0000 0.0000
# 4 0.0000 0.0000 0.0000 29.0689 0.0000 0.0000
# 5 0.0000 0.0000 0.0000 0.0000 16.4431 0.0000
# 6 0.0000 0.0000 0.0000 0.0000 0.0000 18.6836
#
#
#
# Elastic Compliance Matrix: (Units=1/GPa)
#
#
# Indices 1 2 3 4 5 6 
#
# 1 0.014544 -0.004487 -0.007990 0.000000 0.000000 0.000000
# 2 -0.004487 0.022486 0.000540 0.000000 0.000000 0.000000
# 3 -0.007990 0.000540 0.013384 0.000000 0.000000 0.000000
# 4 0.000000 0.000000 0.000000 0.034401 0.000000 0.000000
# 5 0.000000 0.000000 0.000000 0.000000 0.060816 0.000000
# 6 0.000000 0.000000 0.000000 0.000000 0.000000 0.053523
#
#
# Mechanical properties :
#
#
# Convention : Reuss Voigt Hill
#
# Bulk Modulus (GPa) = 37.67890 51.74079 44.70984
# Shear Modulus (GPa) = 21.56347 24.59856 23.08101
#
# Velocity S-wave (km/s) = 3.30794 3.53307 3.42236
# Velocity P-wave (km/s) = 5.80605 6.54977 6.18909
#
# Compressibility (1/GPa) = 0.02654006
#
# Stress axis : x y z
#
# Youngs Moduli (GPa) = 68.75729 44.47228 74.71648
#
# Poissons Ratio (x) = 0.19955 0.59700
# Poissons Ratio (y) = 0.30851 -0.04037
# Poissons Ratio (z) = 0.54938 -0.02403
#
# Static dielectric constant tensor:
#      x y z
#    x 3.858640 0.000000 0.000000 
#    y 0.000000 3.383380 0.000000 
#    z 0.000000 0.000000 3.593210 
# 
# 
# High freq. dielectric constant tensor:
#      x y z
#    x 1.782310 0.000000 0.000000 
#    y 0.000000 1.756230 0.000000 
#    z 0.000000 0.000000 1.766580 
# 
# From -- ./inp_files/12789.got.cif
#   From: 2010.03.12/outbox.cif.g09.slc.cpg/sg51_7_cif.got.tgz:12789.got - 2010.04.16 13:43:02.
