data_PCOD8213679
_publ_section_title
;
Structure prediction by ZEFSAII (Michael W. Deem and Ramdas Pophale) SiO2 
 PCOD8213679
Probable space group: P M M A
;
_chemical_formula_sum "Si O2"
_cell_formula_units_Z 48
_cell_length_a 18.579998
_cell_length_b 8.948283
_cell_length_c 15.027758
_cell_angle_alpha 90.000000
_cell_angle_beta 90.000000
_cell_angle_gamma 90.000000
_cell_volume 2498.501223
_symmetry_space_group_name_H-M "P M M A"
_symmetry_group_IT_number 51
_symmetry_cell_setting 'orthorhombic'
loop_
_space_group_symop_operation_xyz
x,y,z
1/2-x,-y,z
1/2+x,-y,-z
-x,y,-z
-x,-y,-z
1/2+x,y,-z
1/2-x,y,z
x,-y,z
loop_
_atom_site_type_symbol
_atom_site_label
_atom_site_fract_x
_atom_site_fract_y
_atom_site_fract_z
Si Si1 0.666784 0.827735 0.006198
Si Si2 0.667549 0.672129 0.504482
Si Si3 0.410883 0.823845 0.340669
Si Si4 0.940601 0.673248 0.351106
Si Si5 0.072600 0.670996 0.851325
Si Si6 0.907329 0.326118 0.845022
O O1 0.750000 0.799210 0.027438
O O2 0.645176 0.730610 0.921364
O O3 0.650727 0.000000 0.985057
O O4 0.622016 0.780558 0.092429
O O5 0.750000 0.698885 0.478512
O O6 0.652407 0.500000 0.529100
O O7 0.648547 0.773738 0.588487
O O8 0.621298 0.721420 0.419055
O O9 0.488501 0.767166 0.373378
O O10 0.388617 0.758295 0.245589
O O11 0.412140 0.000000 0.333163
O O12 0.962129 0.500000 0.360016
O O13 0.912351 0.706217 0.251957
O O14 0.092103 0.500000 0.874852
O O15 0.989446 0.703564 0.874432
O O16 0.893935 0.500000 0.828060
#
# Coordination Sequence:
#
# PCOD8213679 Si02
#       6
#     8   8   8   8   8   8
#     4  11  24  38  53  80 117 151 181 218 270 330
#     4  10  21  37  57  81 111 149 189 228 273 323
#     4  11  22  36  57  84 113 145 181 225 278 332
#     4   9  19  37  60  84 110 142 185 233 272 316
#     4   9  19  36  59  85 109 138 182 231 274 319
#     4  10  21  39  62  84 106 139 186 234 275 320
#
# _framework density 19.211517000000001
#
# number of rings (size 3 to 8) (size 9 to 14) (size 15 to 20)
#    0.000    2.000    0.000    4.500    0.000   11.000 
#    0.000    1.667    0.000    0.000    0.000    0.000 
#    0.000    0.000    0.000    0.000    0.000    0.000 
#
# Total GULP energy -595458.027193 kJ/mol
# GULP energy per Si atom -12405.375567 kJ/mol
# Density = 1.916779 g / cm^3
# Si number density = 19.211517 Si / 1000 Ang^3
#
#
#
# Elastic Constant Matrix: (Units=GPa)
#
#
# Indices 1 2 3 4 5 6 
#
# 1 62.0755 34.7284 32.8956 0.0000 0.0000 0.0000
# 2 34.7284 94.5770 36.0555 0.0000 0.0000 0.0000
# 3 32.8956 36.0555 83.4839 0.0000 0.0000 0.0000
# 4 0.0000 0.0000 0.0000 15.6880 0.0000 0.0000
# 5 0.0000 0.0000 0.0000 0.0000 11.6918 0.0000
# 6 0.0000 0.0000 0.0000 0.0000 0.0000 27.4817
#
#
#
# Elastic Compliance Matrix: (Units=1/GPa)
#
#
# Indices 1 2 3 4 5 6 
#
# 1 0.022840 -0.005933 -0.006438 0.000000 0.000000 0.000000
# 2 -0.005933 0.014198 -0.003794 0.000000 0.000000 0.000000
# 3 -0.006438 -0.003794 0.016154 0.000000 0.000000 0.000000
# 4 0.000000 0.000000 0.000000 0.063743 0.000000 0.000000
# 5 0.000000 0.000000 0.000000 0.000000 0.085530 0.000000
# 6 0.000000 0.000000 0.000000 0.000000 0.000000 0.036388
#
#
# Mechanical properties :
#
#
# Convention : Reuss Voigt Hill
#
# Bulk Modulus (GPa) = 47.93193 49.72170 48.82681
# Shear Modulus (GPa) = 17.97682 20.06943 19.02312
#
# Velocity S-wave (km/s) = 3.06229 3.23562 3.15015
# Velocity P-wave (km/s) = 6.12432 6.31636 6.22108
#
# Compressibility (1/GPa) = 0.02086292
#
# Stress axis : x y z
#
# Youngs Moduli (GPa) = 43.78311 70.43077 61.90517
#
# Poissons Ratio (x) = 0.41783 0.39852
# Poissons Ratio (y) = 0.25975 0.23489
# Poissons Ratio (z) = 0.28186 0.26724
#
# Static dielectric constant tensor:
#      x y z
#    x 3.451430 0.000000 0.000000 
#    y 0.000000 3.488070 0.000000 
#    z 0.000000 0.000000 3.607900 
# 
# 
# High freq. dielectric constant tensor:
#      x y z
#    x 1.741530 0.000000 0.000000 
#    y 0.000000 1.745730 0.000000 
#    z 0.000000 0.000000 1.758440 
# 
# From -- ./inp_files/24709.got.cif
#   From: 2010.03.12/outbox.cif.g09.slc.cpg/sg51_13_cif.got.tgz:24709.got - 2010.04.16 13:43:02.
