data_PCOD8213240
_publ_section_title
;
Structure prediction by ZEFSAII (Michael W. Deem and Ramdas Pophale) SiO2 
 PCOD8213240
Probable space group: P M M A
;
_chemical_formula_sum "Si O2"
_cell_formula_units_Z 40
_cell_length_a 9.103333
_cell_length_b 9.731197
_cell_length_c 25.628534
_cell_angle_alpha 90.000000
_cell_angle_beta 90.000000
_cell_angle_gamma 90.000000
_cell_volume 2270.337688
_symmetry_space_group_name_H-M "P M M A"
_symmetry_group_IT_number 51
_symmetry_cell_setting 'orthorhombic'
loop_
_space_group_symop_operation_xyz
x,y,z
1/2-x,-y,z
1/2+x,-y,-z
-x,y,-z
-x,-y,-z
1/2+x,y,-z
1/2-x,y,z
x,-y,z
loop_
_atom_site_type_symbol
_atom_site_label
_atom_site_fract_x
_atom_site_fract_y
_atom_site_fract_z
Si Si1 0.415805 0.663677 0.550448
Si Si2 0.080608 0.839085 0.136881
Si Si3 0.921895 0.341930 0.052965
Si Si4 0.924346 0.848248 0.746066
Si Si5 0.922560 0.658473 0.653716
O O1 0.500000 0.723286 0.500000
O O2 0.250000 0.720150 0.550063
O O3 0.418106 0.500000 0.548810
O O4 0.496857 0.715992 0.602442
O O5 0.250000 0.796844 0.128307
O O6 0.028422 0.803826 0.195751
O O7 0.977792 0.751563 0.099701
O O8 0.059221 0.000000 0.125338
O O9 0.750000 0.318883 0.045543
O O10 0.960047 0.500000 0.065757
O O11 0.000000 0.294146 0.000000
O O12 0.750000 0.852862 0.744214
O O13 0.984751 0.741010 0.703549
O O14 0.986916 0.000000 0.733110
O O15 0.750000 0.680823 0.645348
O O16 0.960667 0.500000 0.663738
#
# Coordination Sequence:
#
# PCOD8213240 Si02
#       5
#     8   8   8   8   8
#     4   9  16  26  41  62  89 119 149 185 230 275
#     4   9  18  33  53  76 100 128 164 202 239 283
#     4  10  21  36  53  74 100 130 163 199 242 290
#     4   8  15  29  48  69  94 124 156 189 227 273
#     4   9  16  26  43  68  93 117 150 189 226 268
#
# _framework density 17.618524000000001
#
# number of rings (size 3 to 8) (size 9 to 14) (size 15 to 20)
#    0.000    3.000    0.000    2.400    0.000    5.200 
#    0.000    3.000    0.000    4.800    0.000    0.000 
#    0.000    0.000    0.000    0.000    0.000    0.000 
#
# Total GULP energy -495933.798222 kJ/mol
# GULP energy per Si atom -12398.344956 kJ/mol
# Density = 1.757842 g / cm^3
# Si number density = 17.618524 Si / 1000 Ang^3
#
#
#
# Elastic Constant Matrix: (Units=GPa)
#
#
# Indices 1 2 3 4 5 6 
#
# 1 73.8833 35.3542 61.8197 0.0000 0.0000 0.0000
# 2 35.3542 59.6079 72.2171 0.0000 0.0000 0.0000
# 3 61.8197 72.2171 172.9597 0.0000 0.0000 0.0000
# 4 0.0000 0.0000 0.0000 3.6826 0.0000 0.0000
# 5 0.0000 0.0000 0.0000 0.0000 31.5763 0.0000
# 6 0.0000 0.0000 0.0000 0.0000 0.0000 18.7390
#
#
#
# Elastic Compliance Matrix: (Units=1/GPa)
#
#
# Indices 1 2 3 4 5 6 
#
# 1 0.020535 -0.006653 -0.004562 0.000000 0.000000 0.000000
# 2 -0.006653 0.036106 -0.012698 0.000000 0.000000 0.000000
# 3 -0.004562 -0.012698 0.012714 0.000000 0.000000 0.000000
# 4 0.000000 0.000000 0.000000 0.271548 0.000000 0.000000
# 5 0.000000 0.000000 0.000000 0.000000 0.031669 0.000000
# 6 0.000000 0.000000 0.000000 0.000000 0.000000 0.053365
#
#
# Mechanical properties :
#
#
# Convention : Reuss Voigt Hill
#
# Bulk Modulus (GPa) = 46.44606 71.69252 59.06929
# Shear Modulus (GPa) = 10.39632 19.93691 15.16662
#
# Velocity S-wave (km/s) = 2.43179 3.36756 2.93718
# Velocity P-wave (km/s) = 5.85697 7.47666 6.71582
#
# Compressibility (1/GPa) = 0.02153035
#
# Stress axis : x y z
#
# Youngs Moduli (GPa) = 48.69628 27.69641 78.65326
#
# Poissons Ratio (x) = 0.18426 0.35882
# Poissons Ratio (y) = 0.32396 0.99871
# Poissons Ratio (z) = 0.22216 0.35168
#
# Static dielectric constant tensor:
#      x y z
#    x 3.116950 0.000000 0.000000 
#    y 0.000000 3.151830 0.000000 
#    z 0.000000 0.000000 3.504370 
# 
# 
# High freq. dielectric constant tensor:
#      x y z
#    x 1.663620 0.000000 0.000000 
#    y 0.000000 1.653900 0.000000 
#    z 0.000000 0.000000 1.694330 
# 
# From -- ./inp_files/31368.got.cif
#   From: 2010.03.12/outbox.cif.g09.slc.cpg/sg51_16_cif.got.tgz:31368.got - 2010.04.16 13:43:02.
