data_PCOD8213039
_publ_section_title
;
Structure prediction by ZEFSAII (Michael W. Deem and Ramdas Pophale) SiO2 
 PCOD8213039
Probable space group: P M M A
;
_chemical_formula_sum "Si O2"
_cell_formula_units_Z 64
_cell_length_a 9.525030
_cell_length_b 9.397770
_cell_length_c 40.889309
_cell_angle_alpha 90.000000
_cell_angle_beta 90.000000
_cell_angle_gamma 90.000000
_cell_volume 3660.167290
_symmetry_space_group_name_H-M "P M M A"
_symmetry_group_IT_number 51
_symmetry_cell_setting 'orthorhombic'
loop_
_space_group_symop_operation_xyz
x,y,z
1/2-x,-y,z
1/2+x,-y,-z
-x,y,-z
-x,-y,-z
1/2+x,y,-z
1/2-x,y,z
x,-y,z
loop_
_atom_site_type_symbol
_atom_site_label
_atom_site_fract_x
_atom_site_fract_y
_atom_site_fract_z
Si Si1 0.912181 0.334924 0.905736
Si Si2 0.587656 0.165366 0.969005
Si Si3 0.083497 0.657425 0.346694
Si Si4 0.913895 0.834385 0.220454
Si Si5 0.582736 0.159672 0.593817
Si Si6 0.413727 0.665057 0.273079
Si Si7 0.412866 0.335780 0.843359
Si Si8 0.412736 0.664948 0.468566
O O1 0.750000 0.302133 0.898343
O O2 0.938744 0.500000 0.912913
O O3 0.965590 0.249132 0.937219
O O4 0.000356 0.282879 0.874623
O O5 0.750000 0.197830 0.976178
O O6 0.559860 0.000000 0.962457
O O7 0.500000 0.220347 0.000000
O O8 0.250000 0.650704 0.349544
O O9 0.022504 0.500000 0.353901
O O10 0.021512 0.766572 0.373402
O O11 0.042508 0.705554 0.310132
O O12 0.750000 0.808355 0.226765
O O13 0.962230 0.758408 0.187149
O O14 0.997322 0.767010 0.250261
O O15 0.950832 0.000000 0.217686
O O16 0.750000 0.159554 0.594974
O O17 0.530676 0.245571 0.562147
O O18 0.522896 0.000000 0.592111
O O19 0.250000 0.694604 0.267061
O O20 0.448600 0.500000 0.265974
O O21 0.250000 0.312340 0.851316
O O22 0.445992 0.500000 0.835122
O O23 0.500000 0.714335 0.500000
O O24 0.250000 0.696148 0.475694
O O25 0.438374 0.500000 0.460443
#
# Coordination Sequence:
#
# PCOD8213039 Si02
#       8
#     8   8   8   8   8   8   8   8
#     4   9  18  32  49  70  95 121 151 191 237 279
#     4   9  18  32  48  67  93 124 155 186 224 272
#     4   8  14  26  44  66  92 119 148 186 229 271
#     4  10  21  35  50  71 100 132 164 198 238 286
#     4   9  16  25  40  64  91 118 148 182 223 271
#     4   9  18  32  51  75  99 124 158 199 241 284
#     4   9  18  33  51  69  91 122 159 196 234 278
#     4   9  17  29  45  64  86 114 148 185 224 266
#
# _framework density 17.48554
#
# number of rings (size 3 to 8) (size 9 to 14) (size 15 to 20)
#    0.000    3.000    0.000    1.500    0.000    5.000 
#    0.000    2.500    0.000    0.750    0.000    1.750 
#    0.000    0.000    0.000    0.000    0.000    0.000 
#
# Total GULP energy -793597.632600 kJ/mol
# GULP energy per Si atom -12399.963009 kJ/mol
# Density = 1.744574 g / cm^3
# Si number density = 17.485540 Si / 1000 Ang^3
#
#
#
# Elastic Constant Matrix: (Units=GPa)
#
#
# Indices 1 2 3 4 5 6 
#
# 1 39.9323 38.1594 58.0336 0.0000 0.0000 0.0000
# 2 38.1594 103.1821 96.1997 0.0000 0.0000 0.0000
# 3 58.0336 96.1997 182.8276 0.0000 0.0000 0.0000
# 4 0.0000 0.0000 0.0000 18.6845 0.0000 0.0000
# 5 0.0000 0.0000 0.0000 0.0000 28.7459 0.0000
# 6 0.0000 0.0000 0.0000 0.0000 0.0000 19.4918
#
#
#
# Elastic Compliance Matrix: (Units=1/GPa)
#
#
# Indices 1 2 3 4 5 6 
#
# 1 0.049007 -0.007107 -0.011816 0.000000 0.000000 0.000000
# 2 -0.007107 0.020055 -0.008297 0.000000 0.000000 0.000000
# 3 -0.011816 -0.008297 0.013586 0.000000 0.000000 0.000000
# 4 0.000000 0.000000 0.000000 0.053520 0.000000 0.000000
# 5 0.000000 0.000000 0.000000 0.000000 0.034788 0.000000
# 6 0.000000 0.000000 0.000000 0.000000 0.000000 0.051304
#
#
# Mechanical properties :
#
#
# Convention : Reuss Voigt Hill
#
# Bulk Modulus (GPa) = 35.45160 78.96973 57.21066
# Shear Modulus (GPa) = 17.47631 22.28772 19.88202
#
# Velocity S-wave (km/s) = 3.16487 3.57408 3.37568
# Velocity P-wave (km/s) = 5.80293 7.89259 6.92701
#
# Compressibility (1/GPa) = 0.02820747
#
# Stress axis : x y z
#
# Youngs Moduli (GPa) = 20.40546 49.86224 73.60654
#
# Poissons Ratio (x) = 0.35440 0.86973
# Poissons Ratio (y) = 0.14503 0.61068
# Poissons Ratio (z) = 0.24111 0.41368
#
# Static dielectric constant tensor:
#      x y z
#    x 2.887390 0.000000 0.000000 
#    y 0.000000 3.330200 0.000000 
#    z 0.000000 0.000000 3.412270 
# 
# 
# High freq. dielectric constant tensor:
#      x y z
#    x 1.641420 0.000000 0.000000 
#    y 0.000000 1.675030 0.000000 
#    z 0.000000 0.000000 1.686610 
# 
# From -- ./inp_files/37777.got.cif
#   From: 2010.03.12/outbox.cif.g09.slc.cpg/sg51_19_cif.got.tgz:37777.got - 2010.04.16 13:43:02.
