data_PCOD8213650
_publ_section_title
;
Structure prediction by ZEFSAII (Michael W. Deem and Ramdas Pophale) SiO2 
 PCOD8213650
Probable space group: P M M A
;
_chemical_formula_sum "Si O2"
_cell_formula_units_Z 64
_cell_length_a 8.973780
_cell_length_b 20.065661
_cell_length_c 18.665071
_cell_angle_alpha 90.000000
_cell_angle_beta 90.000000
_cell_angle_gamma 90.000000
_cell_volume 3360.922787
_symmetry_space_group_name_H-M "P M M A"
_symmetry_group_IT_number 51
_symmetry_cell_setting 'orthorhombic'
loop_
_space_group_symop_operation_xyz
x,y,z
1/2-x,-y,z
1/2+x,-y,-z
-x,y,-z
-x,-y,-z
1/2+x,y,-z
1/2-x,y,z
x,-y,z
loop_
_atom_site_type_symbol
_atom_site_label
_atom_site_fract_x
_atom_site_fract_y
_atom_site_fract_z
Si Si1 0.579328 0.577386 0.833962
Si Si2 0.923916 0.077151 0.573837
Si Si3 0.574630 0.314015 0.423314
Si Si4 0.573766 0.314231 0.076638
Si Si5 0.574533 0.075107 0.073657
Si Si6 0.077710 0.577078 0.329983
Si Si7 0.926524 0.807375 0.172339
Si Si8 0.426382 0.185167 0.666521
O O1 0.750000 0.598154 0.848091
O O2 0.556403 0.500000 0.850397
O O3 0.471566 0.616342 0.887306
O O4 0.535284 0.593188 0.752030
O O5 0.750000 0.092349 0.567010
O O6 0.000000 0.099468 0.500000
O O7 0.994126 0.119190 0.637830
O O8 0.956156 0.000000 0.590571
O O9 0.500000 0.310713 0.500000
O O10 0.750000 0.316970 0.433636
O O11 0.524728 0.379806 0.381662
O O12 0.524909 0.248929 0.379451
O O13 0.750000 0.311900 0.067177
O O14 0.512457 0.254935 0.127038
O O15 0.500000 0.305974 0.000000
O O16 0.750000 0.080795 0.062604
O O17 0.518084 0.123771 0.136431
O O18 0.526413 0.000000 0.094322
O O19 0.500000 0.098189 0.000000
O O20 0.250000 0.594116 0.344187
O O21 0.046031 0.500000 0.347139
O O22 0.750000 0.804461 0.173536
O O23 0.987079 0.803424 0.253128
O O24 0.250000 0.173621 0.664609
#
# Coordination Sequence:
#
# PCOD8213650 Si02
#       8
#     8   8   8   8   8   8   8   8
#     4   9  19  37  59  82 109 140 175 217 266 321
#     4  10  21  37  57  82 111 143 180 221 267 320
#     4  11  23  37  55  80 110 144 182 224 270 322
#     4  11  22  36  55  79 109 143 181 225 269 317
#     4   9  17  31  52  76 103 137 174 211 254 305
#     4   9  19  37  60  84 110 141 178 221 270 325
#     4   9  19  35  54  78 107 138 176 220 264 315
#     4  10  21  37  57  81 108 140 180 224 270 321
#
# _framework density 19.042389
#
# number of rings (size 3 to 8) (size 9 to 14) (size 15 to 20)
#    0.000    2.250    0.000    3.375    0.000    5.750 
#    0.000    5.000    0.000    1.500    0.000    0.000 
#    0.000    0.000    0.000    0.000    0.000    0.000 
#
# Total GULP energy -793801.305918 kJ/mol
# GULP energy per Si atom -12403.145405 kJ/mol
# Density = 1.899905 g / cm^3
# Si number density = 19.042389 Si / 1000 Ang^3
#
#
#
# Elastic Constant Matrix: (Units=GPa)
#
#
# Indices 1 2 3 4 5 6 
#
# 1 60.0422 43.4366 52.6477 0.0000 0.0000 0.0000
# 2 43.4366 109.6391 83.3789 0.0000 0.0000 0.0000
# 3 52.6477 83.3789 163.7860 0.0000 0.0000 0.0000
# 4 0.0000 0.0000 0.0000 40.3612 0.0000 0.0000
# 5 0.0000 0.0000 0.0000 0.0000 20.2899 0.0000
# 6 0.0000 0.0000 0.0000 0.0000 0.0000 29.4311
#
#
#
# Elastic Compliance Matrix: (Units=1/GPa)
#
#
# Indices 1 2 3 4 5 6 
#
# 1 0.025641 -0.006348 -0.005010 0.000000 0.000000 0.000000
# 2 -0.006348 0.016454 -0.006336 0.000000 0.000000 0.000000
# 3 -0.005010 -0.006336 0.010941 0.000000 0.000000 0.000000
# 4 0.000000 0.000000 0.000000 0.024776 0.000000 0.000000
# 5 0.000000 0.000000 0.000000 0.000000 0.049286 0.000000
# 6 0.000000 0.000000 0.000000 0.000000 0.000000 0.033978
#
#
# Mechanical properties :
#
#
# Convention : Reuss Voigt Hill
#
# Bulk Modulus (GPa) = 56.66413 76.93264 66.79838
# Shear Modulus (GPa) = 24.71009 28.28339 26.49674
#
# Velocity S-wave (km/s) = 3.60618 3.85812 3.73428
# Velocity P-wave (km/s) = 6.86737 7.76758 7.33130
#
# Compressibility (1/GPa) = 0.01764785
#
# Stress axis : x y z
#
# Youngs Moduli (GPa) = 39.00060 60.77541 91.39533
#
# Poissons Ratio (x) = 0.38580 0.45793
# Poissons Ratio (y) = 0.24757 0.57906
# Poissons Ratio (z) = 0.19541 0.38506
#
# Static dielectric constant tensor:
#      x y z
#    x 3.317020 0.000000 0.000000 
#    y 0.000000 3.582960 0.000000 
#    z 0.000000 0.000000 3.602960 
# 
# 
# High freq. dielectric constant tensor:
#      x y z
#    x 1.727530 0.000000 0.000000 
#    y 0.000000 1.751180 0.000000 
#    z 0.000000 0.000000 1.746040 
# 
# From -- ./inp_files/32313.got.cif
#   From: 2010.03.12/outbox.cif.g09.slc.cpg/sg51_17_cif.got.tgz:32313.got - 2010.04.16 13:43:02.
