data_PCOD8213056
_publ_section_title
;
Structure prediction by ZEFSAII (Michael W. Deem and Ramdas Pophale) SiO2 
 PCOD8213056
Probable space group: P M M A
;
_chemical_formula_sum "Si O2"
_cell_formula_units_Z 48
_cell_length_a 9.242022
_cell_length_b 9.718022
_cell_length_c 30.554593
_cell_angle_alpha 90.000000
_cell_angle_beta 90.000000
_cell_angle_gamma 90.000000
_cell_volume 2744.235505
_symmetry_space_group_name_H-M "P M M A"
_symmetry_group_IT_number 51
_symmetry_cell_setting 'orthorhombic'
loop_
_space_group_symop_operation_xyz
x,y,z
1/2-x,-y,z
1/2+x,-y,-z
-x,y,-z
-x,-y,-z
1/2+x,y,-z
1/2-x,y,z
x,-y,z
loop_
_atom_site_type_symbol
_atom_site_label
_atom_site_fract_x
_atom_site_fract_y
_atom_site_fract_z
Si Si1 0.918791 0.158078 0.543363
Si Si2 0.416870 0.838727 0.218876
Si Si3 0.082194 0.658693 0.375950
Si Si4 0.919653 0.658493 0.956742
Si Si5 0.419503 0.341193 0.711546
Si Si6 0.078273 0.848068 0.120690
O O1 0.750000 0.179870 0.535009
O O2 0.973349 0.250134 0.583653
O O3 0.000000 0.208661 0.500000
O O4 0.956358 0.000000 0.554136
O O5 0.250000 0.796534 0.226293
O O6 0.518475 0.751301 0.249981
O O7 0.467723 0.802959 0.169477
O O8 0.437778 0.000000 0.228389
O O9 0.250000 0.687341 0.365836
O O10 0.054195 0.500000 0.387871
O O11 0.992262 0.704690 0.333758
O O12 0.750000 0.683071 0.963443
O O13 0.956385 0.500000 0.947823
O O14 0.981953 0.741812 0.915206
O O15 0.000000 0.712334 0.000000
O O16 0.250000 0.315051 0.707474
O O17 0.455576 0.500000 0.721847
O O18 0.250000 0.852594 0.119018
O O19 0.016394 0.000000 0.110043
#
# Coordination Sequence:
#
# PCOD8213056 Si02
#       6
#     8   8   8   8   8   8
#     4   9  18  32  49  70  96 124 155 193 236 282
#     4   9  18  33  53  75  97 124 161 203 245 290
#     4   9  18  33  51  70  94 126 163 200 237 280
#     4   9  17  29  45  66  92 121 153 189 229 274
#     4  10  21  35  50  72 102 132 162 199 244 292
#     4   8  15  29  48  69  92 118 152 194 234 275
#
# _framework density 17.491209999999999
#
# number of rings (size 3 to 8) (size 9 to 14) (size 15 to 20)
#    0.000    3.000    0.000    1.500    0.000    4.000 
#    0.000    4.167    0.000    3.000    0.000    0.000 
#    0.000    0.000    0.000    0.000    0.000    0.000 
#
# Total GULP energy -595195.101737 kJ/mol
# GULP energy per Si atom -12399.897953 kJ/mol
# Density = 1.745140 g / cm^3
# Si number density = 17.491210 Si / 1000 Ang^3
#
#
#
# Elastic Constant Matrix: (Units=GPa)
#
#
# Indices 1 2 3 4 5 6 
#
# 1 51.4915 38.1479 59.3221 0.0000 0.0000 0.0000
# 2 38.1479 79.8658 90.6062 0.0000 0.0000 0.0000
# 3 59.3221 90.6062 177.1928 0.0000 0.0000 0.0000
# 4 0.0000 0.0000 0.0000 38.7784 0.0000 0.0000
# 5 0.0000 0.0000 0.0000 0.0000 30.6697 0.0000
# 6 0.0000 0.0000 0.0000 0.0000 0.0000 21.1332
#
#
#
# Elastic Compliance Matrix: (Units=1/GPa)
#
#
# Indices 1 2 3 4 5 6 
#
# 1 0.033545 -0.007816 -0.007234 0.000000 0.000000 0.000000
# 2 -0.007816 0.031641 -0.013563 0.000000 0.000000 0.000000
# 3 -0.007234 -0.013563 0.015000 0.000000 0.000000 0.000000
# 4 0.000000 0.000000 0.000000 0.025788 0.000000 0.000000
# 5 0.000000 0.000000 0.000000 0.000000 0.032605 0.000000
# 6 0.000000 0.000000 0.000000 0.000000 0.000000 0.047319
#
#
# Mechanical properties :
#
#
# Convention : Reuss Voigt Hill
#
# Bulk Modulus (GPa) = 43.55137 76.07805 59.81471
# Shear Modulus (GPa) = 19.93799 26.14787 23.04293
#
# Velocity S-wave (km/s) = 3.37988 3.87061 3.63354
# Velocity P-wave (km/s) = 6.33913 7.97276 7.20241
#
# Compressibility (1/GPa) = 0.02296139
#
# Stress axis : x y z
#
# Youngs Moduli (GPa) = 29.81042 31.60463 66.66478
#
# Poissons Ratio (x) = 0.24703 0.48223
# Poissons Ratio (y) = 0.23301 0.90414
# Poissons Ratio (z) = 0.21564 0.42864
#
# Static dielectric constant tensor:
#      x y z
#    x 2.871230 0.000000 0.000000 
#    y 0.000000 3.329840 0.000000 
#    z 0.000000 0.000000 3.430530 
# 
# 
# High freq. dielectric constant tensor:
#      x y z
#    x 1.654250 0.000000 0.000000 
#    y 0.000000 1.674240 0.000000 
#    z 0.000000 0.000000 1.684190 
# 
# From -- ./inp_files/36977.got.cif
#   From: 2010.03.12/outbox.cif.g09.slc.cpg/sg51_19_cif.got.tgz:36977.got - 2010.04.16 13:43:02.
