data_PCOD8213660
_publ_section_title
;
Structure prediction by ZEFSAII (Michael W. Deem and Ramdas Pophale) SiO2 
 PCOD8213660
Probable space group: P M M A
;
_chemical_formula_sum "Si O2"
_cell_formula_units_Z 48
_cell_length_a 9.002594
_cell_length_b 9.099033
_cell_length_c 30.673938
_cell_angle_alpha 90.000000
_cell_angle_beta 90.000000
_cell_angle_gamma 90.000000
_cell_volume 2512.652561
_symmetry_space_group_name_H-M "P M M A"
_symmetry_group_IT_number 51
_symmetry_cell_setting 'orthorhombic'
loop_
_space_group_symop_operation_xyz
x,y,z
1/2-x,-y,z
1/2+x,-y,-z
-x,y,-z
-x,-y,-z
1/2+x,y,-z
1/2-x,y,z
x,-y,z
loop_
_atom_site_type_symbol
_atom_site_label
_atom_site_fract_x
_atom_site_fract_y
_atom_site_fract_z
Si Si1 0.080579 0.673997 0.456521
Si Si2 0.920958 0.828178 0.122094
Si Si3 0.077509 0.828802 0.622800
Si Si4 0.575716 0.331886 0.955481
Si Si5 0.079302 0.327659 0.789434
Si Si6 0.923613 0.168817 0.711826
O O1 0.250000 0.728648 0.457855
O O2 0.070178 0.500000 0.453316
O O3 0.000000 0.732056 0.500000
O O4 0.000181 0.739331 0.414999
O O5 0.750000 0.790844 0.111599
O O6 0.972939 0.748583 0.166088
O O7 0.021610 0.771729 0.083030
O O8 0.947211 0.000000 0.128442
O O9 0.250000 0.788648 0.623585
O O10 0.007787 0.778966 0.668516
O O11 0.049186 0.000000 0.614443
O O12 0.750000 0.313411 0.961230
O O13 0.531039 0.500000 0.945007
O O14 0.500000 0.278409 0.000000
O O15 0.250000 0.287553 0.778889
O O16 0.055771 0.500000 0.794915
O O17 0.975829 0.270304 0.751080
O O18 0.750000 0.191326 0.703978
O O19 0.962583 0.000000 0.722833
#
# Coordination Sequence:
#
# PCOD8213660 Si02
#       6
#     8   8   8   8   8   8
#     4  10  21  37  57  81 110 145 184 226 273 324
#     4  10  21  37  58  83 111 145 184 226 273 324
#     4  10  21  37  58  83 110 143 183 226 273 325
#     4  10  21  37  58  83 111 145 184 226 273 324
#     4  10  21  37  58  83 110 143 183 225 270 322
#     4  10  21  37  57  81 110 144 181 223 272 324
#
# _framework density 19.103318000000002
#
# number of rings (size 3 to 8) (size 9 to 14) (size 15 to 20)
#    0.000    2.000    0.000    3.000    0.000    8.000 
#    0.000    0.000    0.000    0.000    0.000    0.000 
#    0.000    0.000    0.000    0.000    0.000    0.000 
#
# Total GULP energy -595485.386632 kJ/mol
# GULP energy per Si atom -12405.945555 kJ/mol
# Density = 1.905984 g / cm^3
# Si number density = 19.103318 Si / 1000 Ang^3
#
#
#
# Elastic Constant Matrix: (Units=GPa)
#
#
# Indices 1 2 3 4 5 6 
#
# 1 101.7697 33.7483 63.9865 0.0000 0.0000 0.0000
# 2 33.7483 58.1981 48.4508 0.0000 0.0000 0.0000
# 3 63.9865 48.4508 145.0626 0.0000 0.0000 0.0000
# 4 0.0000 0.0000 0.0000 35.7996 0.0000 0.0000
# 5 0.0000 0.0000 0.0000 0.0000 38.4595 0.0000
# 6 0.0000 0.0000 0.0000 0.0000 0.0000 31.0383
#
#
#
# Elastic Compliance Matrix: (Units=1/GPa)
#
#
# Indices 1 2 3 4 5 6 
#
# 1 0.014306 -0.004214 -0.004903 0.000000 0.000000 0.000000
# 2 -0.004214 0.025042 -0.006505 0.000000 0.000000 0.000000
# 3 -0.004903 -0.006505 0.011229 0.000000 0.000000 0.000000
# 4 0.000000 0.000000 0.000000 0.027933 0.000000 0.000000
# 5 0.000000 0.000000 0.000000 0.000000 0.026001 0.000000
# 6 0.000000 0.000000 0.000000 0.000000 0.000000 0.032218
#
#
# Mechanical properties :
#
#
# Convention : Reuss Voigt Hill
#
# Bulk Modulus (GPa) = 51.72581 66.37797 59.05189
# Shear Modulus (GPa) = 28.66659 31.64913 30.15786
#
# Velocity S-wave (km/s) = 3.87797 4.07472 3.97756
# Velocity P-wave (km/s) = 6.86929 7.54719 7.21620
#
# Compressibility (1/GPa) = 0.01933271
#
# Stress axis : x y z
#
# Youngs Moduli (GPa) = 69.89957 39.93264 89.05577
#
# Poissons Ratio (x) = 0.16829 0.43663
# Poissons Ratio (y) = 0.29458 0.57932
# Poissons Ratio (z) = 0.34271 0.25977
#
# Static dielectric constant tensor:
#      x y z
#    x 3.508930 0.000000 0.000000 
#    y 0.000000 3.436400 0.000000 
#    z 0.000000 0.000000 2.678560 
# 
# 
# High freq. dielectric constant tensor:
#      x y z
#    x 1.751300 0.000000 0.000000 
#    y 0.000000 1.739230 0.000000 
#    z 0.000000 0.000000 1.755610 
# 
# From -- ./inp_files/36887.got.cif
#   From: 2010.03.12/outbox.cif.g09.slc.cpg/sg51_19_cif.got.tgz:36887.got - 2010.04.16 13:43:02.
