data_PCOD8213680
_publ_section_title
;
Structure prediction by ZEFSAII (Michael W. Deem and Ramdas Pophale) SiO2 
 PCOD8213680
Probable space group: P M M A
;
_chemical_formula_sum "Si O2"
_cell_formula_units_Z 64
_cell_length_a 14.314287
_cell_length_b 8.778797
_cell_length_c 26.335457
_cell_angle_alpha 90.000000
_cell_angle_beta 90.000000
_cell_angle_gamma 90.000000
_cell_volume 3309.371985
_symmetry_space_group_name_H-M "P M M A"
_symmetry_group_IT_number 51
_symmetry_cell_setting 'orthorhombic'
loop_
_space_group_symop_operation_xyz
x,y,z
1/2-x,-y,z
1/2+x,-y,-z
-x,y,-z
-x,-y,-z
1/2+x,y,-z
1/2-x,y,z
x,-y,z
loop_
_atom_site_type_symbol
_atom_site_label
_atom_site_fract_x
_atom_site_fract_y
_atom_site_fract_z
Si Si1 0.006830 0.679504 0.558440
Si Si2 0.140946 0.822159 0.634279
Si Si3 0.860811 0.828332 0.994080
Si Si4 0.645987 0.679443 0.636936
Si Si5 0.357614 0.678457 0.108728
Si Si6 0.139966 0.324466 0.903364
Si Si7 0.007890 0.179474 0.823853
Si Si8 0.490296 0.679544 0.714622
O O1 0.024254 0.500000 0.566036
O O2 0.094419 0.769881 0.581494
O O3 0.000000 0.725749 0.500000
O O4 0.911068 0.730429 0.586698
O O5 0.250000 0.785234 0.631241
O O6 0.097475 0.724797 0.680041
O O7 0.121889 0.000000 0.643652
O O8 0.750000 0.823305 0.994927
O O9 0.899653 0.748327 0.044669
O O10 0.899066 0.000000 0.992222
O O11 0.897830 0.739767 0.944662
O O12 0.750000 0.754800 0.637716
O O13 0.657455 0.500000 0.636388
O O14 0.586889 0.727755 0.686681
O O15 0.250000 0.722330 0.115364
O O16 0.374658 0.500000 0.110476
O O17 0.410856 0.756077 0.154988
O O18 0.250000 0.301580 0.898829
O O19 0.110775 0.500000 0.903313
O O20 0.095097 0.243271 0.855225
O O21 0.018198 0.228412 0.766134
O O22 0.007835 0.000000 0.828037
O O23 0.487214 0.500000 0.725490
#
# Coordination Sequence:
#
# PCOD8213680 Si02
#       8
#     8   8   8   8   8   8   8   8
#     4   9  18  32  53  84 119 153 189 230 273 319
#     4  10  21  37  57  81 111 150 192 232 279 331
#     4   9  17  32  55  82 112 143 176 219 273 330
#     4   8  15  30  53  79 106 139 180 224 269 317
#     4  10  21  38  59  82 110 145 185 227 271 325
#     4  10  21  38  59  82 109 142 181 223 269 328
#     4  12  25  39  57  82 112 143 179 227 283 339
#     4  10  21  38  58  79 105 139 183 233 282 331
#
# _framework density 19.339016000000001
#
# number of rings (size 3 to 8) (size 9 to 14) (size 15 to 20)
#    0.000    2.250    0.000    3.750    0.000    6.250 
#    0.000    5.000    0.000    9.000    0.000    0.000 
#    0.000    0.000    0.000    0.000    0.000    0.000 
#
# Total GULP energy -793666.079777 kJ/mol
# GULP energy per Si atom -12401.032497 kJ/mol
# Density = 1.929500 g / cm^3
# Si number density = 19.339016 Si / 1000 Ang^3
#
#
#
# Elastic Constant Matrix: (Units=GPa)
#
#
# Indices 1 2 3 4 5 6 
#
# 1 93.8350 23.8611 24.9657 0.0000 0.0000 0.0000
# 2 23.8611 89.3024 26.5140 0.0000 0.0000 0.0000
# 3 24.9657 26.5140 110.4939 0.0000 0.0000 0.0000
# 4 0.0000 0.0000 0.0000 27.7268 0.0000 0.0000
# 5 0.0000 0.0000 0.0000 0.0000 22.3399 0.0000
# 6 0.0000 0.0000 0.0000 0.0000 0.0000 24.5273
#
#
#
# Elastic Compliance Matrix: (Units=1/GPa)
#
#
# Indices 1 2 3 4 5 6 
#
# 1 0.011856 -0.002555 -0.002066 0.000000 0.000000 0.000000
# 2 -0.002555 0.012607 -0.002448 0.000000 0.000000 0.000000
# 3 -0.002066 -0.002448 0.010104 0.000000 0.000000 0.000000
# 4 0.000000 0.000000 0.000000 0.036066 0.000000 0.000000
# 5 0.000000 0.000000 0.000000 0.000000 0.044763 0.000000
# 6 0.000000 0.000000 0.000000 0.000000 0.000000 0.040771
#
#
# Mechanical properties :
#
#
# Convention : Reuss Voigt Hill
#
# Bulk Modulus (GPa) = 48.94510 49.36810 49.15660
# Shear Modulus (GPa) = 28.23018 29.47150 28.85084
#
# Velocity S-wave (km/s) = 3.82482 3.90800 3.86663
# Velocity P-wave (km/s) = 6.69847 6.77838 6.73855
#
# Compressibility (1/GPa) = 0.02043105
#
# Stress axis : x y z
#
# Youngs Moduli (GPa) = 84.34368 79.31918 98.96594
#
# Poissons Ratio (x) = 0.20263 0.20445
# Poissons Ratio (y) = 0.21546 0.24227
# Poissons Ratio (z) = 0.17424 0.19418
#
# Static dielectric constant tensor:
#      x y z
#    x 3.644900 0.000000 0.000000 
#    y 0.000000 3.532620 0.000000 
#    z 0.000000 0.000000 3.560390 
# 
# 
# High freq. dielectric constant tensor:
#      x y z
#    x 1.757770 0.000000 0.000000 
#    y 0.000000 1.750240 0.000000 
#    z 0.000000 0.000000 1.753420 
# 
# From -- ./inp_files/35830.got.cif
#   From: 2010.03.12/outbox.cif.g09.slc.cpg/sg51_18_cif.got.tgz:35830.got - 2010.04.16 13:43:02.
