data_PCOD8213842
_publ_section_title
;
Structure prediction by ZEFSAII (Michael W. Deem and Ramdas Pophale) SiO2 
 PCOD8213842
Probable space group: P M M A
;
_chemical_formula_sum "Si O2"
_cell_formula_units_Z 52
_cell_length_a 8.959596
_cell_length_b 10.451949
_cell_length_c 29.731468
_cell_angle_alpha 90.000000
_cell_angle_beta 90.000000
_cell_angle_gamma 90.000000
_cell_volume 2784.210470
_symmetry_space_group_name_H-M "P M M A"
_symmetry_group_IT_number 51
_symmetry_cell_setting 'orthorhombic'
loop_
_space_group_symop_operation_xyz
x,y,z
1/2-x,-y,z
1/2+x,-y,-z
-x,y,-z
-x,-y,-z
1/2+x,y,-z
1/2-x,y,z
x,-y,z
loop_
_atom_site_type_symbol
_atom_site_label
_atom_site_fract_x
_atom_site_fract_y
_atom_site_fract_z
Si Si1 0.082098 0.847339 0.044354
Si Si2 0.924806 0.853872 0.776802
Si Si3 0.083341 0.848303 0.867920
Si Si4 0.084410 0.146886 0.456951
Si Si5 0.423211 0.352522 0.298151
Si Si6 0.426499 0.709027 0.609276
Si Si7 0.073335 0.500000 0.452064
O O1 0.250000 0.795029 0.043834
O O2 0.001913 0.791796 0.088768
O O3 0.079654 0.000000 0.044821
O O4 0.000000 0.794820 0.000000
O O5 0.750000 0.851049 0.785662
O O6 0.971544 0.749780 0.739609
O O7 0.002147 0.806693 0.822350
O O8 0.973804 0.000000 0.763281
O O9 0.250000 0.791823 0.867491
O O10 0.086421 0.000000 0.871496
O O11 0.250000 0.209984 0.451847
O O12 0.000000 0.210741 0.500000
O O13 0.984809 0.156056 0.410621
O O14 0.107222 0.000000 0.467467
O O15 0.250000 0.334252 0.311012
O O16 0.452279 0.500000 0.282733
O O17 0.526111 0.318567 0.340086
O O18 0.250000 0.691248 0.605623
O O19 0.517105 0.621112 0.575176
O O20 0.250000 0.500000 0.455876
O O21 0.000000 0.500000 0.500000
#
# Coordination Sequence:
#
# PCOD8213842 Si02
#       7
#     8   8   8   8   8   8   4
#     4   9  15  22  34  55  87 128 171 213 259 313
#     4   9  18  33  53  76 101 133 176 222 268 318
#     4   9  16  26  41  63  93 129 169 214 264 316
#     4  10  21  38  59  82 110 143 176 210 251 302
#     4  10  21  38  58  78 105 141 178 220 269 322
#     4  12  24  38  57  82 109 137 171 211 258 309
#     4  12  24  40  60  82 108 136 170 208 249 302
#
# _framework density 18.676749000000001
#
# number of rings (size 3 to 8) (size 9 to 14) (size 15 to 20)
#    0.000    2.000    0.769    3.923    0.000    5.846 
#    0.000    1.538    0.000    0.000    0.000    0.000 
#    0.000    0.615    0.000    1.692    0.000    3.077 
#
# Total GULP energy -644505.143841 kJ/mol
# GULP energy per Si atom -12394.329689 kJ/mol
# Density = 1.863424 g / cm^3
# Si number density = 18.676749 Si / 1000 Ang^3
#
#
#
# Elastic Constant Matrix: (Units=GPa)
#
#
# Indices 1 2 3 4 5 6 
#
# 1 150.2721 32.9601 90.6379 0.0000 0.0000 0.0000
# 2 32.9601 55.1354 48.9303 0.0000 0.0000 0.0000
# 3 90.6379 48.9303 167.1025 0.0000 0.0000 0.0000
# 4 0.0000 0.0000 0.0000 14.7026 0.0000 0.0000
# 5 0.0000 0.0000 0.0000 0.0000 40.7785 0.0000
# 6 0.0000 0.0000 0.0000 0.0000 0.0000 13.0659
#
#
#
# Elastic Compliance Matrix: (Units=1/GPa)
#
#
# Indices 1 2 3 4 5 6 
#
# 1 0.009990 -0.001572 -0.004959 0.000000 0.000000 0.000000
# 2 -0.001572 0.024752 -0.006395 0.000000 0.000000 0.000000
# 3 -0.004959 -0.006395 0.010547 0.000000 0.000000 0.000000
# 4 0.000000 0.000000 0.000000 0.068015 0.000000 0.000000
# 5 0.000000 0.000000 0.000000 0.000000 0.024523 0.000000
# 6 0.000000 0.000000 0.000000 0.000000 0.000000 0.076535
#
#
# Mechanical properties :
#
#
# Convention : Reuss Voigt Hill
#
# Bulk Modulus (GPa) = 51.44597 79.72962 65.58780
# Shear Modulus (GPa) = 20.26816 27.04151 23.65484
#
# Velocity S-wave (km/s) = 3.29782 3.80922 3.56271
# Velocity P-wave (km/s) = 6.48892 7.88218 7.21924
#
# Compressibility (1/GPa) = 0.01943787
#
# Stress axis : x y z
#
# Youngs Moduli (GPa) = 100.09925 40.40026 94.81753
#
# Poissons Ratio (x) = 0.06349 0.47015
# Poissons Ratio (y) = 0.15732 0.60640
# Poissons Ratio (z) = 0.49634 0.25838
#
# Static dielectric constant tensor:
#      x y z
#    x 3.695620 0.000000 0.000000 
#    y 0.000000 3.373700 0.000000 
#    z 0.000000 0.000000 3.505830 
# 
# 
# High freq. dielectric constant tensor:
#      x y z
#    x 1.738850 0.000000 0.000000 
#    y 0.000000 1.684880 0.000000 
#    z 0.000000 0.000000 1.727870 
# 
# From -- ./inp_files/36196.got.cif
#   From: 2010.03.12/outbox.cif.g09.slc.cpg/sg51_19_cif.got.tgz:36196.got - 2010.04.16 13:43:02.
