data_PCOD8213933
_publ_section_title
;
Structure prediction by ZEFSAII (Michael W. Deem and Ramdas Pophale) SiO2 
 PCOD8213933
Probable space group: P M M A
;
_chemical_formula_sum "Si O2"
_cell_formula_units_Z 40
_cell_length_a 9.068932
_cell_length_b 14.399917
_cell_length_c 14.779049
_cell_angle_alpha 90.000000
_cell_angle_beta 90.000000
_cell_angle_gamma 90.000000
_cell_volume 1930.023617
_symmetry_space_group_name_H-M "P M M A"
_symmetry_group_IT_number 51
_symmetry_cell_setting 'orthorhombic'
loop_
_space_group_symop_operation_xyz
x,y,z
1/2-x,-y,z
1/2+x,-y,-z
-x,y,-z
-x,-y,-z
1/2+x,y,-z
1/2-x,y,z
x,-y,z
loop_
_atom_site_type_symbol
_atom_site_label
_atom_site_fract_x
_atom_site_fract_y
_atom_site_fract_z
Si Si1 0.579917 0.605119 0.236335
Si Si2 0.083333 0.110566 0.588286
Si Si3 0.080667 0.109976 0.231975
Si Si4 0.915525 0.389305 0.586918
Si Si5 0.077038 0.761901 0.904600
O O1 0.750000 0.608437 0.264250
O O2 0.530501 0.500000 0.213078
O O3 0.490995 0.646601 0.321268
O O4 0.546148 0.667045 0.149253
O O5 0.250000 0.149430 0.590949
O O6 0.000000 0.149914 0.500000
O O7 0.996397 0.146164 0.676371
O O8 0.085009 0.000000 0.585486
O O9 0.250000 0.143008 0.232424
O O10 0.995115 0.151481 0.146654
O O11 0.069135 0.000000 0.223774
O O12 0.750000 0.351441 0.584367
O O13 0.921408 0.500000 0.584754
O O14 0.000000 0.348082 0.500000
O O15 0.250000 0.781340 0.916967
O O16 0.000000 0.749697 0.000000
#
# Coordination Sequence:
#
# PCOD8213933 Si02
#       5
#     8   8   8   8   8
#     4   9  19  37  59  83 113 148 185 226 274 329
#     4   9  16  28  50  81 116 152 188 226 271 326
#     4  10  21  38  60  85 114 149 188 231 280 333
#     4   9  16  27  48  79 113 149 186 224 269 322
#     4  11  24  41  61  84 111 144 184 233 286 337
#
# _framework density 20.725135000000002
#
# number of rings (size 3 to 8) (size 9 to 14) (size 15 to 20)
#    0.000    2.400    0.000    2.400    0.000    8.400 
#    0.000    1.000    0.000    4.800    0.000    0.000 
#    0.000    0.000    0.000    0.000    0.000    0.000 
#
# Total GULP energy -496130.516422 kJ/mol
# GULP energy per Si atom -12403.262911 kJ/mol
# Density = 2.067796 g / cm^3
# Si number density = 20.725135 Si / 1000 Ang^3
#
#
#
# Elastic Constant Matrix: (Units=GPa)
#
#
# Indices 1 2 3 4 5 6 
#
# 1 182.1681 41.1450 111.2162 0.0000 0.0000 0.0000
# 2 41.1450 41.0918 35.8454 0.0000 0.0000 0.0000
# 3 111.2162 35.8454 194.6852 0.0000 0.0000 0.0000
# 4 0.0000 0.0000 0.0000 109.1061 0.0000 0.0000
# 5 0.0000 0.0000 0.0000 0.0000 48.1770 0.0000
# 6 0.0000 0.0000 0.0000 0.0000 0.0000 18.6006
#
#
#
# Elastic Compliance Matrix: (Units=1/GPa)
#
#
# Indices 1 2 3 4 5 6 
#
# 1 0.009412 -0.005640 -0.004338 0.000000 0.000000 0.000000
# 2 -0.005640 0.032372 -0.002739 0.000000 0.000000 0.000000
# 3 -0.004338 -0.002739 0.008119 0.000000 0.000000 0.000000
# 4 0.000000 0.000000 0.000000 0.009165 0.000000 0.000000
# 5 0.000000 0.000000 0.000000 0.000000 0.020757 0.000000
# 6 0.000000 0.000000 0.000000 0.000000 0.000000 0.053762
#
#
# Mechanical properties :
#
#
# Convention : Reuss Voigt Hill
#
# Bulk Modulus (GPa) = 40.86712 88.26206 64.56459
# Shear Modulus (GPa) = 29.90868 50.49263 40.20066
#
# Velocity S-wave (km/s) = 3.80295 4.94124 4.40899
# Velocity P-wave (km/s) = 6.24858 8.67375 7.55905
#
# Compressibility (1/GPa) = 0.02446955
#
# Stress axis : x y z
#
# Youngs Moduli (GPa) = 106.25012 30.89129 123.16820
#
# Poissons Ratio (x) = 0.17421 0.53433
# Poissons Ratio (y) = 0.59921 0.33730
# Poissons Ratio (z) = 0.46094 0.08460
#
# Static dielectric constant tensor:
#      x y z
#    x 3.948720 0.000000 0.000000 
#    y 0.000000 3.518280 0.000000 
#    z 0.000000 0.000000 3.743310 
# 
# 
# High freq. dielectric constant tensor:
#      x y z
#    x 1.822740 0.000000 0.000000 
#    y 0.000000 1.800200 0.000000 
#    z 0.000000 0.000000 1.809430 
# 
# From -- ./inp_files/14022.got.cif
#   From: 2010.03.12/outbox.cif.g09.slc.cpg/sg51_8_cif.got.tgz:14022.got - 2010.04.16 13:43:02.
