data_PCOD8213870
_publ_section_title
;
Structure prediction by ZEFSAII (Michael W. Deem and Ramdas Pophale) SiO2 
 PCOD8213870
Probable space group: P M M A
;
_chemical_formula_sum "Si O2"
_cell_formula_units_Z 40
_cell_length_a 8.976401
_cell_length_b 7.560225
_cell_length_c 29.789768
_cell_angle_alpha 90.000000
_cell_angle_beta 90.000000
_cell_angle_gamma 90.000000
_cell_volume 2021.641235
_symmetry_space_group_name_H-M "P M M A"
_symmetry_group_IT_number 51
_symmetry_cell_setting 'orthorhombic'
loop_
_space_group_symop_operation_xyz
x,y,z
1/2-x,-y,z
1/2+x,-y,-z
-x,y,-z
-x,-y,-z
1/2+x,y,-z
1/2-x,y,z
x,-y,z
loop_
_atom_site_type_symbol
_atom_site_label
_atom_site_fract_x
_atom_site_fract_y
_atom_site_fract_z
Si Si1 0.072235 0.500000 0.693711
Si Si2 0.073018 0.500000 0.795983
Si Si3 0.417487 0.209587 0.543700
Si Si4 0.071759 0.196377 0.859808
Si Si5 0.074761 0.793929 0.364990
Si Si6 0.413736 0.210123 0.957709
O O1 0.250000 0.500000 0.688810
O O2 0.017486 0.500000 0.745056
O O3 0.006431 0.678242 0.672494
O O4 0.250000 0.500000 0.797485
O O5 0.010418 0.327235 0.821558
O O6 0.500000 0.288655 0.500000
O O7 0.250000 0.287256 0.546732
O O8 0.510665 0.267417 0.587120
O O9 0.410613 0.000000 0.539983
O O10 0.250000 0.195815 0.861652
O O11 0.013043 0.257508 0.909201
O O12 0.012908 0.000000 0.847988
O O13 0.250000 0.756013 0.364621
O O14 0.039782 0.000000 0.355550
O O15 0.250000 0.293253 0.959945
O O16 0.406307 0.000000 0.961880
O O17 0.500000 0.293471 0.000000
#
# Coordination Sequence:
#
# PCOD8213870 Si02
#       6
#     4   4   8   8   8   8
#     4  11  23  37  56  83 110 136 174 230 288 331
#     4   9  18  31  48  71  97 126 162 208 261 311
#     4   9  16  28  50  81 115 148 182 220 263 314
#     4   8  14  26  44  66  93 126 163 201 243 296
#     4  10  21  38  59  81 109 148 188 223 265 321
#     4   8  13  22  39  63  91 123 156 191 234 285
#
# _framework density 19.785903999999999
#
# number of rings (size 3 to 8) (size 9 to 14) (size 15 to 20)
#    0.000    3.000    0.000    2.700    0.000    4.400 
#    0.000    3.000    0.000    2.400    0.000    2.800 
#    0.000    0.000    0.000    0.000    0.000    0.000 
#
# Total GULP energy -495769.710000 kJ/mol
# GULP energy per Si atom -12394.242750 kJ/mol
# Density = 1.974087 g / cm^3
# Si number density = 19.785904 Si / 1000 Ang^3
#
#
#
# Elastic Constant Matrix: (Units=GPa)
#
#
# Indices 1 2 3 4 5 6 
#
# 1 89.5263 32.4311 61.4904 0.0000 0.0000 0.0000
# 2 32.4311 89.3542 77.3446 0.0000 0.0000 0.0000
# 3 61.4904 77.3446 208.2287 0.0000 0.0000 0.0000
# 4 0.0000 0.0000 0.0000 -9.5627 0.0000 0.0000
# 5 0.0000 0.0000 0.0000 0.0000 27.7373 0.0000
# 6 0.0000 0.0000 0.0000 0.0000 0.0000 16.0399
#
#
#
# Elastic Compliance Matrix: (Units=1/GPa)
#
#
# Indices 1 2 3 4 5 6 
#
# 1 0.014316 -0.002265 -0.003386 0.000000 0.000000 0.000000
# 2 -0.002265 0.016853 -0.005591 0.000000 0.000000 0.000000
# 3 -0.003386 -0.005591 0.007879 0.000000 0.000000 0.000000
# 4 0.000000 0.000000 0.000000 -0.104573 0.000000 0.000000
# 5 0.000000 0.000000 0.000000 0.000000 0.036052 0.000000
# 6 0.000000 0.000000 0.000000 0.000000 0.000000 0.062344
#
#
# Mechanical properties :
#
#
# Convention : Reuss Voigt Hill
#
# Bulk Modulus (GPa) = 60.37241 81.07126 70.72184
# Shear Modulus (GPa) = 82.13051 21.23245 51.68148
#
# Velocity S-wave (km/s) = 6.44978 3.27939 5.11635
# Velocity P-wave (km/s) = 9.27606 7.44328 8.40975
#
# Compressibility (1/GPa) = 0.01656386
#
# Stress axis : x y z
#
# Youngs Moduli (GPa) = 69.85076 59.33636 126.91693
#
# Poissons Ratio (x) = 0.13439 0.42979
# Poissons Ratio (y) = 0.15820 0.70960
# Poissons Ratio (z) = 0.23654 0.33176
#
# Static dielectric constant tensor:
#      x y z
#    x 3.469170 0.000000 0.000000 
#    y 0.000000 3.456020 0.000000 
#    z 0.000000 0.000000 3.841790 
# 
# 
# High freq. dielectric constant tensor:
#      x y z
#    x 1.737590 0.000000 0.000000 
#    y 0.000000 1.759220 0.000000 
#    z 0.000000 0.000000 1.777240 
# 
# From -- ./inp_files/36062.got.cif
#   From: 2010.03.12/outbox.cif.g09.slc.cpg/sg51_19_cif.got.tgz:36062.got - 2010.04.16 13:43:02.
