data_PCOD8213755
_publ_section_title
;
Structure prediction by ZEFSAII (Michael W. Deem and Ramdas Pophale) SiO2 
 PCOD8213755
Probable space group: P M M A
;
_chemical_formula_sum "Si O2"
_cell_formula_units_Z 56
_cell_length_a 8.732672
_cell_length_b 14.562601
_cell_length_c 23.519039
_cell_angle_alpha 90.000000
_cell_angle_beta 90.000000
_cell_angle_gamma 90.000000
_cell_volume 2990.926021
_symmetry_space_group_name_H-M "P M M A"
_symmetry_group_IT_number 51
_symmetry_cell_setting 'orthorhombic'
loop_
_space_group_symop_operation_xyz
x,y,z
1/2-x,-y,z
1/2+x,-y,-z
-x,y,-z
-x,-y,-z
1/2+x,y,-z
1/2-x,y,z
x,-y,z
loop_
_atom_site_type_symbol
_atom_site_label
_atom_site_fract_x
_atom_site_fract_y
_atom_site_fract_z
Si Si1 0.073347 0.500000 0.059742
Si Si2 0.577966 0.397009 0.259892
Si Si3 0.429256 0.650084 0.146656
Si Si4 0.425847 0.727421 0.345079
Si Si5 0.930141 0.603731 0.439557
Si Si6 0.569095 0.155841 0.151293
Si Si7 0.572408 0.104263 0.729021
Si Si8 0.070815 0.000000 0.936942
O O1 0.250000 0.500000 0.049668
O O2 0.024742 0.407126 0.091453
O O3 0.000000 0.500000 0.000000
O O4 0.750000 0.357066 0.268747
O O5 0.573205 0.500000 0.283934
O O6 0.533695 0.395318 0.194605
O O7 0.450686 0.337344 0.291124
O O8 0.250000 0.640448 0.161897
O O9 0.473426 0.754579 0.136287
O O10 0.250000 0.727370 0.363996
O O11 0.523123 0.684721 0.396451
O O12 0.477789 0.829240 0.323634
O O13 0.750000 0.605423 0.445108
O O14 0.983764 0.500000 0.420919
O O15 0.000000 0.629610 0.500000
O O16 0.750000 0.174488 0.151119
O O17 0.525449 0.120325 0.214102
O O18 0.520418 0.086739 0.101119
O O19 0.750000 0.123810 0.743844
O O20 0.546785 0.000000 0.708103
O O21 0.250000 0.000000 0.946489
O O22 0.000000 0.000000 0.000000
#
# Coordination Sequence:
#
# PCOD8213755 Si02
#       8
#     4   8   8   8   8   8   8   4
#     4  10  24  42  60  78 106 144 189 234 281 342
#     4  11  22  34  52  81 115 150 185 229 283 337
#     4  11  22  38  57  81 109 144 184 228 282 342
#     4  11  22  35  56  87 120 155 196 240 287 342
#     4  10  21  38  60  87 122 163 204 244 289 341
#     4  11  22  38  59  85 113 143 184 235 290 349
#     4  10  21  37  58  85 116 153 193 235 291 352
#     4  10  24  42  60  84 112 144 185 234 293 354
#
# _framework density 18.723298
#
# number of rings (size 3 to 8) (size 9 to 14) (size 15 to 20)
#    0.000    1.429    2.857    2.571    0.000    6.857 
#    0.000    2.857    0.000    0.429    0.000    0.000 
#    0.000    0.000    0.000    0.000    0.000    0.000 
#
# Total GULP energy -694221.891712 kJ/mol
# GULP energy per Si atom -12396.819495 kJ/mol
# Density = 1.868068 g / cm^3
# Si number density = 18.723298 Si / 1000 Ang^3
#
#
#
# Elastic Constant Matrix: (Units=GPa)
#
#
# Indices 1 2 3 4 5 6 
#
# 1 51.0708 32.7024 30.4945 0.0000 0.0000 0.0000
# 2 32.7024 134.4548 57.8562 0.0000 0.0000 0.0000
# 3 30.4945 57.8562 120.1586 0.0000 0.0000 0.0000
# 4 0.0000 0.0000 0.0000 21.7288 0.0000 0.0000
# 5 0.0000 0.0000 0.0000 0.0000 35.4715 0.0000
# 6 0.0000 0.0000 0.0000 0.0000 0.0000 26.4197
#
#
#
# Elastic Compliance Matrix: (Units=1/GPa)
#
#
# Indices 1 2 3 4 5 6 
#
# 1 0.024823 -0.004196 -0.004279 0.000000 0.000000 0.000000
# 2 -0.004196 0.010090 -0.003794 0.000000 0.000000 0.000000
# 3 -0.004279 -0.003794 0.011235 0.000000 0.000000 0.000000
# 4 0.000000 0.000000 0.000000 0.046022 0.000000 0.000000
# 5 0.000000 0.000000 0.000000 0.000000 0.028192 0.000000
# 6 0.000000 0.000000 0.000000 0.000000 0.000000 0.037851
#
#
# Mechanical properties :
#
#
# Convention : Reuss Voigt Hill
#
# Bulk Modulus (GPa) = 46.27436 60.86560 53.56998
# Shear Modulus (GPa) = 26.32225 29.03275 27.67750
#
# Velocity S-wave (km/s) = 3.75354 3.94207 3.84896
# Velocity P-wave (km/s) = 6.59954 7.30057 6.95889
#
# Compressibility (1/GPa) = 0.02161024
#
# Stress axis : x y z
#
# Youngs Moduli (GPa) = 40.28570 99.10388 89.00782
#
# Poissons Ratio (x) = 0.41585 0.38089
# Poissons Ratio (y) = 0.16904 0.33766
# Poissons Ratio (z) = 0.17239 0.37596
#
# Static dielectric constant tensor:
#      x y z
#    x 3.470570 0.000000 0.000000 
#    y 0.000000 3.677770 0.000000 
#    z 0.000000 0.000000 3.277230 
# 
# 
# High freq. dielectric constant tensor:
#      x y z
#    x 1.733800 0.000000 0.000000 
#    y 0.000000 1.732650 0.000000 
#    z 0.000000 0.000000 1.715090 
# 
# From -- ./inp_files/32139.got.cif
#   From: 2010.03.12/outbox.cif.g09.slc.cpg/sg51_17_cif.got.tgz:32139.got - 2010.04.16 13:43:02.
