data_PCOD8213215
_publ_section_title
;
Structure prediction by ZEFSAII (Michael W. Deem and Ramdas Pophale) SiO2 
 PCOD8213215
Probable space group: P M M A
;
_chemical_formula_sum "Si O2"
_cell_formula_units_Z 56
_cell_length_a 9.042913
_cell_length_b 20.615118
_cell_length_c 15.001643
_cell_angle_alpha 90.000000
_cell_angle_beta 90.000000
_cell_angle_gamma 90.000000
_cell_volume 2796.617068
_symmetry_space_group_name_H-M "P M M A"
_symmetry_group_IT_number 51
_symmetry_cell_setting 'orthorhombic'
loop_
_space_group_symop_operation_xyz
x,y,z
1/2-x,-y,z
1/2+x,-y,-z
-x,y,-z
-x,-y,-z
1/2+x,y,-z
1/2-x,y,z
x,-y,z
loop_
_atom_site_type_symbol
_atom_site_label
_atom_site_fract_x
_atom_site_fract_y
_atom_site_fract_z
Si Si1 0.916428 0.623378 0.648232
Si Si2 0.079902 0.075985 0.408462
Si Si3 0.084431 0.261442 0.577545
Si Si4 0.074965 0.500000 0.595802
Si Si5 0.583560 0.837687 0.269292
Si Si6 0.075494 0.500000 0.093522
Si Si7 0.926022 0.767191 0.090650
Si Si8 0.916149 0.640888 0.848093
O O1 0.750000 0.604792 0.617743
O O2 0.914307 0.657065 0.744197
O O3 0.988116 0.673386 0.580135
O O4 0.020467 0.561066 0.652015
O O5 0.250000 0.096100 0.419089
O O6 0.000000 0.097634 0.500000
O O7 0.016616 0.109083 0.318683
O O8 0.059359 0.000000 0.392981
O O9 0.250000 0.277485 0.547147
O O10 0.083721 0.226609 0.671629
O O11 0.000000 0.219576 0.500000
O O12 0.250000 0.500000 0.586386
O O13 0.000000 0.500000 0.500000
O O14 0.750000 0.865771 0.261497
O O15 0.524662 0.815436 0.171666
O O16 0.250000 0.500000 0.084383
O O17 0.024958 0.566730 0.141669
O O18 0.000000 0.500000 0.000000
O O19 0.750000 0.766848 0.082177
O O20 0.978790 0.693003 0.104176
O O21 0.000000 0.794572 0.000000
O O22 0.750000 0.648009 0.887912
#
# Coordination Sequence:
#
# PCOD8213215 Si02
#       8
#     8   8   8   4   8   4   8   8
#     4  11  22  38  58  79 104 140 187 238 292 351
#     4  10  21  37  61  95 133 170 207 245 289 345
#     4  11  22  37  55  82 116 150 190 236 288 345
#     4  12  25  40  56  74 102 142 189 239 294 353
#     4  10  22  39  60  87 122 160 202 248 292 346
#     4  10  21  36  52  76 104 134 177 231 291 359
#     4  11  23  40  61  88 120 155 201 252 305 362
#     4  10  21  38  59  81 109 145 188 241 301 362
#
# _framework density 20.024191999999999
#
# number of rings (size 3 to 8) (size 9 to 14) (size 15 to 20)
#    0.000    1.429    1.429    4.071    0.000    7.714 
#    0.000    0.714    0.000    0.429    0.000    0.000 
#    0.000    0.000    0.000    0.000    0.000    0.000 
#
# Total GULP energy -694219.634930 kJ/mol
# GULP energy per Si atom -12396.779195 kJ/mol
# Density = 1.997862 g / cm^3
# Si number density = 20.024192 Si / 1000 Ang^3
#
#
#
# Elastic Constant Matrix: (Units=GPa)
#
#
# Indices 1 2 3 4 5 6 
#
# 1 138.7399 50.4328 59.7609 0.0000 0.0000 0.0000
# 2 50.4328 77.7546 37.1767 0.0000 0.0000 0.0000
# 3 59.7609 37.1767 133.8213 0.0000 0.0000 0.0000
# 4 0.0000 0.0000 0.0000 -1.4610 0.0000 0.0000
# 5 0.0000 0.0000 0.0000 0.0000 35.0401 0.0000
# 6 0.0000 0.0000 0.0000 0.0000 0.0000 49.7823
#
#
#
# Elastic Compliance Matrix: (Units=1/GPa)
#
#
# Indices 1 2 3 4 5 6 
#
# 1 0.010518 -0.005277 -0.003231 0.000000 0.000000 0.000000
# 2 -0.005277 0.017479 -0.002499 0.000000 0.000000 0.000000
# 3 -0.003231 -0.002499 0.009610 0.000000 0.000000 0.000000
# 4 0.000000 0.000000 0.000000 -0.684466 0.000000 0.000000
# 5 0.000000 0.000000 0.000000 0.000000 0.028539 0.000000
# 6 0.000000 0.000000 0.000000 0.000000 0.000000 0.020087
#
#
# Mechanical properties :
#
#
# Convention : Reuss Voigt Hill
#
# Bulk Modulus (GPa) = 64.13593 71.67295 67.90444
# Shear Modulus (GPa) = -8.75622 30.20197 10.72287
#
# Velocity S-wave (km/s) = -2.09340 3.88786 2.31659
# Velocity P-wave (km/s) = 5.12403 7.48498 6.41407
#
# Compressibility (1/GPa) = 0.01559188
#
# Stress axis : x y z
#
# Youngs Moduli (GPa) = 95.07797 57.21245 104.06108
#
# Poissons Ratio (x) = 0.30192 0.33621
# Poissons Ratio (y) = 0.50174 0.26006
# Poissons Ratio (z) = 0.30718 0.14298
#
# Static dielectric constant tensor:
#      x y z
#    x 3.761390 0.000000 0.000000 
#    y 0.000000 3.398860 0.000000 
#    z 0.000000 0.000000 3.709950 
# 
# 
# High freq. dielectric constant tensor:
#      x y z
#    x 1.787790 0.000000 0.000000 
#    y 0.000000 1.762030 0.000000 
#    z 0.000000 0.000000 1.785880 
# 
# From -- ./inp_files/21907.got.cif
#   From: 2010.03.12/outbox.cif.g09.slc.cpg/sg51_11_cif.got.tgz:21907.got - 2010.04.16 13:43:02.
