data_PCOD8213540
_publ_section_title
;
Structure prediction by ZEFSAII (Michael W. Deem and Ramdas Pophale) SiO2 
 PCOD8213540
Probable space group: P M M A
;
_chemical_formula_sum "Si O2"
_cell_formula_units_Z 56
_cell_length_a 14.781502
_cell_length_b 8.961749
_cell_length_c 21.322077
_cell_angle_alpha 90.000000
_cell_angle_beta 90.000000
_cell_angle_gamma 90.000000
_cell_volume 2824.495258
_symmetry_space_group_name_H-M "P M M A"
_symmetry_group_IT_number 51
_symmetry_cell_setting 'orthorhombic'
loop_
_space_group_symop_operation_xyz
x,y,z
1/2-x,-y,z
1/2+x,-y,-z
-x,y,-z
-x,-y,-z
1/2+x,y,-z
1/2-x,y,z
x,-y,z
loop_
_atom_site_type_symbol
_atom_site_label
_atom_site_fract_x
_atom_site_fract_y
_atom_site_fract_z
Si Si1 0.643158 0.334843 0.994748
Si Si2 0.646452 0.327952 0.587274
Si Si3 0.642606 0.829948 0.116793
Si Si4 0.985809 0.175025 0.348748
Si Si5 0.149683 0.322432 0.143181
Si Si6 0.854698 0.329407 0.442392
Si Si7 0.522692 0.323081 0.217612
O O1 0.750000 0.347919 0.999381
O O2 0.600459 0.500000 0.004057
O O3 0.618721 0.267427 0.926205
O O4 0.606021 0.227512 0.049381
O O5 0.750000 0.291143 0.603232
O O6 0.624860 0.500000 0.602328
O O7 0.585811 0.224630 0.631033
O O8 0.625647 0.293736 0.514844
O O9 0.750000 0.814163 0.121413
O O10 0.600833 0.729485 0.171145
O O11 0.611258 0.000000 0.125173
O O12 0.913841 0.217972 0.401690
O O13 0.957123 0.253671 0.284799
O O14 0.984237 0.000000 0.338355
O O15 0.250000 0.259979 0.160923
O O16 0.154052 0.500000 0.140941
O O17 0.075904 0.267135 0.193447
O O18 0.750000 0.302680 0.426573
O O19 0.882044 0.500000 0.427513
O O20 0.526058 0.500000 0.222841
#
# Coordination Sequence:
#
# PCOD8213540 Si02
#       7
#     8   8   8   8   8   8   8
#     4   8  14  29  55  82 105 132 171 220 273 328
#     4   9  19  38  64  90 114 144 185 230 272 318
#     4  10  21  37  55  77 109 144 178 223 278 332
#     4  12  25  38  54  81 119 155 185 224 277 334
#     4   8  16  33  57  83 107 133 174 228 276 319
#     4   9  19  38  64  90 113 142 185 232 274 321
#     4  11  23  38  57  79 105 145 193 231 268 321
#
# _framework density 19.826550999999998
#
# number of rings (size 3 to 8) (size 9 to 14) (size 15 to 20)
#    0.000    2.429    0.000    4.286    0.000    5.429 
#    0.000    7.143    0.000    3.000    0.000    0.000 
#    0.000    0.000    0.000    0.000    0.000    0.000 
#
# Total GULP energy -694387.727737 kJ/mol
# GULP energy per Si atom -12399.780852 kJ/mol
# Density = 1.978142 g / cm^3
# Si number density = 19.826551 Si / 1000 Ang^3
#
#
#
# Elastic Constant Matrix: (Units=GPa)
#
#
# Indices 1 2 3 4 5 6 
#
# 1 39.2693 18.0900 0.5542 0.0000 0.0000 0.0000
# 2 18.0900 89.4534 25.5187 0.0000 0.0000 0.0000
# 3 0.5542 25.5187 51.7207 0.0000 0.0000 0.0000
# 4 0.0000 0.0000 0.0000 -12.4325 0.0000 0.0000
# 5 0.0000 0.0000 0.0000 0.0000 20.1710 0.0000
# 6 0.0000 0.0000 0.0000 0.0000 0.0000 21.0083
#
#
#
# Elastic Compliance Matrix: (Units=1/GPa)
#
#
# Indices 1 2 3 4 5 6 
#
# 1 0.028463 -0.006598 0.002950 0.000000 0.000000 0.000000
# 2 -0.006598 0.014540 -0.007103 0.000000 0.000000 0.000000
# 3 0.002950 -0.007103 0.022808 0.000000 0.000000 0.000000
# 4 0.000000 0.000000 0.000000 -0.080435 0.000000 0.000000
# 5 0.000000 0.000000 0.000000 0.000000 0.049576 0.000000
# 6 0.000000 0.000000 0.000000 0.000000 0.000000 0.047600
#
#
# Mechanical properties :
#
#
# Convention : Reuss Voigt Hill
#
# Bulk Modulus (GPa) = 22.56871 29.86326 26.21599
# Shear Modulus (GPa) = 42.07964 14.83473 28.45719
#
# Velocity S-wave (km/s) = 4.61194 2.73834 3.79265
# Velocity P-wave (km/s) = 6.30617 5.00929 5.69476
#
# Compressibility (1/GPa) = 0.04430913
#
# Stress axis : x y z
#
# Youngs Moduli (GPa) = 35.13356 68.77806 43.84507
#
# Poissons Ratio (x) = 0.45377 -0.12935
# Poissons Ratio (y) = 0.23180 0.31143
# Poissons Ratio (z) = -0.10365 0.48853
#
# Static dielectric constant tensor:
#      x y z
#    x 3.637240 0.000000 0.000000 
#    y 0.000000 3.459740 0.000000 
#    z 0.000000 0.000000 3.703850 
# 
# 
# High freq. dielectric constant tensor:
#      x y z
#    x 1.776690 0.000000 0.000000 
#    y 0.000000 1.749990 0.000000 
#    z 0.000000 0.000000 1.774880 
# 
# From -- ./inp_files/33374.got.cif
#   From: 2010.03.12/outbox.cif.g09.slc.cpg/sg51_17_cif.got.tgz:33374.got - 2010.04.16 13:43:02.
