data_PCOD8214689
_publ_section_title
;
Structure prediction by ZEFSAII (Michael W. Deem and Ramdas Pophale) SiO2 
 PCOD8214689
Probable space group: P M M A
;
_chemical_formula_sum "Si O2"
_cell_formula_units_Z 64
_cell_length_a 13.708414
_cell_length_b 9.743302
_cell_length_c 30.679567
_cell_angle_alpha 90.000000
_cell_angle_beta 90.000000
_cell_angle_gamma 90.000000
_cell_volume 4097.723040
_symmetry_space_group_name_H-M "P M M A"
_symmetry_group_IT_number 51
_symmetry_cell_setting 'orthorhombic'
loop_
_space_group_symop_operation_xyz
x,y,z
1/2-x,-y,z
1/2+x,-y,-z
-x,y,-z
-x,-y,-z
1/2+x,y,-z
1/2-x,y,z
x,-y,z
loop_
_atom_site_type_symbol
_atom_site_label
_atom_site_fract_x
_atom_site_fract_y
_atom_site_fract_z
Si Si1 0.043941 0.837093 0.567085
Si Si2 0.863639 0.157943 0.344822
Si Si3 0.862014 0.659800 0.885342
Si Si4 0.141692 0.152254 0.886908
Si Si5 0.356785 0.163363 0.480218
Si Si6 0.961633 0.342599 0.175170
Si Si7 0.027506 0.158444 0.047963
Si Si8 0.862066 0.657528 0.263517
O O1 0.078447 0.779727 0.613700
O O2 0.111662 0.780921 0.527829
O O3 0.932893 0.789294 0.557101
O O4 0.052779 0.000000 0.568564
O O5 0.750000 0.172578 0.355419
O O6 0.894111 0.246442 0.303192
O O7 0.891603 0.000000 0.335415
O O8 0.750000 0.693341 0.872725
O O9 0.874328 0.500000 0.897533
O O10 0.891211 0.748751 0.927907
O O11 0.930256 0.697841 0.843242
O O12 0.250000 0.174332 0.904758
O O13 0.121459 0.257782 0.848712
O O14 0.073581 0.177325 0.927665
O O15 0.126651 0.000000 0.867412
O O16 0.250000 0.222176 0.468509
O O17 0.355960 0.000000 0.482141
O O18 0.940698 0.500000 0.164622
O O19 0.943165 0.313017 0.226168
O O20 0.063877 0.000000 0.047270
O O21 0.000000 0.212251 0.000000
O O22 0.750000 0.690274 0.248569
O O23 0.868714 0.500000 0.278633
#
# Coordination Sequence:
#
# PCOD8214689 Si02
#       8
#     8   8   8   8   8   8   8   8
#     4   8  13  20  31  50  76 103 130 162 199 238
#     4   9  16  25  38  57  81 107 132 160 198 242
#     4   9  18  32  49  68  88 111 142 180 217 248
#     4   9  17  28  42  62  87 111 135 166 203 241
#     4   8  12  18  30  49  73 101 132 165 200 235
#     4   9  17  30  47  64  83 107 136 171 208 247
#     4   9  18  31  46  65  89 117 146 172 201 242
#     4   9  17  28  42  61  83 106 133 165 203 249
#
# _framework density 15.618429000000001
#
# number of rings (size 3 to 8) (size 9 to 14) (size 15 to 20)
#    0.000    3.250    0.000    1.500    0.000    3.750 
#    0.000    2.500    0.000    0.750    0.000    1.750 
#    0.000    1.000    0.000    0.000    0.000    0.000 
#
# Total GULP energy -793073.559277 kJ/mol
# GULP energy per Si atom -12391.774364 kJ/mol
# Density = 1.558288 g / cm^3
# Si number density = 15.618429 Si / 1000 Ang^3
#
#
#
# Elastic Constant Matrix: (Units=GPa)
#
#
# Indices 1 2 3 4 5 6 
#
# 1 101.3452 32.6763 56.7385 0.0000 0.0000 0.0000
# 2 32.6763 41.8401 46.6133 0.0000 0.0000 0.0000
# 3 56.7385 46.6133 120.4183 0.0000 0.0000 0.0000
# 4 0.0000 0.0000 0.0000 10.6252 0.0000 0.0000
# 5 0.0000 0.0000 0.0000 0.0000 19.7893 0.0000
# 6 0.0000 0.0000 0.0000 0.0000 0.0000 15.2091
#
#
#
# Elastic Compliance Matrix: (Units=1/GPa)
#
#
# Indices 1 2 3 4 5 6 
#
# 1 0.014329 -0.006451 -0.004254 0.000000 0.000000 0.000000
# 2 -0.006451 0.044928 -0.014352 0.000000 0.000000 0.000000
# 3 -0.004254 -0.014352 0.015864 0.000000 0.000000 0.000000
# 4 0.000000 0.000000 0.000000 0.094116 0.000000 0.000000
# 5 0.000000 0.000000 0.000000 0.000000 0.050532 0.000000
# 6 0.000000 0.000000 0.000000 0.000000 0.000000 0.065750
#
#
# Mechanical properties :
#
#
# Convention : Reuss Voigt Hill
#
# Bulk Modulus (GPa) = 39.98886 59.51772 49.75329
# Shear Modulus (GPa) = 14.53618 17.62974 16.08296
#
# Velocity S-wave (km/s) = 3.05406 3.36337 3.21244
# Velocity P-wave (km/s) = 6.17216 7.29885 6.75902
#
# Compressibility (1/GPa) = 0.02500697
#
# Stress axis : x y z
#
# Youngs Moduli (GPa) = 69.78824 22.25808 63.03414
#
# Poissons Ratio (x) = 0.14359 0.26817
# Poissons Ratio (y) = 0.45020 0.90464
# Poissons Ratio (z) = 0.29691 0.31944
#
# Static dielectric constant tensor:
#      x y z
#    x 3.145210 0.000000 0.000000 
#    y 0.000000 2.841100 0.000000 
#    z 0.000000 0.000000 3.000820 
# 
# 
# High freq. dielectric constant tensor:
#      x y z
#    x 1.593440 0.000000 0.000000 
#    y 0.000000 1.574340 0.000000 
#    z 0.000000 0.000000 1.590010 
# 
# From -- ./inp_files/37798.got.cif
#   From: 2010.03.12/outbox.cif.g09.slc.cpg/sg51_19_cif.got.tgz:37798.got - 2010.04.16 13:43:02.
