data_PCOD8214446
_publ_section_title
;
Structure prediction by ZEFSAII (Michael W. Deem and Ramdas Pophale) SiO2 
 PCOD8214446
Probable space group: P M M A
;
_chemical_formula_sum "Si O2"
_cell_formula_units_Z 40
_cell_length_a 19.647785
_cell_length_b 11.760967
_cell_length_c 9.326116
_cell_angle_alpha 90.000000
_cell_angle_beta 90.000000
_cell_angle_gamma 90.000000
_cell_volume 2155.050450
_symmetry_space_group_name_H-M "P M M A"
_symmetry_group_IT_number 51
_symmetry_cell_setting 'orthorhombic'
loop_
_space_group_symop_operation_xyz
x,y,z
1/2-x,-y,z
1/2+x,-y,-z
-x,y,-z
-x,-y,-z
1/2+x,y,-z
1/2-x,y,z
x,-y,z
loop_
_atom_site_type_symbol
_atom_site_label
_atom_site_fract_x
_atom_site_fract_y
_atom_site_fract_z
Si Si1 0.441980 0.662347 0.616123
Si Si2 0.639434 0.127849 0.371700
Si Si3 0.250000 0.302043 0.127592
Si Si4 0.250000 0.129903 0.390815
Si Si5 0.825639 0.500000 0.470690
Si Si6 0.002436 0.500000 0.169042
Si Si7 0.341264 0.500000 0.204432
Si Si8 0.250000 0.869631 0.864773
O O1 0.500000 0.633847 0.500000
O O2 0.428750 0.796102 0.630742
O O3 0.368871 0.610459 0.573054
O O4 0.465601 0.611770 0.768350
O O5 0.683258 0.150977 0.513894
O O6 0.683463 0.151944 0.230409
O O7 0.612234 0.000000 0.371026
O O8 0.250000 0.220547 0.264745
O O9 0.315876 0.385052 0.124759
O O10 0.250000 0.221508 0.990571
O O11 0.250000 0.000000 0.332095
O O12 0.750000 0.500000 0.396333
O O13 0.809886 0.500000 0.638274
O O14 0.079033 0.500000 0.219922
O O15 0.000000 0.500000 0.000000
O O16 0.250000 0.000000 0.922737
#
# Coordination Sequence:
#
# PCOD8214446 Si02
#       8
#     8   8   4   4   4   4   4   4
#     4  11  22  39  62  84 115 153 192 231 289 348
#     4   9  20  37  58  85 113 147 189 237 286 337
#     4  11  21  32  60  86 115 147 190 230 290 339
#     4   9  18  34  58  88 115 146 187 231 284 335
#     4  11  20  37  58  90 116 149 185 235 286 338
#     4  11  25  42  56  77 119 156 193 230 286 336
#     4  11  22  35  53  87 120 147 183 244 280 335
#     4   9  20  38  56  80 119 150 187 239 290 341
#
# _framework density 18.561050999999999
#
# number of rings (size 3 to 8) (size 9 to 14) (size 15 to 20)
#    0.000    1.800    3.000    3.300    5.600    0.400 
#    0.000    0.000    0.000    0.600    0.000    0.000 
#    0.000    0.000    0.000    0.000    0.000    0.000 
#
# Total GULP energy -495892.500438 kJ/mol
# GULP energy per Si atom -12397.312511 kJ/mol
# Density = 1.851881 g / cm^3
# Si number density = 18.561051 Si / 1000 Ang^3
#
#
#
# Elastic Constant Matrix: (Units=GPa)
#
#
# Indices 1 2 3 4 5 6 
#
# 1 115.7210 53.7889 28.1259 0.0000 0.0000 0.0000
# 2 53.7889 148.7634 62.0016 0.0000 0.0000 0.0000
# 3 28.1259 62.0016 110.6430 0.0000 0.0000 0.0000
# 4 0.0000 0.0000 0.0000 17.2966 0.0000 0.0000
# 5 0.0000 0.0000 0.0000 0.0000 12.0766 0.0000
# 6 0.0000 0.0000 0.0000 0.0000 0.0000 12.6928
#
#
#
# Elastic Compliance Matrix: (Units=1/GPa)
#
#
# Indices 1 2 3 4 5 6 
#
# 1 0.010429 -0.003478 -0.000702 0.000000 0.000000 0.000000
# 2 -0.003478 0.009931 -0.004681 0.000000 0.000000 0.000000
# 3 -0.000702 -0.004681 0.011839 0.000000 0.000000 0.000000
# 4 0.000000 0.000000 0.000000 0.057815 0.000000 0.000000
# 5 0.000000 0.000000 0.000000 0.000000 0.082805 0.000000
# 6 0.000000 0.000000 0.000000 0.000000 0.000000 0.078785
#
#
# Mechanical properties :
#
#
# Convention : Reuss Voigt Hill
#
# Bulk Modulus (GPa) = 69.07434 73.66224 71.36829
# Shear Modulus (GPa) = 18.23819 23.82728 21.03273
#
# Velocity S-wave (km/s) = 3.13805 3.58680 3.36990
# Velocity P-wave (km/s) = 7.10108 7.54494 7.32637
#
# Compressibility (1/GPa) = 0.01447716
#
# Stress axis : x y z
#
# Youngs Moduli (GPa) = 95.88818 100.69972 84.46361
#
# Poissons Ratio (x) = 0.35026 0.05929
# Poissons Ratio (y) = 0.33352 0.39534
# Poissons Ratio (z) = 0.06731 0.47134
#
# Static dielectric constant tensor:
#      x y z
#    x 2.865790 0.000000 0.000000 
#    y 0.000000 3.568430 0.000000 
#    z 0.000000 0.000000 3.283910 
# 
# 
# High freq. dielectric constant tensor:
#      x y z
#    x 1.714290 0.000000 0.000000 
#    y 0.000000 1.733110 0.000000 
#    z 0.000000 0.000000 1.706450 
# 
# From -- ./inp_files/10753.got.cif
#   From: 2010.03.12/outbox.cif.g09.slc.cpg/sg51_6_cif.got.tgz:10753.got - 2010.04.16 13:43:02.
