data_PCOD8214887
_publ_section_title
;
Structure prediction by ZEFSAII (Michael W. Deem and Ramdas Pophale) SiO2 
 PCOD8214887
Probable space group: P M M A
;
_chemical_formula_sum "Si O2"
_cell_formula_units_Z 64
_cell_length_a 17.541260
_cell_length_b 9.372666
_cell_length_c 23.082256
_cell_angle_alpha 90.000000
_cell_angle_beta 90.000000
_cell_angle_gamma 90.000000
_cell_volume 3794.916113
_symmetry_space_group_name_H-M "P M M A"
_symmetry_group_IT_number 51
_symmetry_cell_setting 'orthorhombic'
loop_
_space_group_symop_operation_xyz
x,y,z
1/2-x,-y,z
1/2+x,-y,-z
-x,y,-z
-x,-y,-z
1/2+x,y,-z
1/2-x,y,z
x,-y,z
loop_
_atom_site_type_symbol
_atom_site_label
_atom_site_fract_x
_atom_site_fract_y
_atom_site_fract_z
Si Si1 0.953035 0.333570 0.859984
Si Si2 0.926714 0.339142 0.540081
Si Si3 0.337400 0.834419 0.549085
Si Si4 0.980083 0.167250 0.372974
Si Si5 0.020619 0.167187 0.759436
Si Si6 0.166745 0.161624 0.826882
Si Si7 0.664726 0.669583 0.952015
Si Si8 0.606168 0.666159 0.073947
O O1 0.950632 0.500000 0.844433
O O2 0.877371 0.280569 0.893295
O O3 0.959464 0.248288 0.799683
O O4 0.021267 0.298871 0.904529
O O5 0.900697 0.500000 0.556238
O O6 0.857737 0.258903 0.507501
O O7 0.000000 0.343277 0.500000
O O8 0.950910 0.252111 0.597022
O O9 0.250000 0.800802 0.568204
O O10 0.396102 0.795832 0.601101
O O11 0.346247 0.000000 0.532081
O O12 0.984131 0.217149 0.306649
O O13 0.996277 0.000000 0.380248
O O14 0.105098 0.212148 0.779973
O O15 0.005106 0.000000 0.765343
O O16 0.250000 0.176192 0.797791
O O17 0.165784 0.256024 0.884451
O O18 0.149504 0.000000 0.845805
O O19 0.750000 0.733413 0.951937
O O20 0.666575 0.500000 0.953028
O O21 0.618623 0.723237 0.008645
O O22 0.624532 0.500000 0.077456
#
# Coordination Sequence:
#
# PCOD8214887 Si02
#       8
#     8   8   8   8   8   8   8   8
#     4   9  17  29  45  64  86 113 146 184 223 265
#     4   9  17  29  46  68  94 123 152 182 218 258
#     4   9  17  29  47  72  99 123 147 179 220 264
#     4   9  17  30  48  68  90 119 156 191 219 256
#     4   9  18  31  46  64  87 118 153 185 218 256
#     4   9  17  28  41  60  89 120 146 176 217 264
#     4   9  16  26  43  66  87 108 139 181 227 272
#     4   9  16  27  44  64  85 110 142 179 220 269
#
# _framework density 16.864668000000002
#
# number of rings (size 3 to 8) (size 9 to 14) (size 15 to 20)
#    0.000    3.000    0.000    1.125    0.000    5.000 
#    0.000    3.125    0.000    4.875    0.000   10.500 
#    0.000    0.000    0.000    0.000    0.000    0.000 
#
# Total GULP energy -793323.586761 kJ/mol
# GULP energy per Si atom -12395.681043 kJ/mol
# Density = 1.682628 g / cm^3
# Si number density = 16.864668 Si / 1000 Ang^3
#
#
#
# Elastic Constant Matrix: (Units=GPa)
#
#
# Indices 1 2 3 4 5 6 
#
# 1 63.0763 26.0707 51.8809 0.0000 0.0000 0.0000
# 2 26.0707 47.2347 46.0694 0.0000 0.0000 0.0000
# 3 51.8809 46.0694 140.8592 0.0000 0.0000 0.0000
# 4 0.0000 0.0000 0.0000 25.9106 0.0000 0.0000
# 5 0.0000 0.0000 0.0000 0.0000 17.5122 0.0000
# 6 0.0000 0.0000 0.0000 0.0000 0.0000 16.3189
#
#
#
# Elastic Compliance Matrix: (Units=1/GPa)
#
#
# Indices 1 2 3 4 5 6 
#
# 1 0.024159 -0.006837 -0.006662 0.000000 0.000000 0.000000
# 2 -0.006837 0.033022 -0.008282 0.000000 0.000000 0.000000
# 3 -0.006662 -0.008282 0.012262 0.000000 0.000000 0.000000
# 4 0.000000 0.000000 0.000000 0.038594 0.000000 0.000000
# 5 0.000000 0.000000 0.000000 0.000000 0.057103 0.000000
# 6 0.000000 0.000000 0.000000 0.000000 0.000000 0.061279
#
#
# Mechanical properties :
#
#
# Convention : Reuss Voigt Hill
#
# Bulk Modulus (GPa) = 38.63802 55.46803 47.05303
# Shear Modulus (GPa) = 17.94632 20.42494 19.18563
#
# Velocity S-wave (km/s) = 3.26565 3.48387 3.37653
# Velocity P-wave (km/s) = 6.09751 7.01032 6.56979
#
# Compressibility (1/GPa) = 0.02588124
#
# Stress axis : x y z
#
# Youngs Moduli (GPa) = 41.39182 30.28273 81.55322
#
# Poissons Ratio (x) = 0.20703 0.54334
# Poissons Ratio (y) = 0.28298 0.67544
# Poissons Ratio (z) = 0.27577 0.25081
#
# Static dielectric constant tensor:
#      x y z
#    x 3.173970 0.000000 0.000000 
#    y 0.000000 3.101170 0.000000 
#    z 0.000000 0.000000 3.150750 
# 
# 
# High freq. dielectric constant tensor:
#      x y z
#    x 1.636650 0.000000 0.000000 
#    y 0.000000 1.634760 0.000000 
#    z 0.000000 0.000000 1.638300 
# 
# From -- ./inp_files/35910.got.cif
#   From: 2010.03.12/outbox.cif.g09.slc.cpg/sg51_18_cif.got.tgz:35910.got - 2010.04.16 13:43:02.
