data_PCOD8214834
_publ_section_title
;
Structure prediction by ZEFSAII (Michael W. Deem and Ramdas Pophale) SiO2 
 PCOD8214834
Probable space group: P M M A
;
_chemical_formula_sum "Si O2"
_cell_formula_units_Z 64
_cell_length_a 9.605420
_cell_length_b 9.445137
_cell_length_c 41.188353
_cell_angle_alpha 90.000000
_cell_angle_beta 90.000000
_cell_angle_gamma 90.000000
_cell_volume 3736.793055
_symmetry_space_group_name_H-M "P M M A"
_symmetry_group_IT_number 51
_symmetry_cell_setting 'orthorhombic'
loop_
_space_group_symop_operation_xyz
x,y,z
1/2-x,-y,z
1/2+x,-y,-z
-x,y,-z
-x,-y,-z
1/2+x,y,-z
1/2-x,y,z
x,-y,z
loop_
_atom_site_type_symbol
_atom_site_label
_atom_site_fract_x
_atom_site_fract_y
_atom_site_fract_z
Si Si1 0.910563 0.164054 0.783797
Si Si2 0.584337 0.342577 0.408864
Si Si3 0.588391 0.163719 0.031237
Si Si4 0.588857 0.165214 0.469501
Si Si5 0.088986 0.335019 0.278871
Si Si6 0.087933 0.836007 0.845672
Si Si7 0.084607 0.339913 0.907235
Si Si8 0.094828 0.668674 0.662045
O O1 0.750000 0.196844 0.791931
O O2 0.962442 0.253012 0.752972
O O3 0.002438 0.212276 0.814241
O O4 0.934040 0.000000 0.775713
O O5 0.750000 0.348207 0.408825
O O6 0.523772 0.500000 0.414885
O O7 0.529603 0.241460 0.437394
O O8 0.537529 0.282988 0.373449
O O9 0.750000 0.194041 0.023817
O O10 0.564831 0.000000 0.040475
O O11 0.500000 0.207958 0.000000
O O12 0.531469 0.258317 0.060847
O O13 0.500000 0.220095 0.500000
O O14 0.750000 0.202593 0.475918
O O15 0.566454 0.000000 0.463855
O O16 0.250000 0.304949 0.285786
O O17 0.058692 0.500000 0.273240
O O18 0.005684 0.274023 0.309771
O O19 0.250000 0.807542 0.838769
O O20 0.030958 0.742661 0.875495
O O21 0.060996 0.000000 0.854179
O O22 0.250000 0.339409 0.907159
O O23 0.025814 0.500000 0.907161
O O24 0.250000 0.728828 0.668382
O O25 0.098712 0.500000 0.662068
#
# Coordination Sequence:
#
# PCOD8214834 Si02
#       8
#     8   8   8   8   8   8   8   8
#     4   9  18  32  47  63  87 118 146 173 212 259
#     4   8  14  26  44  63  83 109 140 173 209 249
#     4   9  17  30  48  68  90 118 151 183 215 255
#     4   9  17  29  44  61  83 111 140 170 207 251
#     4   9  17  29  45  64  86 113 143 173 207 250
#     4   9  17  30  48  67  86 111 145 182 216 252
#     4   9  17  29  46  68  92 117 145 179 220 262
#     4   8  14  26  44  64  85 110 140 173 210 251
#
# _framework density 17.126985000000001
#
# number of rings (size 3 to 8) (size 9 to 14) (size 15 to 20)
#    0.000    3.250    0.000    1.125    0.000    3.000 
#    0.000    1.875    0.000    5.250    0.000    0.000 
#    0.000    0.000    0.000    0.000    0.000    0.000 
#
# Total GULP energy -793450.727647 kJ/mol
# GULP energy per Si atom -12397.667619 kJ/mol
# Density = 1.708800 g / cm^3
# Si number density = 17.126985 Si / 1000 Ang^3
#
#
#
# Elastic Constant Matrix: (Units=GPa)
#
#
# Indices 1 2 3 4 5 6 
#
# 1 47.9202 30.4610 65.0519 0.0000 0.0000 0.0000
# 2 30.4610 67.5008 78.0896 0.0000 0.0000 0.0000
# 3 65.0519 78.0896 196.8583 0.0000 0.0000 0.0000
# 4 0.0000 0.0000 0.0000 32.0997 0.0000 0.0000
# 5 0.0000 0.0000 0.0000 0.0000 30.9939 0.0000
# 6 0.0000 0.0000 0.0000 0.0000 0.0000 14.1496
#
#
#
# Elastic Compliance Matrix: (Units=1/GPa)
#
#
# Indices 1 2 3 4 5 6 
#
# 1 0.038714 -0.004935 -0.010835 0.000000 0.000000 0.000000
# 2 -0.004935 0.028008 -0.009479 0.000000 0.000000 0.000000
# 3 -0.010835 -0.009479 0.012421 0.000000 0.000000 0.000000
# 4 0.000000 0.000000 0.000000 0.031153 0.000000 0.000000
# 5 0.000000 0.000000 0.000000 0.000000 0.032264 0.000000
# 6 0.000000 0.000000 0.000000 0.000000 0.000000 0.070673
#
#
# Mechanical properties :
#
#
# Convention : Reuss Voigt Hill
#
# Bulk Modulus (GPa) = 34.91277 73.27600 54.09439
# Shear Modulus (GPa) = 18.29614 24.69376 21.49495
#
# Velocity S-wave (km/s) = 3.27198 3.80123 3.54649
# Velocity P-wave (km/s) = 5.89095 7.88306 6.95866
#
# Compressibility (1/GPa) = 0.02864281
#
# Stress axis : x y z
#
# Youngs Moduli (GPa) = 25.83024 35.70380 80.51134
#
# Poissons Ratio (x) = 0.17621 0.87237
# Poissons Ratio (y) = 0.12748 0.76320
# Poissons Ratio (z) = 0.27988 0.33845
#
# Static dielectric constant tensor:
#      x y z
#    x 2.991310 0.000000 0.000000 
#    y 0.000000 3.139580 0.000000 
#    z 0.000000 0.000000 3.475130 
# 
# 
# High freq. dielectric constant tensor:
#      x y z
#    x 1.629960 0.000000 0.000000 
#    y 0.000000 1.645080 0.000000 
#    z 0.000000 0.000000 1.673120 
# 
# From -- ./inp_files/37771.got.cif
#   From: 2010.03.12/outbox.cif.g09.slc.cpg/sg51_19_cif.got.tgz:37771.got - 2010.04.16 13:43:02.
