data_PCOD8214005
_publ_section_title
;
Structure prediction by ZEFSAII (Michael W. Deem and Ramdas Pophale) SiO2 
 PCOD8214005
Probable space group: P M M A
;
_chemical_formula_sum "Si O2"
_cell_formula_units_Z 48
_cell_length_a 18.968133
_cell_length_b 8.643934
_cell_length_c 14.993259
_cell_angle_alpha 90.000000
_cell_angle_beta 90.000000
_cell_angle_gamma 90.000000
_cell_volume 2458.284097
_symmetry_space_group_name_H-M "P M M A"
_symmetry_group_IT_number 51
_symmetry_cell_setting 'orthorhombic'
loop_
_space_group_symop_operation_xyz
x,y,z
1/2-x,-y,z
1/2+x,-y,-z
-x,y,-z
-x,-y,-z
1/2+x,y,-z
1/2-x,y,z
x,-y,z
loop_
_atom_site_type_symbol
_atom_site_label
_atom_site_fract_x
_atom_site_fract_y
_atom_site_fract_z
Si Si1 0.087566 0.318464 0.278325
Si Si2 0.670795 0.317137 0.894731
Si Si3 0.926221 0.181227 0.037940
Si Si4 0.059952 0.179860 0.758333
Si Si5 0.669441 0.179938 0.558856
Si Si6 0.167955 0.321176 0.627445
O O1 0.100235 0.500000 0.291991
O O2 0.124786 0.256097 0.188445
O O3 0.119865 0.226969 0.360518
O O4 0.005075 0.282975 0.274110
O O5 0.750000 0.251235 0.885833
O O6 0.671508 0.500000 0.895199
O O7 0.638334 0.260149 0.987288
O O8 0.919642 0.225407 0.141201
O O9 0.921264 0.000000 0.020654
O O10 0.000000 0.246656 0.000000
O O11 0.126774 0.215936 0.697429
O O12 0.039370 0.000000 0.751701
O O13 0.750000 0.220090 0.584291
O O14 0.645272 0.275431 0.472330
O O15 0.660036 0.000000 0.537337
O O16 0.250000 0.285748 0.641988
O O17 0.149723 0.500000 0.643304
#
# Coordination Sequence:
#
# PCOD8214005 Si02
#       6
#     8   8   8   8   8   8
#     4  11  22  37  59  87 121 157 196 241 293 350
#     4  10  22  38  58  87 120 154 195 242 290 346
#     4  10  21  39  60  83 115 154 196 240 291 347
#     4  11  23  39  61  87 118 154 197 245 294 350
#     4  10  21  38  61  88 119 156 196 240 293 349
#     4  10  22  41  63  87 117 153 195 243 294 350
#
# _framework density 19.525814
#
# number of rings (size 3 to 8) (size 9 to 14) (size 15 to 20)
#    0.000    1.667    1.667    2.500    0.000    6.667 
#    0.000    6.667    0.000    0.000    0.000    0.000 
#    0.000    0.000    0.000    0.000    0.000    0.000 
#
# Total GULP energy -595509.704530 kJ/mol
# GULP energy per Si atom -12406.452178 kJ/mol
# Density = 1.948137 g / cm^3
# Si number density = 19.525814 Si / 1000 Ang^3
#
#
#
# Elastic Constant Matrix: (Units=GPa)
#
#
# Indices 1 2 3 4 5 6 
#
# 1 99.3854 21.8620 59.9006 0.0000 0.0000 0.0000
# 2 21.8620 38.4102 20.5396 0.0000 0.0000 0.0000
# 3 59.9006 20.5396 127.5794 0.0000 0.0000 0.0000
# 4 0.0000 0.0000 0.0000 35.4252 0.0000 0.0000
# 5 0.0000 0.0000 0.0000 0.0000 35.0097 0.0000
# 6 0.0000 0.0000 0.0000 0.0000 0.0000 30.2269
#
#
#
# Elastic Compliance Matrix: (Units=1/GPa)
#
#
# Indices 1 2 3 4 5 6 
#
# 1 0.014924 -0.005194 -0.006171 0.000000 0.000000 0.000000
# 2 -0.005194 0.030295 -0.002439 0.000000 0.000000 0.000000
# 3 -0.006171 -0.002439 0.011128 0.000000 0.000000 0.000000
# 4 0.000000 0.000000 0.000000 0.028228 0.000000 0.000000
# 5 0.000000 0.000000 0.000000 0.000000 0.028564 0.000000
# 6 0.000000 0.000000 0.000000 0.000000 0.000000 0.033083
#
#
# Mechanical properties :
#
#
# Convention : Reuss Voigt Hill
#
# Bulk Modulus (GPa) = 34.79492 52.21996 43.50744
# Shear Modulus (GPa) = 27.26150 31.00388 29.13269
#
# Velocity S-wave (km/s) = 3.74060 3.98909 3.86684
# Velocity P-wave (km/s) = 6.04274 6.92960 6.50131
#
# Compressibility (1/GPa) = 0.02873983
#
# Stress axis : x y z
#
# Youngs Moduli (GPa) = 67.00828 33.00849 89.86318
#
# Poissons Ratio (x) = 0.17146 0.55451
# Poissons Ratio (y) = 0.34807 0.21913
# Poissons Ratio (z) = 0.41348 0.08049
#
# Static dielectric constant tensor:
#      x y z
#    x 3.604730 0.000000 0.000000 
#    y 0.000000 3.468920 0.000000 
#    z 0.000000 0.000000 3.607540 
# 
# 
# High freq. dielectric constant tensor:
#      x y z
#    x 1.762100 0.000000 0.000000 
#    y 0.000000 1.761680 0.000000 
#    z 0.000000 0.000000 1.770030 
# 
# From -- ./inp_files/24740.got.cif
#   From: 2010.03.12/outbox.cif.g09.slc.cpg/sg51_13_cif.got.tgz:24740.got - 2010.04.16 13:43:02.
