data_PCOD8214130
_publ_section_title
;
Structure prediction by ZEFSAII (Michael W. Deem and Ramdas Pophale) SiO2 
 PCOD8214130
Probable space group: P M M A
;
_chemical_formula_sum "Si O2"
_cell_formula_units_Z 40
_cell_length_a 15.902307
_cell_length_b 8.406689
_cell_length_c 14.570128
_cell_angle_alpha 90.000000
_cell_angle_beta 90.000000
_cell_angle_gamma 90.000000
_cell_volume 1947.818480
_symmetry_space_group_name_H-M "P M M A"
_symmetry_group_IT_number 51
_symmetry_cell_setting 'orthorhombic'
loop_
_space_group_symop_operation_xyz
x,y,z
1/2-x,-y,z
1/2+x,-y,-z
-x,y,-z
-x,-y,-z
1/2+x,y,-z
1/2-x,y,z
x,-y,z
loop_
_atom_site_type_symbol
_atom_site_label
_atom_site_fract_x
_atom_site_fract_y
_atom_site_fract_z
Si Si1 0.584915 0.685375 0.400591
Si Si2 0.250000 0.809397 0.086223
Si Si3 0.250000 0.312387 0.291794
Si Si4 0.346871 0.683799 0.791407
Si Si5 0.910256 0.185336 0.027464
Si Si6 0.597411 0.814876 0.591538
O O1 0.601883 0.500000 0.417503
O O2 0.631759 0.747175 0.309855
O O3 0.624395 0.780892 0.486375
O O4 0.485994 0.714597 0.387858
O O5 0.250000 0.730198 0.185328
O O6 0.250000 0.000000 0.094201
O O7 0.332616 0.744999 0.032137
O O8 0.250000 0.500000 0.306497
O O9 0.168238 0.237330 0.337890
O O10 0.250000 0.712753 0.811896
O O11 0.372437 0.500000 0.800178
O O12 0.398935 0.783439 0.864945
O O13 0.913436 0.000000 0.007925
O O14 0.000000 0.263295 0.000000
O O15 0.578121 0.000000 0.604505
#
# Coordination Sequence:
#
# PCOD8214130 Si02
#       6
#     8   4   4   8   8   8
#     4  10  21  39  63  91 125 164 204 247 304 363
#     4  10  22  42  61  88 125 158 201 254 304 364
#     4  12  26  42  63  88 121 162 205 252 308 366
#     4  10  22  39  61  91 123 157 199 248 299 359
#     4  10  22  40  63  90 120 158 200 249 307 364
#     4  11  23  41  62  90 123 160 206 255 303 359
#
# _framework density 20.535793000000002
#
# number of rings (size 3 to 8) (size 9 to 14) (size 15 to 20)
#    0.000    1.600    1.000    4.500    4.200    2.800 
#    0.000    0.000    0.000    0.000    0.000    0.000 
#    0.000    0.000    0.000    0.000    0.000    0.000 
#
# Total GULP energy -496110.703212 kJ/mol
# GULP energy per Si atom -12402.767580 kJ/mol
# Density = 2.048905 g / cm^3
# Si number density = 20.535793 Si / 1000 Ang^3
#
#
#
# Elastic Constant Matrix: (Units=GPa)
#
#
# Indices 1 2 3 4 5 6 
#
# 1 97.5554 11.6592 50.3804 0.0000 0.0000 0.0000
# 2 11.6592 39.5520 19.3268 0.0000 0.0000 0.0000
# 3 50.3804 19.3268 129.8496 0.0000 0.0000 0.0000
# 4 0.0000 0.0000 0.0000 37.0516 0.0000 0.0000
# 5 0.0000 0.0000 0.0000 0.0000 37.2379 0.0000
# 6 0.0000 0.0000 0.0000 0.0000 0.0000 17.2526
#
#
#
# Elastic Compliance Matrix: (Units=1/GPa)
#
#
# Indices 1 2 3 4 5 6 
#
# 1 0.012897 -0.001463 -0.004786 0.000000 0.000000 0.000000
# 2 -0.001463 0.027432 -0.003515 0.000000 0.000000 0.000000
# 3 -0.004786 -0.003515 0.010081 0.000000 0.000000 0.000000
# 4 0.000000 0.000000 0.000000 0.026989 0.000000 0.000000
# 5 0.000000 0.000000 0.000000 0.000000 0.026854 0.000000
# 6 0.000000 0.000000 0.000000 0.000000 0.000000 0.057962
#
#
# Mechanical properties :
#
#
# Convention : Reuss Voigt Hill
#
# Bulk Modulus (GPa) = 32.38180 47.74329 40.06255
# Shear Modulus (GPa) = 26.03623 30.68111 28.35867
#
# Velocity S-wave (km/s) = 3.56455 3.86946 3.72013
# Velocity P-wave (km/s) = 5.72224 6.57746 6.16470
#
# Compressibility (1/GPa) = 0.03088154
#
# Stress axis : x y z
#
# Youngs Moduli (GPa) = 77.53629 36.45347 99.19217
#
# Poissons Ratio (x) = 0.05334 0.47475
# Poissons Ratio (y) = 0.11345 0.34869
# Poissons Ratio (z) = 0.37111 0.12815
#
# Static dielectric constant tensor:
#      x y z
#    x 3.894730 0.000000 0.000000 
#    y 0.000000 3.581710 0.000000 
#    z 0.000000 0.000000 3.848600 
# 
# 
# High freq. dielectric constant tensor:
#      x y z
#    x 1.808390 0.000000 0.000000 
#    y 0.000000 1.792980 0.000000 
#    z 0.000000 0.000000 1.815660 
# 
# From -- ./inp_files/23797.got.cif
#   From: 2010.03.12/outbox.cif.g09.slc.cpg/sg51_12_cif.got.tgz:23797.got - 2010.04.16 13:43:02.
