data_PCOD8214089
_publ_section_title
;
Structure prediction by ZEFSAII (Michael W. Deem and Ramdas Pophale) SiO2 
 PCOD8214089
Probable space group: P M M A
;
_chemical_formula_sum "Si O2"
_cell_formula_units_Z 48
_cell_length_a 9.760589
_cell_length_b 8.794225
_cell_length_c 28.669611
_cell_angle_alpha 90.000000
_cell_angle_beta 90.000000
_cell_angle_gamma 90.000000
_cell_volume 2460.908118
_symmetry_space_group_name_H-M "P M M A"
_symmetry_group_IT_number 51
_symmetry_cell_setting 'orthorhombic'
loop_
_space_group_symop_operation_xyz
x,y,z
1/2-x,-y,z
1/2+x,-y,-z
-x,y,-z
-x,-y,-z
1/2+x,y,-z
1/2-x,y,z
x,-y,z
loop_
_atom_site_type_symbol
_atom_site_label
_atom_site_fract_x
_atom_site_fract_y
_atom_site_fract_z
Si Si1 0.750000 0.678935 0.963746
Si Si2 0.906824 0.821069 0.644038
Si Si3 0.972504 0.179281 0.899992
Si Si4 0.750000 0.678842 0.072222
Si Si5 0.906224 0.680078 0.278353
Si Si6 0.096639 0.325700 0.194921
Si Si7 0.401230 0.180639 0.460799
O O1 0.750000 0.500000 0.954625
O O2 0.614433 0.749662 0.941839
O O3 0.750000 0.720079 0.017944
O O4 0.750000 0.770300 0.654819
O O5 0.947468 0.773758 0.591315
O O6 0.015978 0.738840 0.676382
O O7 0.920488 0.000000 0.651477
O O8 0.907637 0.221031 0.850505
O O9 0.122539 0.247966 0.901874
O O10 0.974821 0.000000 0.906418
O O11 0.750000 0.500000 0.080684
O O12 0.750000 0.742414 0.276887
O O13 0.907129 0.500000 0.280076
O O14 0.987636 0.736662 0.232517
O O15 0.250000 0.313541 0.216214
O O16 0.063665 0.500000 0.181012
O O17 0.500000 0.252798 0.500000
O O18 0.250000 0.245411 0.470639
O O19 0.399437 0.000000 0.464738
#
# Coordination Sequence:
#
# PCOD8214089 Si02
#       7
#     4   8   8   4   8   8   8
#     4  11  23  43  67  91 119 161 207 237 276 345
#     4   9  18  33  53  79 111 147 187 233 285 340
#     4  12  25  40  62  94 126 154 190 244 301 342
#     4  11  25  43  65  89 121 163 203 239 280 343
#     4  10  22  38  57  84 113 145 187 235 284 336
#     4  10  21  39  62  83 109 150 195 232 276 346
#     4   8  14  25  43  70 104 141 182 228 278 335
#
# _framework density 19.504995000000001
#
# number of rings (size 3 to 8) (size 9 to 14) (size 15 to 20)
#    0.000    2.000    0.833    4.000    1.167    6.000 
#    0.000    1.667    0.000    0.500    0.000    0.000 
#    0.000    0.000    0.000    0.000    0.000    0.000 
#
# Total GULP energy -595241.165850 kJ/mol
# GULP energy per Si atom -12400.857622 kJ/mol
# Density = 1.946060 g / cm^3
# Si number density = 19.504995 Si / 1000 Ang^3
#
#
#
# Elastic Constant Matrix: (Units=GPa)
#
#
# Indices 1 2 3 4 5 6 
#
# 1 132.5805 25.3597 54.5647 0.0000 0.0000 0.0000
# 2 25.3597 48.6288 29.7580 0.0000 0.0000 0.0000
# 3 54.5647 29.7580 106.3105 0.0000 0.0000 0.0000
# 4 0.0000 0.0000 0.0000 27.7665 0.0000 0.0000
# 5 0.0000 0.0000 0.0000 0.0000 41.2497 0.0000
# 6 0.0000 0.0000 0.0000 0.0000 0.0000 35.9543
#
#
#
# Elastic Compliance Matrix: (Units=1/GPa)
#
#
# Indices 1 2 3 4 5 6 
#
# 1 0.009799 -0.002453 -0.004343 0.000000 0.000000 0.000000
# 2 -0.002453 0.025428 -0.005859 0.000000 0.000000 0.000000
# 3 -0.004343 -0.005859 0.013275 0.000000 0.000000 0.000000
# 4 0.000000 0.000000 0.000000 0.036015 0.000000 0.000000
# 5 0.000000 0.000000 0.000000 0.000000 0.024243 0.000000
# 6 0.000000 0.000000 0.000000 0.000000 0.000000 0.027813
#
#
# Mechanical properties :
#
#
# Convention : Reuss Voigt Hill
#
# Bulk Modulus (GPa) = 43.11479 56.32051 49.71765
# Shear Modulus (GPa) = 29.47880 32.84994 31.16437
#
# Velocity S-wave (km/s) = 3.89182 4.10833 4.00154
# Velocity P-wave (km/s) = 6.50750 7.17231 6.84798
#
# Compressibility (1/GPa) = 0.02319390
#
# Stress axis : x y z
#
# Youngs Moduli (GPa) = 102.05041 39.32625 75.32683
#
# Poissons Ratio (x) = 0.09645 0.32714
# Poissons Ratio (y) = 0.25028 0.44134
# Poissons Ratio (z) = 0.44320 0.23041
#
# Static dielectric constant tensor:
#      x y z
#    x 3.911980 0.000000 0.000000 
#    y 0.000000 3.298750 0.000000 
#    z 0.000000 0.000000 3.642360 
# 
# 
# High freq. dielectric constant tensor:
#      x y z
#    x 1.772540 0.000000 0.000000 
#    y 0.000000 1.734950 0.000000 
#    z 0.000000 0.000000 1.765550 
# 
# From -- ./inp_files/37130.got.cif
#   From: 2010.03.12/outbox.cif.g09.slc.cpg/sg51_19_cif.got.tgz:37130.got - 2010.04.16 13:43:02.
