data_PCOD8214735
_publ_section_title
;
Structure prediction by ZEFSAII (Michael W. Deem and Ramdas Pophale) SiO2 
 PCOD8214735
Probable space group: P M M A
;
_chemical_formula_sum "Si O2"
_cell_formula_units_Z 40
_cell_length_a 9.363595
_cell_length_b 9.417501
_cell_length_c 25.993206
_cell_angle_alpha 90.000000
_cell_angle_beta 90.000000
_cell_angle_gamma 90.000000
_cell_volume 2292.124191
_symmetry_space_group_name_H-M "P M M A"
_symmetry_group_IT_number 51
_symmetry_cell_setting 'orthorhombic'
loop_
_space_group_symop_operation_xyz
x,y,z
1/2-x,-y,z
1/2+x,-y,-z
-x,y,-z
-x,-y,-z
1/2+x,y,-z
1/2-x,y,z
x,-y,z
loop_
_atom_site_type_symbol
_atom_site_label
_atom_site_fract_x
_atom_site_fract_y
_atom_site_fract_z
Si Si1 0.909362 0.669091 0.644127
Si Si2 0.088892 0.669387 0.548700
Si Si3 0.416252 0.335947 0.050472
Si Si4 0.420104 0.658472 0.242644
Si Si5 0.420171 0.159959 0.148204
O O1 0.750000 0.729453 0.633752
O O2 0.903043 0.500000 0.642193
O O3 0.965638 0.715392 0.700740
O O4 0.015811 0.728850 0.600698
O O5 0.250000 0.728348 0.545525
O O6 0.089272 0.500000 0.548906
O O7 0.000000 0.726713 0.500000
O O8 0.250000 0.308642 0.040406
O O9 0.446809 0.500000 0.063432
O O10 0.474242 0.243603 0.098006
O O11 0.500000 0.286021 0.000000
O O12 0.250000 0.652379 0.240213
O O13 0.481159 0.500000 0.232779
O O14 0.481915 0.763343 0.199151
O O15 0.250000 0.161229 0.149805
O O16 0.479926 0.000000 0.146473
#
# Coordination Sequence:
#
# PCOD8214735 Si02
#       5
#     8   8   8   8   8
#     4   8  13  21  33  49  69  95 128 162 195 235
#     4   9  15  21  30  46  71 102 132 162 198 240
#     4   9  17  29  45  64  86 112 141 172 206 245
#     4   8  13  22  37  55  75 102 136 171 205 243
#     4   9  16  25  39  61  86 109 136 172 210 246
#
# _framework density 17.451063000000001
#
# number of rings (size 3 to 8) (size 9 to 14) (size 15 to 20)
#    0.000    3.400    0.000    2.400    0.000    5.200 
#    0.000    0.000    0.000    1.200    0.000    5.600 
#    0.000    0.800    0.000    1.400    0.000    2.000 
#
# Total GULP energy -495785.093426 kJ/mol
# GULP energy per Si atom -12394.627336 kJ/mol
# Density = 1.741134 g / cm^3
# Si number density = 17.451063 Si / 1000 Ang^3
#
#
#
# Elastic Constant Matrix: (Units=GPa)
#
#
# Indices 1 2 3 4 5 6 
#
# 1 62.6426 21.3439 60.8740 0.0000 0.0000 0.0000
# 2 21.3439 62.7785 64.6558 0.0000 0.0000 0.0000
# 3 60.8740 64.6558 198.2477 0.0000 0.0000 0.0000
# 4 0.0000 0.0000 0.0000 4.2513 0.0000 0.0000
# 5 0.0000 0.0000 0.0000 0.0000 25.9024 0.0000
# 6 0.0000 0.0000 0.0000 0.0000 0.0000 6.2902
#
#
#
# Elastic Compliance Matrix: (Units=1/GPa)
#
#
# Indices 1 2 3 4 5 6 
#
# 1 0.022780 -0.000815 -0.006729 0.000000 0.000000 0.000000
# 2 -0.000815 0.024015 -0.007582 0.000000 0.000000 0.000000
# 3 -0.006729 -0.007582 0.009583 0.000000 0.000000 0.000000
# 4 0.000000 0.000000 0.000000 0.235221 0.000000 0.000000
# 5 0.000000 0.000000 0.000000 0.000000 0.038607 0.000000
# 6 0.000000 0.000000 0.000000 0.000000 0.000000 0.158978
#
#
# Mechanical properties :
#
#
# Convention : Reuss Voigt Hill
#
# Bulk Modulus (GPa) = 38.27494 68.60181 53.43837
# Shear Modulus (GPa) = 9.46713 19.07512 14.27112
#
# Velocity S-wave (km/s) = 2.33168 3.30974 2.86279
# Velocity P-wave (km/s) = 5.40641 7.34861 6.45102
#
# Compressibility (1/GPa) = 0.02612675
#
# Stress axis : x y z
#
# Youngs Moduli (GPa) = 43.89726 41.64136 104.34877
#
# Poissons Ratio (x) = 0.03392 0.70220
# Poissons Ratio (y) = 0.03575 0.79116
# Poissons Ratio (z) = 0.29540 0.31572
#
# Static dielectric constant tensor:
#      x y z
#    x 2.944620 0.000000 0.000000 
#    y 0.000000 2.924200 0.000000 
#    z 0.000000 0.000000 3.632960 
# 
# 
# High freq. dielectric constant tensor:
#      x y z
#    x 1.627820 0.000000 0.000000 
#    y 0.000000 1.623180 0.000000 
#    z 0.000000 0.000000 1.694990 
# 
# From -- ./inp_files/35981.got.cif
#   From: 2010.03.12/outbox.cif.g09.slc.cpg/sg51_18_cif.got.tgz:35981.got - 2010.04.16 13:43:02.
