data_PCOD8214065
_publ_section_title
;
Structure prediction by ZEFSAII (Michael W. Deem and Ramdas Pophale) SiO2 
 PCOD8214065
Probable space group: P M M A
;
_chemical_formula_sum "Si O2"
_cell_formula_units_Z 64
_cell_length_a 8.971259
_cell_length_b 23.888213
_cell_length_c 14.911380
_cell_angle_alpha 90.000000
_cell_angle_beta 90.000000
_cell_angle_gamma 90.000000
_cell_volume 3195.618271
_symmetry_space_group_name_H-M "P M M A"
_symmetry_group_IT_number 51
_symmetry_cell_setting 'orthorhombic'
loop_
_space_group_symop_operation_xyz
x,y,z
1/2-x,-y,z
1/2+x,-y,-z
-x,y,-z
-x,-y,-z
1/2+x,y,-z
1/2-x,y,z
x,-y,z
loop_
_atom_site_type_symbol
_atom_site_label
_atom_site_fract_x
_atom_site_fract_y
_atom_site_fract_z
Si Si1 0.574243 0.562315 0.219132
Si Si2 0.573763 0.337374 0.096541
Si Si3 0.424552 0.064284 0.594765
Si Si4 0.926862 0.235016 0.223499
Si Si5 0.415618 0.065162 0.915153
Si Si6 0.082519 0.276488 0.586453
Si Si7 0.427085 0.120062 0.240627
Si Si8 0.918301 0.409130 0.412585
O O1 0.750000 0.572646 0.227245
O O2 0.536074 0.500000 0.183107
O O3 0.509978 0.608420 0.150311
O O4 0.507281 0.569342 0.319688
O O5 0.750000 0.341982 0.084527
O O6 0.528969 0.281789 0.150890
O O7 0.500000 0.335148 0.000000
O O8 0.500000 0.075635 0.500000
O O9 0.250000 0.078031 0.588912
O O10 0.501540 0.106944 0.663201
O O11 0.450799 0.000000 0.625003
O O12 0.750000 0.225116 0.223470
O O13 0.986361 0.254062 0.321063
O O14 0.014421 0.178597 0.200250
O O15 0.250000 0.092182 0.904206
O O16 0.515909 0.072971 0.827399
O O17 0.396165 0.000000 0.932454
O O18 0.500000 0.093057 0.000000
O O19 0.250000 0.255266 0.578241
O O20 0.071891 0.342762 0.587928
O O21 0.000000 0.251067 0.500000
O O22 0.250000 0.119402 0.247914
O O23 0.750000 0.430759 0.418883
O O24 0.000000 0.434043 0.500000
#
# Coordination Sequence:
#
# PCOD8214065 Si02
#       8
#     8   8   8   8   8   8   8   8
#     4   9  17  32  56  83 112 147 186 226 275 344
#     4  10  21  39  61  82 106 142 187 235 290 347
#     4  10  21  39  63  90 122 162 206 249 295 346
#     4  10  21  39  58  76 107 149 191 234 285 345
#     4  10  21  39  63  89 117 150 188 232 285 343
#     4   9  17  31  53  77 102 137 179 221 267 322
#     4  12  25  38  57  87 121 155 196 242 291 348
#     4   9  16  29  50  78 109 143 181 217 263 322
#
# _framework density 20.027422999999999
#
# number of rings (size 3 to 8) (size 9 to 14) (size 15 to 20)
#    0.000    2.125    1.250    2.250    0.000    5.500 
#    0.000    3.125    0.000    0.750    0.000    0.000 
#    0.000    0.000    0.000    0.000    0.000    0.000 
#
# Total GULP energy -793527.946720 kJ/mol
# GULP energy per Si atom -12398.874168 kJ/mol
# Density = 1.998184 g / cm^3
# Si number density = 20.027423 Si / 1000 Ang^3
#
#
#
# Elastic Constant Matrix: (Units=GPa)
#
#
# Indices 1 2 3 4 5 6 
#
# 1 93.6860 38.8218 54.7465 0.0000 0.0000 0.0000
# 2 38.8218 77.1315 49.1639 0.0000 0.0000 0.0000
# 3 54.7465 49.1639 151.0193 0.0000 0.0000 0.0000
# 4 0.0000 0.0000 0.0000 13.9282 0.0000 0.0000
# 5 0.0000 0.0000 0.0000 0.0000 38.1927 0.0000
# 6 0.0000 0.0000 0.0000 0.0000 0.0000 15.9995
#
#
#
# Elastic Compliance Matrix: (Units=1/GPa)
#
#
# Indices 1 2 3 4 5 6 
#
# 1 0.015009 -0.005156 -0.003762 0.000000 0.000000 0.000000
# 2 -0.005156 0.018131 -0.004033 0.000000 0.000000 0.000000
# 3 -0.003762 -0.004033 0.009299 0.000000 0.000000 0.000000
# 4 0.000000 0.000000 0.000000 0.071797 0.000000 0.000000
# 5 0.000000 0.000000 0.000000 0.000000 0.026183 0.000000
# 6 0.000000 0.000000 0.000000 0.000000 0.000000 0.062502
#
#
# Mechanical properties :
#
#
# Convention : Reuss Voigt Hill
#
# Bulk Modulus (GPa) = 60.47824 67.47791 63.97807
# Shear Modulus (GPa) = 21.33687 25.56439 23.45063
#
# Velocity S-wave (km/s) = 3.26756 3.57665 3.42559
# Velocity P-wave (km/s) = 6.67077 7.12899 6.90368
#
# Compressibility (1/GPa) = 0.01653487
#
# Stress axis : x y z
#
# Youngs Moduli (GPa) = 66.62564 55.15441 107.54284
#
# Poissons Ratio (x) = 0.28439 0.40462
# Poissons Ratio (y) = 0.34354 0.43375
# Poissons Ratio (z) = 0.25068 0.22245
#
# Static dielectric constant tensor:
#      x y z
#    x 3.621260 0.000000 0.000000 
#    y 0.000000 3.556080 0.000000 
#    z 0.000000 0.000000 3.770250 
# 
# 
# High freq. dielectric constant tensor:
#      x y z
#    x 1.759540 0.000000 0.000000 
#    y 0.000000 1.776490 0.000000 
#    z 0.000000 0.000000 1.791210 
# 
# From -- ./inp_files/22303.got.cif
#   From: 2010.03.12/outbox.cif.g09.slc.cpg/sg51_12_cif.got.tgz:22303.got - 2010.04.16 13:43:02.
