data_PCOD8214898
_publ_section_title
;
Structure prediction by ZEFSAII (Michael W. Deem and Ramdas Pophale) SiO2 
 PCOD8214898
Probable space group: P M M A
;
_chemical_formula_sum "Si O2"
_cell_formula_units_Z 40
_cell_length_a 9.635364
_cell_length_b 7.652831
_cell_length_c 29.437190
_cell_angle_alpha 90.000000
_cell_angle_beta 90.000000
_cell_angle_gamma 90.000000
_cell_volume 2170.633991
_symmetry_space_group_name_H-M "P M M A"
_symmetry_group_IT_number 51
_symmetry_cell_setting 'orthorhombic'
loop_
_space_group_symop_operation_xyz
x,y,z
1/2-x,-y,z
1/2+x,-y,-z
-x,y,-z
-x,-y,-z
1/2+x,y,-z
1/2-x,y,z
x,-y,z
loop_
_atom_site_type_symbol
_atom_site_label
_atom_site_fract_x
_atom_site_fract_y
_atom_site_fract_z
Si Si1 0.088871 0.199168 0.544110
Si Si2 0.912337 0.201681 0.221038
Si Si3 0.594779 0.794258 0.862795
Si Si4 0.596556 0.703167 0.961274
Si Si5 0.914096 0.500000 0.389299
Si Si6 0.585997 0.500000 0.288546
O O1 0.250000 0.231894 0.532218
O O2 0.037404 0.325728 0.584338
O O3 0.000000 0.245247 0.500000
O O4 0.063498 0.000000 0.559977
O O5 0.750000 0.224750 0.210718
O O6 0.961293 0.323582 0.262697
O O7 0.993828 0.271764 0.176906
O O8 0.947881 0.000000 0.232986
O O9 0.750000 0.715517 0.855944
O O10 0.532519 0.733757 0.911221
O O11 0.601136 0.000000 0.861501
O O12 0.750000 0.789942 0.963456
O O13 0.609077 0.500000 0.971575
O O14 0.500000 0.791063 0.000000
O O15 0.750000 0.500000 0.384907
O O16 0.981302 0.500000 0.338929
O O17 0.750000 0.500000 0.292791
#
# Coordination Sequence:
#
# PCOD8214898 Si02
#       6
#     8   8   8   8   4   4
#     4   9  17  29  47  71  97 128 164 198 235 278
#     4   9  18  32  49  70  94 119 152 194 236 278
#     4   9  18  32  49  68  90 118 151 187 228 274
#     4   9  18  31  45  64  90 118 147 180 221 270
#     4   9  17  29  46  70  98 125 159 200 237 279
#     4   9  18  31  48  72  97 123 156 196 242 281
#
# _framework density 18.427795
#
# number of rings (size 3 to 8) (size 9 to 14) (size 15 to 20)
#    0.000    3.000    0.000    0.300    1.400    2.000 
#    0.000    4.000    0.000    2.400    0.000    5.600 
#    0.000    0.000    0.000    0.000    0.000    0.000 
#
# Total GULP energy -495840.333072 kJ/mol
# GULP energy per Si atom -12396.008327 kJ/mol
# Density = 1.838585 g / cm^3
# Si number density = 18.427795 Si / 1000 Ang^3
#
#
#
# Elastic Constant Matrix: (Units=GPa)
#
#
# Indices 1 2 3 4 5 6 
#
# 1 50.0941 28.2121 60.2603 0.0000 0.0000 0.0000
# 2 28.2121 81.8799 72.9886 0.0000 0.0000 0.0000
# 3 60.2603 72.9886 190.1905 0.0000 0.0000 0.0000
# 4 0.0000 0.0000 0.0000 14.0209 0.0000 0.0000
# 5 0.0000 0.0000 0.0000 0.0000 21.9720 0.0000
# 6 0.0000 0.0000 0.0000 0.0000 0.0000 11.6888
#
#
#
# Elastic Compliance Matrix: (Units=1/GPa)
#
#
# Indices 1 2 3 4 5 6 
#
# 1 0.032764 -0.003094 -0.009194 0.000000 0.000000 0.000000
# 2 -0.003094 0.018856 -0.006256 0.000000 0.000000 0.000000
# 3 -0.009194 -0.006256 0.010572 0.000000 0.000000 0.000000
# 4 0.000000 0.000000 0.000000 0.071322 0.000000 0.000000
# 5 0.000000 0.000000 0.000000 0.000000 0.045513 0.000000
# 6 0.000000 0.000000 0.000000 0.000000 0.000000 0.085552
#
#
# Mechanical properties :
#
#
# Convention : Reuss Voigt Hill
#
# Bulk Modulus (GPa) = 39.83302 71.67628 55.75465
# Shear Modulus (GPa) = 16.12728 20.24990 18.18859
#
# Velocity S-wave (km/s) = 2.96152 3.31853 3.14509
# Velocity P-wave (km/s) = 5.77553 7.32555 6.59623
#
# Compressibility (1/GPa) = 0.02510480
#
# Stress axis : x y z
#
# Youngs Moduli (GPa) = 30.52094 53.03490 94.59201
#
# Poissons Ratio (x) = 0.16407 0.86967
# Poissons Ratio (y) = 0.09442 0.59176
# Poissons Ratio (z) = 0.28061 0.33178
#
# Static dielectric constant tensor:
#      x y z
#    x 3.483740 0.000000 0.000000 
#    y 0.000000 3.389580 0.000000 
#    z 0.000000 0.000000 3.613990 
# 
# 
# High freq. dielectric constant tensor:
#      x y z
#    x 1.684260 0.000000 0.000000 
#    y 0.000000 1.718830 0.000000 
#    z 0.000000 0.000000 1.710620 
# 
# From -- ./inp_files/36022.got.cif
#   From: 2010.03.12/outbox.cif.g09.slc.cpg/sg51_19_cif.got.tgz:36022.got - 2010.04.16 13:43:02.
