data_PCOD8214085
_publ_section_title
;
Structure prediction by ZEFSAII (Michael W. Deem and Ramdas Pophale) SiO2 
 PCOD8214085
Probable space group: P M M A
;
_chemical_formula_sum "Si O2"
_cell_formula_units_Z 56
_cell_length_a 8.920600
_cell_length_b 14.929771
_cell_length_c 20.217175
_cell_angle_alpha 90.000000
_cell_angle_beta 90.000000
_cell_angle_gamma 90.000000
_cell_volume 2692.574216
_symmetry_space_group_name_H-M "P M M A"
_symmetry_group_IT_number 51
_symmetry_cell_setting 'orthorhombic'
loop_
_space_group_symop_operation_xyz
x,y,z
1/2-x,-y,z
1/2+x,-y,-z
-x,y,-z
-x,-y,-z
1/2+x,y,-z
1/2-x,y,z
x,-y,z
loop_
_atom_site_type_symbol
_atom_site_label
_atom_site_fract_x
_atom_site_fract_y
_atom_site_fract_z
Si Si1 0.424083 0.000000 0.930124
Si Si2 0.913006 0.099145 0.720880
Si Si3 0.423834 0.097561 0.592564
Si Si4 0.417799 0.158158 0.139755
Si Si5 0.571760 0.707026 0.434629
Si Si6 0.925997 0.395023 0.300771
Si Si7 0.924919 0.354729 0.838093
Si Si8 0.572550 0.500000 0.072105
O O1 0.464903 0.908917 0.892395
O O2 0.250000 0.000000 0.941325
O O3 0.500000 0.000000 0.000000
O O4 0.750000 0.117647 0.686653
O O5 0.938910 0.164906 0.781309
O O6 0.048253 0.109773 0.670257
O O7 0.913672 0.000000 0.752096
O O8 0.250000 0.091739 0.578691
O O9 0.487889 0.188959 0.561266
O O10 0.496203 0.000000 0.569420
O O11 0.250000 0.126174 0.120479
O O12 0.445391 0.261178 0.122371
O O13 0.500000 0.660190 0.500000
O O14 0.750000 0.701815 0.439292
O O15 0.518830 0.657942 0.367085
O O16 0.750000 0.379024 0.289433
O O17 0.961433 0.500000 0.310900
O O18 0.013469 0.357379 0.237105
O O19 0.750000 0.382597 0.835711
O O20 0.021971 0.416166 0.885186
O O21 0.750000 0.500000 0.063563
O O22 0.500000 0.500000 0.000000
#
# Coordination Sequence:
#
# PCOD8214085 Si02
#       8
#     4   8   8   8   8   8   8   4
#     4  12  26  42  62  86 120 168 215 254 297 360
#     4   9  16  29  52  80 112 147 186 234 291 350
#     4   9  18  32  50  75 110 149 191 244 301 359
#     4  10  21  39  61  87 124 161 198 253 307 357
#     4  10  22  38  55  80 116 157 205 258 312 375
#     4  10  21  39  63  89 122 163 203 255 323 385
#     4  11  23  40  68 102 130 164 212 261 314 380
#     4  12  26  46  70  96 133 170 205 258 316 376
#
# _framework density 20.797941000000002
#
# number of rings (size 3 to 8) (size 9 to 14) (size 15 to 20)
#    0.000    1.857    1.429    2.571    0.000    4.000 
#    0.000    0.000    0.000    0.000    0.000    0.000 
#    0.000    0.000    0.000    0.000    0.000    0.000 
#
# Total GULP energy -693791.465188 kJ/mol
# GULP energy per Si atom -12389.133307 kJ/mol
# Density = 2.075060 g / cm^3
# Si number density = 20.797941 Si / 1000 Ang^3
#
#
#
# Elastic Constant Matrix: (Units=GPa)
#
#
# Indices 1 2 3 4 5 6 
#
# 1 89.7213 43.5663 54.6112 0.0000 0.0000 0.0000
# 2 43.5663 106.2610 46.2977 0.0000 0.0000 0.0000
# 3 54.6112 46.2977 128.9806 0.0000 0.0000 0.0000
# 4 0.0000 0.0000 0.0000 7.4102 0.0000 0.0000
# 5 0.0000 0.0000 0.0000 0.0000 38.1103 0.0000
# 6 0.0000 0.0000 0.0000 0.0000 0.0000 16.7843
#
#
#
# Elastic Compliance Matrix: (Units=1/GPa)
#
#
# Indices 1 2 3 4 5 6 
#
# 1 0.016613 -0.004441 -0.005440 0.000000 0.000000 0.000000
# 2 -0.004441 0.012343 -0.002550 0.000000 0.000000 0.000000
# 3 -0.005440 -0.002550 0.010972 0.000000 0.000000 0.000000
# 4 0.000000 0.000000 0.000000 0.134950 0.000000 0.000000
# 5 0.000000 0.000000 0.000000 0.000000 0.026240 0.000000
# 6 0.000000 0.000000 0.000000 0.000000 0.000000 0.059580
#
#
# Mechanical properties :
#
#
# Convention : Reuss Voigt Hill
#
# Bulk Modulus (GPa) = 66.37724 68.21260 67.29492
# Shear Modulus (GPa) = 17.20692 24.49346 20.85019
#
# Velocity S-wave (km/s) = 2.87947 3.43547 3.16968
# Velocity P-wave (km/s) = 6.56046 6.97177 6.76924
#
# Compressibility (1/GPa) = 0.01506541
#
# Stress axis : x y z
#
# Youngs Moduli (GPa) = 60.19254 81.01987 91.14288
#
# Poissons Ratio (x) = 0.35982 0.49582
# Poissons Ratio (y) = 0.26732 0.23241
# Poissons Ratio (z) = 0.32745 0.20660
#
# Static dielectric constant tensor:
#      x y z
#    x 3.377010 0.000000 0.000000 
#    y 0.000000 4.109830 0.000000 
#    z 0.000000 0.000000 3.702040 
# 
# 
# High freq. dielectric constant tensor:
#      x y z
#    x 1.802360 0.000000 0.000000 
#    y 0.000000 1.826030 0.000000 
#    z 0.000000 0.000000 1.809400 
# 
# From -- ./inp_files/32061.got.cif
#   From: 2010.03.12/outbox.cif.g09.slc.cpg/sg51_17_cif.got.tgz:32061.got - 2010.04.16 13:43:02.
