data_PCOD8214850
_publ_section_title
;
Structure prediction by ZEFSAII (Michael W. Deem and Ramdas Pophale) SiO2 
 PCOD8214850
Probable space group: P M M A
;
_chemical_formula_sum "Si O2"
_cell_formula_units_Z 56
_cell_length_a 20.383655
_cell_length_b 9.200904
_cell_length_c 17.864604
_cell_angle_alpha 90.000000
_cell_angle_beta 90.000000
_cell_angle_gamma 90.000000
_cell_volume 3350.471695
_symmetry_space_group_name_H-M "P M M A"
_symmetry_group_IT_number 51
_symmetry_cell_setting 'orthorhombic'
loop_
_space_group_symop_operation_xyz
x,y,z
1/2-x,-y,z
1/2+x,-y,-z
-x,y,-z
-x,-y,-z
1/2+x,y,-z
1/2-x,y,z
x,-y,z
loop_
_atom_site_type_symbol
_atom_site_label
_atom_site_fract_x
_atom_site_fract_y
_atom_site_fract_z
Si Si1 0.062011 0.835939 0.654140
Si Si2 0.922342 0.335552 0.488830
Si Si3 0.093058 0.835857 0.368139
Si Si4 0.107832 0.332599 0.223801
Si Si5 0.433384 0.326972 0.963843
Si Si6 0.954845 0.667196 0.202039
Si Si7 0.823292 0.673066 0.925618
O O1 0.096799 0.746190 0.587834
O O2 0.079137 0.762504 0.733468
O O3 0.984629 0.833780 0.641792
O O4 0.089155 0.000000 0.653572
O O5 0.895671 0.500000 0.485283
O O6 0.887431 0.252640 0.557448
O O7 0.000000 0.335298 0.500000
O O8 0.126647 0.760826 0.296591
O O9 0.119267 0.000000 0.375714
O O10 0.122613 0.500000 0.242792
O O11 0.151964 0.274402 0.155554
O O12 0.032756 0.311869 0.200055
O O13 0.436295 0.500000 0.968382
O O14 0.426825 0.278183 0.877541
O O15 0.500000 0.262898 0.000000
O O16 0.370914 0.265454 0.009482
O O17 0.936834 0.500000 0.217658
O O18 0.750000 0.732937 0.939656
O O19 0.824806 0.500000 0.927341
#
# Coordination Sequence:
#
# PCOD8214850 Si02
#       7
#     8   8   8   8   8   8   8
#     4   9  16  24  34  51  79 109 136 170 212 251
#     4   9  15  23  35  52  76 107 141 171 203 247
#     4   9  16  24  35  52  76 107 140 171 205 246
#     4   9  15  24  38  56  78 105 139 175 210 250
#     4   9  14  23  39  59  81 108 142 179 219 263
#     4   9  15  23  38  57  77 105 142 177 209 254
#     4   9  16  25  39  61  86 109 138 181 226 260
#
# _framework density 16.714065000000002
#
# number of rings (size 3 to 8) (size 9 to 14) (size 15 to 20)
#    0.000    3.000    1.429    1.286    0.000    5.143 
#    0.000    0.000    0.000    1.714    0.000    0.000 
#    0.000    1.143    0.000    9.714    0.000    4.429 
#
# Total GULP energy -694223.793054 kJ/mol
# GULP energy per Si atom -12396.853447 kJ/mol
# Density = 1.667602 g / cm^3
# Si number density = 16.714065 Si / 1000 Ang^3
#
#
#
# Elastic Constant Matrix: (Units=GPa)
#
#
# Indices 1 2 3 4 5 6 
#
# 1 45.4489 20.2135 48.5345 0.0000 0.0000 0.0000
# 2 20.2135 95.4587 72.3194 0.0000 0.0000 0.0000
# 3 48.5345 72.3194 180.8515 0.0000 0.0000 0.0000
# 4 0.0000 0.0000 0.0000 9.9352 0.0000 0.0000
# 5 0.0000 0.0000 0.0000 0.0000 12.3113 0.0000
# 6 0.0000 0.0000 0.0000 0.0000 0.0000 4.0561
#
#
#
# Elastic Compliance Matrix: (Units=1/GPa)
#
#
# Indices 1 2 3 4 5 6 
#
# 1 0.030851 -0.000373 -0.008130 0.000000 0.000000 0.000000
# 2 -0.000373 0.015033 -0.005911 0.000000 0.000000 0.000000
# 3 -0.008130 -0.005911 0.010075 0.000000 0.000000 0.000000
# 4 0.000000 0.000000 0.000000 0.100653 0.000000 0.000000
# 5 0.000000 0.000000 0.000000 0.000000 0.081226 0.000000
# 6 0.000000 0.000000 0.000000 0.000000 0.000000 0.246545
#
#
# Mechanical properties :
#
#
# Convention : Reuss Voigt Hill
#
# Bulk Modulus (GPa) = 36.86018 67.09934 51.97976
# Shear Modulus (GPa) = 9.57387 17.30662 13.44024
#
# Velocity S-wave (km/s) = 2.39593 3.22134 2.83879
# Velocity P-wave (km/s) = 5.45483 7.35313 6.47394
#
# Compressibility (1/GPa) = 0.02712955
#
# Stress axis : x y z
#
# Youngs Moduli (GPa) = 32.41413 66.51945 99.25519
#
# Poissons Ratio (x) = 0.02484 0.80694
# Poissons Ratio (y) = 0.01210 0.58673
# Poissons Ratio (z) = 0.26353 0.39322
#
# Static dielectric constant tensor:
#      x y z
#    x 2.662390 0.000000 0.000000 
#    y 0.000000 2.992020 0.000000 
#    z 0.000000 0.000000 3.388220 
# 
# 
# High freq. dielectric constant tensor:
#      x y z
#    x 1.571170 0.000000 0.000000 
#    y 0.000000 1.620580 0.000000 
#    z 0.000000 0.000000 1.662980 
# 
# From -- ./inp_files/30372.got.cif
#   From: 2010.03.12/outbox.cif.g09.slc.cpg/sg51_16_cif.got.tgz:30372.got - 2010.04.16 13:43:02.
