data_PCOD8214979
_publ_section_title
;
Structure prediction by ZEFSAII (Michael W. Deem and Ramdas Pophale) SiO2 
 PCOD8214979
Probable space group: P N N A
;
_chemical_formula_sum "Si O2"
_cell_formula_units_Z 48
_cell_length_a 21.261611
_cell_length_b 7.888022
_cell_length_c 14.928996
_cell_angle_alpha 90.000000
_cell_angle_beta 90.000000
_cell_angle_gamma 90.000000
_cell_volume 2503.772603
_symmetry_space_group_name_H-M "P N N A"
_symmetry_group_IT_number 52
_symmetry_cell_setting 'orthorhombic'
loop_
_space_group_symop_operation_xyz
x,y,z
1/2-x,-y,z
x,1/2-y,1/2-z
1/2-x,1/2+y,1/2-z
-x,-y,-z
1/2+x,y,-z
-x,1/2+y,1/2+z
1/2+x,1/2-y,1/2+z
loop_
_atom_site_type_symbol
_atom_site_label
_atom_site_fract_x
_atom_site_fract_y
_atom_site_fract_z
Si Si1 0.418115 0.341270 0.025707
Si Si2 0.750000 0.000000 0.405105
Si Si3 0.624254 0.981471 0.075998
Si Si4 0.855666 0.930008 0.270974
Si Si5 0.750000 0.000000 0.961015
Si Si6 0.446529 0.831334 0.587870
Si Si7 0.281659 0.160231 0.421324
O O1 0.413598 0.185930 0.955008
O O2 0.423763 0.524666 0.980643
O O3 0.356795 0.347768 0.089055
O O4 0.478386 0.310613 0.088558
O O5 0.687857 0.985958 0.345618
O O6 0.759280 0.159111 0.472668
O O7 0.638073 0.956390 0.182183
O O8 0.688230 0.002238 0.021831
O O9 0.583861 0.151664 0.060176
O O10 0.822403 0.750000 0.250000
O O11 0.924334 0.889953 0.313369
O O12 0.754111 0.158694 0.891335
O O13 0.250000 0.000000 0.369673
#
# Coordination Sequence:
#
# PCOD8214979 Si02
#       7
#     8   4   8   8   4   8   8
#     4  10  19  31  49  62  85 131 160 188 231 271
#     4  10  17  30  44  64  96 126 151 188 220 267
#     4  10  20  31  46  68  90 127 158 193 224 278
#     4  10  19  30  45  65  96 127 153 194 232 267
#     4  10  17  28  44  66  92 120 157 180 230 259
#     4  10  19  34  43  62  91 124 160 196 226 267
#     4   9  17  29  44  64  91 117 152 189 221 266
#
# _framework density 19.171071000000001
#
# number of rings (size 3 to 8) (size 9 to 14) (size 15 to 20)
#    0.500    1.667    1.667    4.000    0.000    2.000 
#    0.000    0.000    0.000    0.000    0.000    0.000 
#    0.000    0.000  189.833    0.000    2.333    0.000 
#
# Total GULP energy -594635.139607 kJ/mol
# GULP energy per Si atom -12388.232075 kJ/mol
# Density = 1.912744 g / cm^3
# Si number density = 19.171071 Si / 1000 Ang^3
#
#
#
# Elastic Constant Matrix: (Units=GPa)
#
#
# Indices 1 2 3 4 5 6 
#
# 1 117.0497 41.5821 8.7553 0.0000 0.0000 0.0000
# 2 41.5821 102.8738 -3.7436 0.0000 0.0000 0.0000
# 3 8.7553 -3.7436 9.5516 0.0000 0.0000 0.0000
# 4 0.0000 0.0000 0.0000 12.8187 0.0000 0.0000
# 5 0.0000 0.0000 0.0000 0.0000 18.9313 0.0000
# 6 0.0000 0.0000 0.0000 0.0000 0.0000 31.2766
#
#
#
# Elastic Compliance Matrix: (Units=1/GPa)
#
#
# Indices 1 2 3 4 5 6 
#
# 1 0.011231 -0.004985 -0.012248 0.000000 0.000000 0.000000
# 2 -0.004985 0.012074 0.009302 0.000000 0.000000 0.000000
# 3 -0.012248 0.009302 0.119567 0.000000 0.000000 0.000000
# 4 0.000000 0.000000 0.000000 0.078011 0.000000 0.000000
# 5 0.000000 0.000000 0.000000 0.000000 0.052823 0.000000
# 6 0.000000 0.000000 0.000000 0.000000 0.000000 0.031973
#
#
# Mechanical properties :
#
#
# Convention : Reuss Voigt Hill
#
# Bulk Modulus (GPa) = 7.87345 35.85138 21.86242
# Shear Modulus (GPa) = 13.74089 24.79740 19.26914
#
# Velocity S-wave (km/s) = 2.68013 3.60040 3.17380
# Velocity P-wave (km/s) = 3.70044 6.00210 4.98590
#
# Compressibility (1/GPa) = 0.12700910
#
# Stress axis : x y z
#
# Youngs Moduli (GPa) = 89.04321 82.82146 8.36350
#
# Poissons Ratio (x) = 0.41288 0.10244
# Poissons Ratio (y) = 0.44389 -0.07780
# Poissons Ratio (z) = 1.09061 -0.77039
#
# Static dielectric constant tensor:
#      x y z
#    x 3.644950 0.000000 0.000000 
#    y 0.000000 3.966920 0.000000 
#    z 0.000000 0.000000 3.016910 
# 
# 
# High freq. dielectric constant tensor:
#      x y z
#    x 1.748410 0.000000 0.000000 
#    y 0.000000 1.767890 0.000000 
#    z 0.000000 0.000000 1.684800 
# 
# From -- ./inp_files/34032.got.cif
#   From: 2010.06.25/outbox.cif.g09.slc.cpg/sg52_18_cif.got.tgz:34032.got - 2010.06.26 19:32:48.
