data_PCOD8214759
_publ_section_title
;
Structure prediction by ZEFSAII (Michael W. Deem and Ramdas Pophale) SiO2 
 PCOD8214759
Probable space group: P M M A
;
_chemical_formula_sum "Si O2"
_cell_formula_units_Z 64
_cell_length_a 9.237148
_cell_length_b 19.385527
_cell_length_c 20.728104
_cell_angle_alpha 90.000000
_cell_angle_beta 90.000000
_cell_angle_gamma 90.000000
_cell_volume 3711.719025
_symmetry_space_group_name_H-M "P M M A"
_symmetry_group_IT_number 51
_symmetry_cell_setting 'orthorhombic'
loop_
_space_group_symop_operation_xyz
x,y,z
1/2-x,-y,z
1/2+x,-y,-z
-x,y,-z
-x,-y,-z
1/2+x,y,-z
1/2-x,y,z
x,-y,z
loop_
_atom_site_type_symbol
_atom_site_label
_atom_site_fract_x
_atom_site_fract_y
_atom_site_fract_z
Si Si1 0.918055 0.080338 0.312919
Si Si2 0.586008 0.082095 0.813143
Si Si3 0.589011 0.418043 0.182174
Si Si4 0.585513 0.917757 0.062582
Si Si5 0.087547 0.582321 0.061533
Si Si6 0.418801 0.834058 0.563903
Si Si7 0.922470 0.423113 0.323798
Si Si8 0.919764 0.324549 0.435955
O O1 0.750000 0.095288 0.298444
O O2 0.972685 0.121064 0.375759
O O3 0.009300 0.107899 0.252186
O O4 0.945957 0.000000 0.325701
O O5 0.750000 0.110521 0.815729
O O6 0.496442 0.110925 0.874157
O O7 0.585661 0.000000 0.815080
O O8 0.750000 0.387106 0.171989
O O9 0.598079 0.500000 0.177318
O O10 0.485109 0.388114 0.126694
O O11 0.525717 0.398080 0.252753
O O12 0.750000 0.889566 0.061594
O O13 0.586803 0.000000 0.063059
O O14 0.500000 0.890187 0.000000
O O15 0.250000 0.611153 0.057546
O O16 0.087045 0.500000 0.062071
O O17 0.000000 0.610435 0.000000
O O18 0.500000 0.860044 0.500000
O O19 0.250000 0.845020 0.551444
O O20 0.456663 0.754744 0.579054
O O21 0.750000 0.424719 0.323137
O O22 0.981895 0.500000 0.339305
O O23 0.981257 0.369920 0.376932
O O24 0.750000 0.336238 0.446024
O O25 0.000000 0.350101 0.500000
#
# Coordination Sequence:
#
# PCOD8214759 Si02
#       8
#     8   8   8   8   8   8   8   8
#     4   9  17  29  43  59  81 109 139 171 209 252
#     4   9  16  25  37  55  79 106 137 173 212 252
#     4   8  13  22  35  50  70  98 131 164 197 233
#     4   9  15  22  33  50  75 109 145 177 209 247
#     4   9  15  21  30  46  70 101 134 165 197 234
#     4   9  18  31  46  63  83 108 137 170 208 249
#     4   8  14  25  42  62  83 109 139 169 203 245
#     4   9  17  30  46  63  84 109 137 169 205 246
#
# _framework density 17.242685000000002
#
# number of rings (size 3 to 8) (size 9 to 14) (size 15 to 20)
#    0.000    3.250    0.000    1.875    0.000    5.500 
#    0.000    0.625    0.000    0.750    0.000    0.000 
#    0.000    1.000    0.000    5.500    0.000    8.375 
#
# Total GULP energy -793388.672747 kJ/mol
# GULP energy per Si atom -12396.698012 kJ/mol
# Density = 1.720344 g / cm^3
# Si number density = 17.242685 Si / 1000 Ang^3
#
#
#
# Elastic Constant Matrix: (Units=GPa)
#
#
# Indices 1 2 3 4 5 6 
#
# 1 100.8425 22.1416 82.5674 0.0000 0.0000 0.0000
# 2 22.1416 28.1822 46.0449 0.0000 0.0000 0.0000
# 3 82.5674 46.0449 196.0832 0.0000 0.0000 0.0000
# 4 0.0000 0.0000 0.0000 2.4014 0.0000 0.0000
# 5 0.0000 0.0000 0.0000 0.0000 35.9933 0.0000
# 6 0.0000 0.0000 0.0000 0.0000 0.0000 8.9514
#
#
#
# Elastic Compliance Matrix: (Units=1/GPa)
#
#
# Indices 1 2 3 4 5 6 
#
# 1 0.015235 -0.002415 -0.005848 0.000000 0.000000 0.000000
# 2 -0.002415 0.057954 -0.012592 0.000000 0.000000 0.000000
# 3 -0.005848 -0.012592 0.010519 0.000000 0.000000 0.000000
# 4 0.000000 0.000000 0.000000 0.416429 0.000000 0.000000
# 5 0.000000 0.000000 0.000000 0.000000 0.027783 0.000000
# 6 0.000000 0.000000 0.000000 0.000000 0.000000 0.111715
#
#
# Mechanical properties :
#
#
# Convention : Reuss Voigt Hill
#
# Bulk Modulus (GPa) = 23.81043 69.62396 46.71720
# Shear Modulus (GPa) = 7.19068 21.09281 14.14175
#
# Velocity S-wave (km/s) = 2.04434 3.50135 2.86695
# Velocity P-wave (km/s) = 4.40584 7.53740 6.17349
#
# Compressibility (1/GPa) = 0.04199840
#
# Stress axis : x y z
#
# Youngs Moduli (GPa) = 65.63845 17.25509 95.06249
#
# Poissons Ratio (x) = 0.04166 0.55594
# Poissons Ratio (y) = 0.15849 1.19705
# Poissons Ratio (z) = 0.38387 0.21728
#
# Static dielectric constant tensor:
#      x y z
#    x 3.225520 0.000000 0.000000 
#    y 0.000000 2.714570 0.000000 
#    z 0.000000 0.000000 3.540320 
# 
# 
# High freq. dielectric constant tensor:
#      x y z
#    x 1.657460 0.000000 0.000000 
#    y 0.000000 1.597970 0.000000 
#    z 0.000000 0.000000 1.683120 
# 
# From -- ./inp_files/28620.got.cif
#   From: 2010.03.12/outbox.cif.g09.slc.cpg/sg51_15_cif.got.tgz:28620.got - 2010.04.16 13:43:02.
