data_PCOD8214091
_publ_section_title
;
Structure prediction by ZEFSAII (Michael W. Deem and Ramdas Pophale) SiO2 
 PCOD8214091
Probable space group: P M M A
;
_chemical_formula_sum "Si O2"
_cell_formula_units_Z 40
_cell_length_a 14.335851
_cell_length_b 8.621050
_cell_length_c 15.778888
_cell_angle_alpha 90.000000
_cell_angle_beta 90.000000
_cell_angle_gamma 90.000000
_cell_volume 1950.114161
_symmetry_space_group_name_H-M "P M M A"
_symmetry_group_IT_number 51
_symmetry_cell_setting 'orthorhombic'
loop_
_space_group_symop_operation_xyz
x,y,z
1/2-x,-y,z
1/2+x,-y,-z
-x,y,-z
-x,-y,-z
1/2+x,y,-z
1/2-x,y,z
x,-y,z
loop_
_atom_site_type_symbol
_atom_site_label
_atom_site_fract_x
_atom_site_fract_y
_atom_site_fract_z
Si Si1 0.599759 0.329799 0.956456
Si Si2 0.149147 0.320349 0.866618
Si Si3 0.531445 0.178128 0.796487
Si Si4 0.029831 0.681790 0.379948
Si Si5 0.642409 0.183625 0.468452
O O1 0.630346 0.500000 0.923837
O O2 0.599970 0.216830 0.875231
O O3 0.500000 0.337367 0.000000
O O4 0.664322 0.272732 0.034071
O O5 0.250000 0.298928 0.822247
O O6 0.115140 0.500000 0.860868
O O7 0.075770 0.211111 0.820288
O O8 0.559222 0.281019 0.715943
O O9 0.543062 0.000000 0.772103
O O10 0.034897 0.500000 0.397281
O O11 0.104470 0.766151 0.439830
O O12 0.923777 0.739505 0.397063
O O13 0.750000 0.238388 0.457064
O O14 0.634761 0.000000 0.459924
#
# Coordination Sequence:
#
# PCOD8214091 Si02
#       5
#     8   8   8   8   8
#     4   8  15  30  50  70  95 130 169 207 252 307
#     4   9  18  33  52  74 102 136 174 218 268 321
#     4  11  21  33  51  75 105 139 176 220 268 315
#     4  11  22  37  59  84 112 147 187 227 267 323
#     4  10  21  39  62  86 114 144 175 220 278 334
#
# _framework density 20.511619
#
# number of rings (size 3 to 8) (size 9 to 14) (size 15 to 20)
#    0.000    2.200    0.000    6.600    0.000    6.400 
#    0.000    1.000    0.000    3.600    0.000    0.000 
#    0.000    0.000    0.000    0.000    0.000    0.000 
#
# Total GULP energy -495750.593205 kJ/mol
# GULP energy per Si atom -12393.764830 kJ/mol
# Density = 2.046493 g / cm^3
# Si number density = 20.511619 Si / 1000 Ang^3
#
#
#
# Elastic Constant Matrix: (Units=GPa)
#
#
# Indices 1 2 3 4 5 6 
#
# 1 50.4574 5.8293 -16.2906 0.0000 0.0000 0.0000
# 2 5.8293 61.7126 5.7311 0.0000 0.0000 0.0000
# 3 -16.2906 5.7311 75.6967 0.0000 0.0000 0.0000
# 4 0.0000 0.0000 0.0000 33.0695 0.0000 0.0000
# 5 0.0000 0.0000 0.0000 0.0000 11.8355 0.0000
# 6 0.0000 0.0000 0.0000 0.0000 0.0000 -7.5005
#
#
#
# Elastic Compliance Matrix: (Units=1/GPa)
#
#
# Indices 1 2 3 4 5 6 
#
# 1 0.021674 -0.002498 0.004854 0.000000 0.000000 0.000000
# 2 -0.002498 0.016607 -0.001795 0.000000 0.000000 0.000000
# 3 0.004854 -0.001795 0.014391 0.000000 0.000000 0.000000
# 4 0.000000 0.000000 0.000000 0.030239 0.000000 0.000000
# 5 0.000000 0.000000 0.000000 0.000000 0.084492 0.000000
# 6 0.000000 0.000000 0.000000 0.000000 0.000000 -0.133325
#
#
# Mechanical properties :
#
#
# Convention : Reuss Voigt Hill
#
# Bulk Modulus (GPa) = 18.58961 19.82290 19.20626
# Shear Modulus (GPa) = 98.25477 20.32070 59.28774
#
# Velocity S-wave (km/s) = 6.92864 3.15094 5.38212
# Velocity P-wave (km/s) = 8.54931 4.78781 6.92870
#
# Compressibility (1/GPa) = 0.05379349
#
# Stress axis : x y z
#
# Youngs Moduli (GPa) = 46.13755 60.21627 69.48758
#
# Poissons Ratio (x) = 0.15042 -0.33727
# Poissons Ratio (y) = 0.11525 0.12472
# Poissons Ratio (z) = -0.22393 0.10808
#
# Static dielectric constant tensor:
#      x y z
#    x 1.540700 0.000000 0.000000 
#    y 0.000000 3.563730 0.000000 
#    z 0.000000 0.000000 3.800020 
# 
# 
# High freq. dielectric constant tensor:
#      x y z
#    x 1.786400 0.000000 0.000000 
#    y 0.000000 1.793700 0.000000 
#    z 0.000000 0.000000 1.799480 
# 
# From -- ./inp_files/23679.got.cif
#   From: 2010.03.12/outbox.cif.g09.slc.cpg/sg51_12_cif.got.tgz:23679.got - 2010.04.16 13:43:02.
