data_PCOD8214485
_publ_section_title
;
Structure prediction by ZEFSAII (Michael W. Deem and Ramdas Pophale) SiO2 
 PCOD8214485
Probable space group: P M M A
;
_chemical_formula_sum "Si O2"
_cell_formula_units_Z 64
_cell_length_a 17.811600
_cell_length_b 13.582315
_cell_length_c 15.342978
_cell_angle_alpha 90.000000
_cell_angle_beta 90.000000
_cell_angle_gamma 90.000000
_cell_volume 3711.815613
_symmetry_space_group_name_H-M "P M M A"
_symmetry_group_IT_number 51
_symmetry_cell_setting 'orthorhombic'
loop_
_space_group_symop_operation_xyz
x,y,z
1/2-x,-y,z
1/2+x,-y,-z
-x,y,-z
-x,-y,-z
1/2+x,y,-z
1/2-x,y,z
x,-y,z
loop_
_atom_site_type_symbol
_atom_site_label
_atom_site_fract_x
_atom_site_fract_y
_atom_site_fract_z
Si Si1 0.914306 0.211318 0.774896
Si Si2 0.160987 0.392988 0.950711
Si Si3 0.662466 0.811126 0.115857
Si Si4 0.166448 0.117005 0.568386
Si Si5 0.661884 0.892120 0.621249
Si Si6 0.422615 0.114544 0.040601
Si Si7 0.433313 0.884648 0.728410
Si Si8 0.836739 0.387048 0.851130
O O1 0.857063 0.177432 0.700954
O O2 0.901405 0.157049 0.865898
O O3 0.893960 0.325709 0.790123
O O4 0.997196 0.189153 0.739381
O O5 0.250000 0.397278 0.951987
O O6 0.129738 0.500000 0.918186
O O7 0.134368 0.303425 0.888548
O O8 0.134671 0.373052 0.049578
O O9 0.750000 0.817674 0.135887
O O10 0.620351 0.872169 0.189234
O O11 0.646241 0.862223 0.023385
O O12 0.250000 0.160606 0.586752
O O13 0.135151 0.150514 0.473168
O O14 0.109171 0.153326 0.642311
O O15 0.171421 0.000000 0.570510
O O16 0.750000 0.903916 0.614120
O O17 0.625152 0.000000 0.637240
O O18 0.433744 0.000000 0.054793
O O19 0.500000 0.159216 0.000000
O O20 0.457301 0.000000 0.722888
O O21 0.750000 0.351435 0.841129
O O22 0.843559 0.500000 0.822226
#
# Coordination Sequence:
#
# PCOD8214485 Si02
#       8
#     8   8   8   8   8   8   8   8
#     4  12  21  32  51  75 104 134 168 205 256 314
#     4   8  15  30  50  70  92 120 161 217 269 300
#     4  11  21  33  51  73  95 133 185 222 249 295
#     4   8  16  33  53  72  99 134 172 216 257 292
#     4   9  18  32  51  77 105 130 163 210 258 306
#     4  11  22  35  46  63 105 151 175 201 249 303
#     4  11  22  34  49  71 104 144 177 209 248 303
#     4   9  18  34  54  74  98 130 170 216 261 307
#
# _framework density 17.242235999999998
#
# number of rings (size 3 to 8) (size 9 to 14) (size 15 to 20)
#    0.000    2.125    2.500    3.750    0.000    2.500 
#    0.000    2.500    0.000    2.250    0.000    2.625 
#    0.000    4.000    0.000    0.000    0.000    0.000 
#
# Total GULP energy -793203.910113 kJ/mol
# GULP energy per Si atom -12393.811096 kJ/mol
# Density = 1.720299 g / cm^3
# Si number density = 17.242236 Si / 1000 Ang^3
#
#
#
# Elastic Constant Matrix: (Units=GPa)
#
#
# Indices 1 2 3 4 5 6 
#
# 1 50.5475 26.1442 20.8472 0.0000 0.0000 0.0000
# 2 26.1442 63.2433 25.5929 0.0000 0.0000 0.0000
# 3 20.8472 25.5929 102.3713 0.0000 0.0000 0.0000
# 4 0.0000 0.0000 0.0000 5.2462 0.0000 0.0000
# 5 0.0000 0.0000 0.0000 0.0000 25.6013 0.0000
# 6 0.0000 0.0000 0.0000 0.0000 0.0000 23.6134
#
#
#
# Elastic Compliance Matrix: (Units=1/GPa)
#
#
# Indices 1 2 3 4 5 6 
#
# 1 0.025911 -0.009541 -0.002891 0.000000 0.000000 0.000000
# 2 -0.009541 0.021105 -0.003333 0.000000 0.000000 0.000000
# 3 -0.002891 -0.003333 0.011190 0.000000 0.000000 0.000000
# 4 0.000000 0.000000 0.000000 0.190614 0.000000 0.000000
# 5 0.000000 0.000000 0.000000 0.000000 0.039061 0.000000
# 6 0.000000 0.000000 0.000000 0.000000 0.000000 0.042349
#
#
# Mechanical properties :
#
#
# Convention : Reuss Voigt Hill
#
# Bulk Modulus (GPa) = 37.48860 40.14787 38.81823
# Shear Modulus (GPa) = 13.48970 20.46402 16.97686
#
# Velocity S-wave (km/s) = 2.80011 3.44881 3.14125
# Velocity P-wave (km/s) = 5.67835 6.26053 5.97653
#
# Compressibility (1/GPa) = 0.02667477
#
# Stress axis : x y z
#
# Youngs Moduli (GPa) = 38.59406 47.38182 89.36177
#
# Poissons Ratio (x) = 0.45208 0.25836
# Poissons Ratio (y) = 0.36824 0.29787
# Poissons Ratio (z) = 0.11158 0.15794
#
# Static dielectric constant tensor:
#      x y z
#    x 3.357640 0.000000 0.000000 
#    y 0.000000 3.292460 0.000000 
#    z 0.000000 0.000000 3.377920 
# 
# 
# High freq. dielectric constant tensor:
#      x y z
#    x 1.658060 0.000000 0.000000 
#    y 0.000000 1.640190 0.000000 
#    z 0.000000 0.000000 1.659020 
# 
# From -- ./inp_files/25388.got.cif
#   From: 2010.03.12/outbox.cif.g09.slc.cpg/sg51_13_cif.got.tgz:25388.got - 2010.04.16 13:43:02.
