data_PCOD8214952
_publ_section_title
;
Structure prediction by ZEFSAII (Michael W. Deem and Ramdas Pophale) SiO2 
 PCOD8214952
Probable space group: P N N A
;
_chemical_formula_sum "Si O2"
_cell_formula_units_Z 28
_cell_length_a 10.142171
_cell_length_b 8.283190
_cell_length_c 12.817489
_cell_angle_alpha 90.000000
_cell_angle_beta 90.000000
_cell_angle_gamma 90.000000
_cell_volume 1076.791219
_symmetry_space_group_name_H-M "P N N A"
_symmetry_group_IT_number 52
_symmetry_cell_setting 'orthorhombic'
loop_
_space_group_symop_operation_xyz
x,y,z
1/2-x,-y,z
x,1/2-y,1/2-z
1/2-x,1/2+y,1/2-z
-x,-y,-z
1/2+x,y,-z
-x,1/2+y,1/2+z
1/2+x,1/2-y,1/2+z
loop_
_atom_site_type_symbol
_atom_site_label
_atom_site_fract_x
_atom_site_fract_y
_atom_site_fract_z
Si Si1 0.250000 0.000000 0.382396
Si Si2 0.071041 0.657395 0.594605
Si Si3 0.477500 0.995735 0.698524
Si Si4 0.849296 0.749417 0.047235
O O1 0.189871 0.138440 0.451702
O O2 0.129343 0.938719 0.311428
O O3 0.051645 0.835702 0.641964
O O4 0.047554 0.513242 0.677899
O O5 0.224228 0.637104 0.566583
O O6 0.972316 0.641232 0.494308
O O7 0.386063 0.856346 0.649238
#
# Coordination Sequence:
#
# PCOD8214952 Si02
#       4
#     4   8   8   8
#     4  10  16  32  60  86 122 166 204 262 326 376
#     4  10  20  32  62  93 125 163 218 263 322 393
#     4  10  19  32  59  97 122 163 221 259 323 395
#     4  11  17  36  62  90 127 164 210 270 324 378
#
# _framework density 26.003181000000001
#
# number of rings (size 3 to 8) (size 9 to 14) (size 15 to 20)
#    0.000    1.714    5.714    1.714    0.000    0.000 
#    0.000    0.000   25.143    1.714    7.429    2.000 
#    0.000    0.000    0.000    0.000    0.000    0.000 
#
# Total GULP energy -347152.735649 kJ/mol
# GULP energy per Si atom -12398.311987 kJ/mol
# Density = 2.594400 g / cm^3
# Si number density = 26.003181 Si / 1000 Ang^3
#
#
#
# Elastic Constant Matrix: (Units=GPa)
#
#
# Indices 1 2 3 4 5 6 
#
# 1 235.8465 51.5994 96.3443 0.0000 0.0000 0.0000
# 2 51.5994 71.1507 42.0934 0.0000 0.0000 0.0000
# 3 96.3443 42.0934 172.0793 0.0000 0.0000 0.0000
# 4 0.0000 0.0000 0.0000 -18.6016 0.0000 0.0000
# 5 0.0000 0.0000 0.0000 0.0000 25.6489 0.0000
# 6 0.0000 0.0000 0.0000 0.0000 0.0000 1.4071
#
#
#
# Elastic Compliance Matrix: (Units=1/GPa)
#
#
# Indices 1 2 3 4 5 6 
#
# 1 0.005917 -0.002726 -0.002646 0.000000 0.000000 0.000000
# 2 -0.002726 0.017688 -0.002801 0.000000 0.000000 0.000000
# 3 -0.002646 -0.002801 0.007978 0.000000 0.000000 0.000000
# 4 0.000000 0.000000 0.000000 -0.053759 0.000000 0.000000
# 5 0.000000 0.000000 0.000000 0.000000 0.038988 0.000000
# 6 0.000000 0.000000 0.000000 0.000000 0.000000 0.710700
#
#
# Mechanical properties :
#
#
# Convention : Reuss Voigt Hill
#
# Bulk Modulus (GPa) = 65.62479 95.46119 80.54299
# Shear Modulus (GPa) = 6.67612 20.96018 13.81815
#
# Velocity S-wave (km/s) = 1.60406 2.84220 2.30772
# Velocity P-wave (km/s) = 5.35935 6.89651 6.17594
#
# Compressibility (1/GPa) = 0.01523815
#
# Stress axis : x y z
#
# Youngs Moduli (GPa) = 168.99222 56.53416 125.34483
#
# Poissons Ratio (x) = 0.15410 0.33170
# Poissons Ratio (y) = 0.46064 0.35106
# Poissons Ratio (z) = 0.44720 0.15834
#
# Static dielectric constant tensor:
#      x y z
#    x 4.790910 0.000000 0.000000 
#    y 0.000000 4.456210 0.000000 
#    z 0.000000 0.000000 4.920150 
# 
# 
# High freq. dielectric constant tensor:
#      x y z
#    x 2.060760 0.000000 0.000000 
#    y 0.000000 2.050510 0.000000 
#    z 0.000000 0.000000 2.038610 
# 
# From -- ./inp_files/17549.got.cif
#   From: 2010.06.25/outbox.cif.g09.slc.cpg/sg52_9_cif.got.tgz:17549.got - 2010.06.26 19:32:48.
