data_PCOD8214856
_publ_section_title
;
Structure prediction by ZEFSAII (Michael W. Deem and Ramdas Pophale) SiO2 
 PCOD8214856
Probable space group: P M M A
;
_chemical_formula_sum "Si O2"
_cell_formula_units_Z 40
_cell_length_a 20.241146
_cell_length_b 7.603405
_cell_length_c 14.491961
_cell_angle_alpha 90.000000
_cell_angle_beta 90.000000
_cell_angle_gamma 90.000000
_cell_volume 2230.336430
_symmetry_space_group_name_H-M "P M M A"
_symmetry_group_IT_number 51
_symmetry_cell_setting 'orthorhombic'
loop_
_space_group_symop_operation_xyz
x,y,z
1/2-x,-y,z
1/2+x,-y,-z
-x,y,-z
-x,-y,-z
1/2+x,y,-z
1/2-x,y,z
x,-y,z
loop_
_atom_site_type_symbol
_atom_site_label
_atom_site_fract_x
_atom_site_fract_y
_atom_site_fract_z
Si Si1 0.433613 0.000000 0.618465
Si Si2 0.323626 0.708861 0.097967
Si Si3 0.432138 0.708643 0.959181
Si Si4 0.550948 0.699887 0.247430
Si Si5 0.588448 0.000000 0.584608
Si Si6 0.102845 0.299769 0.280757
O O1 0.415755 0.825279 0.676373
O O2 0.510268 0.000000 0.594939
O O3 0.391877 0.000000 0.523479
O O4 0.250000 0.786337 0.085284
O O5 0.322862 0.500000 0.092234
O O6 0.351208 0.766081 0.197445
O O7 0.370370 0.785502 0.017074
O O8 0.435101 0.500000 0.968821
O O9 0.423293 0.761975 0.852538
O O10 0.500000 0.788867 0.000000
O O11 0.572307 0.500000 0.269804
O O12 0.472075 0.717432 0.246344
O O13 0.617653 0.824560 0.631855
O O14 0.118845 0.500000 0.310181
#
# Coordination Sequence:
#
# PCOD8214856 Si02
#       6
#     4   8   8   8   4   8
#     4   9  18  30  42  66  94 113 150 200 236 271
#     4   9  16  26  43  69  98 125 156 195 233 276
#     4   9  14  24  43  66  93 127 160 188 227 282
#     4   9  16  27  45  66  92 125 156 186 228 279
#     4   9  18  30  44  63  91 120 148 192 240 280
#     4   9  16  28  45  65  90 123 155 185 231 284
#
# _framework density 17.934512999999999
#
# number of rings (size 3 to 8) (size 9 to 14) (size 15 to 20)
#    0.000    3.000    2.000    0.000    0.000    0.800 
#    0.000    6.000    0.000    0.000    0.000    2.800 
#    0.000    6.400    0.000    0.000    0.000    0.000 
#
# Total GULP energy -495847.973349 kJ/mol
# GULP energy per Si atom -12396.199334 kJ/mol
# Density = 1.789369 g / cm^3
# Si number density = 17.934513 Si / 1000 Ang^3
#
#
#
# Elastic Constant Matrix: (Units=GPa)
#
#
# Indices 1 2 3 4 5 6 
#
# 1 68.3404 19.6424 59.7398 0.0000 0.0000 0.0000
# 2 19.6424 83.1183 69.0930 0.0000 0.0000 0.0000
# 3 59.7398 69.0930 179.4015 0.0000 0.0000 0.0000
# 4 0.0000 0.0000 0.0000 2.9942 0.0000 0.0000
# 5 0.0000 0.0000 0.0000 0.0000 17.1419 0.0000
# 6 0.0000 0.0000 0.0000 0.0000 0.0000 3.2511
#
#
#
# Elastic Compliance Matrix: (Units=1/GPa)
#
#
# Indices 1 2 3 4 5 6 
#
# 1 0.020727 0.001234 -0.007377 0.000000 0.000000 0.000000
# 2 0.001234 0.017770 -0.007255 0.000000 0.000000 0.000000
# 3 -0.007377 -0.007255 0.010825 0.000000 0.000000 0.000000
# 4 0.000000 0.000000 0.000000 0.333984 0.000000 0.000000
# 5 0.000000 0.000000 0.000000 0.000000 0.058337 0.000000
# 6 0.000000 0.000000 0.000000 0.000000 0.000000 0.307589
#
#
# Mechanical properties :
#
#
# Convention : Reuss Voigt Hill
#
# Bulk Modulus (GPa) = 44.39324 69.75673 57.07498
# Shear Modulus (GPa) = 6.38134 16.83644 11.60889
#
# Velocity S-wave (km/s) = 1.88835 3.06726 2.54696
# Velocity P-wave (km/s) = 5.43702 7.17801 6.36730
#
# Compressibility (1/GPa) = 0.02252595
#
# Stress axis : x y z
#
# Youngs Moduli (GPa) = 48.24691 56.27476 92.38120
#
# Poissons Ratio (x) = -0.06946 0.68152
# Poissons Ratio (y) = -0.05955 0.67020
# Poissons Ratio (z) = 0.35593 0.40826
#
# Static dielectric constant tensor:
#      x y z
#    x 3.145340 0.000000 0.000000 
#    y 0.000000 3.219780 0.000000 
#    z 0.000000 0.000000 3.489730 
# 
# 
# High freq. dielectric constant tensor:
#      x y z
#    x 1.642850 0.000000 0.000000 
#    y 0.000000 1.685990 0.000000 
#    z 0.000000 0.000000 1.692170 
# 
# From -- ./inp_files/17917.got.cif
#   From: 2010.03.12/outbox.cif.g09.slc.cpg/sg51_9_cif.got.tgz:17917.got - 2010.04.16 13:43:02.
