data_PCOD8214352
_publ_section_title
;
Structure prediction by ZEFSAII (Michael W. Deem and Ramdas Pophale) SiO2 
 PCOD8214352
Probable space group: P M M A
;
_chemical_formula_sum "Si O2"
_cell_formula_units_Z 42
_cell_length_a 22.098499
_cell_length_b 8.019753
_cell_length_c 13.165837
_cell_angle_alpha 90.000000
_cell_angle_beta 90.000000
_cell_angle_gamma 90.000000
_cell_volume 2333.308927
_symmetry_space_group_name_H-M "P M M A"
_symmetry_group_IT_number 51
_symmetry_cell_setting 'orthorhombic'
loop_
_space_group_symop_operation_xyz
x,y,z
1/2-x,-y,z
1/2+x,-y,-z
-x,y,-z
-x,-y,-z
1/2+x,y,-z
1/2-x,y,z
x,-y,z
loop_
_atom_site_type_symbol
_atom_site_label
_atom_site_fract_x
_atom_site_fract_y
_atom_site_fract_z
Si Si1 0.750000 0.000000 0.663528
Si Si2 0.750000 0.683852 0.808600
Si Si3 0.816933 0.000000 0.469281
Si Si4 0.611889 0.695678 0.146345
Si Si5 0.141989 0.814317 0.072574
Si Si6 0.321907 0.686686 0.648846
Si Si7 0.982462 0.316759 0.883278
O O1 0.750000 0.829575 0.725723
O O2 0.689502 0.000000 0.592088
O O3 0.750000 0.500000 0.756278
O O4 0.809170 0.691301 0.879168
O O5 0.847682 0.172991 0.429899
O O6 0.750000 0.000000 0.419043
O O7 0.609972 0.500000 0.121121
O O8 0.654675 0.738907 0.240216
O O9 0.542760 0.756186 0.172077
O O10 0.637951 0.787093 0.047800
O O11 0.077065 0.795857 0.128933
O O12 0.165434 0.000000 0.093444
O O13 0.250000 0.681699 0.650806
O O14 0.345990 0.500000 0.619410
O O15 0.966464 0.500000 0.840193
O O16 0.000000 0.329971 0.000000
#
# Coordination Sequence:
#
# PCOD8214352 Si02
#       7
#     2   4   4   8   8   8   8
#     4  10  22  42  54  80  98 126 176 218 264 324
#     4  12  24  40  57  75 102 135 173 218 271 304
#     4   8  18  34  53  71 104 124 156 217 257 311
#     4   9  18  30  47  75 111 149 181 205 240 306
#     4  11  21  33  48  74 110 140 182 221 248 297
#     4   9  17  30  49  77 108 137 166 198 253 310
#     4   8  15  30  47  66 100 147 187 211 242 287
#
# _framework density 18.000188999999999
#
# number of rings (size 3 to 8) (size 9 to 14) (size 15 to 20)
#    0.286    2.286    0.952    2.857    2.667    4.190 
#    0.000    0.000    0.000    0.000    0.000    2.667 
#    0.000    6.095    0.000    0.000    0.000    0.000 
#
# Total GULP energy -520346.770321 kJ/mol
# GULP energy per Si atom -12389.208817 kJ/mol
# Density = 1.795922 g / cm^3
# Si number density = 18.000189 Si / 1000 Ang^3
#
#
#
# Elastic Constant Matrix: (Units=GPa)
#
#
# Indices 1 2 3 4 5 6 
#
# 1 54.3741 28.1115 25.9271 0.0000 0.0000 0.0000
# 2 28.1115 118.9805 45.3649 0.0000 0.0000 0.0000
# 3 25.9271 45.3649 67.3476 0.0000 0.0000 0.0000
# 4 0.0000 0.0000 0.0000 21.4046 0.0000 0.0000
# 5 0.0000 0.0000 0.0000 0.0000 1.8596 0.0000
# 6 0.0000 0.0000 0.0000 0.0000 0.0000 17.9631
#
#
#
# Elastic Compliance Matrix: (Units=1/GPa)
#
#
# Indices 1 2 3 4 5 6 
#
# 1 0.023196 -0.002793 -0.007048 0.000000 0.000000 0.000000
# 2 -0.002793 0.011646 -0.006769 0.000000 0.000000 0.000000
# 3 -0.007048 -0.006769 0.022121 0.000000 0.000000 0.000000
# 4 0.000000 0.000000 0.000000 0.046719 0.000000 0.000000
# 5 0.000000 0.000000 0.000000 0.000000 0.537762 0.000000
# 6 0.000000 0.000000 0.000000 0.000000 0.000000 0.055670
#
#
# Mechanical properties :
#
#
# Convention : Reuss Voigt Hill
#
# Bulk Modulus (GPa) = 42.11994 48.83434 45.47714
# Shear Modulus (GPa) = 6.77278 17.66537 12.21907
#
# Velocity S-wave (km/s) = 1.94185 3.13613 2.60826
# Velocity P-wave (km/s) = 5.33650 6.34843 5.86433
#
# Compressibility (1/GPa) = 0.02374173
#
# Stress axis : x y z
#
# Youngs Moduli (GPa) = 43.11081 85.86937 45.20500
#
# Poissons Ratio (x) = 0.23984 0.31863
# Poissons Ratio (y) = 0.12041 0.30600
# Poissons Ratio (z) = 0.30387 0.58126
#
# Static dielectric constant tensor:
#      x y z
#    x 3.485000 0.000000 0.000000 
#    y 0.000000 3.511150 0.000000 
#    z 0.000000 0.000000 2.914460 
# 
# 
# High freq. dielectric constant tensor:
#      x y z
#    x 1.681340 0.000000 0.000000 
#    y 0.000000 1.708260 0.000000 
#    z 0.000000 0.000000 1.649320 
# 
# From -- ./inp_files/18518.got.cif
#   From: 2010.03.12/outbox.cif.g09.slc.cpg/sg51_10_cif.got.tgz:18518.got - 2010.04.16 13:43:02.
