data_PCOD8214519
_publ_section_title
;
Structure prediction by ZEFSAII (Michael W. Deem and Ramdas Pophale) SiO2 
 PCOD8214519
Probable space group: P M M A
;
_chemical_formula_sum "Si O2"
_cell_formula_units_Z 56
_cell_length_a 9.769567
_cell_length_b 14.468795
_cell_length_c 22.624359
_cell_angle_alpha 90.000000
_cell_angle_beta 90.000000
_cell_angle_gamma 90.000000
_cell_volume 3198.040524
_symmetry_space_group_name_H-M "P M M A"
_symmetry_group_IT_number 51
_symmetry_cell_setting 'orthorhombic'
loop_
_space_group_symop_operation_xyz
x,y,z
1/2-x,-y,z
1/2+x,-y,-z
-x,y,-z
-x,-y,-z
1/2+x,y,-z
1/2-x,y,z
x,-y,z
loop_
_atom_site_type_symbol
_atom_site_label
_atom_site_fract_x
_atom_site_fract_y
_atom_site_fract_z
Si Si1 0.906050 0.765710 0.255577
Si Si2 0.097856 0.397333 0.256885
Si Si3 0.978033 0.212011 0.388503
Si Si4 0.094749 0.890931 0.182061
Si Si5 0.596490 0.601079 0.602681
Si Si6 0.750000 0.893681 0.596505
Si Si7 0.902084 0.890026 0.949992
Si Si8 0.250000 0.105849 0.543526
O O1 0.750000 0.762162 0.232852
O O2 0.984385 0.673674 0.233296
O O3 0.902944 0.775723 0.326230
O O4 0.984963 0.851964 0.227833
O O5 0.250000 0.371051 0.233243
O O6 0.057675 0.500000 0.234988
O O7 0.101604 0.394088 0.327136
O O8 0.004038 0.312864 0.418994
O O9 0.118921 0.157922 0.376874
O O10 0.886016 0.154398 0.433213
O O11 0.250000 0.858968 0.197564
O O12 0.055143 0.857550 0.115778
O O13 0.085178 0.000000 0.186582
O O14 0.750000 0.612273 0.577220
O O15 0.537098 0.500000 0.582843
O O16 0.750000 0.887284 0.526317
O O17 0.750000 0.000000 0.617834
O O18 0.750000 0.854618 0.964328
O O19 0.906937 0.000000 0.952349
O O20 0.000000 0.846276 0.000000
O O21 0.250000 0.000000 0.565119
#
# Coordination Sequence:
#
# PCOD8214519 Si02
#       8
#     8   8   8   8   8   4   8   4
#     4  11  22  33  47  74 107 134 159 198 255 306
#     4   8  15  29  51  74  96 126 163 199 236 287
#     4  11  21  38  56  79  99 127 164 204 256 308
#     4   9  19  33  47  66  97 138 178 212 244 288
#     4   8  14  28  53  80 101 123 153 190 235 295
#     4  11  24  40  61  77  87 125 177 213 248 295
#     4   8  14  26  44  65  89 123 169 214 251 286
#     4  11  24  42  57  73 103 127 159 217 262 291
#
# _framework density 17.510721
#
# number of rings (size 3 to 8) (size 9 to 14) (size 15 to 20)
#    0.000    2.571    1.429    3.000    2.000    3.429 
#    0.000    1.786    0.000    2.571    0.000    0.000 
#    0.000    0.571    0.000    1.857    0.000    2.286 
#
# Total GULP energy -694130.775547 kJ/mol
# GULP energy per Si atom -12395.192420 kJ/mol
# Density = 1.747087 g / cm^3
# Si number density = 17.510721 Si / 1000 Ang^3
#
#
#
# Elastic Constant Matrix: (Units=GPa)
#
#
# Indices 1 2 3 4 5 6 
#
# 1 109.6678 47.8788 19.6076 0.0000 0.0000 0.0000
# 2 47.8788 103.5813 15.9076 0.0000 0.0000 0.0000
# 3 19.6076 15.9076 33.6603 0.0000 0.0000 0.0000
# 4 0.0000 0.0000 0.0000 -0.4829 0.0000 0.0000
# 5 0.0000 0.0000 0.0000 0.0000 25.0924 0.0000
# 6 0.0000 0.0000 0.0000 0.0000 0.0000 27.1675
#
#
#
# Elastic Compliance Matrix: (Units=1/GPa)
#
#
# Indices 1 2 3 4 5 6 
#
# 1 0.012088 -0.004859 -0.004745 0.000000 0.000000 0.000000
# 2 -0.004859 0.012363 -0.003012 0.000000 0.000000 0.000000
# 3 -0.004745 -0.003012 0.033896 0.000000 0.000000 0.000000
# 4 0.000000 0.000000 0.000000 -2.070972 0.000000 0.000000
# 5 0.000000 0.000000 0.000000 0.000000 0.039853 0.000000
# 6 0.000000 0.000000 0.000000 0.000000 0.000000 0.036809
#
#
# Mechanical properties :
#
#
# Convention : Reuss Voigt Hill
#
# Bulk Modulus (GPa) = 30.19816 45.96641 38.08228
# Shear Modulus (GPa) = -2.63200 21.25643 9.31221
#
# Velocity S-wave (km/s) = -1.22733 3.48790 2.30858
# Velocity P-wave (km/s) = 3.90826 6.52135 5.37599
#
# Compressibility (1/GPa) = 0.03311460
#
# Stress axis : x y z
#
# Youngs Moduli (GPa) = 82.72598 80.88814 29.50172
#
# Poissons Ratio (x) = 0.39302 0.13999
# Poissons Ratio (y) = 0.40195 0.08887
# Poissons Ratio (z) = 0.39256 0.24365
#
# Static dielectric constant tensor:
#      x y z
#    x 3.385680 0.000000 0.000000 
#    y 0.000000 3.452180 0.000000 
#    z 0.000000 0.000000 3.005840 
# 
# 
# High freq. dielectric constant tensor:
#      x y z
#    x 1.678510 0.000000 0.000000 
#    y 0.000000 1.667840 0.000000 
#    z 0.000000 0.000000 1.637300 
# 
# From -- ./inp_files/32119.got.cif
#   From: 2010.03.12/outbox.cif.g09.slc.cpg/sg51_17_cif.got.tgz:32119.got - 2010.04.16 13:43:02.
