data_PCOD8214044
_publ_section_title
;
Structure prediction by ZEFSAII (Michael W. Deem and Ramdas Pophale) SiO2 
 PCOD8214044
Probable space group: P M M A
;
_chemical_formula_sum "Si O2"
_cell_formula_units_Z 48
_cell_length_a 14.015714
_cell_length_b 18.518254
_cell_length_c 9.045938
_cell_angle_alpha 90.000000
_cell_angle_beta 90.000000
_cell_angle_gamma 90.000000
_cell_volume 2347.842016
_symmetry_space_group_name_H-M "P M M A"
_symmetry_group_IT_number 51
_symmetry_cell_setting 'orthorhombic'
loop_
_space_group_symop_operation_xyz
x,y,z
1/2-x,-y,z
1/2+x,-y,-z
-x,y,-z
-x,-y,-z
1/2+x,y,-z
1/2-x,y,z
x,-y,z
loop_
_atom_site_type_symbol
_atom_site_label
_atom_site_fract_x
_atom_site_fract_y
_atom_site_fract_z
Si Si1 0.144255 0.163106 0.358086
Si Si2 0.856297 0.666814 0.631369
Si Si3 0.972992 0.177009 0.167270
Si Si4 0.009485 0.581624 0.826117
Si Si5 0.138893 0.079793 0.651935
Si Si6 0.638412 0.687543 0.298484
O O1 0.250000 0.131451 0.322455
O O2 0.146845 0.248511 0.341195
O O3 0.111051 0.134934 0.519343
O O4 0.066326 0.139782 0.239634
O O5 0.750000 0.634141 0.655257
O O6 0.927134 0.626778 0.743043
O O7 0.888616 0.660036 0.461743
O O8 0.895819 0.113676 0.191892
O O9 0.931650 0.248172 0.247551
O O10 0.000000 0.195565 0.000000
O O11 0.007117 0.500000 0.765666
O O12 0.113080 0.617589 0.798957
O O13 0.000000 0.583502 0.000000
O O14 0.250000 0.072114 0.665372
O O15 0.094408 0.000000 0.624645
O O16 0.750000 0.710089 0.283261
#
# Coordination Sequence:
#
# PCOD8214044 Si02
#       6
#     8   8   8   8   8   8
#     4  10  21  38  62  92 124 164 212 260 310 368
#     4  10  21  39  65  92 121 161 213 261 303 360
#     4  12  24  38  61  95 133 167 209 260 317 379
#     4  11  25  43  62  92 130 165 202 252 320 385
#     4  10  22  42  67  94 126 168 216 264 314 372
#     4  11  23  40  63  91 123 164 215 263 311 365
#
# _framework density 20.444306999999998
#
# number of rings (size 3 to 8) (size 9 to 14) (size 15 to 20)
#    0.000    1.333    3.333    2.000    0.000    5.667 
#    0.000    3.333    0.000    2.000    0.000    0.000 
#    0.000    0.000    0.000    0.000    0.000    0.000 
#
# Total GULP energy -594738.785482 kJ/mol
# GULP energy per Si atom -12390.391364 kJ/mol
# Density = 2.039777 g / cm^3
# Si number density = 20.444307 Si / 1000 Ang^3
#
#
#
# Elastic Constant Matrix: (Units=GPa)
#
#
# Indices 1 2 3 4 5 6 
#
# 1 84.7658 43.8008 47.9926 0.0000 0.0000 0.0000
# 2 43.8008 112.2917 45.9173 0.0000 0.0000 0.0000
# 3 47.9926 45.9173 96.3447 0.0000 0.0000 0.0000
# 4 0.0000 0.0000 0.0000 23.4182 0.0000 0.0000
# 5 0.0000 0.0000 0.0000 0.0000 24.0525 0.0000
# 6 0.0000 0.0000 0.0000 0.0000 0.0000 27.2998
#
#
#
# Elastic Compliance Matrix: (Units=1/GPa)
#
#
# Indices 1 2 3 4 5 6 
#
# 1 0.017852 -0.004133 -0.006923 0.000000 0.000000 0.000000
# 2 -0.004133 0.012018 -0.003669 0.000000 0.000000 0.000000
# 3 -0.006923 -0.003669 0.015577 0.000000 0.000000 0.000000
# 4 0.000000 0.000000 0.000000 0.042702 0.000000 0.000000
# 5 0.000000 0.000000 0.000000 0.000000 0.041576 0.000000
# 6 0.000000 0.000000 0.000000 0.000000 0.000000 0.036630
#
#
# Mechanical properties :
#
#
# Convention : Reuss Voigt Hill
#
# Bulk Modulus (GPa) = 62.51136 63.20262 62.85699
# Shear Modulus (GPa) = 24.85867 25.33351 25.09609
#
# Velocity S-wave (km/s) = 3.49079 3.52397 3.50742
# Velocity P-wave (km/s) = 6.84765 6.89489 6.87131
#
# Compressibility (1/GPa) = 0.01599709
#
# Stress axis : x y z
#
# Youngs Moduli (GPa) = 56.01459 83.21126 64.19809
#
# Poissons Ratio (x) = 0.34387 0.44447
# Poissons Ratio (y) = 0.23148 0.23554
# Poissons Ratio (z) = 0.38781 0.30530
#
# Static dielectric constant tensor:
#      x y z
#    x 4.908910 0.000000 0.000000 
#    y 0.000000 3.886330 0.000000 
#    z 0.000000 0.000000 3.634600 
# 
# 
# High freq. dielectric constant tensor:
#      x y z
#    x 1.815260 0.000000 0.000000 
#    y 0.000000 1.793530 0.000000 
#    z 0.000000 0.000000 1.783860 
# 
# From -- ./inp_files/8222.got.cif
#   From: 2010.03.12/outbox.cif.g09.slc.cpg/sg51_5_cif.got.tgz:8222.got - 2010.04.16 13:43:02.
