data_PCOD8214584
_publ_section_title
;
Structure prediction by ZEFSAII (Michael W. Deem and Ramdas Pophale) SiO2 
 PCOD8214584
Probable space group: P M M A
;
_chemical_formula_sum "Si O2"
_cell_formula_units_Z 48
_cell_length_a 10.073147
_cell_length_b 28.488678
_cell_length_c 8.495781
_cell_angle_alpha 90.000000
_cell_angle_beta 90.000000
_cell_angle_gamma 90.000000
_cell_volume 2438.039722
_symmetry_space_group_name_H-M "P M M A"
_symmetry_group_IT_number 51
_symmetry_cell_setting 'orthorhombic'
loop_
_space_group_symop_operation_xyz
x,y,z
1/2-x,-y,z
1/2+x,-y,-z
-x,y,-z
-x,-y,-z
1/2+x,y,-z
1/2-x,y,z
x,-y,z
loop_
_atom_site_type_symbol
_atom_site_label
_atom_site_fract_x
_atom_site_fract_y
_atom_site_fract_z
Si Si1 0.901996 0.149969 0.646238
Si Si2 0.099197 0.950247 0.355300
Si Si3 0.014388 0.446421 0.818972
Si Si4 0.485253 0.752145 0.312462
Si Si5 0.750000 0.591319 0.692651
Si Si6 0.250000 0.712458 0.813993
Si Si7 0.750000 0.307341 0.819491
Si Si8 0.750000 0.388975 0.327797
O O1 0.750000 0.154930 0.587808
O O2 0.921494 0.099502 0.738936
O O3 0.000000 0.149369 0.500000
O O4 0.937045 0.196225 0.747882
O O5 0.250000 0.949973 0.420587
O O6 0.000000 0.950537 0.500000
O O7 0.076967 0.000000 0.259121
O O8 0.063316 0.500000 0.803457
O O9 0.876339 0.440806 0.728780
O O10 0.119854 0.412422 0.741494
O O11 0.000000 0.431785 0.000000
O O12 0.500000 0.750475 0.500000
O O13 0.623119 0.743232 0.227735
O O14 0.380725 0.712868 0.262279
O O15 0.750000 0.636777 0.803042
O O16 0.750000 0.607125 0.513773
O O17 0.250000 0.665539 0.711932
O O18 0.250000 0.702610 0.997256
#
# Coordination Sequence:
#
# PCOD8214584 Si02
#       8
#     8   8   8   8   4   4   4   4
#     4   9  17  28  47  74 107 146 188 236 289 345
#     4   8  13  22  37  62  99 141 181 223 279 343
#     4  11  24  43  66  93 126 161 194 231 282 339
#     4  11  22  38  59  84 113 148 190 241 288 345
#     4  12  25  41  66  91 122 153 195 240 289 335
#     4  12  26  41  61  84 115 152 196 235 295 344
#     4  12  24  43  61  84 117 152 190 239 287 350
#     4  12  25  43  64  93 120 155 195 244 283 339
#
# _framework density 19.687947000000001
#
# number of rings (size 3 to 8) (size 9 to 14) (size 15 to 20)
#    0.000    1.500    0.833    5.500    3.500    3.333 
#    0.000    0.000    0.000    0.000    0.000    0.000 
#    0.000    4.000    0.000    0.000    0.000    0.000 
#
# Total GULP energy -594762.760418 kJ/mol
# GULP energy per Si atom -12390.890842 kJ/mol
# Density = 1.964314 g / cm^3
# Si number density = 19.687947 Si / 1000 Ang^3
#
#
#
# Elastic Constant Matrix: (Units=GPa)
#
#
# Indices 1 2 3 4 5 6 
#
# 1 123.0700 29.8407 19.5800 0.0000 0.0000 0.0000
# 2 29.8407 120.7570 21.7377 0.0000 0.0000 0.0000
# 3 19.5800 21.7377 90.5351 0.0000 0.0000 0.0000
# 4 0.0000 0.0000 0.0000 7.5006 0.0000 0.0000
# 5 0.0000 0.0000 0.0000 0.0000 33.8260 0.0000
# 6 0.0000 0.0000 0.0000 0.0000 0.0000 32.3556
#
#
#
# Elastic Compliance Matrix: (Units=1/GPa)
#
#
# Indices 1 2 3 4 5 6 
#
# 1 0.008821 -0.001919 -0.001447 0.000000 0.000000 0.000000
# 2 -0.001919 0.009073 -0.001763 0.000000 0.000000 0.000000
# 3 -0.001447 -0.001763 0.011782 0.000000 0.000000 0.000000
# 4 0.000000 0.000000 0.000000 0.133323 0.000000 0.000000
# 5 0.000000 0.000000 0.000000 0.000000 0.029563 0.000000
# 6 0.000000 0.000000 0.000000 0.000000 0.000000 0.030907
#
#
# Mechanical properties :
#
#
# Convention : Reuss Voigt Hill
#
# Bulk Modulus (GPa) = 51.50257 52.96432 52.23344
# Shear Modulus (GPa) = 20.81606 32.28335 26.54970
#
# Velocity S-wave (km/s) = 3.25514 4.05378 3.67621
# Velocity P-wave (km/s) = 6.35171 6.99079 6.67890
#
# Compressibility (1/GPa) = 0.01941651
#
# Stress axis : x y z
#
# Youngs Moduli (GPa) = 113.36540 110.21950 84.87715
#
# Poissons Ratio (x) = 0.21155 0.12281
# Poissons Ratio (y) = 0.21759 0.14966
# Poissons Ratio (z) = 0.16403 0.19435
#
# Static dielectric constant tensor:
#      x y z
#    x 4.153400 0.000000 0.000000 
#    y 0.000000 4.585620 0.000000 
#    z 0.000000 0.000000 3.219760 
# 
# 
# High freq. dielectric constant tensor:
#      x y z
#    x 1.790400 0.000000 0.000000 
#    y 0.000000 1.803240 0.000000 
#    z 0.000000 0.000000 1.713480 
# 
# From -- ./inp_files/6315.got.cif
#   From: 2010.03.12/outbox.cif.g09.slc.cpg/sg51_4_cif.got.tgz:6315.got - 2010.04.16 13:43:02.
