data_PCOD8214871
_publ_section_title
;
Structure prediction by ZEFSAII (Michael W. Deem and Ramdas Pophale) SiO2 
 PCOD8214871
Probable space group: P M M A
;
_chemical_formula_sum "Si O2"
_cell_formula_units_Z 40
_cell_length_a 18.734805
_cell_length_b 9.177589
_cell_length_c 13.839718
_cell_angle_alpha 90.000000
_cell_angle_beta 90.000000
_cell_angle_gamma 90.000000
_cell_volume 2379.605822
_symmetry_space_group_name_H-M "P M M A"
_symmetry_group_IT_number 51
_symmetry_cell_setting 'orthorhombic'
loop_
_space_group_symop_operation_xyz
x,y,z
1/2-x,-y,z
1/2+x,-y,-z
-x,y,-z
-x,-y,-z
1/2+x,y,-z
1/2-x,y,z
x,-y,z
loop_
_atom_site_type_symbol
_atom_site_label
_atom_site_fract_x
_atom_site_fract_y
_atom_site_fract_z
Si Si1 0.626393 0.662991 0.130532
Si Si2 0.524016 0.171118 0.394571
Si Si3 0.579241 0.164666 0.957337
Si Si4 0.969462 0.336225 0.784042
Si Si5 0.672008 0.166494 0.308848
O O1 0.655182 0.500000 0.112272
O O2 0.545626 0.658417 0.165740
O O3 0.673897 0.738485 0.212092
O O4 0.632076 0.753151 0.031165
O O5 0.500000 0.223476 0.500000
O O6 0.474541 0.255101 0.318427
O O7 0.607887 0.212775 0.380758
O O8 0.510997 0.000000 0.380170
O O9 0.583200 0.247322 0.854522
O O10 0.606425 0.000000 0.942382
O O11 0.500000 0.164532 0.000000
O O12 0.940073 0.500000 0.768263
O O13 0.750000 0.185790 0.359657
O O14 0.659510 0.000000 0.276903
#
# Coordination Sequence:
#
# PCOD8214871 Si02
#       5
#     8   8   8   8   8
#     4   9  16  25  38  58  84 111 138 169 207 252
#     4   9  17  29  44  62  85 113 146 186 230 271
#     4   9  15  23  37  57  82 111 139 166 200 245
#     4   9  16  25  38  58  84 111 139 174 215 257
#     4   9  17  29  44  62  85 113 144 177 216 266
#
# _framework density 16.809507
#
# number of rings (size 3 to 8) (size 9 to 14) (size 15 to 20)
#    0.000    3.000    0.000    1.800    0.000    8.000 
#    0.000    0.000    0.000    0.000    0.000    1.400 
#    0.000    8.000    0.000    0.000    0.000    0.000 
#
# Total GULP energy -495816.098406 kJ/mol
# GULP energy per Si atom -12395.402460 kJ/mol
# Density = 1.677125 g / cm^3
# Si number density = 16.809507 Si / 1000 Ang^3
#
#
#
# Elastic Constant Matrix: (Units=GPa)
#
#
# Indices 1 2 3 4 5 6 
#
# 1 47.3261 23.2095 38.6209 0.0000 0.0000 0.0000
# 2 23.2095 111.4232 65.5970 0.0000 0.0000 0.0000
# 3 38.6209 65.5970 137.3226 0.0000 0.0000 0.0000
# 4 0.0000 0.0000 0.0000 21.3478 0.0000 0.0000
# 5 0.0000 0.0000 0.0000 0.0000 14.0615 0.0000
# 6 0.0000 0.0000 0.0000 0.0000 0.0000 8.7569
#
#
#
# Elastic Compliance Matrix: (Units=1/GPa)
#
#
# Indices 1 2 3 4 5 6 
#
# 1 0.027639 -0.001643 -0.006988 0.000000 0.000000 0.000000
# 2 -0.001643 0.012584 -0.005549 0.000000 0.000000 0.000000
# 3 -0.006988 -0.005549 0.011898 0.000000 0.000000 0.000000
# 4 0.000000 0.000000 0.000000 0.046843 0.000000 0.000000
# 5 0.000000 0.000000 0.000000 0.000000 0.071116 0.000000
# 6 0.000000 0.000000 0.000000 0.000000 0.000000 0.114196
#
#
# Mechanical properties :
#
#
# Convention : Reuss Voigt Hill
#
# Bulk Modulus (GPa) = 42.08752 61.21406 51.65079
# Shear Modulus (GPa) = 15.59789 20.07622 17.83706
#
# Velocity S-wave (km/s) = 3.04948 3.45967 3.26103
# Velocity P-wave (km/s) = 6.12302 7.24254 6.70619
#
# Compressibility (1/GPa) = 0.02376001
#
# Stress axis : x y z
#
# Youngs Moduli (GPa) = 36.18131 79.46687 84.04618
#
# Poissons Ratio (x) = 0.13056 0.58734
# Poissons Ratio (y) = 0.05945 0.46638
# Poissons Ratio (z) = 0.25285 0.44097
#
# Static dielectric constant tensor:
#      x y z
#    x 2.771540 0.000000 0.000000 
#    y 0.000000 3.371590 0.000000 
#    z 0.000000 0.000000 3.078730 
# 
# 
# High freq. dielectric constant tensor:
#      x y z
#    x 1.595170 0.000000 0.000000 
#    y 0.000000 1.661360 0.000000 
#    z 0.000000 0.000000 1.630740 
# 
# From -- ./inp_files/17082.got.cif
#   From: 2010.03.12/outbox.cif.g09.slc.cpg/sg51_9_cif.got.tgz:17082.got - 2010.04.16 13:43:02.
