data_PCOD8214818
_publ_section_title
;
Structure prediction by ZEFSAII (Michael W. Deem and Ramdas Pophale) SiO2 
 PCOD8214818
Probable space group: P M M A
;
_chemical_formula_sum "Si O2"
_cell_formula_units_Z 64
_cell_length_a 24.038554
_cell_length_b 9.758485
_cell_length_c 16.667616
_cell_angle_alpha 90.000000
_cell_angle_beta 90.000000
_cell_angle_gamma 90.000000
_cell_volume 3909.887172
_symmetry_space_group_name_H-M "P M M A"
_symmetry_group_IT_number 51
_symmetry_cell_setting 'orthorhombic'
loop_
_space_group_symop_operation_xyz
x,y,z
1/2-x,-y,z
1/2+x,-y,-z
-x,y,-z
-x,-y,-z
1/2+x,y,-z
1/2-x,y,z
x,-y,z
loop_
_atom_site_type_symbol
_atom_site_label
_atom_site_fract_x
_atom_site_fract_y
_atom_site_fract_z
Si Si1 0.616684 0.342684 0.776744
Si Si2 0.467686 0.159732 0.308334
Si Si3 0.314423 0.340490 0.067729
Si Si4 0.103919 0.841158 0.463111
Si Si5 0.815773 0.151658 0.075456
Si Si6 0.313748 0.655697 0.380199
Si Si7 0.312109 0.836760 0.746468
Si Si8 0.086951 0.162264 0.642021
O O1 0.596649 0.500000 0.781160
O O2 0.563295 0.247214 0.760140
O O3 0.647112 0.296809 0.857966
O O4 0.661304 0.320317 0.707287
O O5 0.442969 0.188393 0.396803
O O6 0.531613 0.210098 0.310925
O O7 0.461995 0.000000 0.285966
O O8 0.250000 0.305293 0.087257
O O9 0.320827 0.500000 0.047837
O O10 0.337693 0.256709 0.991524
O O11 0.159037 0.755429 0.444879
O O12 0.082342 0.790729 0.549649
O O13 0.120749 0.000000 0.464641
O O14 0.750000 0.140909 0.070578
O O15 0.831598 0.206978 0.164054
O O16 0.841513 0.000000 0.060239
O O17 0.250000 0.695766 0.374325
O O18 0.322859 0.500000 0.408783
O O19 0.250000 0.779035 0.726302
O O20 0.357552 0.776381 0.684114
O O21 0.309885 0.000000 0.742591
O O22 0.089566 0.000000 0.645589
#
# Coordination Sequence:
#
# PCOD8214818 Si02
#       8
#     8   8   8   8   8   8   8   8
#     4   9  17  29  44  62  85 114 146 176 206 246
#     4   9  17  29  44  63  87 113 143 180 218 249
#     4   9  16  26  43  66  88 111 141 173 206 251
#     4   9  17  28  43  64  87 111 143 183 219 249
#     4   8  14  25  41  62  87 110 133 168 212 251
#     4   9  17  29  43  59  85 119 146 170 208 255
#     4   8  14  25  42  65  89 110 136 172 212 254
#     4   9  16  27  45  65  85 112 144 177 213 254
#
# _framework density 16.368759000000001
#
# number of rings (size 3 to 8) (size 9 to 14) (size 15 to 20)
#    0.000    3.250    0.000    1.500    0.000    4.250 
#    0.000    1.875    0.000    7.500    0.000    7.000 
#    0.000    0.000    0.000    0.000    0.000    0.000 
#
# Total GULP energy -793291.752266 kJ/mol
# GULP energy per Si atom -12395.183629 kJ/mol
# Density = 1.633150 g / cm^3
# Si number density = 16.368759 Si / 1000 Ang^3
#
#
#
# Elastic Constant Matrix: (Units=GPa)
#
#
# Indices 1 2 3 4 5 6 
#
# 1 97.9599 30.6469 41.1713 0.0000 0.0000 0.0000
# 2 30.6469 38.4905 29.4327 0.0000 0.0000 0.0000
# 3 41.1713 29.4327 85.1671 0.0000 0.0000 0.0000
# 4 0.0000 0.0000 0.0000 16.8259 0.0000 0.0000
# 5 0.0000 0.0000 0.0000 0.0000 19.7072 0.0000
# 6 0.0000 0.0000 0.0000 0.0000 0.0000 17.7732
#
#
#
# Elastic Compliance Matrix: (Units=1/GPa)
#
#
# Indices 1 2 3 4 5 6 
#
# 1 0.014590 -0.008459 -0.004130 0.000000 0.000000 0.000000
# 2 -0.008459 0.040217 -0.009809 0.000000 0.000000 0.000000
# 3 -0.004130 -0.009809 0.017128 0.000000 0.000000 0.000000
# 4 0.000000 0.000000 0.000000 0.059432 0.000000 0.000000
# 5 0.000000 0.000000 0.000000 0.000000 0.050743 0.000000
# 6 0.000000 0.000000 0.000000 0.000000 0.000000 0.056264
#
#
# Mechanical properties :
#
#
# Convention : Reuss Voigt Hill
#
# Bulk Modulus (GPa) = 36.84766 47.12438 41.98602
# Shear Modulus (GPa) = 17.11058 18.88571 17.99814
#
# Velocity S-wave (km/s) = 3.23665 3.40040 3.31953
# Velocity P-wave (km/s) = 6.04381 6.65347 6.35596
#
# Compressibility (1/GPa) = 0.02713876
#
# Stress axis : x y z
#
# Youngs Moduli (GPa) = 68.53783 24.86536 58.38406
#
# Poissons Ratio (x) = 0.21034 0.24112
# Poissons Ratio (y) = 0.57978 0.57269
# Poissons Ratio (z) = 0.28305 0.24390
#
# Static dielectric constant tensor:
#      x y z
#    x 3.124650 0.000000 0.000000 
#    y 0.000000 2.960710 0.000000 
#    z 0.000000 0.000000 3.229730 
# 
# 
# High freq. dielectric constant tensor:
#      x y z
#    x 1.614630 0.000000 0.000000 
#    y 0.000000 1.602510 0.000000 
#    z 0.000000 0.000000 1.625580 
# 
# From -- ./inp_files/30808.got.cif
#   From: 2010.03.12/outbox.cif.g09.slc.cpg/sg51_16_cif.got.tgz:30808.got - 2010.04.16 13:43:02.
