data_PCOD8214486
_publ_section_title
;
Structure prediction by ZEFSAII (Michael W. Deem and Ramdas Pophale) SiO2 
 PCOD8214486
Probable space group: P M M A
;
_chemical_formula_sum "Si O2"
_cell_formula_units_Z 64
_cell_length_a 14.271036
_cell_length_b 13.650706
_cell_length_c 17.297710
_cell_angle_alpha 90.000000
_cell_angle_beta 90.000000
_cell_angle_gamma 90.000000
_cell_volume 3369.761986
_symmetry_space_group_name_H-M "P M M A"
_symmetry_group_IT_number 51
_symmetry_cell_setting 'orthorhombic'
loop_
_space_group_symop_operation_xyz
x,y,z
1/2-x,-y,z
1/2+x,-y,-z
-x,y,-z
-x,-y,-z
1/2+x,y,-z
1/2-x,y,z
x,-y,z
loop_
_atom_site_type_symbol
_atom_site_label
_atom_site_fract_x
_atom_site_fract_y
_atom_site_fract_z
Si Si1 0.481392 0.733093 0.336545
Si Si2 0.643147 0.728656 0.090709
Si Si3 0.645385 0.222350 0.444502
Si Si4 0.356744 0.729937 0.091865
Si Si5 0.145763 0.389538 0.442829
Si Si6 0.139806 0.110875 0.401228
Si Si7 0.000087 0.614174 0.182001
Si Si8 0.000641 0.891552 0.909078
O O1 0.575895 0.779504 0.372312
O O2 0.434637 0.646887 0.385870
O O3 0.408948 0.824374 0.334202
O O4 0.504304 0.687659 0.254215
O O5 0.750000 0.733490 0.118888
O O6 0.591762 0.636685 0.130663
O O7 0.592851 0.830315 0.115513
O O8 0.635532 0.712296 0.999318
O O9 0.750000 0.192901 0.416502
O O10 0.643601 0.332468 0.476597
O O11 0.611469 0.150526 0.513619
O O12 0.250000 0.737078 0.119881
O O13 0.406029 0.637827 0.133474
O O14 0.408456 0.830871 0.116312
O O15 0.250000 0.377566 0.404902
O O16 0.123142 0.500000 0.464256
O O17 0.250000 0.121369 0.389460
O O18 0.105092 0.000000 0.393456
O O19 0.000540 0.500000 0.206168
O O20 0.001179 0.000000 0.869996
O O21 0.000000 0.905336 0.000000
#
# Coordination Sequence:
#
# PCOD8214486 Si02
#       8
#     8   8   8   8   8   8   8   8
#     4  11  21  33  51  75 107 141 170 207 263 324
#     4   9  19  37  58  78 103 138 185 238 282 325
#     4   9  19  33  50  76 105 134 174 218 251 291
#     4   9  19  36  57  80 105 137 182 235 285 331
#     4   9  17  30  49  72  98 130 168 208 248 294
#     4   9  18  35  60  86 109 137 177 221 261 306
#     4  11  24  38  52  75 107 142 182 229 282 341
#     4   8  14  27  51  83 112 133 158 200 257 320
#
# _framework density 18.992440999999999
#
# number of rings (size 3 to 8) (size 9 to 14) (size 15 to 20)
#    0.000    2.625    0.000    4.125    0.000    6.000 
#    0.000    6.250    0.000    0.000    0.000    3.500 
#    0.000    0.000    0.000    0.000    0.000    0.000 
#
# Total GULP energy -793297.046091 kJ/mol
# GULP energy per Si atom -12395.266345 kJ/mol
# Density = 1.894921 g / cm^3
# Si number density = 18.992441 Si / 1000 Ang^3
#
#
#
# Elastic Constant Matrix: (Units=GPa)
#
#
# Indices 1 2 3 4 5 6 
#
# 1 123.8450 36.4648 29.5312 0.0000 0.0000 0.0000
# 2 36.4648 141.2941 27.4429 0.0000 0.0000 0.0000
# 3 29.5312 27.4429 50.5484 0.0000 0.0000 0.0000
# 4 0.0000 0.0000 0.0000 16.5843 0.0000 0.0000
# 5 0.0000 0.0000 0.0000 0.0000 13.5571 0.0000
# 6 0.0000 0.0000 0.0000 0.0000 0.0000 18.2707
#
#
#
# Elastic Compliance Matrix: (Units=1/GPa)
#
#
# Indices 1 2 3 4 5 6 
#
# 1 0.009682 -0.001565 -0.004806 0.000000 0.000000 0.000000
# 2 -0.001565 0.008165 -0.003518 0.000000 0.000000 0.000000
# 3 -0.004806 -0.003518 0.024501 0.000000 0.000000 0.000000
# 4 0.000000 0.000000 0.000000 0.060298 0.000000 0.000000
# 5 0.000000 0.000000 0.000000 0.000000 0.073762 0.000000
# 6 0.000000 0.000000 0.000000 0.000000 0.000000 0.054732
#
#
# Mechanical properties :
#
#
# Convention : Reuss Voigt Hill
#
# Bulk Modulus (GPa) = 44.31103 55.84060 50.07582
# Shear Modulus (GPa) = 19.34672 24.49901 21.92286
#
# Velocity S-wave (km/s) = 3.19510 3.59546 3.40118
# Velocity P-wave (km/s) = 6.08219 6.83387 6.46896
#
# Compressibility (1/GPa) = 0.02256774
#
# Stress axis : x y z
#
# Youngs Moduli (GPa) = 103.28943 122.47871 40.81445
#
# Poissons Ratio (x) = 0.19169 0.19617
# Poissons Ratio (y) = 0.16165 0.14360
# Poissons Ratio (z) = 0.49646 0.43092
#
# Static dielectric constant tensor:
#      x y z
#    x 3.696100 0.000000 0.000000 
#    y 0.000000 3.616030 0.000000 
#    z 0.000000 0.000000 3.128610 
# 
# 
# High freq. dielectric constant tensor:
#      x y z
#    x 1.746910 0.000000 0.000000 
#    y 0.000000 1.737510 0.000000 
#    z 0.000000 0.000000 1.701090 
# 
# From -- ./inp_files/29977.got.cif
#   From: 2010.03.12/outbox.cif.g09.slc.cpg/sg51_15_cif.got.tgz:29977.got - 2010.04.16 13:43:02.
