data_PCOD8214775
_publ_section_title
;
Structure prediction by ZEFSAII (Michael W. Deem and Ramdas Pophale) SiO2 
 PCOD8214775
Probable space group: P M M A
;
_chemical_formula_sum "Si O2"
_cell_formula_units_Z 48
_cell_length_a 9.379130
_cell_length_b 19.413497
_cell_length_c 15.467998
_cell_angle_alpha 90.000000
_cell_angle_beta 90.000000
_cell_angle_gamma 90.000000
_cell_volume 2816.439559
_symmetry_space_group_name_H-M "P M M A"
_symmetry_group_IT_number 51
_symmetry_cell_setting 'orthorhombic'
loop_
_space_group_symop_operation_xyz
x,y,z
1/2-x,-y,z
1/2+x,-y,-z
-x,y,-z
-x,-y,-z
1/2+x,y,-z
1/2-x,y,z
x,-y,z
loop_
_atom_site_type_symbol
_atom_site_label
_atom_site_fract_x
_atom_site_fract_y
_atom_site_fract_z
Si Si1 0.407364 0.418240 0.922710
Si Si2 0.087961 0.081982 0.081923
Si Si3 0.085017 0.919590 0.751264
Si Si4 0.416613 0.676564 0.584540
Si Si5 0.584408 0.164765 0.415507
Si Si6 0.080032 0.423284 0.733606
O O1 0.250000 0.385906 0.930855
O O2 0.398400 0.500000 0.932169
O O3 0.475498 0.400501 0.828812
O O4 0.500000 0.385543 0.000000
O O5 0.250000 0.110353 0.079727
O O6 0.009816 0.107214 0.168994
O O7 0.088621 0.000000 0.078584
O O8 0.000000 0.111198 0.000000
O O9 0.250000 0.903578 0.772570
O O10 0.033209 0.879689 0.666046
O O11 0.061023 0.000000 0.734112
O O12 0.500000 0.651989 0.500000
O O13 0.250000 0.663597 0.568827
O O14 0.449361 0.755862 0.605845
O O15 0.476311 0.631069 0.663592
O O16 0.500000 0.139664 0.500000
O O17 0.750000 0.152754 0.434729
O O18 0.250000 0.424143 0.737305
O O19 0.024086 0.500000 0.709857
#
# Coordination Sequence:
#
# PCOD8214775 Si02
#       6
#     8   8   8   8   8   8
#     4   8  13  22  37  57  80 105 132 161 194 234
#     4   9  16  26  42  65  91 117 144 175 213 256
#     4   9  17  29  44  63  87 113 143 180 218 254
#     4   9  17  30  46  62  82 110 142 173 207 251
#     4   9  18  31  46  63  83 111 144 176 214 259
#     4   8  14  25  42  63  85 110 139 169 204 247
#
# _framework density 17.042793
#
# number of rings (size 3 to 8) (size 9 to 14) (size 15 to 20)
#    0.000    3.333    0.000    1.500    0.000    3.333 
#    0.000    0.833    0.000    2.000    0.000    2.333 
#    0.000    0.000    0.000    0.000    0.000    0.000 
#
# Total GULP energy -595016.031748 kJ/mol
# GULP energy per Si atom -12396.167328 kJ/mol
# Density = 1.700400 g / cm^3
# Si number density = 17.042793 Si / 1000 Ang^3
#
#
#
# Elastic Constant Matrix: (Units=GPa)
#
#
# Indices 1 2 3 4 5 6 
#
# 1 71.6934 26.1546 72.2481 0.0000 0.0000 0.0000
# 2 26.1546 42.0770 60.0637 0.0000 0.0000 0.0000
# 3 72.2481 60.0637 187.8019 0.0000 0.0000 0.0000
# 4 0.0000 0.0000 0.0000 6.0620 0.0000 0.0000
# 5 0.0000 0.0000 0.0000 0.0000 34.8825 0.0000
# 6 0.0000 0.0000 0.0000 0.0000 0.0000 11.8898
#
#
#
# Elastic Compliance Matrix: (Units=1/GPa)
#
#
# Indices 1 2 3 4 5 6 
#
# 1 0.022992 -0.003065 -0.007865 0.000000 0.000000 0.000000
# 2 -0.003065 0.044139 -0.012938 0.000000 0.000000 0.000000
# 3 -0.007865 -0.012938 0.012488 0.000000 0.000000 0.000000
# 4 0.000000 0.000000 0.000000 0.164962 0.000000 0.000000
# 5 0.000000 0.000000 0.000000 0.000000 0.028668 0.000000
# 6 0.000000 0.000000 0.000000 0.000000 0.000000 0.084106
#
#
# Mechanical properties :
#
#
# Convention : Reuss Voigt Hill
#
# Bulk Modulus (GPa) = 31.36289 68.72277 50.04283
# Shear Modulus (GPa) = 12.02737 20.10726 16.06732
#
# Velocity S-wave (km/s) = 2.65941 3.43856 3.07378
# Velocity P-wave (km/s) = 5.27943 7.49507 6.48261
#
# Compressibility (1/GPa) = 0.03188482
#
# Stress axis : x y z
#
# Youngs Moduli (GPa) = 43.49310 22.65555 80.07483
#
# Poissons Ratio (x) = 0.06943 0.62979
# Poissons Ratio (y) = 0.13329 1.03600
# Poissons Ratio (z) = 0.34208 0.29311
#
# Static dielectric constant tensor:
#      x y z
#    x 3.148240 0.000000 0.000000 
#    y 0.000000 2.893910 0.000000 
#    z 0.000000 0.000000 3.470620 
# 
# 
# High freq. dielectric constant tensor:
#      x y z
#    x 1.639810 0.000000 0.000000 
#    y 0.000000 1.614960 0.000000 
#    z 0.000000 0.000000 1.671070 
# 
# From -- ./inp_files/21374.got.cif
#   From: 2010.03.12/outbox.cif.g09.slc.cpg/sg51_11_cif.got.tgz:21374.got - 2010.04.16 13:43:02.
