data_PCOD8214973
_publ_section_title
;
Structure prediction by ZEFSAII (Michael W. Deem and Ramdas Pophale) SiO2 
 PCOD8214973
Probable space group: P N N A
;
_chemical_formula_sum "Si O2"
_cell_formula_units_Z 64
_cell_length_a 16.447026
_cell_length_b 21.033627
_cell_length_c 8.980799
_cell_angle_alpha 90.000000
_cell_angle_beta 90.000000
_cell_angle_gamma 90.000000
_cell_volume 3106.823086
_symmetry_space_group_name_H-M "P N N A"
_symmetry_group_IT_number 52
_symmetry_cell_setting 'orthorhombic'
loop_
_space_group_symop_operation_xyz
x,y,z
1/2-x,-y,z
x,1/2-y,1/2-z
1/2-x,1/2+y,1/2-z
-x,-y,-z
1/2+x,y,-z
-x,1/2+y,1/2+z
1/2+x,1/2-y,1/2+z
loop_
_atom_site_type_symbol
_atom_site_label
_atom_site_fract_x
_atom_site_fract_y
_atom_site_fract_z
Si Si1 0.162825 0.249752 0.925326
Si Si2 0.349787 0.114467 0.419882
Si Si3 0.152918 0.497669 0.883692
Si Si4 0.343300 0.626028 0.408693
Si Si5 0.656482 0.376830 0.924320
Si Si6 0.668534 0.749861 0.577459
Si Si7 0.347901 0.115802 0.093852
Si Si8 0.909969 0.997055 0.062625
O O1 0.147198 0.250000 0.750000
O O2 0.122160 0.186887 0.000184
O O3 0.123357 0.314199 0.991547
O O4 0.258386 0.249603 0.959608
O O5 0.253240 0.122381 0.419754
O O6 0.384699 0.185816 0.452024
O O7 0.378272 0.091206 0.255647
O O8 0.377280 0.063259 0.540926
O O9 0.250000 0.500000 0.849022
O O10 0.097792 0.488249 0.738729
O O11 0.127826 0.440386 0.992097
O O12 0.380116 0.624423 0.242332
O O13 0.247026 0.630604 0.401813
O O14 0.363947 0.560738 0.488237
O O15 0.701239 0.750000 0.750000
O O16 0.613903 0.685708 0.554313
O O17 0.367377 0.064088 0.970839
O O18 0.000000 0.000000 0.000000
#
# Coordination Sequence:
#
# PCOD8214973 Si02
#       8
#     8   8   8   8   8   8   8   8
#     4  10  17  26  48  84 116 135 161 210 262 307
#     4   8  15  29  53  84 109 129 168 218 258 305
#     4  10  19  33  55  82 109 135 172 220 263 309
#     4  10  19  35  57  76 102 141 179 214 259 317
#     4   9  17  31  54  84 109 133 171 217 260 307
#     4   8  15  28  49  79 110 136 167 211 260 311
#     4   9  17  33  56  77 100 139 177 208 258 319
#     4  12  25  37  49  72 107 140 175 222 270 315
#
# _framework density 20.599820999999999
#
# number of rings (size 3 to 8) (size 9 to 14) (size 15 to 20)
#    0.000    2.500    0.000    5.250    0.000    7.000 
#    0.000    2.500    0.000    9.750    0.000    0.000 
#    0.000    0.000    0.000    0.000    0.000    0.000 
#
# Total GULP energy -793086.503435 kJ/mol
# GULP energy per Si atom -12391.976616 kJ/mol
# Density = 2.055293 g / cm^3
# Si number density = 20.599821 Si / 1000 Ang^3
#
#
#
# Elastic Constant Matrix: (Units=GPa)
#
#
# Indices 1 2 3 4 5 6 
#
# 1 14.7719 13.2691 15.9865 0.0000 0.0000 0.0000
# 2 13.2691 204.2930 90.5608 0.0000 0.0000 0.0000
# 3 15.9865 90.5608 169.2939 0.0000 0.0000 0.0000
# 4 0.0000 0.0000 0.0000 32.1311 0.0000 0.0000
# 5 0.0000 0.0000 0.0000 0.0000 5.3505 0.0000
# 6 0.0000 0.0000 0.0000 0.0000 0.0000 -1.8445
#
#
#
# Elastic Compliance Matrix: (Units=1/GPa)
#
#
# Indices 1 2 3 4 5 6 
#
# 1 0.076223 -0.002307 -0.005964 0.000000 0.000000 0.000000
# 2 -0.002307 0.006486 -0.003252 0.000000 0.000000 0.000000
# 3 -0.005964 -0.003252 0.008210 0.000000 0.000000 0.000000
# 4 0.000000 0.000000 0.000000 0.031123 0.000000 0.000000
# 5 0.000000 0.000000 0.000000 0.000000 0.186900 0.000000
# 6 0.000000 0.000000 0.000000 0.000000 0.000000 -0.542153
#
#
# Mechanical properties :
#
#
# Convention : Reuss Voigt Hill
#
# Bulk Modulus (GPa) = 14.73333 69.77683 42.25508
# Shear Modulus (GPa) = -26.66060 25.03023 -0.81518
#
# Velocity S-wave (km/s) = -3.60142 3.48957 -0.62975
# Velocity P-wave (km/s) = 3.18213 7.08394 4.47528
#
# Compressibility (1/GPa) = 0.06787330
#
# Stress axis : x y z
#
# Youngs Moduli (GPa) = 13.11946 154.17115 121.80924
#
# Poissons Ratio (x) = 0.35570 0.72642
# Poissons Ratio (y) = 0.03027 0.39611
# Poissons Ratio (z) = 0.07824 0.50134
#
# Static dielectric constant tensor:
#      x y z
#    x 2.965380 0.000000 0.000000 
#    y 0.000000 4.180670 0.000000 
#    z 0.000000 0.000000 3.854860 
# 
# 
# High freq. dielectric constant tensor:
#      x y z
#    x 1.723040 0.000000 0.000000 
#    y 0.000000 1.840330 0.000000 
#    z 0.000000 0.000000 1.810080 
# 
# From -- ./inp_files/12600.got.cif
#   From: 2010.06.25/outbox.cif.g09.slc.cpg/sg52_7_cif.got.tgz:12600.got - 2010.06.26 19:32:48.
