data_PCOD8214628
_publ_section_title
;
Structure prediction by ZEFSAII (Michael W. Deem and Ramdas Pophale) SiO2 
 PCOD8214628
Probable space group: P M M A
;
_chemical_formula_sum "Si O2"
_cell_formula_units_Z 52
_cell_length_a 23.205963
_cell_length_b 13.037733
_cell_length_c 8.595909
_cell_angle_alpha 90.000000
_cell_angle_beta 90.000000
_cell_angle_gamma 90.000000
_cell_volume 2600.719342
_symmetry_space_group_name_H-M "P M M A"
_symmetry_group_IT_number 51
_symmetry_cell_setting 'orthorhombic'
loop_
_space_group_symop_operation_xyz
x,y,z
1/2-x,-y,z
1/2+x,-y,-z
-x,y,-z
-x,-y,-z
1/2+x,y,-z
1/2-x,y,z
x,-y,z
loop_
_atom_site_type_symbol
_atom_site_label
_atom_site_fract_x
_atom_site_fract_y
_atom_site_fract_z
Si Si1 0.750000 0.887178 0.626301
Si Si2 0.063259 0.882224 0.059006
Si Si3 0.139062 0.722629 0.872729
Si Si4 0.457799 0.784422 0.372492
Si Si5 0.750000 0.326191 0.665237
Si Si6 0.250000 0.386626 0.006463
Si Si7 0.660621 0.235792 0.471686
Si Si8 0.522771 0.382461 0.171027
O O1 0.750000 0.790543 0.746847
O O2 0.808010 0.871043 0.521842
O O3 0.750000 0.000000 0.703905
O O4 0.062846 0.866275 0.244648
O O5 0.077780 0.000000 0.021091
O O6 0.111449 0.813154 0.976433
O O7 0.000000 0.850953 0.000000
O O8 0.164261 0.766676 0.713703
O O9 0.090996 0.638526 0.829808
O O10 0.191641 0.671946 0.964572
O O11 0.500000 0.836671 0.500000
O O12 0.403555 0.748509 0.470461
O O13 0.488589 0.686671 0.294482
O O14 0.750000 0.405149 0.805964
O O15 0.694843 0.332666 0.549545
O O16 0.250000 0.500000 0.930500
O O17 0.511689 0.500000 0.217489
O O18 0.500000 0.357000 0.000000
#
# Coordination Sequence:
#
# PCOD8214628 Si02
#       8
#     4   8   8   8   4   4   8   8
#     4   8  19  39  64  88 120 160 204 251 314 371
#     4  11  23  40  64  95 129 171 212 253 313 380
#     4  12  21  46  64  92 132 164 213 270 314 376
#     4  12  20  39  62  92 137 165 208 265 319 373
#     4   8  21  42  59  91 125 156 205 262 315 364
#     4  12  26  43  69  91 121 172 219 263 325 379
#     4   9  21  37  64  90 127 164 199 263 322 366
#     4  11  23  39  64  92 124 169 212 258 321 381
#
# _framework density 19.994468000000001
#
# number of rings (size 3 to 8) (size 9 to 14) (size 15 to 20)
#    0.923    0.308    4.615    2.308    0.000    1.846 
#    0.000    2.692    0.000    0.000    0.000    0.000 
#    0.000    0.000    0.000    0.000    0.000    0.000 
#
# Total GULP energy -644247.761320 kJ/mol
# GULP energy per Si atom -12389.380025 kJ/mol
# Density = 1.994896 g / cm^3
# Si number density = 19.994468 Si / 1000 Ang^3
#
#
#
# Elastic Constant Matrix: (Units=GPa)
#
#
# Indices 1 2 3 4 5 6 
#
# 1 143.8468 33.7610 41.5146 0.0000 0.0000 0.0000
# 2 33.7610 98.2653 21.6446 0.0000 0.0000 0.0000
# 3 41.5146 21.6446 108.2371 0.0000 0.0000 0.0000
# 4 0.0000 0.0000 0.0000 11.6173 0.0000 0.0000
# 5 0.0000 0.0000 0.0000 0.0000 39.3322 0.0000
# 6 0.0000 0.0000 0.0000 0.0000 0.0000 23.6840
#
#
#
# Elastic Compliance Matrix: (Units=1/GPa)
#
#
# Indices 1 2 3 4 5 6 
#
# 1 0.008263 -0.002239 -0.002721 0.000000 0.000000 0.000000
# 2 -0.002239 0.011252 -0.001391 0.000000 0.000000 0.000000
# 3 -0.002721 -0.001391 0.010561 0.000000 0.000000 0.000000
# 4 0.000000 0.000000 0.000000 0.086078 0.000000 0.000000
# 5 0.000000 0.000000 0.000000 0.000000 0.025424 0.000000
# 6 0.000000 0.000000 0.000000 0.000000 0.000000 0.042223
#
#
# Mechanical properties :
#
#
# Convention : Reuss Voigt Hill
#
# Bulk Modulus (GPa) = 57.56372 60.46551 59.01462
# Shear Modulus (GPa) = 24.71620 31.82197 28.26908
#
# Velocity S-wave (km/s) = 3.51971 3.99374 3.76419
# Velocity P-wave (km/s) = 6.73574 7.18146 6.96217
#
# Compressibility (1/GPa) = 0.01737205
#
# Stress axis : x y z
#
# Youngs Moduli (GPa) = 121.02371 88.87017 94.68803
#
# Poissons Ratio (x) = 0.19902 0.25768
# Poissons Ratio (y) = 0.27102 0.13173
# Poissons Ratio (z) = 0.32936 0.12364
#
# Static dielectric constant tensor:
#      x y z
#    x 3.747520 0.000000 0.000000 
#    y 0.000000 3.319790 0.000000 
#    z 0.000000 0.000000 3.709680 
# 
# 
# High freq. dielectric constant tensor:
#      x y z
#    x 1.794620 0.000000 0.000000 
#    y 0.000000 1.755320 0.000000 
#    z 0.000000 0.000000 1.780700 
# 
# From -- ./inp_files/11792.got.cif
#   From: 2010.03.12/outbox.cif.g09.slc.cpg/sg51_6_cif.got.tgz:11792.got - 2010.04.16 13:43:02.
