data_PCOD8214551
_publ_section_title
;
Structure prediction by ZEFSAII (Michael W. Deem and Ramdas Pophale) SiO2 
 PCOD8214551
Probable space group: P M M A
;
_chemical_formula_sum "Si O2"
_cell_formula_units_Z 40
_cell_length_a 8.840027
_cell_length_b 13.753649
_cell_length_c 18.854922
_cell_angle_alpha 90.000000
_cell_angle_beta 90.000000
_cell_angle_gamma 90.000000
_cell_volume 2292.430977
_symmetry_space_group_name_H-M "P M M A"
_symmetry_group_IT_number 51
_symmetry_cell_setting 'orthorhombic'
loop_
_space_group_symop_operation_xyz
x,y,z
1/2-x,-y,z
1/2+x,-y,-z
-x,y,-z
-x,-y,-z
1/2+x,y,-z
1/2-x,y,z
x,-y,z
loop_
_atom_site_type_symbol
_atom_site_label
_atom_site_fract_x
_atom_site_fract_y
_atom_site_fract_z
Si Si1 0.928696 0.212038 0.926883
Si Si2 0.572723 0.707340 0.287029
Si Si3 0.428273 0.611958 0.572327
Si Si4 0.573781 0.109815 0.203129
Si Si5 0.071361 0.610599 0.856010
O O1 0.750000 0.212432 0.933195
O O2 0.978427 0.137505 0.865850
O O3 0.986873 0.321234 0.912090
O O4 0.000000 0.174232 0.000000
O O5 0.750000 0.692778 0.294754
O O6 0.501441 0.673712 0.361913
O O7 0.530353 0.819283 0.268737
O O8 0.515652 0.638434 0.223126
O O9 0.500000 0.652740 0.500000
O O10 0.250000 0.624563 0.566188
O O11 0.474007 0.500000 0.584479
O O12 0.750000 0.123344 0.183897
O O13 0.535895 0.000000 0.226367
O O14 0.250000 0.628220 0.863408
O O15 0.026099 0.500000 0.872157
#
# Coordination Sequence:
#
# PCOD8214551 Si02
#       5
#     8   8   8   8   8
#     4  11  22  35  50  69  96 126 156 192 234 283
#     4   8  14  27  48  71  93 120 155 193 233 277
#     4   9  16  26  42  66  96 128 159 189 223 267
#     4   9  18  34  55  75  92 114 151 198 244 289
#     4   9  17  31  51  72  94 123 160 199 237 279
#
# _framework density 17.448726000000001
#
# number of rings (size 3 to 8) (size 9 to 14) (size 15 to 20)
#    0.000    2.800    0.000    3.600    0.000    4.000 
#    0.000    4.000    0.000    5.400    0.000    0.000 
#    0.000    0.000    0.000    0.000    0.000    0.000 
#
# Total GULP energy -495884.590315 kJ/mol
# GULP energy per Si atom -12397.114758 kJ/mol
# Density = 1.740901 g / cm^3
# Si number density = 17.448726 Si / 1000 Ang^3
#
#
#
# Elastic Constant Matrix: (Units=GPa)
#
#
# Indices 1 2 3 4 5 6 
#
# 1 56.1186 29.2646 32.2633 0.0000 0.0000 0.0000
# 2 29.2646 103.1887 39.3567 0.0000 0.0000 0.0000
# 3 32.2633 39.3567 119.8624 0.0000 0.0000 0.0000
# 4 0.0000 0.0000 0.0000 17.2048 0.0000 0.0000
# 5 0.0000 0.0000 0.0000 0.0000 24.7191 0.0000
# 6 0.0000 0.0000 0.0000 0.0000 0.0000 18.8317
#
#
#
# Elastic Compliance Matrix: (Units=1/GPa)
#
#
# Indices 1 2 3 4 5 6 
#
# 1 0.022950 -0.004747 -0.004619 0.000000 0.000000 0.000000
# 2 -0.004747 0.012060 -0.002682 0.000000 0.000000 0.000000
# 3 -0.004619 -0.002682 0.010467 0.000000 0.000000 0.000000
# 4 0.000000 0.000000 0.000000 0.058123 0.000000 0.000000
# 5 0.000000 0.000000 0.000000 0.000000 0.040455 0.000000
# 6 0.000000 0.000000 0.000000 0.000000 0.000000 0.053102
#
#
# Mechanical properties :
#
#
# Convention : Reuss Voigt Hill
#
# Bulk Modulus (GPa) = 46.77013 53.43767 50.10390
# Shear Modulus (GPa) = 21.89328 24.03680 22.96504
#
# Velocity S-wave (km/s) = 3.54605 3.71559 3.63181
# Velocity P-wave (km/s) = 6.60518 7.00710 6.80911
#
# Compressibility (1/GPa) = 0.02138117
#
# Stress axis : x y z
#
# Youngs Moduli (GPa) = 43.57233 82.91679 95.53975
#
# Poissons Ratio (x) = 0.39362 0.44128
# Poissons Ratio (y) = 0.20684 0.25626
# Poissons Ratio (z) = 0.20125 0.22240
#
# Static dielectric constant tensor:
#      x y z
#    x 2.981450 0.000000 0.000000 
#    y 0.000000 3.296050 0.000000 
#    z 0.000000 0.000000 3.398710 
# 
# 
# High freq. dielectric constant tensor:
#      x y z
#    x 1.649000 0.000000 0.000000 
#    y 0.000000 1.666350 0.000000 
#    z 0.000000 0.000000 1.669450 
# 
# From -- ./inp_files/27214.got.cif
#   From: 2010.03.12/outbox.cif.g09.slc.cpg/sg51_14_cif.got.tgz:27214.got - 2010.04.16 13:43:02.
