data_PCOD8214399
_publ_section_title
;
Structure prediction by ZEFSAII (Michael W. Deem and Ramdas Pophale) SiO2 
 PCOD8214399
Probable space group: P M M A
;
_chemical_formula_sum "Si O2"
_cell_formula_units_Z 40
_cell_length_a 28.622912
_cell_length_b 8.599153
_cell_length_c 7.789279
_cell_angle_alpha 90.000000
_cell_angle_beta 90.000000
_cell_angle_gamma 90.000000
_cell_volume 1917.197047
_symmetry_space_group_name_H-M "P M M A"
_symmetry_group_IT_number 51
_symmetry_cell_setting 'orthorhombic'
loop_
_space_group_symop_operation_xyz
x,y,z
1/2-x,-y,z
1/2+x,-y,-z
-x,y,-z
-x,-y,-z
1/2+x,y,-z
1/2-x,y,z
x,-y,z
loop_
_atom_site_type_symbol
_atom_site_label
_atom_site_fract_x
_atom_site_fract_y
_atom_site_fract_z
Si Si1 0.857562 0.180847 0.417977
Si Si2 0.361907 0.681752 0.931434
Si Si3 0.804024 0.681132 0.735758
Si Si4 0.549526 0.180840 0.920850
Si Si5 0.948895 0.681544 0.555910
O O1 0.838488 0.271230 0.249863
O O2 0.827003 0.224339 0.582121
O O3 0.911649 0.224031 0.445174
O O4 0.852792 0.000000 0.382972
O O5 0.372954 0.500000 0.935178
O O6 0.327204 0.730260 0.084409
O O7 0.410157 0.777789 0.944112
O O8 0.750000 0.725564 0.747460
O O9 0.811840 0.500000 0.698534
O O10 0.559253 0.285705 0.755399
O O11 0.551024 0.000000 0.870311
O O12 0.500000 0.227853 0.000000
O O13 0.941735 0.500000 0.519197
O O14 0.000000 0.739410 0.500000
#
# Coordination Sequence:
#
# PCOD8214399 Si02
#       5
#     8   8   8   8   8
#     4  12  25  41  65  96 134 172 213 269 331 387
#     4  11  23  41  67  95 129 172 219 267 320 384
#     4  10  23  45  71  97 127 168 219 272 326 387
#     4  11  23  38  59  91 131 171 212 263 326 385
#     4  11  23  39  61  90 126 171 222 268 317 382
#
# _framework density 20.863792
#
# number of rings (size 3 to 8) (size 9 to 14) (size 15 to 20)
#    0.000    1.000    2.000    4.800    0.000    8.400 
#    0.000    2.000    0.000    0.000    0.000    0.000 
#    0.000    0.000    0.000    0.000    0.000    0.000 
#
# Total GULP energy -496306.515673 kJ/mol
# GULP energy per Si atom -12407.662892 kJ/mol
# Density = 2.081630 g / cm^3
# Si number density = 20.863792 Si / 1000 Ang^3
#
#
#
# Elastic Constant Matrix: (Units=GPa)
#
#
# Indices 1 2 3 4 5 6 
#
# 1 124.2975 40.6386 44.4527 0.0000 0.0000 0.0000
# 2 40.6386 67.0124 32.3570 0.0000 0.0000 0.0000
# 3 44.4527 32.3570 140.8509 0.0000 0.0000 0.0000
# 4 0.0000 0.0000 0.0000 28.6241 0.0000 0.0000
# 5 0.0000 0.0000 0.0000 0.0000 26.5003 0.0000
# 6 0.0000 0.0000 0.0000 0.0000 0.0000 19.9786
#
#
#
# Elastic Compliance Matrix: (Units=1/GPa)
#
#
# Indices 1 2 3 4 5 6 
#
# 1 0.010556 -0.005391 -0.002093 0.000000 0.000000 0.000000
# 2 -0.005391 0.019538 -0.002787 0.000000 0.000000 0.000000
# 3 -0.002093 -0.002787 0.008401 0.000000 0.000000 0.000000
# 4 0.000000 0.000000 0.000000 0.034936 0.000000 0.000000
# 5 0.000000 0.000000 0.000000 0.000000 0.037735 0.000000
# 6 0.000000 0.000000 0.000000 0.000000 0.000000 0.050053
#
#
# Mechanical properties :
#
#
# Convention : Reuss Voigt Hill
#
# Bulk Modulus (GPa) = 55.70302 63.00639 59.35470
# Shear Modulus (GPa) = 26.63183 29.33476 27.98329
#
# Velocity S-wave (km/s) = 3.57664 3.75375 3.66626
# Velocity P-wave (km/s) = 6.61912 7.00371 6.81413
#
# Compressibility (1/GPa) = 0.01795235
#
# Stress axis : x y z
#
# Youngs Moduli (GPa) = 94.72946 51.18342 119.04034
#
# Poissons Ratio (x) = 0.27593 0.24917
# Poissons Ratio (y) = 0.51069 0.33175
# Poissons Ratio (z) = 0.19828 0.14264
#
# Static dielectric constant tensor:
#      x y z
#    x 3.851610 0.000000 0.000000 
#    y 0.000000 3.647930 0.000000 
#    z 0.000000 0.000000 3.902910 
# 
# 
# High freq. dielectric constant tensor:
#      x y z
#    x 1.813920 0.000000 0.000000 
#    y 0.000000 1.818100 0.000000 
#    z 0.000000 0.000000 1.832240 
# 
# From -- ./inp_files/12599.got.cif
#   From: 2010.03.12/outbox.cif.g09.slc.cpg/sg51_7_cif.got.tgz:12599.got - 2010.04.16 13:43:02.
