data_PCOD8214802
_publ_section_title
;
Structure prediction by ZEFSAII (Michael W. Deem and Ramdas Pophale) SiO2 
 PCOD8214802
Probable space group: P M M A
;
_chemical_formula_sum "Si O2"
_cell_formula_units_Z 64
_cell_length_a 25.634410
_cell_length_b 9.455551
_cell_length_c 16.345471
_cell_angle_alpha 90.000000
_cell_angle_beta 90.000000
_cell_angle_gamma 90.000000
_cell_volume 3961.937380
_symmetry_space_group_name_H-M "P M M A"
_symmetry_group_IT_number 51
_symmetry_cell_setting 'orthorhombic'
loop_
_space_group_symop_operation_xyz
x,y,z
1/2-x,-y,z
1/2+x,-y,-z
-x,y,-z
-x,-y,-z
1/2+x,y,-z
1/2-x,y,z
x,-y,z
loop_
_atom_site_type_symbol
_atom_site_label
_atom_site_fract_x
_atom_site_fract_y
_atom_site_fract_z
Si Si1 0.513882 0.334844 0.687413
Si Si2 0.546584 0.839787 0.435459
Si Si3 0.080472 0.333436 0.978602
Si Si4 0.013156 0.332113 0.127985
Si Si5 0.310945 0.843683 0.180878
Si Si6 0.808245 0.334563 0.979124
Si Si7 0.690476 0.660288 0.672470
Si Si8 0.398219 0.659487 0.442946
O O1 0.498330 0.500000 0.687065
O O2 0.467043 0.245324 0.646817
O O3 0.522247 0.276274 0.779770
O O4 0.565873 0.306259 0.635634
O O5 0.500000 0.833375 0.500000
O O6 0.594785 0.763928 0.480593
O O7 0.561545 0.000000 0.412458
O O8 0.074001 0.500000 0.981315
O O9 0.142114 0.295382 0.962565
O O10 0.058747 0.276016 0.066643
O O11 0.043428 0.276324 0.905506
O O12 0.013788 0.500000 0.130167
O O13 0.250000 0.858843 0.195462
O O14 0.321279 0.751307 0.101593
O O15 0.334588 0.762530 0.259035
O O16 0.336292 0.000000 0.172164
O O17 0.750000 0.294443 0.014754
O O18 0.808874 0.500000 0.957381
O O19 0.750000 0.697817 0.653812
O O20 0.684128 0.500000 0.705176
O O21 0.660800 0.680063 0.586913
O O22 0.409635 0.500000 0.473280
#
# Coordination Sequence:
#
# PCOD8214802 Si02
#       8
#     8   8   8   8   8   8   8   8
#     4   9  16  26  43  63  82 105 140 174 204 245
#     4   9  17  29  43  60  84 108 132 167 210 249
#     4   8  14  24  39  59  86 109 135 173 209 245
#     4   8  14  24  39  61  83 109 139 172 208 244
#     4   9  17  27  37  52  78 110 142 173 201 236
#     4   9  16  25  40  60  80 105 136 172 212 249
#     4   9  17  28  41  59  84 112 140 170 204 242
#     4   9  17  27  42  63  85 109 137 170 205 243
#
# _framework density 16.153714000000001
#
# number of rings (size 3 to 8) (size 9 to 14) (size 15 to 20)
#    0.000    3.250    0.000    1.500    1.750    3.500 
#    0.000    0.000    0.000    0.750    0.000    2.625 
#    0.000    5.000    0.000    0.000    0.000    0.000 
#
# Total GULP energy -792840.623791 kJ/mol
# GULP energy per Si atom -12388.134747 kJ/mol
# Density = 1.611695 g / cm^3
# Si number density = 16.153714 Si / 1000 Ang^3
#
#
#
# Elastic Constant Matrix: (Units=GPa)
#
#
# Indices 1 2 3 4 5 6 
#
# 1 81.5688 18.8908 21.9844 0.0000 0.0000 0.0000
# 2 18.8908 48.0237 16.5053 0.0000 0.0000 0.0000
# 3 21.9844 16.5053 60.8596 0.0000 0.0000 0.0000
# 4 0.0000 0.0000 0.0000 4.1969 0.0000 0.0000
# 5 0.0000 0.0000 0.0000 0.0000 18.4344 0.0000
# 6 0.0000 0.0000 0.0000 0.0000 0.0000 9.2319
#
#
#
# Elastic Compliance Matrix: (Units=1/GPa)
#
#
# Indices 1 2 3 4 5 6 
#
# 1 0.014329 -0.004254 -0.004022 0.000000 0.000000 0.000000
# 2 -0.004254 0.024226 -0.005034 0.000000 0.000000 0.000000
# 3 -0.004022 -0.005034 0.019249 0.000000 0.000000 0.000000
# 4 0.000000 0.000000 0.000000 0.238273 0.000000 0.000000
# 5 0.000000 0.000000 0.000000 0.000000 0.054246 0.000000
# 6 0.000000 0.000000 0.000000 0.000000 0.000000 0.108320
#
#
# Mechanical properties :
#
#
# Convention : Reuss Voigt Hill
#
# Bulk Modulus (GPa) = 32.06692 33.91256 32.98974
# Shear Modulus (GPa) = 10.08760 15.24408 12.66584
#
# Velocity S-wave (km/s) = 2.50166 3.07528 2.80318
# Velocity P-wave (km/s) = 5.31400 5.80078 5.56272
#
# Compressibility (1/GPa) = 0.03118479
#
# Stress axis : x y z
#
# Youngs Moduli (GPa) = 69.78902 41.27717 51.94969
#
# Poissons Ratio (x) = 0.17559 0.20896
# Poissons Ratio (y) = 0.29688 0.26149
# Poissons Ratio (z) = 0.28072 0.20777
#
# Static dielectric constant tensor:
#      x y z
#    x 3.162540 0.000000 0.000000 
#    y 0.000000 3.020040 0.000000 
#    z 0.000000 0.000000 2.973990 
# 
# 
# High freq. dielectric constant tensor:
#      x y z
#    x 1.607790 0.000000 0.000000 
#    y 0.000000 1.599280 0.000000 
#    z 0.000000 0.000000 1.589190 
# 
# From -- ./inp_files/30970.got.cif
#   From: 2010.03.12/outbox.cif.g09.slc.cpg/sg51_16_cif.got.tgz:30970.got - 2010.04.16 13:43:02.
