data_PCOD8214250
_publ_section_title
;
Structure prediction by ZEFSAII (Michael W. Deem and Ramdas Pophale) SiO2 
 PCOD8214250
Probable space group: P M M A
;
_chemical_formula_sum "Si O2"
_cell_formula_units_Z 64
_cell_length_a 8.777670
_cell_length_b 23.635425
_cell_length_c 15.380371
_cell_angle_alpha 90.000000
_cell_angle_beta 90.000000
_cell_angle_gamma 90.000000
_cell_volume 3190.872689
_symmetry_space_group_name_H-M "P M M A"
_symmetry_group_IT_number 51
_symmetry_cell_setting 'orthorhombic'
loop_
_space_group_symop_operation_xyz
x,y,z
1/2-x,-y,z
1/2+x,-y,-z
-x,y,-z
-x,-y,-z
1/2+x,y,-z
1/2-x,y,z
x,-y,z
loop_
_atom_site_type_symbol
_atom_site_label
_atom_site_fract_x
_atom_site_fract_y
_atom_site_fract_z
Si Si1 0.430255 0.747167 0.838442
Si Si2 0.069947 0.361026 0.087001
Si Si3 0.570578 0.137429 0.589991
Si Si4 0.074339 0.565538 0.253177
Si Si5 0.571012 0.869263 0.092284
Si Si6 0.427000 0.065715 0.246829
Si Si7 0.429184 0.626573 0.587705
Si Si8 0.929982 0.260428 0.650525
O O1 0.250000 0.743635 0.823114
O O2 0.486515 0.699209 0.904033
O O3 0.481399 0.807081 0.877743
O O4 0.517353 0.737097 0.749233
O O5 0.250000 0.352547 0.078684
O O6 0.026257 0.401562 0.166544
O O7 0.000000 0.389150 0.000000
O O8 0.500000 0.115539 0.500000
O O9 0.750000 0.131978 0.582609
O O10 0.509504 0.098790 0.668843
O O11 0.518495 0.201632 0.607531
O O12 0.250000 0.577266 0.276427
O O13 0.041801 0.500000 0.236632
O O14 0.972427 0.586991 0.332056
O O15 0.750000 0.872842 0.082852
O O16 0.517230 0.915233 0.161876
O O17 0.500000 0.884866 0.000000
O O18 0.250000 0.079758 0.232188
O O19 0.456214 0.000000 0.263142
O O20 0.500000 0.600051 0.500000
O O21 0.250000 0.628683 0.578604
O O22 0.491100 0.689977 0.597268
O O23 0.750000 0.269083 0.647875
#
# Coordination Sequence:
#
# PCOD8214250 Si02
#       8
#     8   8   8   8   8   8   8   8
#     4  11  22  37  61  93 125 160 199 247 304 367
#     4  11  23  39  63  92 126 164 203 250 302 361
#     4  10  22  38  60  90 122 159 199 244 299 358
#     4  10  23  44  66  89 121 163 210 257 306 360
#     4  11  24  40  62  91 123 159 201 247 303 363
#     4  10  22  42  64  86 117 159 206 254 304 358
#     4  12  25  41  64  93 126 162 205 252 305 368
#     4  11  21  37  62  91 125 163 199 246 306 364
#
# _framework density 20.057207999999999
#
# number of rings (size 3 to 8) (size 9 to 14) (size 15 to 20)
#    0.000    1.250    2.500    3.375    0.000    7.000 
#    0.000    0.000    0.000    0.000    0.000    0.000 
#    0.000    0.000    0.000    0.000    0.000    0.000 
#
# Total GULP energy -794014.190253 kJ/mol
# GULP energy per Si atom -12406.471723 kJ/mol
# Density = 2.001156 g / cm^3
# Si number density = 20.057208 Si / 1000 Ang^3
#
#
#
# Elastic Constant Matrix: (Units=GPa)
#
#
# Indices 1 2 3 4 5 6 
#
# 1 78.6144 31.9302 39.4422 0.0000 0.0000 0.0000
# 2 31.9302 84.9940 34.4418 0.0000 0.0000 0.0000
# 3 39.4422 34.4418 144.7440 0.0000 0.0000 0.0000
# 4 0.0000 0.0000 0.0000 4.0908 0.0000 0.0000
# 5 0.0000 0.0000 0.0000 0.0000 39.9232 0.0000
# 6 0.0000 0.0000 0.0000 0.0000 0.0000 17.2203
#
#
#
# Elastic Compliance Matrix: (Units=1/GPa)
#
#
# Indices 1 2 3 4 5 6 
#
# 1 0.016327 -0.004793 -0.003309 0.000000 0.000000 0.000000
# 2 -0.004793 0.014428 -0.002127 0.000000 0.000000 0.000000
# 3 -0.003309 -0.002127 0.008316 0.000000 0.000000 0.000000
# 4 0.000000 0.000000 0.000000 0.244449 0.000000 0.000000
# 5 0.000000 0.000000 0.000000 0.000000 0.025048 0.000000
# 6 0.000000 0.000000 0.000000 0.000000 0.000000 0.058071
#
#
# Mechanical properties :
#
#
# Convention : Reuss Voigt Hill
#
# Bulk Modulus (GPa) = 53.72207 57.77566 55.74887
# Shear Modulus (GPa) = 12.71289 25.74941 19.23115
#
# Velocity S-wave (km/s) = 2.52033 3.58690 3.09983
# Velocity P-wave (km/s) = 5.94239 6.78398 6.37709
#
# Compressibility (1/GPa) = 0.01861432
#
# Stress axis : x y z
#
# Youngs Moduli (GPa) = 61.24825 69.30924 120.24335
#
# Poissons Ratio (x) = 0.33220 0.39783
# Poissons Ratio (y) = 0.29356 0.25577
# Poissons Ratio (z) = 0.20264 0.14743
#
# Static dielectric constant tensor:
#      x y z
#    x 3.642990 0.000000 0.000000 
#    y 0.000000 3.706260 0.000000 
#    z 0.000000 0.000000 3.758760 
# 
# 
# High freq. dielectric constant tensor:
#      x y z
#    x 1.784410 0.000000 0.000000 
#    y 0.000000 1.779950 0.000000 
#    z 0.000000 0.000000 1.800010 
# 
# From -- ./inp_files/22238.got.cif
#   From: 2010.03.12/outbox.cif.g09.slc.cpg/sg51_12_cif.got.tgz:22238.got - 2010.04.16 13:43:02.
