data_PCOD8214625
_publ_section_title
;
Structure prediction by ZEFSAII (Michael W. Deem and Ramdas Pophale) SiO2 
 PCOD8214625
Probable space group: P M M A
;
_chemical_formula_sum "Si O2"
_cell_formula_units_Z 56
_cell_length_a 19.632744
_cell_length_b 8.859409
_cell_length_c 15.918686
_cell_angle_alpha 90.000000
_cell_angle_beta 90.000000
_cell_angle_gamma 90.000000
_cell_volume 2768.808832
_symmetry_space_group_name_H-M "P M M A"
_symmetry_group_IT_number 51
_symmetry_cell_setting 'orthorhombic'
loop_
_space_group_symop_operation_xyz
x,y,z
1/2-x,-y,z
1/2+x,-y,-z
-x,y,-z
-x,-y,-z
1/2+x,y,-z
1/2-x,y,z
x,-y,z
loop_
_atom_site_type_symbol
_atom_site_label
_atom_site_fract_x
_atom_site_fract_y
_atom_site_fract_z
Si Si1 0.584521 0.823753 0.172733
Si Si2 0.328691 0.329008 0.690492
Si Si3 0.675358 0.320766 0.841294
Si Si4 0.953271 0.177149 0.577159
Si Si5 0.671712 0.325010 0.031541
Si Si6 0.172462 0.674591 0.496928
Si Si7 0.958867 0.678953 0.752382
O O1 0.629573 0.787596 0.254251
O O2 0.512651 0.737759 0.179173
O O3 0.570165 0.000000 0.169189
O O4 0.622659 0.773780 0.088862
O O5 0.250000 0.316077 0.715021
O O6 0.354143 0.500000 0.707816
O O7 0.339859 0.285338 0.593909
O O8 0.750000 0.259472 0.812150
O O9 0.677209 0.500000 0.840687
O O10 0.660357 0.268517 0.936423
O O11 0.616192 0.261315 0.779531
O O12 0.875273 0.221947 0.560050
O O13 0.979101 0.257535 0.661365
O O14 0.000000 0.233436 0.500000
O O15 0.959541 0.000000 0.590499
O O16 0.750000 0.299458 0.058625
O O17 0.652112 0.500000 0.042341
O O18 0.250000 0.709752 0.471336
O O19 0.155466 0.500000 0.479480
O O20 0.961093 0.500000 0.749637
#
# Coordination Sequence:
#
# PCOD8214625 Si02
#       7
#     8   8   8   8   8   8   8
#     4  12  24  35  50  79 120 155 187 228 273 330
#     4   9  18  34  56  81 110 146 190 237 282 330
#     4   8  17  37  64  90 111 136 180 236 284 327
#     4  11  24  40  57  81 115 151 187 230 284 345
#     4   9  18  36  62  87 112 145 185 227 272 326
#     4   9  19  36  58  83 108 139 185 236 281 331
#     4  11  23  39  61  85 110 145 188 234 284 336
#
# _framework density 20.225303
#
# number of rings (size 3 to 8) (size 9 to 14) (size 15 to 20)
#    0.000    2.143    0.000    5.143    0.000    7.714 
#    0.000    7.143    0.000    3.000    0.000    0.000 
#    0.000    0.000    0.000    0.000    0.000    0.000 
#
# Total GULP energy -694496.076080 kJ/mol
# GULP energy per Si atom -12401.715644 kJ/mol
# Density = 2.017927 g / cm^3
# Si number density = 20.225303 Si / 1000 Ang^3
#
#
#
# Elastic Constant Matrix: (Units=GPa)
#
#
# Indices 1 2 3 4 5 6 
#
# 1 108.4527 35.8682 48.5712 0.0000 0.0000 0.0000
# 2 35.8682 72.6260 34.7065 0.0000 0.0000 0.0000
# 3 48.5712 34.7065 82.8042 0.0000 0.0000 0.0000
# 4 0.0000 0.0000 0.0000 12.1574 0.0000 0.0000
# 5 0.0000 0.0000 0.0000 0.0000 35.5351 0.0000
# 6 0.0000 0.0000 0.0000 0.0000 0.0000 18.9362
#
#
#
# Elastic Compliance Matrix: (Units=1/GPa)
#
#
# Indices 1 2 3 4 5 6 
#
# 1 0.013189 -0.003522 -0.006260 0.000000 0.000000 0.000000
# 2 -0.003522 0.018158 -0.005545 0.000000 0.000000 0.000000
# 3 -0.006260 -0.005545 0.018073 0.000000 0.000000 0.000000
# 4 0.000000 0.000000 0.000000 0.082254 0.000000 0.000000
# 5 0.000000 0.000000 0.000000 0.000000 0.028141 0.000000
# 6 0.000000 0.000000 0.000000 0.000000 0.000000 0.052809
#
#
# Mechanical properties :
#
#
# Convention : Reuss Voigt Hill
#
# Bulk Modulus (GPa) = 53.28797 55.79718 54.54257
# Shear Modulus (GPa) = 20.03731 22.97490 21.50610
#
# Velocity S-wave (km/s) = 3.15096 3.37404 3.26441
# Velocity P-wave (km/s) = 6.29623 6.54420 6.42141
#
# Compressibility (1/GPa) = 0.01876596
#
# Stress axis : x y z
#
# Youngs Moduli (GPa) = 75.81986 55.07071 55.33157
#
# Poissons Ratio (x) = 0.19397 0.34639
# Poissons Ratio (y) = 0.26705 0.30681
# Poissons Ratio (z) = 0.47465 0.30536
#
# Static dielectric constant tensor:
#      x y z
#    x 3.960390 0.000000 0.000000 
#    y 0.000000 3.342080 0.000000 
#    z 0.000000 0.000000 3.668760 
# 
# 
# High freq. dielectric constant tensor:
#      x y z
#    x 1.801110 0.000000 0.000000 
#    y 0.000000 1.764080 0.000000 
#    z 0.000000 0.000000 1.788540 
# 
# From -- ./inp_files/25709.got.cif
#   From: 2010.03.12/outbox.cif.g09.slc.cpg/sg51_13_cif.got.tgz:25709.got - 2010.04.16 13:43:02.
