data_PCOD8214040
_publ_section_title
;
Structure prediction by ZEFSAII (Michael W. Deem and Ramdas Pophale) SiO2 
 PCOD8214040
Probable space group: P M M A
;
_chemical_formula_sum "Si O2"
_cell_formula_units_Z 48
_cell_length_a 8.836462
_cell_length_b 15.000354
_cell_length_c 18.967509
_cell_angle_alpha 90.000000
_cell_angle_beta 90.000000
_cell_angle_gamma 90.000000
_cell_volume 2514.144420
_symmetry_space_group_name_H-M "P M M A"
_symmetry_group_IT_number 51
_symmetry_cell_setting 'orthorhombic'
loop_
_space_group_symop_operation_xyz
x,y,z
1/2-x,-y,z
1/2+x,-y,-z
-x,y,-z
-x,-y,-z
1/2+x,y,-z
1/2-x,y,z
x,-y,z
loop_
_atom_site_type_symbol
_atom_site_label
_atom_site_fract_x
_atom_site_fract_y
_atom_site_fract_z
Si Si1 0.572338 0.000000 0.923848
Si Si2 0.573181 0.896862 0.327054
Si Si3 0.427980 0.500000 0.924139
Si Si4 0.927099 0.246254 0.575275
Si Si5 0.928525 0.844951 0.820524
Si Si6 0.076740 0.601764 0.315273
Si Si7 0.072174 0.339889 0.825897
O O1 0.518798 0.086552 0.880658
O O2 0.750000 0.000000 0.934216
O O3 0.500000 0.000000 0.000000
O O4 0.750000 0.875915 0.325737
O O5 0.496602 0.841038 0.388892
O O6 0.506214 0.869009 0.252471
O O7 0.539149 0.000000 0.342265
O O8 0.250000 0.500000 0.932257
O O9 0.482089 0.586839 0.881881
O O10 0.500000 0.500000 0.000000
O O11 0.750000 0.230265 0.566872
O O12 0.963996 0.334738 0.619775
O O13 0.000000 0.261544 0.500000
O O14 0.750000 0.848090 0.808338
O O15 0.980354 0.748264 0.846003
O O16 0.250000 0.617126 0.290730
O O17 0.049786 0.500000 0.339242
O O18 0.965888 0.625922 0.251882
O O19 0.250000 0.320890 0.830196
#
# Coordination Sequence:
#
# PCOD8214040 Si02
#       7
#     4   8   4   8   8   8   8
#     4  10  24  42  62  88 125 162 201 250 306 362
#     4  11  23  39  63  93 122 158 203 252 304 361
#     4  10  24  42  60  88 125 162 203 252 309 361
#     4  11  24  41  62  90 126 164 203 252 306 360
#     4  11  22  39  62  91 122 160 204 249 302 363
#     4  10  21  38  62  91 121 159 205 248 299 363
#     4  11  22  38  61  91 122 157 205 254 300 359
#
# _framework density 19.091982999999999
#
# number of rings (size 3 to 8) (size 9 to 14) (size 15 to 20)
#    0.000    1.333    3.333    2.000    0.000    5.667 
#    0.000    3.333    0.000    0.000    0.000    0.000 
#    0.000    0.000    0.000    0.000    0.000    0.000 
#
# Total GULP energy -595457.189101 kJ/mol
# GULP energy per Si atom -12405.358106 kJ/mol
# Density = 1.904853 g / cm^3
# Si number density = 19.091983 Si / 1000 Ang^3
#
#
#
# Elastic Constant Matrix: (Units=GPa)
#
#
# Indices 1 2 3 4 5 6 
#
# 1 61.3020 55.1024 44.4242 0.0000 0.0000 0.0000
# 2 55.1024 167.3896 78.7697 0.0000 0.0000 0.0000
# 3 44.4242 78.7697 149.6126 0.0000 0.0000 0.0000
# 4 0.0000 0.0000 0.0000 33.8491 0.0000 0.0000
# 5 0.0000 0.0000 0.0000 0.0000 39.0487 0.0000
# 6 0.0000 0.0000 0.0000 0.0000 0.0000 31.0396
#
#
#
# Elastic Compliance Matrix: (Units=1/GPa)
#
#
# Indices 1 2 3 4 5 6 
#
# 1 0.024923 -0.006277 -0.004096 0.000000 0.000000 0.000000
# 2 -0.006277 0.009523 -0.003150 0.000000 0.000000 0.000000
# 3 -0.004096 -0.003150 0.009558 0.000000 0.000000 0.000000
# 4 0.000000 0.000000 0.000000 0.029543 0.000000 0.000000
# 5 0.000000 0.000000 0.000000 0.000000 0.025609 0.000000
# 6 0.000000 0.000000 0.000000 0.000000 0.000000 0.032217
#
#
# Mechanical properties :
#
#
# Convention : Reuss Voigt Hill
#
# Bulk Modulus (GPa) = 58.96504 81.65522 70.31013
# Shear Modulus (GPa) = 30.47479 34.12134 32.29807
#
# Velocity S-wave (km/s) = 3.99959 4.23212 4.11750
# Velocity P-wave (km/s) = 7.23054 8.16966 7.71441
#
# Compressibility (1/GPa) = 0.01695920
#
# Stress axis : x y z
#
# Youngs Moduli (GPa) = 40.12394 105.01358 104.62109
#
# Poissons Ratio (x) = 0.65917 0.42848
# Poissons Ratio (y) = 0.25186 0.32953
# Poissons Ratio (z) = 0.16433 0.33076
#
# Static dielectric constant tensor:
#      x y z
#    x 3.548310 0.000000 0.000000 
#    y 0.000000 3.013000 0.000000 
#    z 0.000000 0.000000 3.394250 
# 
# 
# High freq. dielectric constant tensor:
#      x y z
#    x 1.750960 0.000000 0.000000 
#    y 0.000000 1.762740 0.000000 
#    z 0.000000 0.000000 1.739310 
# 
# From -- ./inp_files/27607.got.cif
#   From: 2010.03.12/outbox.cif.g09.slc.cpg/sg51_14_cif.got.tgz:27607.got - 2010.04.16 13:43:02.
