data_PCOD8214149
_publ_section_title
;
Structure prediction by ZEFSAII (Michael W. Deem and Ramdas Pophale) SiO2 
 PCOD8214149
Probable space group: P M M A
;
_chemical_formula_sum "Si O2"
_cell_formula_units_Z 64
_cell_length_a 17.121493
_cell_length_b 19.267267
_cell_length_c 9.547441
_cell_angle_alpha 90.000000
_cell_angle_beta 90.000000
_cell_angle_gamma 90.000000
_cell_volume 3149.551627
_symmetry_space_group_name_H-M "P M M A"
_symmetry_group_IT_number 51
_symmetry_cell_setting 'orthorhombic'
loop_
_space_group_symop_operation_xyz
x,y,z
1/2-x,-y,z
1/2+x,-y,-z
-x,y,-z
-x,-y,-z
1/2+x,y,-z
1/2-x,y,z
x,-y,z
loop_
_atom_site_type_symbol
_atom_site_label
_atom_site_fract_x
_atom_site_fract_y
_atom_site_fract_z
Si Si1 0.837317 0.706278 0.994410
Si Si2 0.342288 0.076337 0.748213
Si Si3 0.159079 0.080424 0.065582
Si Si4 0.511491 0.578449 0.662127
Si Si5 0.158690 0.200431 0.554476
Si Si6 0.337091 0.422457 0.176408
Si Si7 0.603281 0.799936 0.758670
Si Si8 0.443318 0.281865 0.748774
O O1 0.750000 0.714231 0.055558
O O2 0.856121 0.626689 0.955184
O O3 0.843429 0.749880 0.852139
O O4 0.898015 0.733909 0.107905
O O5 0.250000 0.070874 0.738025
O O6 0.373425 0.132467 0.637044
O O7 0.377857 0.000000 0.713621
O O8 0.364831 0.098809 0.906078
O O9 0.250000 0.098980 0.091935
O O10 0.103440 0.124400 0.168701
O O11 0.143681 0.000000 0.097572
O O12 0.500000 0.593075 0.500000
O O13 0.483712 0.500000 0.702212
O O14 0.603079 0.588618 0.695891
O O15 0.463787 0.636362 0.747447
O O16 0.250000 0.212036 0.581574
O O17 0.142360 0.192065 0.391821
O O18 0.111574 0.266147 0.615540
O O19 0.250000 0.406960 0.235471
O O20 0.343645 0.500000 0.116063
O O21 0.517242 0.768650 0.744697
#
# Coordination Sequence:
#
# PCOD8214149 Si02
#       8
#     8   8   8   8   8   8   8   8
#     4  11  23  40  62  88 119 158 203 250 302 362
#     4   8  16  34  60  88 117 153 198 247 302 360
#     4   9  18  35  60  89 122 161 205 252 302 363
#     4  10  21  40  63  89 123 162 203 248 305 369
#     4  11  23  39  61  87 120 163 206 253 304 362
#     4   9  19  37  63  92 120 154 202 256 305 358
#     4  12  23  38  60  91 124 155 202 255 307 360
#     4  12  25  41  59  89 124 163 201 251 308 369
#
# _framework density 20.320352
#
# number of rings (size 3 to 8) (size 9 to 14) (size 15 to 20)
#    0.000    1.750    1.250    4.500    0.000    2.000 
#    0.000    3.750    0.000    6.375    0.000    0.000 
#    0.000    0.000    0.000    0.000    0.000    0.000 
#
# Total GULP energy -793560.568742 kJ/mol
# GULP energy per Si atom -12399.383887 kJ/mol
# Density = 2.027410 g / cm^3
# Si number density = 20.320352 Si / 1000 Ang^3
#
#
#
# Elastic Constant Matrix: (Units=GPa)
#
#
# Indices 1 2 3 4 5 6 
#
# 1 79.8394 49.1690 34.5826 0.0000 0.0000 0.0000
# 2 49.1690 128.5833 56.1827 0.0000 0.0000 0.0000
# 3 34.5826 56.1827 108.8141 0.0000 0.0000 0.0000
# 4 0.0000 0.0000 0.0000 29.8657 0.0000 0.0000
# 5 0.0000 0.0000 0.0000 0.0000 33.1564 0.0000
# 6 0.0000 0.0000 0.0000 0.0000 0.0000 25.5457
#
#
#
# Elastic Compliance Matrix: (Units=1/GPa)
#
#
# Indices 1 2 3 4 5 6 
#
# 1 0.016949 -0.005330 -0.002635 0.000000 0.000000 0.000000
# 2 -0.005330 0.011719 -0.004357 0.000000 0.000000 0.000000
# 3 -0.002635 -0.004357 0.012277 0.000000 0.000000 0.000000
# 4 0.000000 0.000000 0.000000 0.033483 0.000000 0.000000
# 5 0.000000 0.000000 0.000000 0.000000 0.030160 0.000000
# 6 0.000000 0.000000 0.000000 0.000000 0.000000 0.039146
#
#
# Mechanical properties :
#
#
# Convention : Reuss Voigt Hill
#
# Bulk Modulus (GPa) = 61.34275 66.34502 63.84388
# Shear Modulus (GPa) = 28.76714 29.53373 29.15043
#
# Velocity S-wave (km/s) = 3.76664 3.81649 3.79165
# Velocity P-wave (km/s) = 7.01214 7.22089 7.11728
#
# Compressibility (1/GPa) = 0.01630185
#
# Stress axis : x y z
#
# Youngs Moduli (GPa) = 59.00150 85.33344 81.45487
#
# Poissons Ratio (x) = 0.45482 0.21460
# Poissons Ratio (y) = 0.31447 0.35487
# Poissons Ratio (z) = 0.15545 0.37177
#
# Static dielectric constant tensor:
#      x y z
#    x 3.608330 0.000000 0.000000 
#    y 0.000000 4.130910 0.000000 
#    z 0.000000 0.000000 3.530050 
# 
# 
# High freq. dielectric constant tensor:
#      x y z
#    x 1.782280 0.000000 0.000000 
#    y 0.000000 1.810350 0.000000 
#    z 0.000000 0.000000 1.782720 
# 
# From -- ./inp_files/10042.got.cif
#   From: 2010.03.12/outbox.cif.g09.slc.cpg/sg51_6_cif.got.tgz:10042.got - 2010.04.16 13:43:02.
