data_PCOD8214404
_publ_section_title
;
Structure prediction by ZEFSAII (Michael W. Deem and Ramdas Pophale) SiO2 
 PCOD8214404
Probable space group: P M M A
;
_chemical_formula_sum "Si O2"
_cell_formula_units_Z 32
_cell_length_a 9.002424
_cell_length_b 10.189874
_cell_length_c 19.428327
_cell_angle_alpha 90.000000
_cell_angle_beta 90.000000
_cell_angle_gamma 90.000000
_cell_volume 1782.229722
_symmetry_space_group_name_H-M "P M M A"
_symmetry_group_IT_number 51
_symmetry_cell_setting 'orthorhombic'
loop_
_space_group_symop_operation_xyz
x,y,z
1/2-x,-y,z
1/2+x,-y,-z
-x,y,-z
-x,-y,-z
1/2+x,y,-z
1/2-x,y,z
x,-y,z
loop_
_atom_site_type_symbol
_atom_site_label
_atom_site_fract_x
_atom_site_fract_y
_atom_site_fract_z
Si Si1 0.922109 0.650695 0.434799
Si Si2 0.577462 0.000000 0.926709
Si Si3 0.922977 0.345220 0.282856
Si Si4 0.426638 0.500000 0.926261
Si Si5 0.924754 0.736287 0.848571
O O1 0.750000 0.665022 0.448030
O O2 0.972642 0.500000 0.433185
O O3 0.963533 0.708187 0.359553
O O4 0.000000 0.722862 0.500000
O O5 0.531502 0.874150 0.882262
O O6 0.750000 0.000000 0.942764
O O7 0.500000 0.000000 0.000000
O O8 0.750000 0.319335 0.266737
O O9 0.956545 0.500000 0.275919
O O10 0.026712 0.263222 0.231192
O O11 0.250000 0.500000 0.933161
O O12 0.478330 0.372244 0.886286
O O13 0.500000 0.500000 0.000000
O O14 0.750000 0.705944 0.855184
#
# Coordination Sequence:
#
# PCOD8214404 Si02
#       5
#     8   4   8   4   8
#     4   8  14  24  39  63  98 137 172 208 251 301
#     4  10  24  42  58  78 105 134 173 220 263 314
#     4   9  17  30  48  73 106 140 174 215 260 307
#     4  12  24  38  56  80 107 134 169 214 260 314
#     4  11  22  37  56  80 106 137 175 216 263 314
#
# _framework density 17.955034999999999
#
# number of rings (size 3 to 8) (size 9 to 14) (size 15 to 20)
#    0.000    2.250    1.250    4.125    0.000    5.000 
#    0.000    2.500    0.000    0.000    0.000    0.875 
#    0.000    0.000    0.000    0.000    0.000    0.000 
#
# Total GULP energy -396651.082681 kJ/mol
# GULP energy per Si atom -12395.346334 kJ/mol
# Density = 1.791417 g / cm^3
# Si number density = 17.955035 Si / 1000 Ang^3
#
#
#
# Elastic Constant Matrix: (Units=GPa)
#
#
# Indices 1 2 3 4 5 6 
#
# 1 71.7712 36.8621 50.8617 0.0000 0.0000 0.0000
# 2 36.8621 82.8173 44.9933 0.0000 0.0000 0.0000
# 3 50.8617 44.9933 153.2924 0.0000 0.0000 0.0000
# 4 0.0000 0.0000 0.0000 21.3518 0.0000 0.0000
# 5 0.0000 0.0000 0.0000 0.0000 41.3593 0.0000
# 6 0.0000 0.0000 0.0000 0.0000 0.0000 -37.3036
#
#
#
# Elastic Compliance Matrix: (Units=1/GPa)
#
#
# Indices 1 2 3 4 5 6 
#
# 1 0.020840 -0.006566 -0.004987 0.000000 0.000000 0.000000
# 2 -0.006566 0.016435 -0.002645 0.000000 0.000000 0.000000
# 3 -0.004987 -0.002645 0.008955 0.000000 0.000000 0.000000
# 4 0.000000 0.000000 0.000000 0.046835 0.000000 0.000000
# 5 0.000000 0.000000 0.000000 0.000000 0.024178 0.000000
# 6 0.000000 0.000000 0.000000 0.000000 0.000000 -0.026807
#
#
# Mechanical properties :
#
#
# Convention : Reuss Voigt Hill
#
# Bulk Modulus (GPa) = 56.08008 63.70167 59.89087
# Shear Modulus (GPa) = 40.07169 16.75907 28.41538
#
# Velocity S-wave (km/s) = 4.72930 3.05846 3.98249
# Velocity P-wave (km/s) = 7.81813 6.93020 7.38752
#
# Compressibility (1/GPa) = 0.01783164
#
# Stress axis : x y z
#
# Youngs Moduli (GPa) = 47.98453 60.84759 111.67459
#
# Poissons Ratio (x) = 0.39955 0.55695
# Poissons Ratio (y) = 0.31509 0.29538
# Poissons Ratio (z) = 0.23931 0.16094
#
# Static dielectric constant tensor:
#      x y z
#    x 3.397150 0.000000 0.000000 
#    y 0.000000 3.005490 0.000000 
#    z 0.000000 0.000000 3.779800 
# 
# 
# High freq. dielectric constant tensor:
#      x y z
#    x 1.696460 0.000000 0.000000 
#    y 0.000000 1.643020 0.000000 
#    z 0.000000 0.000000 1.722270 
# 
# From -- ./inp_files/31270.got.cif
#   From: 2010.03.12/outbox.cif.g09.slc.cpg/sg51_16_cif.got.tgz:31270.got - 2010.04.16 13:43:02.
