data_PCOD8214721
_publ_section_title
;
Structure prediction by ZEFSAII (Michael W. Deem and Ramdas Pophale) SiO2 
 PCOD8214721
Probable space group: P M M A
;
_chemical_formula_sum "Si O2"
_cell_formula_units_Z 48
_cell_length_a 15.819745
_cell_length_b 9.308330
_cell_length_c 18.645161
_cell_angle_alpha 90.000000
_cell_angle_beta 90.000000
_cell_angle_gamma 90.000000
_cell_volume 2745.600771
_symmetry_space_group_name_H-M "P M M A"
_symmetry_group_IT_number 51
_symmetry_cell_setting 'orthorhombic'
loop_
_space_group_symop_operation_xyz
x,y,z
1/2-x,-y,z
1/2+x,-y,-z
-x,y,-z
-x,-y,-z
1/2+x,y,-z
1/2-x,y,z
x,-y,z
loop_
_atom_site_type_symbol
_atom_site_label
_atom_site_fract_x
_atom_site_fract_y
_atom_site_fract_z
Si Si1 0.343822 0.170735 0.077616
Si Si2 0.343766 0.170858 0.916062
Si Si3 0.343278 0.162646 0.574732
Si Si4 0.497103 0.168930 0.334830
Si Si5 0.497620 0.171359 0.172139
Si Si6 0.585205 0.338124 0.545300
O O1 0.250000 0.222036 0.102431
O O2 0.415709 0.233315 0.130334
O O3 0.347504 0.000000 0.078919
O O4 0.361939 0.225341 0.996887
O O5 0.250000 0.223062 0.891185
O O6 0.416433 0.233010 0.863880
O O7 0.346336 0.000000 0.915027
O O8 0.250000 0.176512 0.609001
O O9 0.409922 0.208842 0.635446
O O10 0.345254 0.260341 0.503619
O O11 0.362739 0.000000 0.550086
O O12 0.492832 0.225559 0.253668
O O13 0.426278 0.252793 0.380296
O O14 0.478239 0.000000 0.340082
O O15 0.499015 0.000000 0.169427
O O16 0.500000 0.334758 0.500000
O O17 0.614322 0.500000 0.562516
#
# Coordination Sequence:
#
# PCOD8214721 Si02
#       6
#     8   8   8   8   8   8
#     4   8  13  21  32  47  71 105 142 175 206 244
#     4   8  13  20  31  49  74 105 140 175 209 247
#     4   9  17  29  45  64  85 109 137 172 215 260
#     4   9  17  28  42  62  88 114 139 171 214 262
#     4   9  15  22  34  52  77 110 140 167 207 257
#     4   9  17  30  47  63  80 107 142 175 206 246
#
# _framework density 17.482513000000001
#
# number of rings (size 3 to 8) (size 9 to 14) (size 15 to 20)
#    0.000    3.333    0.000    2.000    0.000    5.000 
#    0.000    4.167    0.000    3.000    0.000    0.000 
#    0.000    2.667    0.000    3.667    0.000    3.333 
#
# Total GULP energy -594881.954656 kJ/mol
# GULP energy per Si atom -12393.374055 kJ/mol
# Density = 1.744272 g / cm^3
# Si number density = 17.482513 Si / 1000 Ang^3
#
#
#
# Elastic Constant Matrix: (Units=GPa)
#
#
# Indices 1 2 3 4 5 6 
#
# 1 89.8734 11.9031 57.2649 0.0000 0.0000 0.0000
# 2 11.9031 33.4027 24.1698 0.0000 0.0000 0.0000
# 3 57.2649 24.1698 132.1619 0.0000 0.0000 0.0000
# 4 0.0000 0.0000 0.0000 4.0602 0.0000 0.0000
# 5 0.0000 0.0000 0.0000 0.0000 20.7248 0.0000
# 6 0.0000 0.0000 0.0000 0.0000 0.0000 6.7633
#
#
#
# Elastic Compliance Matrix: (Units=1/GPa)
#
#
# Indices 1 2 3 4 5 6 
#
# 1 0.015387 -0.000759 -0.006528 0.000000 0.000000 0.000000
# 2 -0.000759 0.034541 -0.005988 0.000000 0.000000 0.000000
# 3 -0.006528 -0.005988 0.011490 0.000000 0.000000 0.000000
# 4 0.000000 0.000000 0.000000 0.246293 0.000000 0.000000
# 5 0.000000 0.000000 0.000000 0.000000 0.048251 0.000000
# 6 0.000000 0.000000 0.000000 0.000000 0.000000 0.147856
#
#
# Mechanical properties :
#
#
# Convention : Reuss Voigt Hill
#
# Bulk Modulus (GPa) = 28.68021 49.12374 38.90198
# Shear Modulus (GPa) = 9.22523 17.11635 13.17079
#
# Velocity S-wave (km/s) = 2.29963 3.13238 2.74774
# Velocity P-wave (km/s) = 4.84683 6.42201 5.68920
#
# Compressibility (1/GPa) = 0.03486725
#
# Stress axis : x y z
#
# Youngs Moduli (GPa) = 64.99033 28.95108 87.03120
#
# Poissons Ratio (x) = 0.02199 0.56815
# Poissons Ratio (y) = 0.04936 0.52113
# Poissons Ratio (z) = 0.42427 0.17335
#
# Static dielectric constant tensor:
#      x y z
#    x 3.416830 0.000000 0.000000 
#    y 0.000000 2.759040 0.000000 
#    z 0.000000 0.000000 3.312740 
# 
# 
# High freq. dielectric constant tensor:
#      x y z
#    x 1.676270 0.000000 0.000000 
#    y 0.000000 1.612410 0.000000 
#    z 0.000000 0.000000 1.668400 
# 
# From -- ./inp_files/30056.got.cif
#   From: 2010.03.12/outbox.cif.g09.slc.cpg/sg51_16_cif.got.tgz:30056.got - 2010.04.16 13:43:02.
