data_PCOD8214043
_publ_section_title
;
Structure prediction by ZEFSAII (Michael W. Deem and Ramdas Pophale) SiO2 
 PCOD8214043
Probable space group: P M M A
;
_chemical_formula_sum "Si O2"
_cell_formula_units_Z 48
_cell_length_a 8.638852
_cell_length_b 16.791428
_cell_length_c 15.931773
_cell_angle_alpha 90.000000
_cell_angle_beta 90.000000
_cell_angle_gamma 90.000000
_cell_volume 2311.041664
_symmetry_space_group_name_H-M "P M M A"
_symmetry_group_IT_number 51
_symmetry_cell_setting 'orthorhombic'
loop_
_space_group_symop_operation_xyz
x,y,z
1/2-x,-y,z
1/2+x,-y,-z
-x,y,-z
-x,-y,-z
1/2+x,y,-z
1/2-x,y,z
x,-y,z
loop_
_atom_site_type_symbol
_atom_site_label
_atom_site_fract_x
_atom_site_fract_y
_atom_site_fract_z
Si Si1 0.433406 0.161789 0.657910
Si Si2 0.065682 0.409609 0.251045
Si Si3 0.066557 0.000000 0.407608
Si Si4 0.434083 0.314467 0.413870
Si Si5 0.567442 0.000000 0.091829
Si Si6 0.428344 0.679354 0.087457
Si Si7 0.569803 0.157703 0.832586
O O1 0.250000 0.155633 0.651762
O O2 0.507745 0.076345 0.641989
O O3 0.496628 0.225520 0.591484
O O4 0.489074 0.190649 0.749077
O O5 0.250000 0.404842 0.250290
O O6 0.005653 0.500000 0.252340
O O7 0.004742 0.366369 0.335235
O O8 0.998284 0.367115 0.167263
O O9 0.000000 0.000000 0.500000
O O10 0.250000 0.000000 0.411374
O O11 0.500000 0.352720 0.500000
O O12 0.250000 0.310949 0.416657
O O13 0.512378 0.077390 0.140278
O O14 0.750000 0.000000 0.086450
O O15 0.500000 0.000000 0.000000
O O16 0.250000 0.657177 0.083110
O O17 0.453604 0.774221 0.097475
O O18 0.500000 0.650248 0.000000
O O19 0.750000 0.141393 0.815558
#
# Coordination Sequence:
#
# PCOD8214043 Si02
#       7
#     8   8   4   8   4   8   8
#     4  12  24  40  62  90 123 163 209 258 310 370
#     4   9  19  39  65  91 124 165 206 253 313 380
#     4  12  25  42  61  86 122 162 208 259 308 365
#     4  11  22  40  64  93 126 166 211 257 313 375
#     4  12  25  40  57  86 122 164 212 263 312 371
#     4  10  21  38  62  92 124 163 208 252 308 370
#     4  11  22  40  62  87 120 164 210 259 313 372
#
# _framework density 20.769855
#
# number of rings (size 3 to 8) (size 9 to 14) (size 15 to 20)
#    0.000    1.167    1.667    5.500    0.000    3.333 
#    0.000    0.000    0.000    3.500    0.000    0.000 
#    0.000    0.000    0.000    0.000    0.000    0.000 
#
# Total GULP energy -595371.395055 kJ/mol
# GULP energy per Si atom -12403.570730 kJ/mol
# Density = 2.072258 g / cm^3
# Si number density = 20.769855 Si / 1000 Ang^3
#
#
#
# Elastic Constant Matrix: (Units=GPa)
#
#
# Indices 1 2 3 4 5 6 
#
# 1 120.6261 40.8016 46.9473 0.0000 0.0000 0.0000
# 2 40.8016 121.7370 55.5363 0.0000 0.0000 0.0000
# 3 46.9473 55.5363 169.4309 0.0000 0.0000 0.0000
# 4 0.0000 0.0000 0.0000 24.4076 0.0000 0.0000
# 5 0.0000 0.0000 0.0000 0.0000 40.5325 0.0000
# 6 0.0000 0.0000 0.0000 0.0000 0.0000 14.1657
#
#
#
# Elastic Compliance Matrix: (Units=1/GPa)
#
#
# Indices 1 2 3 4 5 6 
#
# 1 0.009864 -0.002421 -0.001940 0.000000 0.000000 0.000000
# 2 -0.002421 0.010253 -0.002690 0.000000 0.000000 0.000000
# 3 -0.001940 -0.002690 0.007321 0.000000 0.000000 0.000000
# 4 0.000000 0.000000 0.000000 0.040971 0.000000 0.000000
# 5 0.000000 0.000000 0.000000 0.000000 0.024672 0.000000
# 6 0.000000 0.000000 0.000000 0.000000 0.000000 0.070593
#
#
# Mechanical properties :
#
#
# Convention : Reuss Voigt Hill
#
# Bulk Modulus (GPa) = 74.97965 77.59605 76.28785
# Shear Modulus (GPa) = 27.43929 33.72175 30.58052
#
# Velocity S-wave (km/s) = 3.63865 4.03375 3.84129
# Velocity P-wave (km/s) = 7.33701 7.68999 7.51557
#
# Compressibility (1/GPa) = 0.01333695
#
# Stress axis : x y z
#
# Youngs Moduli (GPa) = 101.37966 97.53206 136.58910
#
# Poissons Ratio (x) = 0.23614 0.26492
# Poissons Ratio (y) = 0.24546 0.36741
# Poissons Ratio (z) = 0.19663 0.26235
#
# Static dielectric constant tensor:
#      x y z
#    x 3.613720 0.000000 0.000000 
#    y 0.000000 3.198870 0.000000 
#    z 0.000000 0.000000 4.052240 
# 
# 
# High freq. dielectric constant tensor:
#      x y z
#    x 1.800780 0.000000 0.000000 
#    y 0.000000 1.813380 0.000000 
#    z 0.000000 0.000000 1.830490 
# 
# From -- ./inp_files/21197.got.cif
#   From: 2010.03.12/outbox.cif.g09.slc.cpg/sg51_11_cif.got.tgz:21197.got - 2010.04.16 13:43:02.
