data_PCOD8214224
_publ_section_title
;
Structure prediction by ZEFSAII (Michael W. Deem and Ramdas Pophale) SiO2 
 PCOD8214224
Probable space group: P M M A
;
_chemical_formula_sum "Si O2"
_cell_formula_units_Z 64
_cell_length_a 15.104890
_cell_length_b 9.001893
_cell_length_c 23.892952
_cell_angle_alpha 90.000000
_cell_angle_beta 90.000000
_cell_angle_gamma 90.000000
_cell_volume 3248.786890
_symmetry_space_group_name_H-M "P M M A"
_symmetry_group_IT_number 51
_symmetry_cell_setting 'orthorhombic'
loop_
_space_group_symop_operation_xyz
x,y,z
1/2-x,-y,z
1/2+x,-y,-z
-x,y,-z
-x,-y,-z
1/2+x,y,-z
1/2-x,y,z
x,-y,z
loop_
_atom_site_type_symbol
_atom_site_label
_atom_site_fract_x
_atom_site_fract_y
_atom_site_fract_z
Si Si1 0.408678 0.668979 0.614823
Si Si2 0.148570 0.823573 0.996425
Si Si3 0.004782 0.176404 0.084103
Si Si4 0.150825 0.331585 0.286172
Si Si5 0.586252 0.174520 0.611019
Si Si6 0.348236 0.667485 0.734994
Si Si7 0.149203 0.834792 0.508114
Si Si8 0.507856 0.824629 0.789705
O O1 0.440974 0.500000 0.605761
O O2 0.489215 0.776903 0.629791
O O3 0.344034 0.682428 0.667653
O O4 0.359837 0.721722 0.558931
O O5 0.250000 0.757638 0.994965
O O6 0.088079 0.768472 0.943916
O O7 0.156022 0.000000 0.996151
O O8 0.093379 0.769446 0.051251
O O9 0.010161 0.237728 0.147061
O O10 0.003292 0.000000 0.082980
O O11 0.250000 0.326850 0.261905
O O12 0.115960 0.500000 0.291698
O O13 0.153415 0.257740 0.347679
O O14 0.088592 0.244748 0.243859
O O15 0.596761 0.223624 0.546292
O O16 0.600841 0.000000 0.617965
O O17 0.250000 0.702436 0.757604
O O18 0.377372 0.500000 0.751107
O O19 0.414345 0.783397 0.762645
O O20 0.250000 0.843915 0.489046
O O21 0.114999 0.000000 0.525588
O O22 0.519127 0.000000 0.787952
#
# Coordination Sequence:
#
# PCOD8214224 Si02
#       8
#     8   8   8   8   8   8   8   8
#     4  11  22  37  58  82 109 144 188 233 282 343
#     4   8  13  25  46  71 108 154 187 220 272 329
#     4   8  16  28  44  75 113 147 187 228 273 331
#     4  11  24  41  60  82 111 151 196 239 286 344
#     4  11  22  38  60  84 110 143 184 232 291 349
#     4  10  22  40  59  79 110 153 196 238 286 341
#     4  10  22  38  55  79 111 143 179 228 286 348
#     4  11  22  36  57  86 119 152 190 240 289 336
#
# _framework density 19.699659
#
# number of rings (size 3 to 8) (size 9 to 14) (size 15 to 20)
#    0.000    2.000    1.250    3.375    0.000    6.500 
#    0.000    2.500    0.000    0.000    0.000    7.000 
#    0.000   12.000    0.000    0.000    0.000    0.000 
#
# Total GULP energy -793415.332089 kJ/mol
# GULP energy per Si atom -12397.114564 kJ/mol
# Density = 1.965482 g / cm^3
# Si number density = 19.699659 Si / 1000 Ang^3
#
#
#
# Elastic Constant Matrix: (Units=GPa)
#
#
# Indices 1 2 3 4 5 6 
#
# 1 116.9256 30.2986 41.8999 0.0000 0.0000 0.0000
# 2 30.2986 70.9664 46.7819 0.0000 0.0000 0.0000
# 3 41.8999 46.7819 133.2365 0.0000 0.0000 0.0000
# 4 0.0000 0.0000 0.0000 2.1409 0.0000 0.0000
# 5 0.0000 0.0000 0.0000 0.0000 12.8930 0.0000
# 6 0.0000 0.0000 0.0000 0.0000 0.0000 19.0499
#
#
#
# Elastic Compliance Matrix: (Units=1/GPa)
#
#
# Indices 1 2 3 4 5 6 
#
# 1 0.010071 -0.002878 -0.002157 0.000000 0.000000 0.000000
# 2 -0.002878 0.019158 -0.005821 0.000000 0.000000 0.000000
# 3 -0.002157 -0.005821 0.010228 0.000000 0.000000 0.000000
# 4 0.000000 0.000000 0.000000 0.467094 0.000000 0.000000
# 5 0.000000 0.000000 0.000000 0.000000 0.077562 0.000000
# 6 0.000000 0.000000 0.000000 0.000000 0.000000 0.052494
#
#
# Mechanical properties :
#
#
# Convention : Reuss Voigt Hill
#
# Bulk Modulus (GPa) = 56.35725 62.12104 59.23915
# Shear Modulus (GPa) = 7.52748 20.29327 13.91037
#
# Velocity S-wave (km/s) = 1.95689 3.21305 2.66018
# Velocity P-wave (km/s) = 5.81173 6.73554 6.29062
#
# Compressibility (1/GPa) = 0.01774394
#
# Stress axis : x y z
#
# Youngs Moduli (GPa) = 99.29449 52.19868 97.77394
#
# Poissons Ratio (x) = 0.15024 0.21085
# Poissons Ratio (y) = 0.28578 0.56919
# Poissons Ratio (z) = 0.21413 0.30387
#
# Static dielectric constant tensor:
#      x y z
#    x 3.709850 0.000000 0.000000 
#    y 0.000000 3.381840 0.000000 
#    z 0.000000 0.000000 3.752840 
# 
# 
# High freq. dielectric constant tensor:
#      x y z
#    x 1.777020 0.000000 0.000000 
#    y 0.000000 1.741520 0.000000 
#    z 0.000000 0.000000 1.765140 
# 
# From -- ./inp_files/35852.got.cif
#   From: 2010.03.12/outbox.cif.g09.slc.cpg/sg51_18_cif.got.tgz:35852.got - 2010.04.16 13:43:02.
