data_PCOD8214934
_publ_section_title
;
Structure prediction by ZEFSAII (Michael W. Deem and Ramdas Pophale) SiO2 
 PCOD8214934
Probable space group: P N N A
;
_chemical_formula_sum "Si O2"
_cell_formula_units_Z 40
_cell_length_a 22.095929
_cell_length_b 10.667868
_cell_length_c 8.576328
_cell_angle_alpha 90.000000
_cell_angle_beta 90.000000
_cell_angle_gamma 90.000000
_cell_volume 2021.581624
_symmetry_space_group_name_H-M "P N N A"
_symmetry_group_IT_number 52
_symmetry_cell_setting 'orthorhombic'
loop_
_space_group_symop_operation_xyz
x,y,z
1/2-x,-y,z
x,1/2-y,1/2-z
1/2-x,1/2+y,1/2-z
-x,-y,-z
1/2+x,y,-z
-x,1/2+y,1/2+z
1/2+x,1/2-y,1/2+z
loop_
_atom_site_type_symbol
_atom_site_label
_atom_site_fract_x
_atom_site_fract_y
_atom_site_fract_z
Si Si1 0.779112 0.879953 0.918131
Si Si2 0.270996 0.373147 0.065488
Si Si3 0.402520 0.142087 0.362397
Si Si4 0.966594 0.309339 0.415098
Si Si5 0.915315 0.537533 0.591528
O O1 0.758804 0.752699 0.008109
O O2 0.750534 0.877221 0.745463
O O3 0.851260 0.893844 0.920488
O O4 0.750000 0.000000 0.005835
O O5 0.250000 0.500000 0.978698
O O6 0.342868 0.382629 0.036637
O O7 0.378445 0.250000 0.250000
O O8 0.458243 0.194304 0.464116
O O9 0.424122 0.021533 0.264098
O O10 0.948779 0.250000 0.250000
O O11 0.923844 0.428578 0.460330
O O12 0.035844 0.352561 0.426583
#
# Coordination Sequence:
#
# PCOD8214934 Si02
#       5
#     8   8   8   8   8
#     4  10  16  29  54  89 111 137 183 265 301 326
#     4  10  17  27  53  95 111 132 185 271 305 320
#     4  10  17  34  56  80 116 147 199 249 294 349
#     4  10  23  36  52  80 120 165 192 239 302 369
#     4  10  20  36  57  84 114 154 209 244 293 360
#
# _framework density 19.786487000000001
#
# number of rings (size 3 to 8) (size 9 to 14) (size 15 to 20)
#    0.000    2.000    6.000    1.200    2.800    0.800 
#    0.000    0.000    0.000    3.600    0.000    9.800 
#    0.000    0.000    0.000    0.000    0.000    0.000 
#
# Total GULP energy -495547.640340 kJ/mol
# GULP energy per Si atom -12388.691009 kJ/mol
# Density = 1.974145 g / cm^3
# Si number density = 19.786487 Si / 1000 Ang^3
#
#
#
# Elastic Constant Matrix: (Units=GPa)
#
#
# Indices 1 2 3 4 5 6 
#
# 1 148.9177 69.9812 34.6124 0.0000 0.0000 0.0000
# 2 69.9812 163.7502 36.2304 0.0000 0.0000 0.0000
# 3 34.6124 36.2304 49.7537 0.0000 0.0000 0.0000
# 4 0.0000 0.0000 0.0000 17.9774 0.0000 0.0000
# 5 0.0000 0.0000 0.0000 0.0000 12.8910 0.0000
# 6 0.0000 0.0000 0.0000 0.0000 0.0000 25.7613
#
#
#
# Elastic Compliance Matrix: (Units=1/GPa)
#
#
# Indices 1 2 3 4 5 6 
#
# 1 0.009071 -0.002957 -0.004157 0.000000 0.000000 0.000000
# 2 -0.002957 0.008244 -0.003946 0.000000 0.000000 0.000000
# 3 -0.004157 -0.003946 0.025865 0.000000 0.000000 0.000000
# 4 0.000000 0.000000 0.000000 0.055625 0.000000 0.000000
# 5 0.000000 0.000000 0.000000 0.000000 0.077574 0.000000
# 6 0.000000 0.000000 0.000000 0.000000 0.000000 0.038818
#
#
# Mechanical properties :
#
#
# Convention : Reuss Voigt Hill
#
# Bulk Modulus (GPa) = 47.48570 71.56327 59.52449
# Shear Modulus (GPa) = 20.46366 26.09911 23.28138
#
# Velocity S-wave (km/s) = 3.21942 3.63579 3.43393
# Velocity P-wave (km/s) = 6.15392 7.33973 6.77283
#
# Compressibility (1/GPa) = 0.02105897
#
# Stress axis : x y z
#
# Youngs Moduli (GPa) = 110.24318 121.30720 38.66294
#
# Poissons Ratio (x) = 0.35868 0.16073
# Poissons Ratio (y) = 0.32596 0.15256
# Poissons Ratio (z) = 0.45831 0.47867
#
# Static dielectric constant tensor:
#      x y z
#    x 3.473940 0.000000 0.000000 
#    y 0.000000 5.003510 0.000000 
#    z 0.000000 0.000000 3.146710 
# 
# 
# High freq. dielectric constant tensor:
#      x y z
#    x 1.774360 0.000000 0.000000 
#    y 0.000000 1.793930 0.000000 
#    z 0.000000 0.000000 1.699470 
# 
# From -- ./inp_files/13148.got.cif
#   From: 2010.06.25/outbox.cif.g09.slc.cpg/sg52_7_cif.got.tgz:13148.got - 2010.06.26 19:32:48.
