data_PCOD8214717
_publ_section_title
;
Structure prediction by ZEFSAII (Michael W. Deem and Ramdas Pophale) SiO2 
 PCOD8214717
Probable space group: P M M A
;
_chemical_formula_sum "Si O2"
_cell_formula_units_Z 48
_cell_length_a 9.989605
_cell_length_b 9.335973
_cell_length_c 30.986063
_cell_angle_alpha 90.000000
_cell_angle_beta 90.000000
_cell_angle_gamma 90.000000
_cell_volume 2889.843357
_symmetry_space_group_name_H-M "P M M A"
_symmetry_group_IT_number 51
_symmetry_cell_setting 'orthorhombic'
loop_
_space_group_symop_operation_xyz
x,y,z
1/2-x,-y,z
1/2+x,-y,-z
-x,y,-z
-x,-y,-z
1/2+x,y,-z
1/2-x,y,z
x,-y,z
loop_
_atom_site_type_symbol
_atom_site_label
_atom_site_fract_x
_atom_site_fract_y
_atom_site_fract_z
Si Si1 0.590826 0.339242 0.289369
Si Si2 0.899358 0.170818 0.464292
Si Si3 0.409229 0.159518 0.630968
Si Si4 0.100048 0.829564 0.035460
Si Si5 0.595404 0.168183 0.205472
Si Si6 0.399772 0.170127 0.131394
O O1 0.750000 0.341293 0.291648
O O2 0.533224 0.500000 0.286446
O O3 0.532026 0.264646 0.332458
O O4 0.544019 0.249802 0.247867
O O5 0.750000 0.230436 0.473523
O O6 0.949505 0.217871 0.416568
O O7 0.000000 0.235161 0.500000
O O8 0.896642 0.000000 0.466120
O O9 0.250000 0.151869 0.633842
O O10 0.467923 0.000000 0.638666
O O11 0.250000 0.778962 0.023963
O O12 0.060749 0.774759 0.083452
O O13 0.091915 0.000000 0.034444
O O14 0.000000 0.762164 0.000000
O O15 0.750000 0.202599 0.195138
O O16 0.507481 0.228058 0.165713
O O17 0.573862 0.000000 0.213426
O O18 0.250000 0.223834 0.143445
O O19 0.402027 0.000000 0.131462
#
# Coordination Sequence:
#
# PCOD8214717 Si02
#       6
#     8   8   8   8   8   8
#     4   9  16  25  38  57  80 103 128 162 201 236
#     4   8  13  21  35  56  79 101 126 157 191 225
#     4   8  13  22  37  56  77 102 132 163 194 230
#     4   8  13  20  30  46  70 100 130 157 187 225
#     4   9  16  25  39  59  79  99 127 163 198 230
#     4   8  14  24  36  51  74 104 134 161 191 230
#
# _framework density 16.609897
#
# number of rings (size 3 to 8) (size 9 to 14) (size 15 to 20)
#    0.000    3.667    0.000    2.500    0.000    2.667 
#    0.000    3.333    0.000    2.000    0.000    4.667 
#    0.000    0.667    0.000    1.500    0.000    3.000 
#
# Total GULP energy -594798.926830 kJ/mol
# GULP energy per Si atom -12391.644309 kJ/mol
# Density = 1.657209 g / cm^3
# Si number density = 16.609897 Si / 1000 Ang^3
#
#
#
# Elastic Constant Matrix: (Units=GPa)
#
#
# Indices 1 2 3 4 5 6 
#
# 1 66.6080 20.7993 78.0018 0.0000 0.0000 0.0000
# 2 20.7993 41.0877 43.1241 0.0000 0.0000 0.0000
# 3 78.0018 43.1241 179.1264 0.0000 0.0000 0.0000
# 4 0.0000 0.0000 0.0000 2.3103 0.0000 0.0000
# 5 0.0000 0.0000 0.0000 0.0000 27.2459 0.0000
# 6 0.0000 0.0000 0.0000 0.0000 0.0000 4.8183
#
#
#
# Elastic Compliance Matrix: (Units=1/GPa)
#
#
# Indices 1 2 3 4 5 6 
#
# 1 0.030761 -0.002024 -0.012908 0.000000 0.000000 0.000000
# 2 -0.002024 0.032700 -0.006991 0.000000 0.000000 0.000000
# 3 -0.012908 -0.006991 0.012887 0.000000 0.000000 0.000000
# 4 0.000000 0.000000 0.000000 0.432851 0.000000 0.000000
# 5 0.000000 0.000000 0.000000 0.000000 0.036703 0.000000
# 6 0.000000 0.000000 0.000000 0.000000 0.000000 0.207544
#
#
# Mechanical properties :
#
#
# Convention : Reuss Voigt Hill
#
# Bulk Modulus (GPa) = 30.76748 63.40804 47.08776
# Shear Modulus (GPa) = 6.18716 16.53469 11.36092
#
# Velocity S-wave (km/s) = 1.93212 3.15853 2.61815
# Velocity P-wave (km/s) = 4.85193 7.18049 6.12784
#
# Compressibility (1/GPa) = 0.03250185
#
# Stress axis : x y z
#
# Youngs Moduli (GPa) = 32.50864 30.58066 77.60058
#
# Poissons Ratio (x) = 0.06190 1.00165
# Poissons Ratio (y) = 0.06580 0.54251
# Poissons Ratio (z) = 0.41961 0.21379
#
# Static dielectric constant tensor:
#      x y z
#    x 2.999790 0.000000 0.000000 
#    y 0.000000 2.730850 0.000000 
#    z 0.000000 0.000000 3.548570 
# 
# 
# High freq. dielectric constant tensor:
#      x y z
#    x 1.601880 0.000000 0.000000 
#    y 0.000000 1.583440 0.000000 
#    z 0.000000 0.000000 1.656050 
# 
# From -- ./inp_files/36508.got.cif
#   From: 2010.03.12/outbox.cif.g09.slc.cpg/sg51_19_cif.got.tgz:36508.got - 2010.04.16 13:43:02.
