data_PCOD8214359
_publ_section_title
;
Structure prediction by ZEFSAII (Michael W. Deem and Ramdas Pophale) SiO2 
 PCOD8214359
Probable space group: P M M A
;
_chemical_formula_sum "Si O2"
_cell_formula_units_Z 32
_cell_length_a 14.335404
_cell_length_b 20.627647
_cell_length_c 5.053241
_cell_angle_alpha 90.000000
_cell_angle_beta 90.000000
_cell_angle_gamma 90.000000
_cell_volume 1494.271931
_symmetry_space_group_name_H-M "P M M A"
_symmetry_group_IT_number 51
_symmetry_cell_setting 'orthorhombic'
loop_
_space_group_symop_operation_xyz
x,y,z
1/2-x,-y,z
1/2+x,-y,-z
-x,y,-z
-x,-y,-z
1/2+x,y,-z
1/2-x,y,z
x,-y,z
loop_
_atom_site_type_symbol
_atom_site_label
_atom_site_fract_x
_atom_site_fract_y
_atom_site_fract_z
Si Si1 0.098174 0.650692 0.099474
Si Si2 0.938852 0.925095 0.242720
Si Si3 0.250000 0.754627 0.205330
Si Si4 0.355754 0.573065 0.584830
Si Si5 0.250000 0.154415 0.710293
O O1 0.158570 0.710410 0.202551
O O2 0.081087 0.603218 0.350234
O O3 0.144390 0.612485 0.857587
O O4 0.000000 0.678849 0.000000
O O5 0.841376 0.889528 0.281726
O O6 0.000000 0.914599 0.500000
O O7 0.915136 0.000000 0.189659
O O8 0.000000 0.896767 0.000000
O O9 0.250000 0.799498 0.459306
O O10 0.250000 0.799977 0.957564
O O11 0.250000 0.574103 0.476050
O O12 0.390222 0.500000 0.640548
#
# Coordination Sequence:
#
# PCOD8214359 Si02
#       5
#     8   8   4   8   4
#     4  12  25  43  65  90 126 169 214 267 327 388
#     4  10  22  42  69 103 138 169 213 271 326 381
#     4  12  26  44  62  92 132 174 222 266 308 376
#     4  11  22  41  68  94 125 160 204 271 338 397
#     4  12  25  42  70  94 133 180 222 264 318 386
#
# _framework density 21.415109999999999
#
# number of rings (size 3 to 8) (size 9 to 14) (size 15 to 20)
#    0.000    0.750    2.500    4.875    0.000    8.000 
#    0.000    5.000    0.000    0.000    0.000    0.000 
#    0.000    0.000    0.000    0.000    0.000    0.000 
#
# Total GULP energy -396926.879517 kJ/mol
# GULP energy per Si atom -12403.964985 kJ/mol
# Density = 2.136637 g / cm^3
# Si number density = 21.415110 Si / 1000 Ang^3
#
#
#
# Elastic Constant Matrix: (Units=GPa)
#
#
# Indices 1 2 3 4 5 6 
#
# 1 150.6840 78.9540 46.0634 0.0000 0.0000 0.0000
# 2 78.9540 124.2052 66.4198 0.0000 0.0000 0.0000
# 3 46.0634 66.4198 168.9368 0.0000 0.0000 0.0000
# 4 0.0000 0.0000 0.0000 97.6717 0.0000 0.0000
# 5 0.0000 0.0000 0.0000 0.0000 36.0384 0.0000
# 6 0.0000 0.0000 0.0000 0.0000 0.0000 5.9617
#
#
#
# Elastic Compliance Matrix: (Units=1/GPa)
#
#
# Indices 1 2 3 4 5 6 
#
# 1 0.009962 -0.006179 -0.000287 0.000000 0.000000 0.000000
# 2 -0.006179 0.014027 -0.003830 0.000000 0.000000 0.000000
# 3 -0.000287 -0.003830 0.007503 0.000000 0.000000 0.000000
# 4 0.000000 0.000000 0.000000 0.010238 0.000000 0.000000
# 5 0.000000 0.000000 0.000000 0.000000 0.027748 0.000000
# 6 0.000000 0.000000 0.000000 0.000000 0.000000 0.167737
#
#
# Mechanical properties :
#
#
# Convention : Reuss Voigt Hill
#
# Bulk Modulus (GPa) = 91.74038 91.85559 91.79799
# Shear Modulus (GPa) = 19.12476 44.76027 31.94252
#
# Velocity S-wave (km/s) = 2.99164 4.57675 3.86630
# Velocity P-wave (km/s) = 7.40711 8.42110 7.93033
#
# Compressibility (1/GPa) = 0.01090032
#
# Stress axis : x y z
#
# Youngs Moduli (GPa) = 100.38437 71.28983 133.27133
#
# Poissons Ratio (x) = 0.44050 0.03823
# Poissons Ratio (y) = 0.62027 0.51046
# Poissons Ratio (z) = 0.02880 0.27305
#
# Static dielectric constant tensor:
#      x y z
#    x 3.907400 0.000000 0.000000 
#    y 0.000000 3.925490 0.000000 
#    z 0.000000 0.000000 3.976450 
# 
# 
# High freq. dielectric constant tensor:
#      x y z
#    x 1.854020 0.000000 0.000000 
#    y 0.000000 1.837530 0.000000 
#    z 0.000000 0.000000 1.861320 
# 
# From -- ./inp_files/1316.got.cif
#   From: 2010.03.12/outbox.cif.g09.slc.cpg/sg51_1_cif.got.tgz:1316.got - 2010.04.16 13:43:02.
