data_PCOD8214872
_publ_section_title
;
Structure prediction by ZEFSAII (Michael W. Deem and Ramdas Pophale) SiO2 
 PCOD8214872
Probable space group: P M M A
;
_chemical_formula_sum "Si O2"
_cell_formula_units_Z 48
_cell_length_a 9.216875
_cell_length_b 9.167317
_cell_length_c 31.229414
_cell_angle_alpha 90.000000
_cell_angle_beta 90.000000
_cell_angle_gamma 90.000000
_cell_volume 2638.698571
_symmetry_space_group_name_H-M "P M M A"
_symmetry_group_IT_number 51
_symmetry_cell_setting 'orthorhombic'
loop_
_space_group_symop_operation_xyz
x,y,z
1/2-x,-y,z
1/2+x,-y,-z
-x,y,-z
-x,-y,-z
1/2+x,y,-z
1/2-x,y,z
x,-y,z
loop_
_atom_site_type_symbol
_atom_site_label
_atom_site_fract_x
_atom_site_fract_y
_atom_site_fract_z
Si Si1 0.086170 0.173706 0.040920
Si Si2 0.077163 0.335262 0.625826
Si Si3 0.422689 0.335373 0.791201
Si Si4 0.923151 0.834976 0.291441
Si Si5 0.918724 0.830052 0.124656
Si Si6 0.919394 0.168704 0.457657
O O1 0.250000 0.234332 0.040049
O O2 0.007364 0.228140 0.083879
O O3 0.085474 0.000000 0.039416
O O4 0.000000 0.236629 0.000000
O O5 0.250000 0.332917 0.626581
O O6 0.017809 0.500000 0.627817
O O7 0.016506 0.246928 0.666578
O O8 0.020204 0.259688 0.582534
O O9 0.250000 0.334563 0.789933
O O10 0.483014 0.500000 0.789914
O O11 0.483897 0.247999 0.750327
O O12 0.477207 0.257309 0.834301
O O13 0.750000 0.834557 0.291368
O O14 0.982449 0.000000 0.291305
O O15 0.750000 0.799537 0.115724
O O16 0.946664 0.000000 0.133405
O O17 0.750000 0.195484 0.464626
O O18 0.000000 0.225016 0.500000
O O19 0.954120 0.000000 0.448595
#
# Coordination Sequence:
#
# PCOD8214872 Si02
#       6
#     8   8   8   8   8   8
#     4   9  16  26  42  65  91 117 146 182 222 260
#     4   9  16  25  38  58  85 115 146 181 221 264
#     4   9  16  25  38  58  85 115 145 177 214 256
#     4   9  15  23  37  58  85 115 145 178 217 260
#     4   9  16  26  41  62  88 116 145 177 213 254
#     4   9  17  29  44  62  85 114 148 185 224 265
#
# _framework density 18.190785000000002
#
# number of rings (size 3 to 8) (size 9 to 14) (size 15 to 20)
#    0.000    3.000    0.000    2.000    0.000    8.333 
#    0.000    0.000    0.000    1.000    0.000    1.167 
#    0.000    9.333    0.000    0.000    0.000    0.000 
#
# Total GULP energy -595156.605766 kJ/mol
# GULP energy per Si atom -12399.095953 kJ/mol
# Density = 1.814938 g / cm^3
# Si number density = 18.190785 Si / 1000 Ang^3
#
#
#
# Elastic Constant Matrix: (Units=GPa)
#
#
# Indices 1 2 3 4 5 6 
#
# 1 39.4480 23.6348 45.5833 0.0000 0.0000 0.0000
# 2 23.6348 116.1810 92.1364 0.0000 0.0000 0.0000
# 3 45.5833 92.1364 213.3040 0.0000 0.0000 0.0000
# 4 0.0000 0.0000 0.0000 15.1557 0.0000 0.0000
# 5 0.0000 0.0000 0.0000 0.0000 21.8049 0.0000
# 6 0.0000 0.0000 0.0000 0.0000 0.0000 7.0655
#
#
#
# Elastic Compliance Matrix: (Units=1/GPa)
#
#
# Indices 1 2 3 4 5 6 
#
# 1 0.033895 -0.001751 -0.006487 0.000000 0.000000 0.000000
# 2 -0.001751 0.013182 -0.005320 0.000000 0.000000 0.000000
# 3 -0.006487 -0.005320 0.008372 0.000000 0.000000 0.000000
# 4 0.000000 0.000000 0.000000 0.065982 0.000000 0.000000
# 5 0.000000 0.000000 0.000000 0.000000 0.045861 0.000000
# 6 0.000000 0.000000 0.000000 0.000000 0.000000 0.141532
#
#
# Mechanical properties :
#
#
# Convention : Reuss Voigt Hill
#
# Bulk Modulus (GPa) = 35.29326 76.84913 56.07119
# Shear Modulus (GPa) = 14.47659 22.64379 18.56019
#
# Velocity S-wave (km/s) = 2.82409 3.53199 3.19769
# Velocity P-wave (km/s) = 5.48432 7.67927 6.67267
#
# Compressibility (1/GPa) = 0.02833402
#
# Stress axis : x y z
#
# Youngs Moduli (GPa) = 29.50297 75.85884 119.43963
#
# Poissons Ratio (x) = 0.13280 0.77483
# Poissons Ratio (y) = 0.05165 0.63542
# Poissons Ratio (z) = 0.19139 0.40357
#
# Static dielectric constant tensor:
#      x y z
#    x 2.828140 0.000000 0.000000 
#    y 0.000000 3.299150 0.000000 
#    z 0.000000 0.000000 3.616630 
# 
# 
# High freq. dielectric constant tensor:
#      x y z
#    x 1.640980 0.000000 0.000000 
#    y 0.000000 1.691240 0.000000 
#    z 0.000000 0.000000 1.724960 
# 
# From -- ./inp_files/37039.got.cif
#   From: 2010.03.12/outbox.cif.g09.slc.cpg/sg51_19_cif.got.tgz:37039.got - 2010.04.16 13:43:02.
