data_PCOD8214475
_publ_section_title
;
Structure prediction by ZEFSAII (Michael W. Deem and Ramdas Pophale) SiO2 
 PCOD8214475
Probable space group: P M M A
;
_chemical_formula_sum "Si O2"
_cell_formula_units_Z 40
_cell_length_a 25.771241
_cell_length_b 8.673254
_cell_length_c 9.943791
_cell_angle_alpha 90.000000
_cell_angle_beta 90.000000
_cell_angle_gamma 90.000000
_cell_volume 2222.641326
_symmetry_space_group_name_H-M "P M M A"
_symmetry_group_IT_number 51
_symmetry_cell_setting 'orthorhombic'
loop_
_space_group_symop_operation_xyz
x,y,z
1/2-x,-y,z
1/2+x,-y,-z
-x,y,-z
-x,-y,-z
1/2+x,y,-z
1/2-x,y,z
x,-y,z
loop_
_atom_site_type_symbol
_atom_site_label
_atom_site_fract_x
_atom_site_fract_y
_atom_site_fract_z
Si Si1 0.944617 0.181896 0.845721
Si Si2 0.250000 0.168289 0.347481
Si Si3 0.861089 0.814757 0.637053
Si Si4 0.561657 0.182457 0.149372
Si Si5 0.356462 0.319529 0.652495
Si Si6 0.250000 0.829786 0.665741
O O1 0.904877 0.252627 0.736661
O O2 0.003175 0.231030 0.809615
O O3 0.941214 0.000000 0.840104
O O4 0.928795 0.234162 0.995346
O O5 0.304679 0.250892 0.310039
O O6 0.250000 0.152565 0.507099
O O7 0.250000 0.000000 0.279054
O O8 0.872982 0.758746 0.487276
O O9 0.859401 0.000000 0.634464
O O10 0.599921 0.280452 0.239748
O O11 0.570743 0.000000 0.169305
O O12 0.352544 0.500000 0.628866
O O13 0.301622 0.260097 0.711104
O O14 0.250000 0.000000 0.732691
#
# Coordination Sequence:
#
# PCOD8214475 Si02
#       6
#     8   4   8   8   8   4
#     4   8  16  31  53  73  93 127 175 218 250 286
#     4   7  12  23  44  69  92 114 146 192 244 289
#     4   9  16  30  50  72  95 126 166 209 249 291
#     4   9  17  33  52  71  96 131 171 212 252 293
#     4  11  21  32  48  75 105 132 159 197 247 301
#     4   9  17  33  54  73  94 128 166 202 240 285
#
# _framework density 17.996604000000001
#
# number of rings (size 3 to 8) (size 9 to 14) (size 15 to 20)
#    0.000    3.000    0.000    4.500    0.000    0.800 
#    0.000    9.000    0.000    3.600    0.000    2.800 
#    0.000    0.000    0.000    0.000    0.000    0.000 
#
# Total GULP energy -495657.786282 kJ/mol
# GULP energy per Si atom -12391.444657 kJ/mol
# Density = 1.795564 g / cm^3
# Si number density = 17.996604 Si / 1000 Ang^3
#
#
#
# Elastic Constant Matrix: (Units=GPa)
#
#
# Indices 1 2 3 4 5 6 
#
# 1 160.1039 29.4295 80.0930 0.0000 0.0000 0.0000
# 2 29.4295 49.0268 19.0657 0.0000 0.0000 0.0000
# 3 80.0930 19.0657 83.4194 0.0000 0.0000 0.0000
# 4 0.0000 0.0000 0.0000 5.0980 0.0000 0.0000
# 5 0.0000 0.0000 0.0000 0.0000 5.0470 0.0000
# 6 0.0000 0.0000 0.0000 0.0000 0.0000 13.9937
#
#
#
# Elastic Compliance Matrix: (Units=1/GPa)
#
#
# Indices 1 2 3 4 5 6 
#
# 1 0.012432 -0.003096 -0.011229 0.000000 0.000000 0.000000
# 2 -0.003096 0.023158 -0.002320 0.000000 0.000000 0.000000
# 3 -0.011229 -0.002320 0.023299 0.000000 0.000000 0.000000
# 4 0.000000 0.000000 0.000000 0.196155 0.000000 0.000000
# 5 0.000000 0.000000 0.000000 0.000000 0.198138 0.000000
# 6 0.000000 0.000000 0.000000 0.000000 0.000000 0.071461
#
#
# Mechanical properties :
#
#
# Convention : Reuss Voigt Hill
#
# Bulk Modulus (GPa) = 39.06430 61.08071 50.07250
# Shear Modulus (GPa) = 8.82664 15.75852 12.29258
#
# Velocity S-wave (km/s) = 2.21704 2.96233 2.61636
# Velocity P-wave (km/s) = 5.32046 6.76124 6.08365
#
# Compressibility (1/GPa) = 0.02559882
#
# Stress axis : x y z
#
# Youngs Moduli (GPa) = 80.43448 43.18204 42.91986
#
# Poissons Ratio (x) = 0.13369 0.48195
# Poissons Ratio (y) = 0.24903 0.09958
# Poissons Ratio (z) = 0.90321 0.10019
#
# Static dielectric constant tensor:
#      x y z
#    x 3.997520 0.000000 0.000000 
#    y 0.000000 2.961570 0.000000 
#    z 0.000000 0.000000 3.248920 
# 
# 
# High freq. dielectric constant tensor:
#      x y z
#    x 1.715660 0.000000 0.000000 
#    y 0.000000 1.661200 0.000000 
#    z 0.000000 0.000000 1.671520 
# 
# From -- ./inp_files/12185.got.cif
#   From: 2010.03.12/outbox.cif.g09.slc.cpg/sg51_7_cif.got.tgz:12185.got - 2010.04.16 13:43:02.
