data_PCOD8214305
_publ_section_title
;
Structure prediction by ZEFSAII (Michael W. Deem and Ramdas Pophale) SiO2 
 PCOD8214305
Probable space group: P M M A
;
_chemical_formula_sum "Si O2"
_cell_formula_units_Z 48
_cell_length_a 17.721596
_cell_length_b 8.493580
_cell_length_c 15.325332
_cell_angle_alpha 90.000000
_cell_angle_beta 90.000000
_cell_angle_gamma 90.000000
_cell_volume 2306.765806
_symmetry_space_group_name_H-M "P M M A"
_symmetry_group_IT_number 51
_symmetry_cell_setting 'orthorhombic'
loop_
_space_group_symop_operation_xyz
x,y,z
1/2-x,-y,z
1/2+x,-y,-z
-x,y,-z
-x,-y,-z
1/2+x,y,-z
1/2-x,y,z
x,-y,z
loop_
_atom_site_type_symbol
_atom_site_label
_atom_site_fract_x
_atom_site_fract_y
_atom_site_fract_z
Si Si1 0.663418 0.319111 0.181277
Si Si2 0.414166 0.817927 0.983528
Si Si3 0.580537 0.816555 0.339868
Si Si4 0.833989 0.184866 0.509977
Si Si5 0.917514 0.682842 0.674124
Si Si6 0.337746 0.317951 0.148863
O O1 0.750000 0.279700 0.160318
O O2 0.652397 0.500000 0.209024
O O3 0.615567 0.287845 0.094955
O O4 0.636915 0.207623 0.259509
O O5 0.407804 0.000000 0.957007
O O6 0.500000 0.767587 0.000000
O O7 0.364958 0.788215 0.069263
O O8 0.619886 0.749227 0.427184
O O9 0.505871 0.716503 0.323391
O O10 0.559676 0.000000 0.348722
O O11 0.750000 0.260582 0.512195
O O12 0.878241 0.221180 0.597713
O O13 0.826552 0.000000 0.499014
O O14 0.902117 0.500000 0.657808
O O15 0.882152 0.738040 0.765414
O O16 0.250000 0.288058 0.165744
O O17 0.354500 0.500000 0.127278
#
# Coordination Sequence:
#
# PCOD8214305 Si02
#       6
#     8   8   8   8   8   8
#     4  11  24  41  62  89 120 155 196 243 296 353
#     4  11  24  40  60  88 119 153 195 241 290 348
#     4  11  23  40  62  88 120 158 200 245 294 350
#     4  10  22  40  61  86 118 157 199 244 296 352
#     4  11  23  39  61  89 121 157 197 244 298 353
#     4  10  22  40  60  84 116 153 193 239 292 348
#
# _framework density 20.808354999999999
#
# number of rings (size 3 to 8) (size 9 to 14) (size 15 to 20)
#    0.000    1.333    0.000    5.000    0.000   14.000 
#    0.000    0.000    0.000    0.000    0.000    0.000 
#    0.000    0.000    0.000    0.000    0.000    0.000 
#
# Total GULP energy -595573.513268 kJ/mol
# GULP energy per Si atom -12407.781526 kJ/mol
# Density = 2.076099 g / cm^3
# Si number density = 20.808355 Si / 1000 Ang^3
#
#
#
# Elastic Constant Matrix: (Units=GPa)
#
#
# Indices 1 2 3 4 5 6 
#
# 1 89.5963 20.2113 14.8084 0.0000 0.0000 0.0000
# 2 20.2113 27.1769 13.4964 0.0000 0.0000 0.0000
# 3 14.8084 13.4964 108.1912 0.0000 0.0000 0.0000
# 4 0.0000 0.0000 0.0000 34.4296 0.0000 0.0000
# 5 0.0000 0.0000 0.0000 0.0000 28.9705 0.0000
# 6 0.0000 0.0000 0.0000 0.0000 0.0000 50.5997
#
#
#
# Elastic Compliance Matrix: (Units=1/GPa)
#
#
# Indices 1 2 3 4 5 6 
#
# 1 0.013452 -0.009690 -0.000632 0.000000 0.000000 0.000000
# 2 -0.009690 0.046206 -0.004438 0.000000 0.000000 0.000000
# 3 -0.000632 -0.004438 0.009883 0.000000 0.000000 0.000000
# 4 0.000000 0.000000 0.000000 0.029045 0.000000 0.000000
# 5 0.000000 0.000000 0.000000 0.000000 0.034518 0.000000
# 6 0.000000 0.000000 0.000000 0.000000 0.000000 0.019763
#
#
# Mechanical properties :
#
#
# Convention : Reuss Voigt Hill
#
# Bulk Modulus (GPa) = 24.98703 35.77739 30.38221
# Shear Modulus (GPa) = 25.54592 34.56318 30.05455
#
# Velocity S-wave (km/s) = 3.50762 4.07999 3.80458
# Velocity P-wave (km/s) = 5.33280 6.27903 5.82516
#
# Compressibility (1/GPa) = 0.04002076
#
# Stress axis : x y z
#
# Youngs Moduli (GPa) = 74.34099 21.64226 101.18349
#
# Poissons Ratio (x) = 0.20971 0.06399
# Poissons Ratio (y) = 0.72034 0.44902
# Poissons Ratio (z) = 0.04701 0.09604
#
# Static dielectric constant tensor:
#      x y z
#    x 3.578280 0.000000 0.000000 
#    y 0.000000 3.642590 0.000000 
#    z 0.000000 0.000000 3.860710 
# 
# 
# High freq. dielectric constant tensor:
#      x y z
#    x 1.832740 0.000000 0.000000 
#    y 0.000000 1.807870 0.000000 
#    z 0.000000 0.000000 1.827870 
# 
# From -- ./inp_files/24752.got.cif
#   From: 2010.03.12/outbox.cif.g09.slc.cpg/sg51_13_cif.got.tgz:24752.got - 2010.04.16 13:43:02.
