data_PCOD8214049
_publ_section_title
;
Structure prediction by ZEFSAII (Michael W. Deem and Ramdas Pophale) SiO2 
 PCOD8214049
Probable space group: P M M A
;
_chemical_formula_sum "Si O2"
_cell_formula_units_Z 48
_cell_length_a 8.484540
_cell_length_b 14.701004
_cell_length_c 19.026426
_cell_angle_alpha 90.000000
_cell_angle_beta 90.000000
_cell_angle_gamma 90.000000
_cell_volume 2373.190021
_symmetry_space_group_name_H-M "P M M A"
_symmetry_group_IT_number 51
_symmetry_cell_setting 'orthorhombic'
loop_
_space_group_symop_operation_xyz
x,y,z
1/2-x,-y,z
1/2+x,-y,-z
-x,y,-z
-x,-y,-z
1/2+x,y,-z
1/2-x,y,z
x,-y,z
loop_
_atom_site_type_symbol
_atom_site_label
_atom_site_fract_x
_atom_site_fract_y
_atom_site_fract_z
Si Si1 0.925640 0.599024 0.211046
Si Si2 0.065801 0.359979 0.072214
Si Si3 0.065246 0.602144 0.575241
Si Si4 0.563408 0.160248 0.072387
Si Si5 0.432611 0.101931 0.217605
Si Si6 0.571125 0.268371 0.691239
O O1 0.750000 0.641429 0.220067
O O2 0.928249 0.500000 0.247888
O O3 0.968993 0.585659 0.130363
O O4 0.058279 0.663451 0.243348
O O5 0.250000 0.379139 0.079335
O O6 0.030323 0.253646 0.079198
O O7 0.000000 0.399717 0.000000
O O8 0.250000 0.596477 0.570529
O O9 0.000258 0.500000 0.595853
O O10 0.000000 0.631777 0.500000
O O11 0.024609 0.684167 0.628467
O O12 0.750000 0.175857 0.066050
O O13 0.526692 0.105438 0.143787
O O14 0.500000 0.111657 0.000000
O O15 0.250000 0.125011 0.202230
O O16 0.494655 0.171304 0.278913
O O17 0.453571 0.000000 0.247661
O O18 0.750000 0.257717 0.666093
#
# Coordination Sequence:
#
# PCOD8214049 Si02
#       6
#     8   8   8   8   8   8
#     4  11  23  37  54  79 111 148 189 234 284 340
#     4  11  21  35  54  75 103 142 187 236 290 345
#     4  10  21  38  62  93 128 162 195 233 277 332
#     4  11  21  35  57  81 109 145 190 245 305 362
#     4  10  22  40  60  84 115 152 196 245 297 353
#     4  11  22  37  60  87 118 155 191 234 287 341
#
# _framework density 20.225942
#
# number of rings (size 3 to 8) (size 9 to 14) (size 15 to 20)
#    0.000    1.333    1.667    6.000    0.000    6.000 
#    0.000    0.000    0.000    0.500    0.000    0.000 
#    0.000    0.000    0.000    0.000    0.000    0.000 
#
# Total GULP energy -594844.580720 kJ/mol
# GULP energy per Si atom -12392.595432 kJ/mol
# Density = 2.017991 g / cm^3
# Si number density = 20.225942 Si / 1000 Ang^3
#
#
#
# Elastic Constant Matrix: (Units=GPa)
#
#
# Indices 1 2 3 4 5 6 
#
# 1 75.8194 22.9683 23.6879 0.0000 0.0000 0.0000
# 2 22.9683 114.1169 54.2722 0.0000 0.0000 0.0000
# 3 23.6879 54.2722 122.8230 0.0000 0.0000 0.0000
# 4 0.0000 0.0000 0.0000 3.7915 0.0000 0.0000
# 5 0.0000 0.0000 0.0000 0.0000 34.6283 0.0000
# 6 0.0000 0.0000 0.0000 0.0000 0.0000 18.4037
#
#
#
# Elastic Compliance Matrix: (Units=1/GPa)
#
#
# Indices 1 2 3 4 5 6 
#
# 1 0.014385 -0.001995 -0.001893 0.000000 0.000000 0.000000
# 2 -0.001995 0.011371 -0.004640 0.000000 0.000000 0.000000
# 3 -0.001893 -0.004640 0.010557 0.000000 0.000000 0.000000
# 4 0.000000 0.000000 0.000000 0.263746 0.000000 0.000000
# 5 0.000000 0.000000 0.000000 0.000000 0.028878 0.000000
# 6 0.000000 0.000000 0.000000 0.000000 0.000000 0.054337
#
#
# Mechanical properties :
#
#
# Convention : Reuss Voigt Hill
#
# Bulk Modulus (GPa) = 51.92694 57.17957 54.55326
# Shear Modulus (GPa) = 12.29260 25.48677 18.88969
#
# Velocity S-wave (km/s) = 2.46796 3.55364 3.05935
# Velocity P-wave (km/s) = 5.81810 6.72084 6.28569
#
# Compressibility (1/GPa) = 0.01925783
#
# Stress axis : x y z
#
# Youngs Moduli (GPa) = 69.51700 87.94210 94.72352
#
# Poissons Ratio (x) = 0.17545 0.17929
# Poissons Ratio (y) = 0.13869 0.43950
# Poissons Ratio (z) = 0.13158 0.40803
#
# Static dielectric constant tensor:
#      x y z
#    x 3.598780 0.000000 0.000000 
#    y 0.000000 3.634190 0.000000 
#    z 0.000000 0.000000 3.735660 
# 
# 
# High freq. dielectric constant tensor:
#      x y z
#    x 1.793010 0.000000 0.000000 
#    y 0.000000 1.777660 0.000000 
#    z 0.000000 0.000000 1.777640 
# 
# From -- ./inp_files/27576.got.cif
#   From: 2010.03.12/outbox.cif.g09.slc.cpg/sg51_14_cif.got.tgz:27576.got - 2010.04.16 13:43:02.
