data_PCOD8214916
_publ_section_title
;
Structure prediction by ZEFSAII (Michael W. Deem and Ramdas Pophale) SiO2 
 PCOD8214916
Probable space group: P N N A
;
_chemical_formula_sum "Si O2"
_cell_formula_units_Z 64
_cell_length_a 17.196669
_cell_length_b 19.258511
_cell_length_c 11.527140
_cell_angle_alpha 90.000000
_cell_angle_beta 90.000000
_cell_angle_gamma 90.000000
_cell_volume 3817.584036
_symmetry_space_group_name_H-M "P N N A"
_symmetry_group_IT_number 52
_symmetry_cell_setting 'orthorhombic'
loop_
_space_group_symop_operation_xyz
x,y,z
1/2-x,-y,z
x,1/2-y,1/2-z
1/2-x,1/2+y,1/2-z
-x,-y,-z
1/2+x,y,-z
-x,1/2+y,1/2+z
1/2+x,1/2-y,1/2+z
loop_
_atom_site_type_symbol
_atom_site_label
_atom_site_fract_x
_atom_site_fract_y
_atom_site_fract_z
Si Si1 0.869362 0.235640 0.092608
Si Si2 0.237269 0.577666 0.805320
Si Si3 0.407412 0.644988 0.192352
Si Si4 0.733852 0.080013 0.573176
Si Si5 0.077583 0.862322 0.737353
Si Si6 0.302243 0.800740 0.842706
Si Si7 0.311686 0.282378 0.133735
Si Si8 0.355708 0.719599 0.410634
O O1 0.909102 0.161449 0.127014
O O2 0.913525 0.293533 0.163126
O O3 0.778235 0.237338 0.125372
O O4 0.875510 0.255538 0.958172
O O5 0.250000 0.500000 0.765015
O O6 0.143765 0.584255 0.800524
O O7 0.284477 0.624726 0.714175
O O8 0.267087 0.593112 0.935140
O O9 0.352212 0.592736 0.122977
O O10 0.491565 0.608603 0.210810
O O11 0.373468 0.657371 0.321828
O O12 0.414828 0.716876 0.118085
O O13 0.797248 0.133613 0.629947
O O14 0.750000 0.000000 0.604101
O O15 0.344661 0.750000 0.750000
O O16 0.358174 0.807519 0.956015
O O17 0.347422 0.250000 0.250000
O O18 0.229394 0.246982 0.114903
#
# Coordination Sequence:
#
# PCOD8214916 Si02
#       8
#     8   8   8   8   8   8   8   8
#     4   9  15  25  47  76  99 123 162 207 243 291
#     4  10  19  33  52  77 101 132 174 215 248 300
#     4  10  18  31  50  78  99 131 167 208 258 300
#     4  10  19  33  50  75 103 132 169 217 249 298
#     4  10  17  30  52  75 100 129 166 210 252 301
#     4  10  15  27  49  74 100 132 169 209 253 286
#     4  10  15  27  49  72 103 129 167 207 252 288
#     4   9  16  26  47  76 104 124 162 215 245 294
#
# _framework density 16.764527999999999
#
# number of rings (size 3 to 8) (size 9 to 14) (size 15 to 20)
#    0.000    2.250    6.250    3.000    0.000    0.000 
#    0.000    3.125    0.000    6.750    0.000    0.000 
#    0.000    0.000    0.000    0.000    0.000    0.000 
#
# Total GULP energy -792846.579995 kJ/mol
# GULP energy per Si atom -12388.227812 kJ/mol
# Density = 1.672637 g / cm^3
# Si number density = 16.764528 Si / 1000 Ang^3
#
#
#
# Elastic Constant Matrix: (Units=GPa)
#
#
# Indices 1 2 3 4 5 6 
#
# 1 77.9753 35.8431 36.1114 0.0000 0.0000 0.0000
# 2 35.8431 84.1848 59.8199 0.0000 0.0000 0.0000
# 3 36.1114 59.8199 126.1622 0.0000 0.0000 0.0000
# 4 0.0000 0.0000 0.0000 21.0229 0.0000 0.0000
# 5 0.0000 0.0000 0.0000 0.0000 11.6786 0.0000
# 6 0.0000 0.0000 0.0000 0.0000 0.0000 6.3078
#
#
#
# Elastic Compliance Matrix: (Units=1/GPa)
#
#
# Indices 1 2 3 4 5 6 
#
# 1 0.016297 -0.005466 -0.002073 0.000000 0.000000 0.000000
# 2 -0.005466 0.019747 -0.007799 0.000000 0.000000 0.000000
# 3 -0.002073 -0.007799 0.012218 0.000000 0.000000 0.000000
# 4 0.000000 0.000000 0.000000 0.047567 0.000000 0.000000
# 5 0.000000 0.000000 0.000000 0.000000 0.085626 0.000000
# 6 0.000000 0.000000 0.000000 0.000000 0.000000 0.158533
#
#
# Mechanical properties :
#
#
# Convention : Reuss Voigt Hill
#
# Bulk Modulus (GPa) = 56.86090 61.31901 59.08995
# Shear Modulus (GPa) = 13.27929 18.23839 15.75884
#
# Velocity S-wave (km/s) = 2.81749 3.30193 3.06929
# Velocity P-wave (km/s) = 6.67648 7.15493 6.91984
#
# Compressibility (1/GPa) = 0.01758678
#
# Stress axis : x y z
#
# Youngs Moduli (GPa) = 61.36068 50.63962 81.84950
#
# Poissons Ratio (x) = 0.27677 0.16969
# Poissons Ratio (y) = 0.33537 0.63833
# Poissons Ratio (z) = 0.12721 0.39493
#
# Static dielectric constant tensor:
#      x y z
#    x 2.960330 0.000000 0.000000 
#    y 0.000000 3.022470 0.000000 
#    z 0.000000 0.000000 3.948080 
# 
# 
# High freq. dielectric constant tensor:
#      x y z
#    x 1.616220 0.000000 0.000000 
#    y 0.000000 1.618000 0.000000 
#    z 0.000000 0.000000 1.650560 
# 
# From -- ./inp_files/20988.got.cif
#   From: 2010.06.25/outbox.cif.g09.slc.cpg/sg52_11_cif.got.tgz:20988.got - 2010.06.26 19:32:48.
