data_PCOD8214201
_publ_section_title
;
Structure prediction by ZEFSAII (Michael W. Deem and Ramdas Pophale) SiO2 
 PCOD8214201
Probable space group: P M M A
;
_chemical_formula_sum "Si O2"
_cell_formula_units_Z 40
_cell_length_a 14.680478
_cell_length_b 13.779027
_cell_length_c 9.613640
_cell_angle_alpha 90.000000
_cell_angle_beta 90.000000
_cell_angle_gamma 90.000000
_cell_volume 1944.673082
_symmetry_space_group_name_H-M "P M M A"
_symmetry_group_IT_number 51
_symmetry_cell_setting 'orthorhombic'
loop_
_space_group_symop_operation_xyz
x,y,z
1/2-x,-y,z
1/2+x,-y,-z
-x,y,-z
-x,-y,-z
1/2+x,y,-z
1/2-x,y,z
x,-y,z
loop_
_atom_site_type_symbol
_atom_site_label
_atom_site_fract_x
_atom_site_fract_y
_atom_site_fract_z
Si Si1 0.750000 0.749712 0.017516
Si Si2 0.430071 0.611777 0.605912
Si Si3 0.590293 0.611075 0.088166
Si Si4 0.750000 0.886657 0.284317
Si Si5 0.250000 0.391428 0.440946
Si Si6 0.395492 0.113573 0.485394
Si Si7 0.750000 0.796474 0.711155
O O1 0.662991 0.680105 0.016368
O O2 0.750000 0.823842 0.145324
O O3 0.750000 0.813841 0.876637
O O4 0.500000 0.664589 0.500000
O O5 0.458606 0.500000 0.619210
O O6 0.432530 0.655777 0.760042
O O7 0.331901 0.628877 0.543862
O O8 0.627492 0.500000 0.099809
O O9 0.500000 0.614159 0.000000
O O10 0.840322 0.860759 0.373800
O O11 0.750000 0.000000 0.243686
O O12 0.250000 0.500000 0.378702
O O13 0.250000 0.319945 0.310784
O O14 0.500000 0.150920 0.500000
O O15 0.342597 0.160704 0.355022
O O16 0.394282 0.000000 0.456176
#
# Coordination Sequence:
#
# PCOD8214201 Si02
#       7
#     4   8   8   4   4   8   4
#     4  12  26  40  58  92 129 165 205 246 303 374
#     4   9  19  36  59  82 107 153 212 261 300 342
#     4  10  23  41  60  85 124 170 209 253 305 359
#     4   9  21  42  67  93 122 158 195 246 312 369
#     4  10  22  37  56  85 120 160 209 251 295 348
#     4   9  20  43  72  96 119 152 197 251 313 371
#     4  11  25  37  59  96 121 163 205 249 302 351
#
# _framework density 20.569011
#
# number of rings (size 3 to 8) (size 9 to 14) (size 15 to 20)
#    0.000    2.200    0.000    1.800    8.400    5.600 
#    0.000    0.000    0.000    4.200    0.000    0.000 
#    0.000    0.000    0.000    0.000    0.000    0.000 
#
# Total GULP energy -495905.429940 kJ/mol
# GULP energy per Si atom -12397.635749 kJ/mol
# Density = 2.052220 g / cm^3
# Si number density = 20.569011 Si / 1000 Ang^3
#
#
#
# Elastic Constant Matrix: (Units=GPa)
#
#
# Indices 1 2 3 4 5 6 
#
# 1 161.1487 38.1843 65.7799 0.0000 0.0000 0.0000
# 2 38.1843 79.6852 52.6939 0.0000 0.0000 0.0000
# 3 65.7799 52.6939 150.2349 0.0000 0.0000 0.0000
# 4 0.0000 0.0000 0.0000 29.3619 0.0000 0.0000
# 5 0.0000 0.0000 0.0000 0.0000 23.8562 0.0000
# 6 0.0000 0.0000 0.0000 0.0000 0.0000 38.3623
#
#
#
# Elastic Compliance Matrix: (Units=1/GPa)
#
#
# Indices 1 2 3 4 5 6 
#
# 1 0.007775 -0.001920 -0.002731 0.000000 0.000000 0.000000
# 2 -0.001920 0.016813 -0.005056 0.000000 0.000000 0.000000
# 3 -0.002731 -0.005056 0.009626 0.000000 0.000000 0.000000
# 4 0.000000 0.000000 0.000000 0.034058 0.000000 0.000000
# 5 0.000000 0.000000 0.000000 0.000000 0.041918 0.000000
# 6 0.000000 0.000000 0.000000 0.000000 0.000000 0.026067
#
#
# Mechanical properties :
#
#
# Convention : Reuss Voigt Hill
#
# Bulk Modulus (GPa) = 67.57138 78.26502 72.91820
# Shear Modulus (GPa) = 31.13244 33.94344 32.53794
#
# Velocity S-wave (km/s) = 3.89467 4.06670 3.98161
# Velocity P-wave (km/s) = 7.29020 7.75779 7.52763
#
# Compressibility (1/GPa) = 0.01479916
#
# Stress axis : x y z
#
# Youngs Moduli (GPa) = 128.61552 59.47753 103.89064
#
# Poissons Ratio (x) = 0.11419 0.28372
# Poissons Ratio (y) = 0.24692 0.52532
# Poissons Ratio (z) = 0.35124 0.30075
#
# Static dielectric constant tensor:
#      x y z
#    x 3.849820 0.000000 0.000000 
#    y 0.000000 3.808340 0.000000 
#    z 0.000000 0.000000 3.712210 
# 
# 
# High freq. dielectric constant tensor:
#      x y z
#    x 1.813180 0.000000 0.000000 
#    y 0.000000 1.803060 0.000000 
#    z 0.000000 0.000000 1.797950 
# 
# From -- ./inp_files/8047.got.cif
#   From: 2010.03.12/outbox.cif.g09.slc.cpg/sg51_5_cif.got.tgz:8047.got - 2010.04.16 13:43:02.
