data_PCOD8214763
_publ_section_title
;
Structure prediction by ZEFSAII (Michael W. Deem and Ramdas Pophale) SiO2 
 PCOD8214763
Probable space group: P M M A
;
_chemical_formula_sum "Si O2"
_cell_formula_units_Z 40
_cell_length_a 14.788563
_cell_length_b 9.339305
_cell_length_c 16.263490
_cell_angle_alpha 90.000000
_cell_angle_beta 90.000000
_cell_angle_gamma 90.000000
_cell_volume 2246.230301
_symmetry_space_group_name_H-M "P M M A"
_symmetry_group_IT_number 51
_symmetry_cell_setting 'orthorhombic'
loop_
_space_group_symop_operation_xyz
x,y,z
1/2-x,-y,z
1/2+x,-y,-z
-x,y,-z
-x,-y,-z
1/2+x,y,-z
1/2-x,y,z
x,-y,z
loop_
_atom_site_type_symbol
_atom_site_label
_atom_site_fract_x
_atom_site_fract_y
_atom_site_fract_z
Si Si1 0.852365 0.170234 0.983719
Si Si2 0.976663 0.168798 0.309445
Si Si3 0.905001 0.338730 0.453968
Si Si4 0.347594 0.839824 0.403592
Si Si5 0.515829 0.829935 0.124936
O O1 0.750000 0.234391 0.976202
O O2 0.900073 0.221500 0.068644
O O3 0.846174 0.000000 0.982540
O O4 0.918389 0.224497 0.910055
O O5 0.078224 0.208680 0.337646
O O6 0.967338 0.227886 0.216803
O O7 0.907172 0.254177 0.367501
O O8 0.956127 0.000000 0.315354
O O9 0.871749 0.500000 0.436925
O O10 0.838085 0.259603 0.516187
O O11 0.000000 0.335598 0.500000
O O12 0.250000 0.835430 0.358827
O O13 0.371432 0.000000 0.434455
O O14 0.511853 0.000000 0.125701
#
# Coordination Sequence:
#
# PCOD8214763 Si02
#       5
#     8   8   8   8   8
#     4   8  13  22  36  55  82 112 139 170 209 255
#     4   9  16  27  43  62  86 112 139 177 219 256
#     4   9  17  29  44  60  80 110 144 173 207 254
#     4   9  17  28  42  61  84 110 141 177 218 260
#     4   8  14  23  36  57  83 111 140 170 212 259
#
# _framework density 17.807614000000001
#
# number of rings (size 3 to 8) (size 9 to 14) (size 15 to 20)
#    0.000    3.400    0.000    1.800    0.000    3.600 
#    0.000    5.000    0.000    3.600    0.000    2.800 
#    0.000    1.600    0.000    0.000    0.000    0.000 
#
# Total GULP energy -495578.017626 kJ/mol
# GULP energy per Si atom -12389.450441 kJ/mol
# Density = 1.776708 g / cm^3
# Si number density = 17.807614 Si / 1000 Ang^3
#
#
#
# Elastic Constant Matrix: (Units=GPa)
#
#
# Indices 1 2 3 4 5 6 
#
# 1 62.7112 2.1653 6.3244 0.0000 0.0000 0.0000
# 2 2.1653 42.0041 23.2410 0.0000 0.0000 0.0000
# 3 6.3244 23.2410 111.8647 0.0000 0.0000 0.0000
# 4 0.0000 0.0000 0.0000 5.2981 0.0000 0.0000
# 5 0.0000 0.0000 0.0000 0.0000 15.6215 0.0000
# 6 0.0000 0.0000 0.0000 0.0000 0.0000 5.5982
#
#
#
# Elastic Compliance Matrix: (Units=1/GPa)
#
#
# Indices 1 2 3 4 5 6 
#
# 1 0.016043 -0.000367 -0.000831 0.000000 0.000000 0.000000
# 2 -0.000367 0.026908 -0.005570 0.000000 0.000000 0.000000
# 3 -0.000831 -0.005570 0.010143 0.000000 0.000000 0.000000
# 4 0.000000 0.000000 0.000000 0.188746 0.000000 0.000000
# 5 0.000000 0.000000 0.000000 0.000000 0.064014 0.000000
# 6 0.000000 0.000000 0.000000 0.000000 0.000000 0.178629
#
#
# Mechanical properties :
#
#
# Convention : Reuss Voigt Hill
#
# Bulk Modulus (GPa) = 25.27896 31.11570 28.19733
# Shear Modulus (GPa) = 9.78081 17.62686 13.70383
#
# Velocity S-wave (km/s) = 2.34615 3.14960 2.77708
# Velocity P-wave (km/s) = 4.64388 5.54417 5.11388
#
# Compressibility (1/GPa) = 0.03955859
#
# Stress axis : x y z
#
# Youngs Moduli (GPa) = 62.33416 37.16391 98.58558
#
# Poissons Ratio (x) = 0.01365 0.08189
# Poissons Ratio (y) = 0.02290 0.54908
# Poissons Ratio (z) = 0.05178 0.20699
#
# Static dielectric constant tensor:
#      x y z
#    x 3.320940 0.000000 0.000000 
#    y 0.000000 2.933080 0.000000 
#    z 0.000000 0.000000 3.451380 
# 
# 
# High freq. dielectric constant tensor:
#      x y z
#    x 1.682560 0.000000 0.000000 
#    y 0.000000 1.636600 0.000000 
#    z 0.000000 0.000000 1.681890 
# 
# From -- ./inp_files/24546.got.cif
#   From: 2010.03.12/outbox.cif.g09.slc.cpg/sg51_13_cif.got.tgz:24546.got - 2010.04.16 13:43:02.
