data_PCOD8214347
_publ_section_title
;
Structure prediction by ZEFSAII (Michael W. Deem and Ramdas Pophale) SiO2 
 PCOD8214347
Probable space group: P M M A
;
_chemical_formula_sum "Si O2"
_cell_formula_units_Z 56
_cell_length_a 9.131904
_cell_length_b 14.019647
_cell_length_c 20.914101
_cell_angle_alpha 90.000000
_cell_angle_beta 90.000000
_cell_angle_gamma 90.000000
_cell_volume 2677.550169
_symmetry_space_group_name_H-M "P M M A"
_symmetry_group_IT_number 51
_symmetry_cell_setting 'orthorhombic'
loop_
_space_group_symop_operation_xyz
x,y,z
1/2-x,-y,z
1/2+x,-y,-z
-x,y,-z
-x,-y,-z
1/2+x,y,-z
1/2-x,y,z
x,-y,z
loop_
_atom_site_type_symbol
_atom_site_label
_atom_site_fract_x
_atom_site_fract_y
_atom_site_fract_z
Si Si1 0.578940 0.795471 0.935809
Si Si2 0.581280 0.111985 0.691264
Si Si3 0.410294 0.612797 0.751554
Si Si4 0.923212 0.390693 0.390299
Si Si5 0.423052 0.784866 0.438354
Si Si6 0.582527 0.886867 0.183021
Si Si7 0.081307 0.394202 0.127374
O O1 0.750000 0.820704 0.940114
O O2 0.511145 0.849855 0.876135
O O3 0.553419 0.681053 0.929305
O O4 0.500000 0.830731 0.000000
O O5 0.750000 0.136819 0.705698
O O6 0.528215 0.159489 0.625304
O O7 0.484467 0.152558 0.750124
O O8 0.557598 0.000000 0.683016
O O9 0.250000 0.658668 0.760587
O O10 0.398603 0.500000 0.756826
O O11 0.473399 0.637623 0.681781
O O12 0.510295 0.651172 0.808838
O O13 0.750000 0.373692 0.398682
O O14 0.963408 0.500000 0.405915
O O15 0.017054 0.323566 0.436308
O O16 0.500000 0.834014 0.500000
O O17 0.250000 0.785664 0.447984
O O18 0.750000 0.852320 0.176963
O O19 0.570914 0.000000 0.182811
O O20 0.250000 0.403460 0.143815
O O21 0.018971 0.500000 0.108943
#
# Coordination Sequence:
#
# PCOD8214347 Si02
#       7
#     8   8   8   8   8   8   8
#     4  11  24  40  59  86 121 160 201 243 293 348
#     4   9  20  41  66  91 120 153 190 236 292 353
#     4   8  15  29  50  77 106 140 185 235 288 339
#     4   9  19  36  56  80 114 155 198 244 293 345
#     4  11  24  39  58  86 119 157 200 242 293 349
#     4  10  22  41  66  94 120 150 191 239 294 354
#     4   9  19  35  54  79 114 154 196 241 287 339
#
# _framework density 20.914639000000001
#
# number of rings (size 3 to 8) (size 9 to 14) (size 15 to 20)
#    0.000    2.429    0.000    2.143    2.000    5.143 
#    0.000    1.429    0.000    0.000    0.000    0.000 
#    0.000    0.000    0.000    0.000    0.000    0.000 
#
# Total GULP energy -694290.744137 kJ/mol
# GULP energy per Si atom -12398.049002 kJ/mol
# Density = 2.086704 g / cm^3
# Si number density = 20.914639 Si / 1000 Ang^3
#
#
#
# Elastic Constant Matrix: (Units=GPa)
#
#
# Indices 1 2 3 4 5 6 
#
# 1 101.7446 27.9077 74.1058 0.0000 0.0000 0.0000
# 2 27.9077 31.0717 36.4242 0.0000 0.0000 0.0000
# 3 74.1058 36.4242 158.2139 0.0000 0.0000 0.0000
# 4 0.0000 0.0000 0.0000 24.9390 0.0000 0.0000
# 5 0.0000 0.0000 0.0000 0.0000 41.2178 0.0000
# 6 0.0000 0.0000 0.0000 0.0000 0.0000 22.2582
#
#
#
# Elastic Compliance Matrix: (Units=1/GPa)
#
#
# Indices 1 2 3 4 5 6 
#
# 1 0.016169 -0.007731 -0.005793 0.000000 0.000000 0.000000
# 2 -0.007731 0.047776 -0.007378 0.000000 0.000000 0.000000
# 3 -0.005793 -0.007378 0.010733 0.000000 0.000000 0.000000
# 4 0.000000 0.000000 0.000000 0.040098 0.000000 0.000000
# 5 0.000000 0.000000 0.000000 0.000000 0.024261 0.000000
# 6 0.000000 0.000000 0.000000 0.000000 0.000000 0.044927
#
#
# Mechanical properties :
#
#
# Convention : Reuss Voigt Hill
#
# Bulk Modulus (GPa) = 30.42007 63.10063 46.76035
# Shear Modulus (GPa) = 21.12140 27.85583 24.48862
#
# Velocity S-wave (km/s) = 3.18132 3.65346 3.42553
# Velocity P-wave (km/s) = 5.29819 6.93059 6.16862
#
# Compressibility (1/GPa) = 0.03287304
#
# Stress axis : x y z
#
# Youngs Moduli (GPa) = 61.84782 20.93086 93.17282
#
# Poissons Ratio (x) = 0.16181 0.53979
# Poissons Ratio (y) = 0.47814 0.68744
# Poissons Ratio (z) = 0.35831 0.15443
#
# Static dielectric constant tensor:
#      x y z
#    x 3.849020 0.000000 0.000000 
#    y 0.000000 3.781780 0.000000 
#    z 0.000000 0.000000 3.855720 
# 
# 
# High freq. dielectric constant tensor:
#      x y z
#    x 1.813460 0.000000 0.000000 
#    y 0.000000 1.817180 0.000000 
#    z 0.000000 0.000000 1.820220 
# 
# From -- ./inp_files/31976.got.cif
#   From: 2010.03.12/outbox.cif.g09.slc.cpg/sg51_16_cif.got.tgz:31976.got - 2010.04.16 13:43:02.
