data_PCOD8214683
_publ_section_title
;
Structure prediction by ZEFSAII (Michael W. Deem and Ramdas Pophale) SiO2 
 PCOD8214683
Probable space group: P M M A
;
_chemical_formula_sum "Si O2"
_cell_formula_units_Z 64
_cell_length_a 25.624372
_cell_length_b 9.616432
_cell_length_c 17.329343
_cell_angle_alpha 90.000000
_cell_angle_beta 90.000000
_cell_angle_gamma 90.000000
_cell_volume 4270.210590
_symmetry_space_group_name_H-M "P M M A"
_symmetry_group_IT_number 51
_symmetry_cell_setting 'orthorhombic'
loop_
_space_group_symop_operation_xyz
x,y,z
1/2-x,-y,z
1/2+x,-y,-z
-x,y,-z
-x,-y,-z
1/2+x,y,-z
1/2-x,y,z
x,-y,z
loop_
_atom_site_type_symbol
_atom_site_label
_atom_site_fract_x
_atom_site_fract_y
_atom_site_fract_z
Si Si1 0.887387 0.841233 0.091995
Si Si2 0.187675 0.156768 0.500000
Si Si3 0.500000 0.835567 0.084221
Si Si4 0.690246 0.663068 0.810446
Si Si5 0.612613 0.158767 0.908005
Si Si6 0.687969 0.654559 0.362102
Si Si7 0.809754 0.336932 0.189555
Si Si8 0.312031 0.654559 0.362102
O O1 0.844011 0.743784 0.128072
O O2 0.945006 0.794644 0.125069
O O3 0.875326 0.000000 0.115532
O O4 0.886371 0.824736 0.000000
O O5 0.250000 0.156171 0.500000
O O6 0.165980 0.235675 0.575804
O O7 0.165980 0.235675 0.424196
O O8 0.165681 0.000000 0.500000
O O9 0.445006 0.794644 0.125069
O O10 0.500000 0.000000 0.073207
O O11 0.500000 0.764748 0.000000
O O12 0.750000 0.709540 0.822000
O O13 0.684220 0.500000 0.825453
O O14 0.655989 0.743784 0.871928
O O15 0.670979 0.700515 0.723842
O O16 0.624675 0.000000 0.884468
O O17 0.750000 0.648939 0.365749
O O18 0.666277 0.500000 0.381267
O O19 0.670979 0.700516 0.276158
O O20 0.750000 0.290460 0.177999
O O21 0.815780 0.500000 0.174548
O O22 0.250000 0.648940 0.365748
O O23 0.333723 0.500000 0.381267
#
# Coordination Sequence:
#
# PCOD8214683 Si02
#       8
#     8   8   8   8   8   8   8   8
#     4   9  17  29  45  62  79 103 136 172 208 245
#     4   9  15  21  33  55  77  96 125 166 203 229
#     4   7  12  26  45  61  77  98 127 166 211 251
#     4   9  18  30  41  56  82 114 142 167 198 237
#     4   9  17  29  45  62  79 103 136 172 208 245
#     4   8  14  25  38  50  70 104 138 161 188 232
#     4   9  18  30  41  56  82 114 142 167 198 237
#     4   8  14  25  38  50  70 104 138 161 188 232
#
# _framework density 14.987552000000001
#
# number of rings (size 3 to 8) (size 9 to 14) (size 15 to 20)
#    0.000    3.500    0.000    3.375    0.000    4.000 
#    0.000    5.625    0.000    2.250    0.000    0.000 
#    0.000    1.000    0.000   11.250    0.000    8.500 
#
# Total GULP energy -792850.234820 kJ/mol
# GULP energy per Si atom -12388.284919 kJ/mol
# Density = 1.495344 g / cm^3
# Si number density = 14.987552 Si / 1000 Ang^3
#
#
#
# Elastic Constant Matrix: (Units=GPa)
#
#
# Indices 1 2 3 4 5 6 
#
# 1 69.9048 38.8218 36.1375 0.0000 0.0000 0.0000
# 2 38.8218 68.8823 41.5014 0.0000 0.0000 0.0000
# 3 36.1375 41.5014 60.9965 0.0000 0.0000 0.0000
# 4 0.0000 0.0000 0.0000 17.2897 0.0000 0.0000
# 5 0.0000 0.0000 0.0000 0.0000 0.0146 0.0000
# 6 0.0000 0.0000 0.0000 0.0000 0.0000 9.9792
#
#
#
# Elastic Compliance Matrix: (Units=1/GPa)
#
#
# Indices 1 2 3 4 5 6 
#
# 1 0.022983 -0.008049 -0.008140 0.000000 0.000000 0.000000
# 2 -0.008049 0.027422 -0.013889 0.000000 0.000000 0.000000
# 3 -0.008140 -0.013889 0.030667 0.000000 0.000000 0.000000
# 4 0.000000 0.000000 0.000000 0.057838 0.000000 0.000000
# 5 0.000000 0.000000 0.000000 0.000000 68.351972 0.000000
# 6 0.000000 0.000000 0.000000 0.000000 0.000000 0.100209
#
#
# Mechanical properties :
#
#
# Convention : Reuss Voigt Hill
#
# Bulk Modulus (GPa) = 47.81002 48.07833 47.94418
# Shear Modulus (GPa) = 0.07282 11.01156 5.54219
#
# Velocity S-wave (km/s) = 0.22067 2.71350 1.92507
# Velocity P-wave (km/s) = 5.65986 6.47811 6.08276
#
# Compressibility (1/GPa) = 0.02091612
#
# Stress axis : x y z
#
# Youngs Moduli (GPa) = 43.51011 36.46711 32.60832
#
# Poissons Ratio (x) = 0.29352 0.26543
# Poissons Ratio (y) = 0.35021 0.45290
# Poissons Ratio (z) = 0.35418 0.50650
#
# Static dielectric constant tensor:
#      x y z
#    x 2.724210 0.000000 0.000000 
#    y 0.000000 2.873050 0.000000 
#    z 0.000000 0.000000 2.881600 
# 
# 
# High freq. dielectric constant tensor:
#      x y z
#    x 1.531810 0.000000 0.000000 
#    y 0.000000 1.567760 0.000000 
#    z 0.000000 0.000000 1.562970 
# 
# From -- ./inp_files/31004.got.cif
#   From: 2010.03.12/outbox.cif.g09.slc.cpg/sg51_16_cif.got.tgz:31004.got - 2010.04.16 13:43:02.
