data_PCOD8214030
_publ_section_title
;
Structure prediction by ZEFSAII (Michael W. Deem and Ramdas Pophale) SiO2 
 PCOD8214030
Probable space group: P M M A
;
_chemical_formula_sum "Si O2"
_cell_formula_units_Z 48
_cell_length_a 9.185760
_cell_length_b 13.881045
_cell_length_c 18.527889
_cell_angle_alpha 90.000000
_cell_angle_beta 90.000000
_cell_angle_gamma 90.000000
_cell_volume 2362.453106
_symmetry_space_group_name_H-M "P M M A"
_symmetry_group_IT_number 51
_symmetry_cell_setting 'orthorhombic'
loop_
_space_group_symop_operation_xyz
x,y,z
1/2-x,-y,z
1/2+x,-y,-z
-x,y,-z
-x,-y,-z
1/2+x,y,-z
1/2-x,y,z
x,-y,z
loop_
_atom_site_type_symbol
_atom_site_label
_atom_site_fract_x
_atom_site_fract_y
_atom_site_fract_z
Si Si1 0.589212 0.890384 0.691466
Si Si2 0.750000 0.110687 0.108617
Si Si3 0.473547 0.800283 0.160984
Si Si4 0.081319 0.608949 0.362471
Si Si5 0.075625 0.780854 0.571451
Si Si6 0.579144 0.392100 0.210998
Si Si7 0.750000 0.883339 0.946358
O O1 0.750000 0.885460 0.655229
O O2 0.602370 0.827797 0.764199
O O3 0.467043 0.847980 0.638737
O O4 0.546974 0.000000 0.710257
O O5 0.619889 0.140464 0.159288
O O6 0.750000 0.000000 0.092636
O O7 0.750000 0.155797 0.028219
O O8 0.506914 0.685404 0.156700
O O9 0.387941 0.835168 0.091047
O O10 0.250000 0.642463 0.355795
O O11 0.072740 0.500000 0.391284
O O12 0.993493 0.674880 0.418443
O O13 0.003108 0.618656 0.286117
O O14 0.250000 0.775885 0.563942
O O15 0.000000 0.825123 0.500000
O O16 0.750000 0.370016 0.222754
O O17 0.556825 0.500000 0.179405
O O18 0.750000 0.000000 0.937989
#
# Coordination Sequence:
#
# PCOD8214030 Si02
#       7
#     8   4   8   8   8   8   4
#     4  11  24  42  65  93 126 165 211 262 316 377
#     4  11  24  40  63  95 132 168 214 259 315 385
#     4  12  22  39  65  95 126 170 213 260 317 374
#     4  10  21  38  62  92 125 162 207 259 316 376
#     4  12  26  43  64  90 126 169 210 262 320 373
#     4  10  21  38  61  93 128 164 210 266 323 374
#     4  11  24  42  63  93 134 174 206 257 321 381
#
# _framework density 20.317864
#
# number of rings (size 3 to 8) (size 9 to 14) (size 15 to 20)
#    0.000    1.000    3.333    4.000    2.333    3.333 
#    0.000    0.000    0.000    3.000    0.000    0.000 
#    0.000    0.000    0.000    0.000    0.000    0.000 
#
# Total GULP energy -595069.738249 kJ/mol
# GULP energy per Si atom -12397.286214 kJ/mol
# Density = 2.027162 g / cm^3
# Si number density = 20.317864 Si / 1000 Ang^3
#
#
#
# Elastic Constant Matrix: (Units=GPa)
#
#
# Indices 1 2 3 4 5 6 
#
# 1 139.2033 42.0130 19.0469 0.0000 0.0000 0.0000
# 2 42.0130 119.8052 29.3264 0.0000 0.0000 0.0000
# 3 19.0469 29.3264 60.1522 0.0000 0.0000 0.0000
# 4 0.0000 0.0000 0.0000 26.3361 0.0000 0.0000
# 5 0.0000 0.0000 0.0000 0.0000 31.6001 0.0000
# 6 0.0000 0.0000 0.0000 0.0000 0.0000 33.5563
#
#
#
# Elastic Compliance Matrix: (Units=1/GPa)
#
#
# Indices 1 2 3 4 5 6 
#
# 1 0.008129 -0.002521 -0.001345 0.000000 0.000000 0.000000
# 2 -0.002521 0.010260 -0.004204 0.000000 0.000000 0.000000
# 3 -0.001345 -0.004204 0.019100 0.000000 0.000000 0.000000
# 4 0.000000 0.000000 0.000000 0.037971 0.000000 0.000000
# 5 0.000000 0.000000 0.000000 0.000000 0.031645 0.000000
# 6 0.000000 0.000000 0.000000 0.000000 0.000000 0.029801
#
#
# Mechanical properties :
#
#
# Convention : Reuss Voigt Hill
#
# Bulk Modulus (GPa) = 46.84078 55.54814 51.19446
# Shear Modulus (GPa) = 31.21851 33.55013 32.38432
#
# Velocity S-wave (km/s) = 3.92408 4.06798 3.99668
# Velocity P-wave (km/s) = 6.60570 7.03303 6.82271
#
# Compressibility (1/GPa) = 0.02134892
#
# Stress axis : x y z
#
# Youngs Moduli (GPa) = 123.02074 97.46493 52.35665
#
# Poissons Ratio (x) = 0.24575 0.07040
# Poissons Ratio (y) = 0.31019 0.22010
# Poissons Ratio (z) = 0.16542 0.40972
#
# Static dielectric constant tensor:
#      x y z
#    x 3.885650 0.000000 0.000000 
#    y 0.000000 3.947000 0.000000 
#    z 0.000000 0.000000 3.505340 
# 
# 
# High freq. dielectric constant tensor:
#      x y z
#    x 1.811690 0.000000 0.000000 
#    y 0.000000 1.799750 0.000000 
#    z 0.000000 0.000000 1.773240 
# 
# From -- ./inp_files/27644.got.cif
#   From: 2010.03.12/outbox.cif.g09.slc.cpg/sg51_14_cif.got.tgz:27644.got - 2010.04.16 13:43:02.
