data_PCOD8214769
_publ_section_title
;
Structure prediction by ZEFSAII (Michael W. Deem and Ramdas Pophale) SiO2 
 PCOD8214769
Probable space group: P M M A
;
_chemical_formula_sum "Si O2"
_cell_formula_units_Z 48
_cell_length_a 9.614105
_cell_length_b 9.436497
_cell_length_c 30.993663
_cell_angle_alpha 90.000000
_cell_angle_beta 90.000000
_cell_angle_gamma 90.000000
_cell_volume 2811.852748
_symmetry_space_group_name_H-M "P M M A"
_symmetry_group_IT_number 51
_symmetry_cell_setting 'orthorhombic'
loop_
_space_group_symop_operation_xyz
x,y,z
1/2-x,-y,z
1/2+x,-y,-z
-x,y,-z
-x,-y,-z
1/2+x,y,-z
1/2-x,y,z
x,-y,z
loop_
_atom_site_type_symbol
_atom_site_label
_atom_site_fract_x
_atom_site_fract_y
_atom_site_fract_z
Si Si1 0.904868 0.330921 0.037966
Si Si2 0.088554 0.836108 0.458532
Si Si3 0.084797 0.660190 0.376684
Si Si4 0.915649 0.657516 0.132258
Si Si5 0.589767 0.834801 0.212782
Si Si6 0.911973 0.835448 0.705417
O O1 0.750000 0.269693 0.031200
O O2 0.901157 0.500000 0.035930
O O3 0.965163 0.286193 0.085125
O O4 0.000000 0.266765 0.000000
O O5 0.250000 0.805642 0.468433
O O6 0.031685 0.741530 0.419158
O O7 0.000000 0.791872 0.500000
O O8 0.065204 0.000000 0.446257
O O9 0.250000 0.660253 0.376673
O O10 0.025829 0.500000 0.376407
O O11 0.031630 0.743571 0.334606
O O12 0.750000 0.653900 0.131407
O O13 0.974462 0.500000 0.141041
O O14 0.970190 0.758557 0.170219
O O15 0.750000 0.793762 0.221733
O O16 0.498780 0.784706 0.253264
O O17 0.572171 0.000000 0.204433
O O18 0.750000 0.807033 0.714700
O O19 0.938979 0.000000 0.694716
#
# Coordination Sequence:
#
# PCOD8214769 Si02
#       6
#     8   8   8   8   8   8
#     4   8  13  22  37  56  77 102 133 167 201 239
#     4   9  17  30  48  68  89 115 147 179 210 247
#     4   9  17  29  46  67  89 114 144 176 210 250
#     4   8  14  25  41  60  82 109 138 167 204 250
#     4   9  17  29  45  64  84 108 140 175 208 245
#     4   9  17  30  47  64  83 110 142 173 207 249
#
# _framework density 17.070596999999999
#
# number of rings (size 3 to 8) (size 9 to 14) (size 15 to 20)
#    0.000    3.333    0.000    1.500    0.000    3.000 
#    0.000    1.667    0.000    6.500    0.000    0.000 
#    0.000    0.000    0.000    0.000    0.000    0.000 
#
# Total GULP energy -595009.042555 kJ/mol
# GULP energy per Si atom -12396.021720 kJ/mol
# Density = 1.703174 g / cm^3
# Si number density = 17.070597 Si / 1000 Ang^3
#
#
#
# Elastic Constant Matrix: (Units=GPa)
#
#
# Indices 1 2 3 4 5 6 
#
# 1 44.0131 26.9650 57.7355 0.0000 0.0000 0.0000
# 2 26.9650 69.9804 78.4251 0.0000 0.0000 0.0000
# 3 57.7355 78.4251 196.0282 0.0000 0.0000 0.0000
# 4 0.0000 0.0000 0.0000 30.0898 0.0000 0.0000
# 5 0.0000 0.0000 0.0000 0.0000 31.0543 0.0000
# 6 0.0000 0.0000 0.0000 0.0000 0.0000 11.9875
#
#
#
# Elastic Compliance Matrix: (Units=1/GPa)
#
#
# Indices 1 2 3 4 5 6 
#
# 1 0.037564 -0.003763 -0.009558 0.000000 0.000000 0.000000
# 2 -0.003763 0.026280 -0.009406 0.000000 0.000000 0.000000
# 3 -0.009558 -0.009406 0.011679 0.000000 0.000000 0.000000
# 4 0.000000 0.000000 0.000000 0.033234 0.000000 0.000000
# 5 0.000000 0.000000 0.000000 0.000000 0.032202 0.000000
# 6 0.000000 0.000000 0.000000 0.000000 0.000000 0.083420
#
#
# Mechanical properties :
#
#
# Convention : Reuss Voigt Hill
#
# Bulk Modulus (GPa) = 33.25514 70.69700 51.97607
# Shear Modulus (GPa) = 17.86630 24.41940 21.14285
#
# Velocity S-wave (km/s) = 3.23865 3.78629 3.52313
# Velocity P-wave (km/s) = 5.78864 7.78582 6.86030
#
# Compressibility (1/GPa) = 0.03007054
#
# Stress axis : x y z
#
# Youngs Moduli (GPa) = 26.62114 38.05123 85.62014
#
# Poissons Ratio (x) = 0.14317 0.81839
# Poissons Ratio (y) = 0.10016 0.80533
# Poissons Ratio (z) = 0.25445 0.35790
#
# Static dielectric constant tensor:
#      x y z
#    x 2.937340 0.000000 0.000000 
#    y 0.000000 3.116970 0.000000 
#    z 0.000000 0.000000 3.486760 
# 
# 
# High freq. dielectric constant tensor:
#      x y z
#    x 1.618970 0.000000 0.000000 
#    y 0.000000 1.638270 0.000000 
#    z 0.000000 0.000000 1.673200 
# 
# From -- ./inp_files/36505.got.cif
#   From: 2010.03.12/outbox.cif.g09.slc.cpg/sg51_19_cif.got.tgz:36505.got - 2010.04.16 13:43:02.
