data_PCOD8214150
_publ_section_title
;
Structure prediction by ZEFSAII (Michael W. Deem and Ramdas Pophale) SiO2 
 PCOD8214150
Probable space group: P M M A
;
_chemical_formula_sum "Si O2"
_cell_formula_units_Z 48
_cell_length_a 16.499497
_cell_length_b 15.186418
_cell_length_c 9.290396
_cell_angle_alpha 90.000000
_cell_angle_beta 90.000000
_cell_angle_gamma 90.000000
_cell_volume 2327.878344
_symmetry_space_group_name_H-M "P M M A"
_symmetry_group_IT_number 51
_symmetry_cell_setting 'orthorhombic'
loop_
_space_group_symop_operation_xyz
x,y,z
1/2-x,-y,z
1/2+x,-y,-z
-x,y,-z
-x,-y,-z
1/2+x,y,-z
1/2-x,y,z
x,-y,z
loop_
_atom_site_type_symbol
_atom_site_label
_atom_site_fract_x
_atom_site_fract_y
_atom_site_fract_z
Si Si1 0.653623 0.500000 0.835836
Si Si2 0.844641 0.000000 0.408408
Si Si3 0.655942 0.000000 0.749324
Si Si4 0.155118 0.332026 0.662706
Si Si5 0.440819 0.160057 0.119345
Si Si6 0.846450 0.500000 0.509390
Si Si7 0.443136 0.166535 0.629013
Si Si8 0.845191 0.673323 0.001581
O O1 0.750000 0.500000 0.837766
O O2 0.620047 0.500000 0.672506
O O3 0.622294 0.412618 0.917171
O O4 0.885203 0.084446 0.332988
O O5 0.750000 0.000000 0.370943
O O6 0.860213 0.000000 0.579274
O O7 0.618667 0.086629 0.819535
O O8 0.750000 0.000000 0.785791
O O9 0.250000 0.321046 0.637316
O O10 0.120695 0.415766 0.576969
O O11 0.113384 0.248371 0.588626
O O12 0.134843 0.340908 0.830986
O O13 0.499831 0.196573 0.241623
O O14 0.500000 0.117884 0.000000
O O15 0.390109 0.240908 0.056403
O O16 0.750000 0.500000 0.509583
O O17 0.500000 0.136698 0.500000
O O18 0.750000 0.687311 0.976048
#
# Coordination Sequence:
#
# PCOD8214150 Si02
#       8
#     4   4   4   8   8   4   8   8
#     4   9  19  35  61  93 123 159 208 260 306 355
#     4  11  24  44  67  93 122 161 209 256 306 367
#     4  11  24  43  67  94 122 161 209 256 304 367
#     4  10  21  40  63  90 123 165 211 255 304 365
#     4  12  24  43  63  92 129 163 202 252 314 369
#     4   9  19  35  61  93 123 160 210 259 302 353
#     4  12  24  42  64  91 127 165 204 250 313 371
#     4  10  21  40  63  90 124 166 209 253 307 367
#
# _framework density 20.619634000000001
#
# number of rings (size 3 to 8) (size 9 to 14) (size 15 to 20)
#    0.000    1.333    3.333    2.500    2.333    2.000 
#    0.000    2.500    0.000    0.000    0.000    0.000 
#    0.000    0.000    0.000    0.000    0.000    0.000 
#
# Total GULP energy -595301.663190 kJ/mol
# GULP energy per Si atom -12402.117983 kJ/mol
# Density = 2.057270 g / cm^3
# Si number density = 20.619634 Si / 1000 Ang^3
#
#
#
# Elastic Constant Matrix: (Units=GPa)
#
#
# Indices 1 2 3 4 5 6 
#
# 1 80.7080 51.1917 35.6982 0.0000 0.0000 0.0000
# 2 51.1917 152.1028 23.5879 0.0000 0.0000 0.0000
# 3 35.6982 23.5879 70.8799 0.0000 0.0000 0.0000
# 4 0.0000 0.0000 0.0000 39.8750 0.0000 0.0000
# 5 0.0000 0.0000 0.0000 0.0000 21.0518 0.0000
# 6 0.0000 0.0000 0.0000 0.0000 0.0000 -0.6748
#
#
#
# Elastic Compliance Matrix: (Units=1/GPa)
#
#
# Indices 1 2 3 4 5 6 
#
# 1 0.019225 -0.005239 -0.007939 0.000000 0.000000 0.000000
# 2 -0.005239 0.008360 -0.000143 0.000000 0.000000 0.000000
# 3 -0.007939 -0.000143 0.018155 0.000000 0.000000 0.000000
# 4 0.000000 0.000000 0.000000 0.025078 0.000000 0.000000
# 5 0.000000 0.000000 0.000000 0.000000 0.047502 0.000000
# 6 0.000000 0.000000 0.000000 0.000000 0.000000 -1.482003
#
#
# Mechanical properties :
#
#
# Convention : Reuss Voigt Hill
#
# Bulk Modulus (GPa) = 52.36614 58.29405 55.33009
# Shear Modulus (GPa) = -3.75749 24.93128 10.58689
#
# Velocity S-wave (km/s) = -1.35139 3.48099 2.26837
# Velocity P-wave (km/s) = 4.79754 6.67000 5.80970
#
# Compressibility (1/GPa) = 0.01909631
#
# Stress axis : x y z
#
# Youngs Moduli (GPa) = 52.01561 119.61665 55.08262
#
# Poissons Ratio (x) = 0.62669 0.43730
# Poissons Ratio (y) = 0.27252 0.00790
# Poissons Ratio (z) = 0.41295 0.01716
#
# Static dielectric constant tensor:
#      x y z
#    x 3.688620 0.000000 0.000000 
#    y 0.000000 3.783420 0.000000 
#    z 0.000000 0.000000 3.533390 
# 
# 
# High freq. dielectric constant tensor:
#      x y z
#    x 1.802860 0.000000 0.000000 
#    y 0.000000 1.816260 0.000000 
#    z 0.000000 0.000000 1.811570 
# 
# From -- ./inp_files/9766.got.cif
#   From: 2010.03.12/outbox.cif.g09.slc.cpg/sg51_5_cif.got.tgz:9766.got - 2010.04.16 13:43:02.
