data_PCOD8214146
_publ_section_title
;
Structure prediction by ZEFSAII (Michael W. Deem and Ramdas Pophale) SiO2 
 PCOD8214146
Probable space group: P M M A
;
_chemical_formula_sum "Si O2"
_cell_formula_units_Z 56
_cell_length_a 18.397153
_cell_length_b 13.346703
_cell_length_c 11.655964
_cell_angle_alpha 90.000000
_cell_angle_beta 90.000000
_cell_angle_gamma 90.000000
_cell_volume 2862.020986
_symmetry_space_group_name_H-M "P M M A"
_symmetry_group_IT_number 51
_symmetry_cell_setting 'orthorhombic'
loop_
_space_group_symop_operation_xyz
x,y,z
1/2-x,-y,z
1/2+x,-y,-z
-x,y,-z
-x,-y,-z
1/2+x,y,-z
1/2-x,y,z
x,-y,z
loop_
_atom_site_type_symbol
_atom_site_label
_atom_site_fract_x
_atom_site_fract_y
_atom_site_fract_z
Si Si1 0.668354 0.754414 0.621660
Si Si2 0.665056 0.883581 0.097898
Si Si3 0.331072 0.257078 0.110138
Si Si4 0.044700 0.892402 0.387068
Si Si5 0.084143 0.615571 0.530424
Si Si6 0.436012 0.752764 0.738340
Si Si7 0.965479 0.392957 0.881035
O O1 0.750000 0.759931 0.573877
O O2 0.665905 0.772830 0.757290
O O3 0.620622 0.844473 0.570933
O O4 0.632146 0.649441 0.579836
O O5 0.750000 0.877096 0.128079
O O6 0.623069 0.818291 0.193435
O O7 0.639176 0.000000 0.099099
O O8 0.649253 0.837838 0.971233
O O9 0.250000 0.295954 0.078877
O O10 0.387450 0.345550 0.092686
O O11 0.000000 0.909044 0.500000
O O12 0.001239 0.823908 0.299712
O O13 0.059528 0.000000 0.328295
O O14 0.102517 0.500000 0.560111
O O15 0.102983 0.690187 0.636095
O O16 0.000000 0.629656 0.500000
O O17 0.476732 0.673507 0.815891
O O18 0.954235 0.500000 0.815335
O O19 0.000000 0.418628 0.000000
#
# Coordination Sequence:
#
# PCOD8214146 Si02
#       7
#     8   8   8   8   8   8   8
#     4  11  22  39  61  88 122 158 200 251 302 358
#     4  10  23  42  63  89 124 165 207 255 311 367
#     4  10  21  40  62  86 120 162 204 249 304 362
#     4  11  22  39  60  86 120 157 197 245 301 358
#     4  11  22  40  66  91 120 161 204 249 307 367
#     4  12  20  40  66  94 118 161 200 254 308 372
#     4  11  22  37  59  89 122 156 199 248 299 357
#
# _framework density 19.566592
#
# number of rings (size 3 to 8) (size 9 to 14) (size 15 to 20)
#    0.000    1.143    5.714    0.857    0.000    3.714 
#    0.000    3.571    0.000    1.286    0.000    0.000 
#    0.000    0.000    0.000    0.000    0.000    0.000 
#
# Total GULP energy -694061.470511 kJ/mol
# GULP energy per Si atom -12393.954831 kJ/mol
# Density = 1.952206 g / cm^3
# Si number density = 19.566592 Si / 1000 Ang^3
#
#
#
# Elastic Constant Matrix: (Units=GPa)
#
#
# Indices 1 2 3 4 5 6 
#
# 1 113.2120 64.8212 28.9408 0.0000 0.0000 0.0000
# 2 64.8212 173.4449 53.6383 0.0000 0.0000 0.0000
# 3 28.9408 53.6383 83.2944 0.0000 0.0000 0.0000
# 4 0.0000 0.0000 0.0000 4.4476 0.0000 0.0000
# 5 0.0000 0.0000 0.0000 0.0000 27.7093 0.0000
# 6 0.0000 0.0000 0.0000 0.0000 0.0000 26.9603
#
#
#
# Elastic Compliance Matrix: (Units=1/GPa)
#
#
# Indices 1 2 3 4 5 6 
#
# 1 0.011389 -0.003787 -0.001519 0.000000 0.000000 0.000000
# 2 -0.003787 0.008458 -0.004131 0.000000 0.000000 0.000000
# 3 -0.001519 -0.004131 0.015194 0.000000 0.000000 0.000000
# 4 0.000000 0.000000 0.000000 0.224841 0.000000 0.000000
# 5 0.000000 0.000000 0.000000 0.000000 0.036089 0.000000
# 6 0.000000 0.000000 0.000000 0.000000 0.000000 0.037092
#
#
# Mechanical properties :
#
#
# Convention : Reuss Voigt Hill
#
# Bulk Modulus (GPa) = 61.85049 73.86133 67.85591
# Shear Modulus (GPa) = 13.99283 26.66017 20.32650
#
# Velocity S-wave (km/s) = 2.67711 3.69526 3.22660
# Velocity P-wave (km/s) = 6.42143 7.48580 6.97395
#
# Compressibility (1/GPa) = 0.01616802
#
# Stress axis : x y z
#
# Youngs Moduli (GPa) = 87.80049 118.22654 65.81754
#
# Poissons Ratio (x) = 0.44771 0.09996
# Poissons Ratio (y) = 0.33249 0.27190
# Poissons Ratio (z) = 0.13334 0.48840
#
# Static dielectric constant tensor:
#      x y z
#    x 3.772490 0.000000 0.000000 
#    y 0.000000 4.082990 0.000000 
#    z 0.000000 0.000000 3.621530 
# 
# 
# High freq. dielectric constant tensor:
#      x y z
#    x 1.761140 0.000000 0.000000 
#    y 0.000000 1.771720 0.000000 
#    z 0.000000 0.000000 1.761580 
# 
# From -- ./inp_files/16637.got.cif
#   From: 2010.03.12/outbox.cif.g09.slc.cpg/sg51_9_cif.got.tgz:16637.got - 2010.04.16 13:43:02.
