data_PCOD8214991
_publ_section_title
;
Structure prediction by ZEFSAII (Michael W. Deem and Ramdas Pophale) SiO2 
 PCOD8214991
Probable space group: P N N A
;
_chemical_formula_sum "Si O2"
_cell_formula_units_Z 56
_cell_length_a 8.770364
_cell_length_b 23.146926
_cell_length_c 15.984663
_cell_angle_alpha 90.000000
_cell_angle_beta 90.000000
_cell_angle_gamma 90.000000
_cell_volume 3244.997946
_symmetry_space_group_name_H-M "P N N A"
_symmetry_group_IT_number 52
_symmetry_cell_setting 'orthorhombic'
loop_
_space_group_symop_operation_xyz
x,y,z
1/2-x,-y,z
x,1/2-y,1/2-z
1/2-x,1/2+y,1/2-z
-x,-y,-z
1/2+x,y,-z
-x,1/2+y,1/2+z
1/2+x,1/2-y,1/2+z
loop_
_atom_site_type_symbol
_atom_site_label
_atom_site_fract_x
_atom_site_fract_y
_atom_site_fract_z
Si Si1 0.845517 0.949801 0.196058
Si Si2 0.266634 0.860997 0.143128
Si Si3 0.003889 0.840333 0.248717
Si Si4 0.405332 0.035238 0.071354
Si Si5 0.426324 0.098256 0.907795
Si Si6 0.175573 0.788355 0.999281
Si Si7 0.072875 0.251871 0.886859
O O1 0.930881 0.904669 0.256210
O O2 0.730174 0.913863 0.138512
O O3 0.963433 0.985733 0.136521
O O4 0.750000 0.000000 0.245428
O O5 0.135884 0.901280 0.103916
O O6 0.429174 0.893218 0.154923
O O7 0.285886 0.808910 0.076148
O O8 0.189273 0.842158 0.232438
O O9 0.935661 0.805121 0.170533
O O10 0.958380 0.809725 0.334550
O O11 0.250000 0.000000 0.072775
O O12 0.471300 0.046445 0.975624
O O13 0.403907 0.157206 0.956736
O O14 0.048180 0.747450 0.038590
O O15 0.262077 0.749348 0.930496
#
# Coordination Sequence:
#
# PCOD8214991 Si02
#       7
#     8   8   8   8   8   8   8
#     4  11  21  31  46  70 101 138 175 207 245 300
#     4   9  18  29  45  66  98 131 168 204 243 295
#     4   9  20  35  49  68  99 140 164 204 263 306
#     4  10  19  29  41  66  99 139 177 203 234 278
#     4  11  18  28  45  70 102 131 171 207 237 288
#     4  10  17  29  51  74  92 129 165 211 252 300
#     4  10  18  34  54  70  99 129 170 210 261 308
#
# _framework density 17.25733
#
# number of rings (size 3 to 8) (size 9 to 14) (size 15 to 20)
#    0.000    2.000    2.857    3.857    0.000    1.714 
#    0.000    1.429    3.143    0.000    0.000    1.000 
#    0.000    0.000    0.000    0.000    0.000    0.000 
#
# Total GULP energy -693950.209689 kJ/mol
# GULP energy per Si atom -12391.968030 kJ/mol
# Density = 1.721805 g / cm^3
# Si number density = 17.257330 Si / 1000 Ang^3
#
#
#
# Elastic Constant Matrix: (Units=GPa)
#
#
# Indices 1 2 3 4 5 6 
#
# 1 98.2372 35.5129 33.5513 0.0000 0.0000 0.0000
# 2 35.5129 77.2138 36.2408 0.0000 0.0000 0.0000
# 3 33.5513 36.2408 54.7169 0.0000 0.0000 0.0000
# 4 0.0000 0.0000 0.0000 29.3985 0.0000 0.0000
# 5 0.0000 0.0000 0.0000 0.0000 18.6260 0.0000
# 6 0.0000 0.0000 0.0000 0.0000 0.0000 27.9294
#
#
#
# Elastic Compliance Matrix: (Units=1/GPa)
#
#
# Indices 1 2 3 4 5 6 
#
# 1 0.013451 -0.003360 -0.006023 0.000000 0.000000 0.000000
# 2 -0.003360 0.019633 -0.010943 0.000000 0.000000 0.000000
# 3 -0.006023 -0.010943 0.029217 0.000000 0.000000 0.000000
# 4 0.000000 0.000000 0.000000 0.034015 0.000000 0.000000
# 5 0.000000 0.000000 0.000000 0.000000 0.053688 0.000000
# 6 0.000000 0.000000 0.000000 0.000000 0.000000 0.035805
#
#
# Mechanical properties :
#
#
# Convention : Reuss Voigt Hill
#
# Bulk Modulus (GPa) = 46.19078 48.97534 47.58306
# Shear Modulus (GPa) = 21.39716 23.51498 22.45607
#
# Velocity S-wave (km/s) = 3.52502 3.69536 3.61120
# Velocity P-wave (km/s) = 6.58724 6.82998 6.70971
#
# Compressibility (1/GPa) = 0.02164934
#
# Stress axis : x y z
#
# Youngs Moduli (GPa) = 74.34442 50.93585 34.22688
#
# Poissons Ratio (x) = 0.17113 0.20613
# Poissons Ratio (y) = 0.24978 0.37455
# Poissons Ratio (z) = 0.44774 0.55740
#
# Static dielectric constant tensor:
#      x y z
#    x 3.286630 0.000000 0.000000 
#    y 0.000000 3.270810 0.000000 
#    z 0.000000 0.000000 2.831990 
# 
# 
# High freq. dielectric constant tensor:
#      x y z
#    x 1.681300 0.000000 0.000000 
#    y 0.000000 1.659960 0.000000 
#    z 0.000000 0.000000 1.600650 
# 
# From -- ./inp_files/31622.got.cif
#   From: 2010.06.25/outbox.cif.g09.slc.cpg/sg52_16_cif.got.tgz:31622.got - 2010.06.26 19:32:48.
