data_PCOD8214365
_publ_section_title
;
Structure prediction by ZEFSAII (Michael W. Deem and Ramdas Pophale) SiO2 
 PCOD8214365
Probable space group: P M M A
;
_chemical_formula_sum "Si O2"
_cell_formula_units_Z 56
_cell_length_a 14.764318
_cell_length_b 9.507956
_cell_length_c 21.098428
_cell_angle_alpha 90.000000
_cell_angle_beta 90.000000
_cell_angle_gamma 90.000000
_cell_volume 2961.765378
_symmetry_space_group_name_H-M "P M M A"
_symmetry_group_IT_number 51
_symmetry_cell_setting 'orthorhombic'
loop_
_space_group_symop_operation_xyz
x,y,z
1/2-x,-y,z
1/2+x,-y,-z
-x,y,-z
-x,-y,-z
1/2+x,y,-z
1/2-x,y,z
x,-y,z
loop_
_atom_site_type_symbol
_atom_site_label
_atom_site_fract_x
_atom_site_fract_y
_atom_site_fract_z
Si Si1 0.357405 0.344515 0.508271
Si Si2 0.996308 0.838717 0.712351
Si Si3 0.854113 0.661540 0.086287
Si Si4 0.853676 0.835858 0.608222
Si Si5 0.990274 0.837010 0.857703
Si Si6 0.644722 0.340175 0.939853
Si Si7 0.146357 0.334343 0.649155
O O1 0.250000 0.350614 0.507608
O O2 0.396830 0.500000 0.494553
O O3 0.393914 0.240697 0.454079
O O4 0.386911 0.292637 0.578198
O O5 0.965198 0.817246 0.784340
O O6 0.084754 0.746176 0.699411
O O7 0.912323 0.790030 0.668813
O O8 0.021930 0.000000 0.698596
O O9 0.750000 0.699602 0.099307
O O10 0.873385 0.500000 0.104750
O O11 0.913985 0.763327 0.129122
O O12 0.879048 0.686336 0.013053
O O13 0.750000 0.790408 0.621676
O O14 0.860389 0.000000 0.594388
O O15 0.910698 0.767954 0.897923
O O16 0.997922 0.000000 0.876479
O O17 0.750000 0.313020 0.927190
O O18 0.618591 0.500000 0.921491
O O19 0.250000 0.287857 0.660398
O O20 0.136069 0.500000 0.659695
#
# Coordination Sequence:
#
# PCOD8214365 Si02
#       7
#     8   8   8   8   8   8   8
#     4   8  15  30  52  77 102 126 159 211 271 317
#     4  10  23  38  50  72 106 143 179 212 252 303
#     4   9  19  37  60  83 107 138 175 216 264 314
#     4   9  18  34  54  73  97 133 175 214 253 305
#     4  11  23  36  52  78 112 146 178 216 263 311
#     4   9  19  37  60  84 108 136 174 218 262 311
#     4   9  19  36  56  77 102 133 170 214 263 313
#
# _framework density 18.907641999999999
#
# number of rings (size 3 to 8) (size 9 to 14) (size 15 to 20)
#    0.000    2.714    0.000    2.571    0.000    7.143 
#    0.000   10.000    0.000    1.714    0.000    0.000 
#    0.000    0.000    0.000    0.000    0.000    0.000 
#
# Total GULP energy -694419.034986 kJ/mol
# GULP energy per Si atom -12400.339910 kJ/mol
# Density = 1.886461 g / cm^3
# Si number density = 18.907642 Si / 1000 Ang^3
#
#
#
# Elastic Constant Matrix: (Units=GPa)
#
#
# Indices 1 2 3 4 5 6 
#
# 1 58.0927 28.7137 16.3979 0.0000 0.0000 0.0000
# 2 28.7137 69.8030 32.9705 0.0000 0.0000 0.0000
# 3 16.3979 32.9705 59.4620 0.0000 0.0000 0.0000
# 4 0.0000 0.0000 0.0000 51.7406 0.0000 0.0000
# 5 0.0000 0.0000 0.0000 0.0000 21.8306 0.0000
# 6 0.0000 0.0000 0.0000 0.0000 0.0000 24.2127
#
#
#
# Elastic Compliance Matrix: (Units=1/GPa)
#
#
# Indices 1 2 3 4 5 6 
#
# 1 0.021693 -0.008261 -0.001401 0.000000 0.000000 0.000000
# 2 -0.008261 0.022556 -0.010228 0.000000 0.000000 0.000000
# 3 -0.001401 -0.010228 0.022875 0.000000 0.000000 0.000000
# 4 0.000000 0.000000 0.000000 0.019327 0.000000 0.000000
# 5 0.000000 0.000000 0.000000 0.000000 0.045807 0.000000
# 6 0.000000 0.000000 0.000000 0.000000 0.000000 0.041301
#
#
# Mechanical properties :
#
#
# Convention : Reuss Voigt Hill
#
# Bulk Modulus (GPa) = 36.57473 38.16911 37.37192
# Shear Modulus (GPa) = 22.47641 26.84182 24.65912
#
# Velocity S-wave (km/s) = 3.45156 3.77188 3.61527
# Velocity P-wave (km/s) = 5.93888 6.26102 6.10208
#
# Compressibility (1/GPa) = 0.02734128
#
# Stress axis : x y z
#
# Youngs Moduli (GPa) = 46.09805 44.33478 43.71513
#
# Poissons Ratio (x) = 0.36627 0.06126
# Poissons Ratio (y) = 0.38084 0.44714
# Poissons Ratio (z) = 0.06460 0.45347
#
# Static dielectric constant tensor:
#      x y z
#    x 3.393140 0.000000 0.000000 
#    y 0.000000 3.449610 0.000000 
#    z 0.000000 0.000000 3.466280 
# 
# 
# High freq. dielectric constant tensor:
#      x y z
#    x 1.736360 0.000000 0.000000 
#    y 0.000000 1.729240 0.000000 
#    z 0.000000 0.000000 1.731030 
# 
# From -- ./inp_files/33351.got.cif
#   From: 2010.03.12/outbox.cif.g09.slc.cpg/sg51_17_cif.got.tgz:33351.got - 2010.04.16 13:43:02.
