data_PCOD8214744
_publ_section_title
;
Structure prediction by ZEFSAII (Michael W. Deem and Ramdas Pophale) SiO2 
 PCOD8214744
Probable space group: P M M A
;
_chemical_formula_sum "Si O2"
_cell_formula_units_Z 56
_cell_length_a 18.598147
_cell_length_b 9.652831
_cell_length_c 19.057680
_cell_angle_alpha 90.000000
_cell_angle_beta 90.000000
_cell_angle_gamma 90.000000
_cell_volume 3421.325617
_symmetry_space_group_name_H-M "P M M A"
_symmetry_group_IT_number 51
_symmetry_cell_setting 'orthorhombic'
loop_
_space_group_symop_operation_xyz
x,y,z
1/2-x,-y,z
1/2+x,-y,-z
-x,y,-z
-x,-y,-z
1/2+x,y,-z
1/2-x,y,z
x,-y,z
loop_
_atom_site_type_symbol
_atom_site_label
_atom_site_fract_x
_atom_site_fract_y
_atom_site_fract_z
Si Si1 0.664757 0.652687 0.436457
Si Si2 0.027766 0.165846 0.073847
Si Si3 0.832323 0.837002 0.308476
Si Si4 0.898660 0.838542 0.712814
Si Si5 0.543431 0.161872 0.212203
Si Si6 0.829125 0.164352 0.856743
Si Si7 0.332703 0.338056 0.407258
O O1 0.750000 0.645647 0.438971
O O2 0.634585 0.500000 0.416674
O O3 0.639132 0.763434 0.379000
O O4 0.638595 0.695700 0.514230
O O5 0.109546 0.218049 0.089174
O O6 0.975576 0.224920 0.135547
O O7 0.026547 0.000000 0.073039
O O8 0.000000 0.226898 0.000000
O O9 0.750000 0.797681 0.291150
O O10 0.880936 0.782928 0.243376
O O11 0.841794 0.000000 0.320844
O O12 0.848260 0.791001 0.777475
O O13 0.881119 0.749995 0.644839
O O14 0.980885 0.805519 0.732318
O O15 0.887175 0.000000 0.695814
O O16 0.549591 0.000000 0.200357
O O17 0.750000 0.224262 0.876737
O O18 0.828217 0.000000 0.860094
O O19 0.250000 0.292652 0.398485
O O20 0.341712 0.500000 0.390759
#
# Coordination Sequence:
#
# PCOD8214744 Si02
#       7
#     8   8   8   8   8   8   8
#     4   8  15  28  43  58  79 107 136 168 207 245
#     4   8  13  22  36  53  78 112 137 153 191 249
#     4   9  16  27  44  62  79 103 136 173 210 245
#     4   9  16  26  41  58  79 110 141 167 199 242
#     4   8  15  27  40  57  82 107 133 168 206 241
#     4   8  13  21  34  54  77 100 132 171 199 224
#     4   9  17  28  41  59  84 109 133 169 212 243
#
# _framework density 16.367925
#
# number of rings (size 3 to 8) (size 9 to 14) (size 15 to 20)
#    0.000    3.571    0.000    3.000    0.000    1.429 
#    0.000    3.571    0.000    8.571    0.000    0.000 
#    0.000   14.286    0.000   16.857    0.000   14.857 
#
# Total GULP energy -693855.304144 kJ/mol
# GULP energy per Si atom -12390.273288 kJ/mol
# Density = 1.633067 g / cm^3
# Si number density = 16.367925 Si / 1000 Ang^3
#
#
#
# Elastic Constant Matrix: (Units=GPa)
#
#
# Indices 1 2 3 4 5 6 
#
# 1 94.1309 22.3287 71.5858 0.0000 0.0000 0.0000
# 2 22.3287 26.4072 34.5392 0.0000 0.0000 0.0000
# 3 71.5858 34.5392 134.5799 0.0000 0.0000 0.0000
# 4 0.0000 0.0000 0.0000 0.2461 0.0000 0.0000
# 5 0.0000 0.0000 0.0000 0.0000 17.7338 0.0000
# 6 0.0000 0.0000 0.0000 0.0000 0.0000 10.0115
#
#
#
# Elastic Compliance Matrix: (Units=1/GPa)
#
#
# Indices 1 2 3 4 5 6 
#
# 1 0.018129 -0.004089 -0.008594 0.000000 0.000000 0.000000
# 2 -0.004089 0.057925 -0.012691 0.000000 0.000000 0.000000
# 3 -0.008594 -0.012691 0.015259 0.000000 0.000000 0.000000
# 4 0.000000 0.000000 0.000000 4.063332 0.000000 0.000000
# 5 0.000000 0.000000 0.000000 0.000000 0.056390 0.000000
# 6 0.000000 0.000000 0.000000 0.000000 0.000000 0.099885
#
#
# Mechanical properties :
#
#
# Convention : Reuss Voigt Hill
#
# Bulk Modulus (GPa) = 24.65153 56.89171 40.77162
# Shear Modulus (GPa) = 1.14281 14.04257 7.59269
#
# Velocity S-wave (km/s) = 0.83649 2.93223 2.15611
# Velocity P-wave (km/s) = 4.00331 6.80422 5.58229
#
# Compressibility (1/GPa) = 0.04056544
#
# Stress axis : x y z
#
# Youngs Moduli (GPa) = 55.16055 17.26359 65.53554
#
# Poissons Ratio (x) = 0.07059 0.56320
# Poissons Ratio (y) = 0.22554 0.83173
# Poissons Ratio (z) = 0.47404 0.21910
#
# Static dielectric constant tensor:
#      x y z
#    x 3.605230 0.000000 0.000000 
#    y 0.000000 2.705500 0.000000 
#    z 0.000000 0.000000 3.398630 
# 
# 
# High freq. dielectric constant tensor:
#      x y z
#    x 1.621910 0.000000 0.000000 
#    y 0.000000 1.580110 0.000000 
#    z 0.000000 0.000000 1.626170 
# 
# From -- ./inp_files/33699.got.cif
#   From: 2010.03.12/outbox.cif.g09.slc.cpg/sg51_17_cif.got.tgz:33699.got - 2010.04.16 13:43:02.
