data_PCOD8214711
_publ_section_title
;
Structure prediction by ZEFSAII (Michael W. Deem and Ramdas Pophale) SiO2 
 PCOD8214711
Probable space group: P M M A
;
_chemical_formula_sum "Si O2"
_cell_formula_units_Z 64
_cell_length_a 9.974652
_cell_length_b 14.968532
_cell_length_c 29.789732
_cell_angle_alpha 90.000000
_cell_angle_beta 90.000000
_cell_angle_gamma 90.000000
_cell_volume 4447.782677
_symmetry_space_group_name_H-M "P M M A"
_symmetry_group_IT_number 51
_symmetry_cell_setting 'orthorhombic'
loop_
_space_group_symop_operation_xyz
x,y,z
1/2-x,-y,z
1/2+x,-y,-z
-x,y,-z
-x,-y,-z
1/2+x,y,-z
1/2-x,y,z
x,-y,z
loop_
_atom_site_type_symbol
_atom_site_label
_atom_site_fract_x
_atom_site_fract_y
_atom_site_fract_z
Si Si1 0.900303 0.099114 0.783587
Si Si2 0.400105 0.606100 0.363292
Si Si3 0.903716 0.749146 0.111368
Si Si4 0.096164 0.602790 0.713325
Si Si5 0.403451 0.397625 0.960266
Si Si6 0.099687 0.606295 0.462958
Si Si7 0.403810 0.748626 0.785280
Si Si8 0.099842 0.900951 0.109821
O O1 0.750000 0.125342 0.768061
O O2 0.908148 0.097388 0.836890
O O3 0.005480 0.171610 0.765003
O O4 0.937049 0.000000 0.765237
O O5 0.250000 0.638933 0.350867
O O6 0.404383 0.500000 0.363577
O O7 0.505487 0.642557 0.326865
O O8 0.439929 0.640841 0.413095
O O9 0.750000 0.779513 0.106238
O O10 0.934306 0.659457 0.083997
O O11 0.939512 0.728355 0.163018
O O12 0.994309 0.828935 0.091094
O O13 0.250000 0.612677 0.698067
O O14 0.060500 0.500000 0.724110
O O15 0.066079 0.658219 0.758238
O O16 0.250000 0.385154 0.976166
O O17 0.433929 0.500000 0.947562
O O18 0.500000 0.364643 0.000000
O O19 0.250000 0.637611 0.474834
O O20 0.091233 0.500000 0.463895
O O21 0.000000 0.648335 0.500000
O O22 0.250000 0.778788 0.779976
O O23 0.250000 0.874374 0.094281
O O24 0.063527 0.000000 0.091390
#
# Coordination Sequence:
#
# PCOD8214711 Si02
#       8
#     8   8   8   8   8   8   8   8
#     4   8  14  25  40  57  77 100 125 153 186 225
#     4   8  14  24  35  46  63  90 124 159 193 228
#     4   9  17  28  43  63  83 102 125 155 190 225
#     4   9  17  27  37  50  71 101 134 163 189 220
#     4   9  18  32  48  64  81 102 128 157 191 230
#     4   8  13  20  30  45  63  82 109 150 196 234
#     4   9  17  27  39  58  81 102 127 158 190 224
#     4   8  14  25  41  61  84 107 127 148 179 219
#
# _framework density 14.389193000000001
#
# number of rings (size 3 to 8) (size 9 to 14) (size 15 to 20)
#    0.000    3.500    0.000    1.500    0.000    2.500 
#    0.000    7.500    0.000    0.375    0.000    7.000 
#    0.000    0.000    0.000    0.000    0.000    0.625 
#
# Total GULP energy -793196.209814 kJ/mol
# GULP energy per Si atom -12393.690778 kJ/mol
# Density = 1.435644 g / cm^3
# Si number density = 14.389193 Si / 1000 Ang^3
#
#
#
# Elastic Constant Matrix: (Units=GPa)
#
#
# Indices 1 2 3 4 5 6 
#
# 1 88.3435 51.7672 52.6148 0.0000 0.0000 0.0000
# 2 51.7672 66.8780 37.9025 0.0000 0.0000 0.0000
# 3 52.6148 37.9025 67.6961 0.0000 0.0000 0.0000
# 4 0.0000 0.0000 0.0000 2.1094 0.0000 0.0000
# 5 0.0000 0.0000 0.0000 0.0000 22.8185 0.0000
# 6 0.0000 0.0000 0.0000 0.0000 0.0000 21.4125
#
#
#
# Elastic Compliance Matrix: (Units=1/GPa)
#
#
# Indices 1 2 3 4 5 6 
#
# 1 0.027360 -0.013368 -0.013780 0.000000 0.000000 0.000000
# 2 -0.013368 0.028435 -0.005530 0.000000 0.000000 0.000000
# 3 -0.013780 -0.005530 0.028578 0.000000 0.000000 0.000000
# 4 0.000000 0.000000 0.000000 0.474070 0.000000 0.000000
# 5 0.000000 0.000000 0.000000 0.000000 0.043824 0.000000
# 6 0.000000 0.000000 0.000000 0.000000 0.000000 0.046702
#
#
# Mechanical properties :
#
#
# Convention : Reuss Voigt Hill
#
# Bulk Modulus (GPa) = 52.58737 56.38738 54.48738
# Shear Modulus (GPa) = 6.93805 14.64363 10.79084
#
# Velocity S-wave (km/s) = 2.19822 3.19357 2.74145
# Velocity P-wave (km/s) = 6.56267 7.27124 6.92602
#
# Compressibility (1/GPa) = 0.01901597
#
# Stress axis : x y z
#
# Youngs Moduli (GPa) = 36.54983 35.16836 34.99186
#
# Poissons Ratio (x) = 0.47015 0.48218
# Poissons Ratio (y) = 0.48862 0.19351
# Poissons Ratio (z) = 0.50365 0.19448
#
# Static dielectric constant tensor:
#      x y z
#    x 3.034350 0.000000 0.000000 
#    y 0.000000 2.711640 0.000000 
#    z 0.000000 0.000000 2.719330 
# 
# 
# High freq. dielectric constant tensor:
#      x y z
#    x 1.559170 0.000000 0.000000 
#    y 0.000000 1.516670 0.000000 
#    z 0.000000 0.000000 1.521720 
# 
# From -- ./inp_files/37535.got.cif
#   From: 2010.03.12/outbox.cif.g09.slc.cpg/sg51_19_cif.got.tgz:37535.got - 2010.04.16 13:43:02.
