data_PCOD8214607
_publ_section_title
;
Structure prediction by ZEFSAII (Michael W. Deem and Ramdas Pophale) SiO2 
 PCOD8214607
Probable space group: P M M A
;
_chemical_formula_sum "Si O2"
_cell_formula_units_Z 64
_cell_length_a 9.236579
_cell_length_b 14.489319
_cell_length_c 28.725034
_cell_angle_alpha 90.000000
_cell_angle_beta 90.000000
_cell_angle_gamma 90.000000
_cell_volume 3844.321270
_symmetry_space_group_name_H-M "P M M A"
_symmetry_group_IT_number 51
_symmetry_cell_setting 'orthorhombic'
loop_
_space_group_symop_operation_xyz
x,y,z
1/2-x,-y,z
1/2+x,-y,-z
-x,y,-z
-x,-y,-z
1/2+x,y,-z
1/2-x,y,z
x,-y,z
loop_
_atom_site_type_symbol
_atom_site_label
_atom_site_fract_x
_atom_site_fract_y
_atom_site_fract_z
Si Si1 0.077907 0.215583 0.774270
Si Si2 0.081715 0.714788 0.453648
Si Si3 0.913245 0.890368 0.955773
Si Si4 0.083445 0.102980 0.404972
Si Si5 0.916092 0.107333 0.313946
Si Si6 0.919787 0.107104 0.136195
Si Si7 0.585131 0.608262 0.375036
Si Si8 0.421775 0.601036 0.730014
O O1 0.250000 0.207192 0.774768
O O2 0.016267 0.158698 0.730513
O O3 0.019511 0.170918 0.821951
O O4 0.026314 0.322044 0.767480
O O5 0.250000 0.690917 0.459376
O O6 0.056595 0.824720 0.446515
O O7 0.000000 0.682844 0.500000
O O8 0.021670 0.660036 0.409649
O O9 0.750000 0.850679 0.955814
O O10 0.994877 0.858977 0.909177
O O11 0.909859 0.000000 0.958850
O O12 0.000000 0.849739 0.000000
O O13 0.250000 0.100969 0.390272
O O14 0.997011 0.139077 0.360281
O O15 0.031810 0.000000 0.420471
O O16 0.750000 0.135325 0.321079
O O17 0.936332 0.000000 0.304443
O O18 0.750000 0.122069 0.127072
O O19 0.951448 0.000000 0.148061
O O20 0.750000 0.642787 0.382576
O O21 0.575113 0.500000 0.384954
O O22 0.532049 0.629741 0.322327
O O23 0.250000 0.594267 0.730270
O O24 0.486572 0.500000 0.743435
#
# Coordination Sequence:
#
# PCOD8214607 Si02
#       8
#     8   8   8   8   8   8   8   8
#     4   9  15  23  38  60  88 118 144 175 213 251
#     4  11  23  36  51  70  91 115 142 175 216 261
#     4   9  16  26  40  57  79 111 151 190 223 255
#     4   9  19  35  50  65  88 116 145 178 216 256
#     4   9  16  26  43  66  87 111 146 181 211 249
#     4   9  16  25  37  56  85 119 151 181 214 251
#     4   9  18  34  55  75  94 116 142 175 216 261
#     4   8  14  25  43  67  90 112 141 175 209 247
#
# _framework density 16.647932000000001
#
# number of rings (size 3 to 8) (size 9 to 14) (size 15 to 20)
#    0.000    2.875    0.000    2.625    0.000    5.750 
#    0.000    0.625    0.000    3.750    0.000    0.000 
#    0.000    0.500    0.000    0.875    0.000    1.250 
#
# Total GULP energy -793339.584821 kJ/mol
# GULP energy per Si atom -12395.931013 kJ/mol
# Density = 1.661004 g / cm^3
# Si number density = 16.647932 Si / 1000 Ang^3
#
#
#
# Elastic Constant Matrix: (Units=GPa)
#
#
# Indices 1 2 3 4 5 6 
#
# 1 58.8850 27.3634 41.2592 0.0000 0.0000 0.0000
# 2 27.3634 64.2616 53.1415 0.0000 0.0000 0.0000
# 3 41.2592 53.1415 106.4513 0.0000 0.0000 0.0000
# 4 0.0000 0.0000 0.0000 17.7800 0.0000 0.0000
# 5 0.0000 0.0000 0.0000 0.0000 23.1824 0.0000
# 6 0.0000 0.0000 0.0000 0.0000 0.0000 13.7881
#
#
#
# Elastic Compliance Matrix: (Units=1/GPa)
#
#
# Indices 1 2 3 4 5 6 
#
# 1 0.023992 -0.004302 -0.007151 0.000000 0.000000 0.000000
# 2 -0.004302 0.027274 -0.011948 0.000000 0.000000 0.000000
# 3 -0.007151 -0.011948 0.018130 0.000000 0.000000 0.000000
# 4 0.000000 0.000000 0.000000 0.056243 0.000000 0.000000
# 5 0.000000 0.000000 0.000000 0.000000 0.043136 0.000000
# 6 0.000000 0.000000 0.000000 0.000000 0.000000 0.072526
#
#
# Mechanical properties :
#
#
# Convention : Reuss Voigt Hill
#
# Bulk Modulus (GPa) = 44.26104 52.56957 48.41530
# Shear Modulus (GPa) = 16.91273 18.13903 17.52588
#
# Velocity S-wave (km/s) = 3.19079 3.30444 3.24811
# Velocity P-wave (km/s) = 6.34185 6.79742 6.57358
#
# Compressibility (1/GPa) = 0.02259323
#
# Stress axis : x y z
#
# Youngs Moduli (GPa) = 41.68001 36.66552 55.15684
#
# Poissons Ratio (x) = 0.15775 0.39445
# Poissons Ratio (y) = 0.17932 0.65900
# Poissons Ratio (z) = 0.29807 0.43807
#
# Static dielectric constant tensor:
#      x y z
#    x 2.965090 0.000000 0.000000 
#    y 0.000000 3.212320 0.000000 
#    z 0.000000 0.000000 3.123610 
# 
# 
# High freq. dielectric constant tensor:
#      x y z
#    x 1.617460 0.000000 0.000000 
#    y 0.000000 1.626020 0.000000 
#    z 0.000000 0.000000 1.629950 
# 
# From -- ./inp_files/37538.got.cif
#   From: 2010.03.12/outbox.cif.g09.slc.cpg/sg51_19_cif.got.tgz:37538.got - 2010.04.16 13:43:02.
