data_PCOD8214558
_publ_section_title
;
Structure prediction by ZEFSAII (Michael W. Deem and Ramdas Pophale) SiO2 
 PCOD8214558
Probable space group: P M M A
;
_chemical_formula_sum "Si O2"
_cell_formula_units_Z 36
_cell_length_a 10.093213
_cell_length_b 11.312408
_cell_length_c 18.478789
_cell_angle_alpha 90.000000
_cell_angle_beta 90.000000
_cell_angle_gamma 90.000000
_cell_volume 2109.881213
_symmetry_space_group_name_H-M "P M M A"
_symmetry_group_IT_number 51
_symmetry_cell_setting 'orthorhombic'
loop_
_space_group_symop_operation_xyz
x,y,z
1/2-x,-y,z
1/2+x,-y,-z
-x,y,-z
-x,-y,-z
1/2+x,y,-z
1/2-x,y,z
x,-y,z
loop_
_atom_site_type_symbol
_atom_site_label
_atom_site_fract_x
_atom_site_fract_y
_atom_site_fract_z
Si Si1 0.499230 0.258839 0.856156
Si Si2 0.750000 0.133016 0.918772
Si Si3 0.103402 0.140192 0.442617
Si Si4 0.750000 0.127172 0.088111
Si Si5 0.093802 0.864229 0.279343
Si Si6 0.414851 0.500000 0.924567
O O1 0.625847 0.211026 0.897540
O O2 0.378366 0.189334 0.886123
O O3 0.516888 0.230274 0.770861
O O4 0.466414 0.393756 0.874456
O O5 0.750000 0.000000 0.883066
O O6 0.750000 0.117709 0.003039
O O7 0.250000 0.191780 0.458823
O O8 0.059193 0.173018 0.361353
O O9 0.000000 0.195476 0.500000
O O10 0.108637 0.000000 0.450233
O O11 0.750000 0.000000 0.124648
O O12 0.250000 0.853281 0.264224
O O13 0.048756 0.000000 0.264318
O O14 0.250000 0.500000 0.936110
O O15 0.500000 0.500000 0.000000
#
# Coordination Sequence:
#
# PCOD8214558 Si02
#       6
#     8   4   8   4   8   4
#     4  12  23  38  58  79 110 143 188 234 278 331
#     4  11  22  37  59  83 108 141 179 222 281 348
#     4   8  14  26  45  72 108 146 180 211 254 320
#     4  11  22  35  53  81 110 139 173 228 289 336
#     4   9  17  32  54  80 112 147 181 222 272 330
#     4  12  28  46  62  78 105 146 195 246 287 332
#
# _framework density 17.062571999999999
#
# number of rings (size 3 to 8) (size 9 to 14) (size 15 to 20)
#    0.000    1.778    2.222    5.333    1.556    1.778 
#    2.000    0.000    0.000    0.000    0.000    0.778 
#    0.000    0.000    0.000    0.000    0.000    0.000 
#
# Total GULP energy -446012.327919 kJ/mol
# GULP energy per Si atom -12389.231331 kJ/mol
# Density = 1.702374 g / cm^3
# Si number density = 17.062572 Si / 1000 Ang^3
#
#
#
# Elastic Constant Matrix: (Units=GPa)
#
#
# Indices 1 2 3 4 5 6 
#
# 1 120.1637 54.9328 53.3154 0.0000 0.0000 0.0000
# 2 54.9328 112.8453 49.5514 0.0000 0.0000 0.0000
# 3 53.3154 49.5514 119.2300 0.0000 0.0000 0.0000
# 4 0.0000 0.0000 0.0000 10.6384 0.0000 0.0000
# 5 0.0000 0.0000 0.0000 0.0000 -14.1006 0.0000
# 6 0.0000 0.0000 0.0000 0.0000 0.0000 27.0565
#
#
#
# Elastic Compliance Matrix: (Units=1/GPa)
#
#
# Indices 1 2 3 4 5 6 
#
# 1 0.011809 -0.004196 -0.003537 0.000000 0.000000 0.000000
# 2 -0.004196 0.012330 -0.003248 0.000000 0.000000 0.000000
# 3 -0.003537 -0.003248 0.011319 0.000000 0.000000 0.000000
# 4 0.000000 0.000000 0.000000 0.093999 0.000000 0.000000
# 5 0.000000 0.000000 0.000000 0.000000 -0.070919 0.000000
# 6 0.000000 0.000000 0.000000 0.000000 0.000000 0.036960
#
#
# Mechanical properties :
#
#
# Convention : Reuss Voigt Hill
#
# Bulk Modulus (GPa) = 74.09274 74.20423 74.14848
# Shear Modulus (GPa) = 40.99722 17.68148 29.33935
#
# Velocity S-wave (km/s) = 4.90711 3.22261 4.15120
# Velocity P-wave (km/s) = 8.69625 7.57831 8.15646
#
# Compressibility (1/GPa) = 0.01349660
#
# Stress axis : x y z
#
# Youngs Moduli (GPa) = 84.67860 81.09979 88.34868
#
# Poissons Ratio (x) = 0.34026 0.31249
# Poissons Ratio (y) = 0.35528 0.28699
# Poissons Ratio (z) = 0.29951 0.26344
#
# Static dielectric constant tensor:
#      x y z
#    x 3.487410 0.000000 0.000000 
#    y 0.000000 3.013910 0.000000 
#    z 0.000000 0.000000 3.519850 
# 
# 
# High freq. dielectric constant tensor:
#      x y z
#    x 1.668010 0.000000 0.000000 
#    y 0.000000 1.623530 0.000000 
#    z 0.000000 0.000000 1.661970 
# 
# From -- ./inp_files/31329.got.cif
#   From: 2010.03.12/outbox.cif.g09.slc.cpg/sg51_16_cif.got.tgz:31329.got - 2010.04.16 13:43:02.
