data_PCOD8214451
_publ_section_title
;
Structure prediction by ZEFSAII (Michael W. Deem and Ramdas Pophale) SiO2 
 PCOD8214451
Probable space group: P M M A
;
_chemical_formula_sum "Si O2"
_cell_formula_units_Z 48
_cell_length_a 18.734048
_cell_length_b 8.902888
_cell_length_c 16.347130
_cell_angle_alpha 90.000000
_cell_angle_beta 90.000000
_cell_angle_gamma 90.000000
_cell_volume 2726.490915
_symmetry_space_group_name_H-M "P M M A"
_symmetry_group_IT_number 51
_symmetry_cell_setting 'orthorhombic'
loop_
_space_group_symop_operation_xyz
x,y,z
1/2-x,-y,z
1/2+x,-y,-z
-x,y,-z
-x,-y,-z
1/2+x,y,-z
1/2-x,y,z
x,-y,z
loop_
_atom_site_type_symbol
_atom_site_label
_atom_site_fract_x
_atom_site_fract_y
_atom_site_fract_z
Si Si1 0.328102 0.178216 0.156239
Si Si2 0.170077 0.176647 0.670427
Si Si3 0.898395 0.676669 0.178324
Si Si4 0.469349 0.176582 0.583180
Si Si5 0.465393 0.822937 0.248089
Si Si6 0.666585 0.171068 0.027313
O O1 0.250000 0.244075 0.180713
O O2 0.387036 0.234228 0.221173
O O3 0.323181 0.000000 0.156504
O O4 0.349183 0.228953 0.064658
O O5 0.250000 0.214428 0.638583
O O6 0.157687 0.254413 0.757432
O O7 0.110959 0.234642 0.604732
O O8 0.160045 0.000000 0.685081
O O9 0.898276 0.500000 0.188994
O O10 0.875984 0.719774 0.087084
O O11 0.977384 0.738937 0.192627
O O12 0.500000 0.252456 0.500000
O O13 0.523070 0.218477 0.656776
O O14 0.465300 0.000000 0.569998
O O15 0.474850 0.000000 0.233680
O O16 0.750000 0.181629 0.046584
O O17 0.639937 0.000000 0.039298
#
# Coordination Sequence:
#
# PCOD8214451 Si02
#       6
#     8   8   8   8   8   8
#     4   8  15  29  49  70  88 112 153 197 227 259
#     4   9  17  30  48  68  92 124 158 188 224 274
#     4  11  21  30  43  66  95 122 152 191 230 270
#     4   8  14  26  45  69  95 120 146 180 223 269
#     4   9  17  31  50  68  90 122 155 186 225 274
#     4   9  17  30  47  65  88 119 153 188 227 271
#
# _framework density 17.605046999999999
#
# number of rings (size 3 to 8) (size 9 to 14) (size 15 to 20)
#    0.000    3.000    0.000    4.000    0.000    3.333 
#    0.000    5.000    0.000   14.500    0.000    0.000 
#    0.000    0.000    0.000    0.000    0.000    0.000 
#
# Total GULP energy -594951.972038 kJ/mol
# GULP energy per Si atom -12394.832751 kJ/mol
# Density = 1.756498 g / cm^3
# Si number density = 17.605047 Si / 1000 Ang^3
#
#
#
# Elastic Constant Matrix: (Units=GPa)
#
#
# Indices 1 2 3 4 5 6 
#
# 1 142.8789 31.1250 90.1670 0.0000 0.0000 0.0000
# 2 31.1250 41.4570 23.4159 0.0000 0.0000 0.0000
# 3 90.1670 23.4159 121.6902 0.0000 0.0000 0.0000
# 4 0.0000 0.0000 0.0000 1.6431 0.0000 0.0000
# 5 0.0000 0.0000 0.0000 0.0000 25.4172 0.0000
# 6 0.0000 0.0000 0.0000 0.0000 0.0000 3.4981
#
#
#
# Elastic Compliance Matrix: (Units=1/GPa)
#
#
# Indices 1 2 3 4 5 6 
#
# 1 0.014098 -0.005255 -0.009434 0.000000 0.000000 0.000000
# 2 -0.005255 0.029022 -0.001690 0.000000 0.000000 0.000000
# 3 -0.009434 -0.001690 0.015533 0.000000 0.000000 0.000000
# 4 0.000000 0.000000 0.000000 0.608595 0.000000 0.000000
# 5 0.000000 0.000000 0.000000 0.000000 0.039343 0.000000
# 6 0.000000 0.000000 0.000000 0.000000 0.000000 0.285873
#
#
# Mechanical properties :
#
#
# Convention : Reuss Voigt Hill
#
# Bulk Modulus (GPa) = 38.62159 66.16021 52.39090
# Shear Modulus (GPa) = 4.83627 16.86623 10.85125
#
# Velocity S-wave (km/s) = 1.65923 3.09857 2.48538
# Velocity P-wave (km/s) = 5.06519 7.10376 6.16926
#
# Compressibility (1/GPa) = 0.02589226
#
# Stress axis : x y z
#
# Youngs Moduli (GPa) = 70.93417 34.45686 64.37756
#
# Poissons Ratio (x) = 0.18108 0.60737
# Poissons Ratio (y) = 0.37278 0.10883
# Poissons Ratio (z) = 0.66922 0.05825
#
# Static dielectric constant tensor:
#      x y z
#    x 3.646270 0.000000 0.000000 
#    y 0.000000 2.839480 0.000000 
#    z 0.000000 0.000000 3.371930 
# 
# 
# High freq. dielectric constant tensor:
#      x y z
#    x 1.685360 0.000000 0.000000 
#    y 0.000000 1.636430 0.000000 
#    z 0.000000 0.000000 1.669770 
# 
# From -- ./inp_files/25502.got.cif
#   From: 2010.03.12/outbox.cif.g09.slc.cpg/sg51_13_cif.got.tgz:25502.got - 2010.04.16 13:43:02.
