data_PCOD8214876
_publ_section_title
;
Structure prediction by ZEFSAII (Michael W. Deem and Ramdas Pophale) SiO2 
 PCOD8214876
Probable space group: P M M A
;
_chemical_formula_sum "Si O2"
_cell_formula_units_Z 64
_cell_length_a 10.003344
_cell_length_b 18.058430
_cell_length_c 22.485310
_cell_angle_alpha 90.000000
_cell_angle_beta 90.000000
_cell_angle_gamma 90.000000
_cell_volume 4061.851796
_symmetry_space_group_name_H-M "P M M A"
_symmetry_group_IT_number 51
_symmetry_cell_setting 'orthorhombic'
loop_
_space_group_symop_operation_xyz
x,y,z
1/2-x,-y,z
1/2+x,-y,-z
-x,y,-z
-x,-y,-z
1/2+x,y,-z
1/2-x,y,z
x,-y,z
loop_
_atom_site_type_symbol
_atom_site_label
_atom_site_fract_x
_atom_site_fract_y
_atom_site_fract_z
Si Si1 0.905285 0.415797 0.555774
Si Si2 0.396661 0.715457 0.954223
Si Si3 0.401899 0.211010 0.730387
Si Si4 0.406776 0.916173 0.816919
Si Si5 0.604087 0.581059 0.763348
Si Si6 0.397881 0.337103 0.828127
Si Si7 0.400250 0.888179 0.950258
Si Si8 0.901443 0.696910 0.658935
O O1 0.750000 0.406426 0.537503
O O2 0.927691 0.500000 0.580664
O O3 0.946787 0.351428 0.602116
O O4 0.000000 0.402047 0.500000
O O5 0.250000 0.680513 0.964926
O O6 0.448430 0.701203 0.888009
O O7 0.388735 0.802354 0.964097
O O8 0.500000 0.678283 0.000000
O O9 0.250000 0.196208 0.706749
O O10 0.462710 0.139250 0.765585
O O11 0.399848 0.276944 0.776799
O O12 0.497748 0.234624 0.674529
O O13 0.250000 0.900362 0.820164
O O14 0.461634 0.901966 0.883950
O O15 0.441088 0.000000 0.797304
O O16 0.750000 0.585964 0.793379
O O17 0.579497 0.500000 0.735644
O O18 0.495874 0.595356 0.814311
O O19 0.592707 0.639859 0.712050
O O20 0.250000 0.370313 0.835338
O O21 0.250000 0.923314 0.955057
O O22 0.500000 0.923826 0.000000
O O23 0.750000 0.727926 0.650775
#
# Coordination Sequence:
#
# PCOD8214876 Si02
#       8
#     8   8   8   8   8   8   8   8
#     4   9  17  29  45  66  95 129 159 183 207 241
#     4   9  16  26  40  57  76  98 127 165 206 249
#     4   9  16  28  44  62  83 108 144 183 213 247
#     4   9  16  27  44  62  83 114 146 176 216 265
#     4   9  17  28  42  61  83 106 134 167 203 245
#     4   9  16  27  42  58  78 102 129 167 211 249
#     4   9  16  27  41  58  80 107 138 172 211 258
#     4   9  17  29  45  64  88 119 148 175 209 245
#
# _framework density 15.756360000000001
#
# number of rings (size 3 to 8) (size 9 to 14) (size 15 to 20)
#    0.000    3.000    1.250    0.375    0.000    3.000 
#    0.000    0.625    0.000    3.750    0.000    0.000 
#    0.000    0.500    0.000    1.125    0.000    1.750 
#
# Total GULP energy -792847.053460 kJ/mol
# GULP energy per Si atom -12388.235210 kJ/mol
# Density = 1.572050 g / cm^3
# Si number density = 15.756360 Si / 1000 Ang^3
#
#
#
# Elastic Constant Matrix: (Units=GPa)
#
#
# Indices 1 2 3 4 5 6 
#
# 1 68.6865 32.4849 43.2047 0.0000 0.0000 0.0000
# 2 32.4849 55.7579 27.5946 0.0000 0.0000 0.0000
# 3 43.2047 27.5946 69.4167 0.0000 0.0000 0.0000
# 4 0.0000 0.0000 0.0000 13.8524 0.0000 0.0000
# 5 0.0000 0.0000 0.0000 0.0000 25.8089 0.0000
# 6 0.0000 0.0000 0.0000 0.0000 0.0000 232.5704
#
#
#
# Elastic Compliance Matrix: (Units=1/GPa)
#
#
# Indices 1 2 3 4 5 6 
#
# 1 0.027350 -0.009349 -0.013306 0.000000 0.000000 0.000000
# 2 -0.009349 0.025523 -0.004327 0.000000 0.000000 0.000000
# 3 -0.013306 -0.004327 0.024408 0.000000 0.000000 0.000000
# 4 0.000000 0.000000 0.000000 0.072190 0.000000 0.000000
# 5 0.000000 0.000000 0.000000 0.000000 0.038746 0.000000
# 6 0.000000 0.000000 0.000000 0.000000 0.000000 0.004300
#
#
# Mechanical properties :
#
#
# Convention : Reuss Voigt Hill
#
# Bulk Modulus (GPa) = 42.88899 44.49216 43.69058
# Shear Modulus (GPa) = 19.66540 60.48481 40.07510
#
# Velocity S-wave (km/s) = 3.53667 6.20249 5.04871
# Velocity P-wave (km/s) = 6.62998 8.92151 7.85971
#
# Compressibility (1/GPa) = 0.02331600
#
# Stress axis : x y z
#
# Youngs Moduli (GPa) = 36.56261 39.18031 40.97092
#
# Poissons Ratio (x) = 0.36631 0.54517
# Poissons Ratio (y) = 0.34183 0.17728
# Poissons Ratio (z) = 0.48651 0.16953
#
# Static dielectric constant tensor:
#      x y z
#    x 3.448130 0.000000 0.000000 
#    y 0.000000 2.903930 0.000000 
#    z 0.000000 0.000000 2.895200 
# 
# 
# High freq. dielectric constant tensor:
#      x y z
#    x 1.599190 0.000000 0.000000 
#    y 0.000000 1.581290 0.000000 
#    z 0.000000 0.000000 1.578220 
# 
# From -- ./inp_files/32594.got.cif
#   From: 2010.03.12/outbox.cif.g09.slc.cpg/sg51_17_cif.got.tgz:32594.got - 2010.04.16 13:43:02.
