data_PCOD8214503
_publ_section_title
;
Structure prediction by ZEFSAII (Michael W. Deem and Ramdas Pophale) SiO2 
 PCOD8214503
Probable space group: P M M A
;
_chemical_formula_sum "Si O2"
_cell_formula_units_Z 48
_cell_length_a 8.735137
_cell_length_b 30.884892
_cell_length_c 9.606038
_cell_angle_alpha 90.000000
_cell_angle_beta 90.000000
_cell_angle_gamma 90.000000
_cell_volume 2591.553078
_symmetry_space_group_name_H-M "P M M A"
_symmetry_group_IT_number 51
_symmetry_cell_setting 'orthorhombic'
loop_
_space_group_symop_operation_xyz
x,y,z
1/2-x,-y,z
1/2+x,-y,-z
-x,y,-z
-x,-y,-z
1/2+x,y,-z
1/2-x,y,z
x,-y,z
loop_
_atom_site_type_symbol
_atom_site_label
_atom_site_fract_x
_atom_site_fract_y
_atom_site_fract_z
Si Si1 0.929139 0.215937 0.650793
Si Si2 0.929697 0.548640 0.643565
Si Si3 0.568623 0.623793 0.846716
Si Si4 0.428494 0.878674 0.349848
Si Si5 0.568414 0.302355 0.345129
Si Si6 0.069361 0.951570 0.147765
O O1 0.750000 0.227208 0.642126
O O2 0.957971 0.168819 0.721407
O O3 0.000000 0.211370 0.500000
O O4 0.016751 0.256158 0.722980
O O5 0.750000 0.549071 0.622422
O O6 0.990248 0.500000 0.674329
O O7 0.977556 0.578722 0.772615
O O8 0.000000 0.566828 0.500000
O O9 0.750000 0.630247 0.854248
O O10 0.495495 0.661752 0.757285
O O11 0.500000 0.623527 0.000000
O O12 0.500000 0.882798 0.500000
O O13 0.250000 0.886133 0.369593
O O14 0.499502 0.916372 0.254210
O O15 0.500000 0.308119 0.500000
O O16 0.750000 0.305460 0.353530
O O17 0.250000 0.947165 0.135781
O O18 0.022005 0.000000 0.196331
O O19 0.000000 0.940315 0.000000
#
# Coordination Sequence:
#
# PCOD8214503 Si02
#       6
#     8   8   8   8   8   8
#     4   9  16  29  49  73 101 131 166 208 255 303
#     4   9  19  36  58  83 109 138 175 217 258 304
#     4  11  23  38  55  78 110 144 178 217 263 311
#     4   9  18  31  49  74 102 130 162 206 254 301
#     4  11  21  35  56  80 105 136 176 217 259 307
#     4   9  18  33  50  69  96 130 167 205 246 295
#
# _framework density 18.521711
#
# number of rings (size 3 to 8) (size 9 to 14) (size 15 to 20)
#    0.000    2.333    0.000    4.000    0.000    4.667 
#    0.000    0.833    0.000    2.000    0.000    0.000 
#    0.000    0.000    0.000    0.000    0.000    0.000 
#
# Total GULP energy -594918.003284 kJ/mol
# GULP energy per Si atom -12394.125068 kJ/mol
# Density = 1.847955 g / cm^3
# Si number density = 18.521711 Si / 1000 Ang^3
#
#
#
# Elastic Constant Matrix: (Units=GPa)
#
#
# Indices 1 2 3 4 5 6 
#
# 1 78.4173 58.2528 47.6531 0.0000 0.0000 0.0000
# 2 58.2528 164.0166 91.1190 0.0000 0.0000 0.0000
# 3 47.6531 91.1190 113.8267 0.0000 0.0000 0.0000
# 4 0.0000 0.0000 0.0000 -5.0063 0.0000 0.0000
# 5 0.0000 0.0000 0.0000 0.0000 28.5805 0.0000
# 6 0.0000 0.0000 0.0000 0.0000 0.0000 -48.6637
#
#
#
# Elastic Compliance Matrix: (Units=1/GPa)
#
#
# Indices 1 2 3 4 5 6 
#
# 1 0.018509 -0.004086 -0.004478 0.000000 0.000000 0.000000
# 2 -0.004086 0.011882 -0.007801 0.000000 0.000000 0.000000
# 3 -0.004478 -0.007801 0.016905 0.000000 0.000000 0.000000
# 4 0.000000 0.000000 0.000000 -0.199750 0.000000 0.000000
# 5 0.000000 0.000000 0.000000 0.000000 0.034989 0.000000
# 6 0.000000 0.000000 0.000000 0.000000 0.000000 -0.020549
#
#
# Mechanical properties :
#
#
# Convention : Reuss Voigt Hill
#
# Bulk Modulus (GPa) = 68.65396 83.36783 76.01089
# Shear Modulus (GPa) = -49.78591 5.59781 -22.09405
#
# Velocity S-wave (km/s) = -5.19019 1.74036 -3.45755
# Velocity P-wave (km/s) = 1.10893 7.01050 5.01880
#
# Compressibility (1/GPa) = 0.01456580
#
# Stress axis : x y z
#
# Youngs Moduli (GPa) = 54.02880 84.16095 59.15554
#
# Poissons Ratio (x) = 0.34389 0.26488
# Poissons Ratio (y) = 0.22077 0.46147
# Poissons Ratio (z) = 0.24192 0.65654
#
# Static dielectric constant tensor:
#      x y z
#    x 3.424480 0.000000 0.000000 
#    y 0.000000 4.319930 0.000000 
#    z 0.000000 0.000000 3.202610 
# 
# 
# High freq. dielectric constant tensor:
#      x y z
#    x 1.722660 0.000000 0.000000 
#    y 0.000000 1.742560 0.000000 
#    z 0.000000 0.000000 1.687860 
# 
# From -- ./inp_files/6054.got.cif
#   From: 2010.03.12/outbox.cif.g09.slc.cpg/sg51_4_cif.got.tgz:6054.got - 2010.04.16 13:43:02.
