data_PCOD8214814
_publ_section_title
;
Structure prediction by ZEFSAII (Michael W. Deem and Ramdas Pophale) SiO2 
 PCOD8214814
Probable space group: P M M A
;
_chemical_formula_sum "Si O2"
_cell_formula_units_Z 48
_cell_length_a 9.106173
_cell_length_b 9.905019
_cell_length_c 31.003904
_cell_angle_alpha 90.000000
_cell_angle_beta 90.000000
_cell_angle_gamma 90.000000
_cell_volume 2796.453442
_symmetry_space_group_name_H-M "P M M A"
_symmetry_group_IT_number 51
_symmetry_cell_setting 'orthorhombic'
loop_
_space_group_symop_operation_xyz
x,y,z
1/2-x,-y,z
1/2+x,-y,-z
-x,y,-z
-x,-y,-z
1/2+x,y,-z
1/2-x,y,z
x,-y,z
loop_
_atom_site_type_symbol
_atom_site_label
_atom_site_fract_x
_atom_site_fract_y
_atom_site_fract_z
Si Si1 0.424469 0.348801 0.713610
Si Si2 0.584409 0.160580 0.874195
Si Si3 0.077271 0.844311 0.788421
Si Si4 0.077334 0.845206 0.543637
Si Si5 0.416053 0.838969 0.957861
Si Si6 0.924483 0.348673 0.382111
O O1 0.250000 0.343817 0.713491
O O2 0.477765 0.500000 0.725653
O O3 0.485268 0.242304 0.748377
O O4 0.482479 0.309612 0.665757
O O5 0.750000 0.217325 0.874610
O O6 0.502988 0.209868 0.831103
O O7 0.498273 0.218155 0.915632
O O8 0.584677 0.000000 0.875972
O O9 0.250000 0.823701 0.795422
O O10 0.039334 0.000000 0.778963
O O11 0.250000 0.823947 0.537752
O O12 0.012689 0.755996 0.582835
O O13 0.000000 0.796306 0.500000
O O14 0.038159 0.000000 0.554000
O O15 0.250000 0.783572 0.958289
O O16 0.416044 0.000000 0.957502
O O17 0.500000 0.784272 0.000000
O O18 0.750000 0.341849 0.382078
O O19 0.976789 0.500000 0.394066
#
# Coordination Sequence:
#
# PCOD8214814 Si02
#       6
#     8   8   8   8   8   8
#     4   8  14  25  41  61  84 107 132 167 210 250
#     4   9  16  25  36  51  75 107 139 170 206 248
#     4   9  16  25  39  60  82 103 131 168 206 243
#     4   9  17  28  42  61  85 111 138 169 205 244
#     4   9  15  22  33  50  74 105 140 175 211 252
#     4   8  14  25  41  61  83 106 134 169 207 245
#
# _framework density 17.164598999999999
#
# number of rings (size 3 to 8) (size 9 to 14) (size 15 to 20)
#    0.000    3.333    0.000    2.000    0.000    5.000 
#    0.000    3.333    0.000    1.500    0.000    7.000 
#    0.000    0.667    0.000    1.833    0.000    3.333 
#
# Total GULP energy -594977.972751 kJ/mol
# GULP energy per Si atom -12395.374432 kJ/mol
# Density = 1.712553 g / cm^3
# Si number density = 17.164599 Si / 1000 Ang^3
#
#
#
# Elastic Constant Matrix: (Units=GPa)
#
#
# Indices 1 2 3 4 5 6 
#
# 1 62.1997 24.6475 54.0646 0.0000 0.0000 0.0000
# 2 24.6475 59.8985 76.2866 0.0000 0.0000 0.0000
# 3 54.0646 76.2866 190.6194 0.0000 0.0000 0.0000
# 4 0.0000 0.0000 0.0000 8.2027 0.0000 0.0000
# 5 0.0000 0.0000 0.0000 0.0000 24.8753 0.0000
# 6 0.0000 0.0000 0.0000 0.0000 0.0000 7.1527
#
#
#
# Elastic Compliance Matrix: (Units=1/GPa)
#
#
# Indices 1 2 3 4 5 6 
#
# 1 0.021479 -0.002202 -0.005211 0.000000 0.000000 0.000000
# 2 -0.002202 0.034276 -0.013093 0.000000 0.000000 0.000000
# 3 -0.005211 -0.013093 0.011964 0.000000 0.000000 0.000000
# 4 0.000000 0.000000 0.000000 0.121911 0.000000 0.000000
# 5 0.000000 0.000000 0.000000 0.000000 0.040201 0.000000
# 6 0.000000 0.000000 0.000000 0.000000 0.000000 0.139807
#
#
# Mechanical properties :
#
#
# Convention : Reuss Voigt Hill
#
# Bulk Modulus (GPa) = 37.44240 69.19056 53.31648
# Shear Modulus (GPa) = 11.91751 18.56074 15.23913
#
# Velocity S-wave (km/s) = 2.63783 3.29194 2.98287
# Velocity P-wave (km/s) = 5.58020 7.40586 6.55688
#
# Compressibility (1/GPa) = 0.02670769
#
# Stress axis : x y z
#
# Youngs Moduli (GPa) = 46.55697 29.17493 83.58557
#
# Poissons Ratio (x) = 0.06424 0.43555
# Poissons Ratio (y) = 0.10251 1.09437
# Poissons Ratio (z) = 0.24260 0.38198
#
# Static dielectric constant tensor:
#      x y z
#    x 2.953640 0.000000 0.000000 
#    y 0.000000 2.957490 0.000000 
#    z 0.000000 0.000000 3.565040 
# 
# 
# High freq. dielectric constant tensor:
#      x y z
#    x 1.630980 0.000000 0.000000 
#    y 0.000000 1.618330 0.000000 
#    z 0.000000 0.000000 1.678260 
# 
# From -- ./inp_files/34536.got.cif
#   From: 2010.03.12/outbox.cif.g09.slc.cpg/sg51_18_cif.got.tgz:34536.got - 2010.04.16 13:43:02.
