data_PCOD8214618
_publ_section_title
;
Structure prediction by ZEFSAII (Michael W. Deem and Ramdas Pophale) SiO2 
 PCOD8214618
Probable space group: P M M A
;
_chemical_formula_sum "Si O2"
_cell_formula_units_Z 40
_cell_length_a 9.381849
_cell_length_b 14.831899
_cell_length_c 14.791148
_cell_angle_alpha 90.000000
_cell_angle_beta 90.000000
_cell_angle_gamma 90.000000
_cell_volume 2058.197663
_symmetry_space_group_name_H-M "P M M A"
_symmetry_group_IT_number 51
_symmetry_cell_setting 'orthorhombic'
loop_
_space_group_symop_operation_xyz
x,y,z
1/2-x,-y,z
1/2+x,-y,-z
-x,y,-z
-x,-y,-z
1/2+x,y,-z
1/2-x,y,z
x,-y,z
loop_
_atom_site_type_symbol
_atom_site_label
_atom_site_fract_x
_atom_site_fract_y
_atom_site_fract_z
Si Si1 0.919211 0.099722 0.278529
Si Si2 0.092797 0.607065 0.080759
Si Si3 0.079514 0.261097 0.594391
Si Si4 0.907308 0.107001 0.080869
Si Si5 0.914938 0.394158 0.717649
O O1 0.750000 0.095572 0.271176
O O2 0.968238 0.170497 0.353645
O O3 0.976314 0.129854 0.179187
O O4 0.978028 0.000000 0.304668
O O5 0.250000 0.647008 0.068797
O O6 0.096792 0.500000 0.071993
O O7 0.035234 0.632335 0.180613
O O8 0.000000 0.650141 0.000000
O O9 0.250000 0.268488 0.582148
O O10 0.000000 0.258129 0.500000
O O11 0.022364 0.346668 0.649063
O O12 0.750000 0.149301 0.072630
O O13 0.898684 0.000000 0.070791
O O14 0.000000 0.149849 0.000000
O O15 0.750000 0.365393 0.701679
O O16 0.930985 0.500000 0.701187
#
# Coordination Sequence:
#
# PCOD8214618 Si02
#       5
#     8   8   8   8   8
#     4   8  16  33  55  77 104 139 174 208 253 310
#     4   8  14  26  47  75 105 137 171 207 249 298
#     4  11  23  38  57  79 103 133 173 222 272 320
#     4   8  13  24  45  72 101 133 168 204 243 292
#     4   9  19  37  58  79 107 142 177 215 260 309
#
# _framework density 19.434479
#
# number of rings (size 3 to 8) (size 9 to 14) (size 15 to 20)
#    0.000    3.200    0.000    3.000    0.000    2.000 
#    0.000    5.000    0.000    9.000    0.000    0.000 
#    0.000    0.000    0.000    0.000    0.000    0.000 
#
# Total GULP energy -495707.104997 kJ/mol
# GULP energy per Si atom -12392.677625 kJ/mol
# Density = 1.939025 g / cm^3
# Si number density = 19.434479 Si / 1000 Ang^3
#
#
#
# Elastic Constant Matrix: (Units=GPa)
#
#
# Indices 1 2 3 4 5 6 
#
# 1 84.9018 36.6849 77.1161 0.0000 0.0000 0.0000
# 2 36.6849 61.1366 56.5957 0.0000 0.0000 0.0000
# 3 77.1161 56.5957 185.3828 0.0000 0.0000 0.0000
# 4 0.0000 0.0000 0.0000 119.6689 0.0000 0.0000
# 5 0.0000 0.0000 0.0000 0.0000 36.5562 0.0000
# 6 0.0000 0.0000 0.0000 0.0000 0.0000 15.0425
#
#
#
# Elastic Compliance Matrix: (Units=1/GPa)
#
#
# Indices 1 2 3 4 5 6 
#
# 1 0.020456 -0.006130 -0.006638 0.000000 0.000000 0.000000
# 2 -0.006130 0.024637 -0.004972 0.000000 0.000000 0.000000
# 3 -0.006638 -0.004972 0.009673 0.000000 0.000000 0.000000
# 4 0.000000 0.000000 0.000000 0.008356 0.000000 0.000000
# 5 0.000000 0.000000 0.000000 0.000000 0.027355 0.000000
# 6 0.000000 0.000000 0.000000 0.000000 0.000000 0.066478
#
#
# Mechanical properties :
#
#
# Convention : Reuss Voigt Hill
#
# Bulk Modulus (GPa) = 51.84565 74.69051 63.26808
# Shear Modulus (GPa) = 25.14268 44.98851 35.06560
#
# Velocity S-wave (km/s) = 3.60073 4.81654 4.25231
# Velocity P-wave (km/s) = 6.63491 8.33352 7.53225
#
# Compressibility (1/GPa) = 0.01928802
#
# Stress axis : x y z
#
# Youngs Moduli (GPa) = 48.88482 40.58873 103.37604
#
# Poissons Ratio (x) = 0.24879 0.68622
# Poissons Ratio (y) = 0.29965 0.51396
# Poissons Ratio (z) = 0.32450 0.20180
#
# Static dielectric constant tensor:
#      x y z
#    x 3.562400 0.000000 0.000000 
#    y 0.000000 3.354490 0.000000 
#    z 0.000000 0.000000 3.764880 
# 
# 
# High freq. dielectric constant tensor:
#      x y z
#    x 1.733120 0.000000 0.000000 
#    y 0.000000 1.737810 0.000000 
#    z 0.000000 0.000000 1.764790 
# 
# From -- ./inp_files/20507.got.cif
#   From: 2010.03.12/outbox.cif.g09.slc.cpg/sg51_11_cif.got.tgz:20507.got - 2010.04.16 13:43:02.
