data_PCOD8214933
_publ_section_title
;
Structure prediction by ZEFSAII (Michael W. Deem and Ramdas Pophale) SiO2 
 PCOD8214933
Probable space group: P N N A
;
_chemical_formula_sum "Si O2"
_cell_formula_units_Z 56
_cell_length_a 5.269887
_cell_length_b 24.737415
_cell_length_c 27.970985
_cell_angle_alpha 90.000000
_cell_angle_beta 90.000000
_cell_angle_gamma 90.000000
_cell_volume 3646.392195
_symmetry_space_group_name_H-M "P N N A"
_symmetry_group_IT_number 52
_symmetry_cell_setting 'orthorhombic'
loop_
_space_group_symop_operation_xyz
x,y,z
1/2-x,-y,z
x,1/2-y,1/2-z
1/2-x,1/2+y,1/2-z
-x,-y,-z
1/2+x,y,-z
-x,1/2+y,1/2+z
1/2+x,1/2-y,1/2+z
loop_
_atom_site_type_symbol
_atom_site_label
_atom_site_fract_x
_atom_site_fract_y
_atom_site_fract_z
Si Si1 0.250000 0.500000 0.108606
Si Si2 0.788254 0.191719 0.226538
Si Si3 0.750000 0.000000 0.333680
Si Si4 0.261447 0.329943 0.135424
Si Si5 0.135551 0.437573 0.021289
Si Si6 0.697639 0.184872 0.523032
Si Si7 0.788929 0.224765 0.802069
Si Si8 0.237092 0.879615 0.681209
O O1 0.498252 0.485378 0.137518
O O2 0.179452 0.446634 0.077729
O O3 0.832200 0.250000 0.250000
O O4 0.549487 0.190685 0.189917
O O5 0.751669 0.147501 0.267234
O O6 0.049444 0.183376 0.196494
O O7 0.787975 0.056416 0.305566
O O8 0.251591 0.316037 0.079401
O O9 0.259529 0.271425 0.159465
O O10 0.514214 0.363307 0.150186
O O11 0.012148 0.362740 0.151497
O O12 0.142445 0.375773 0.005266
O O13 0.375195 0.465822 0.995240
O O14 0.432095 0.213085 0.506009
O O15 0.832220 0.250000 0.750000
#
# Coordination Sequence:
#
# PCOD8214933 Si02
#       8
#     4   8   4   8   8   8   8   8
#     4  12  22  37  44  58  78  98 152 186 226 261
#     4  10  16  30  47  70  90 103 129 179 223 260
#     4  12  26  33  42  62  88 118 140 170 208 287
#     4  12  20  32  54  65  85 117 139 189 232 258
#     4  10  19  32  48  58  69  97 139 191 232 255
#     4  10  21  33  42  60  84 109 145 176 216 272
#     4  10  16  29  47  76  87  98 135 173 237 259
#     4  12  21  33  48  66  90 114 144 176 231 264
#
# _framework density 15.357646000000001
#
# number of rings (size 3 to 8) (size 9 to 14) (size 15 to 20)
#    0.000    1.143    5.714    4.714    0.000    2.286 
#    0.000    0.000    0.000    0.000    0.000    0.000 
#    0.000    0.000    0.000    0.000    0.000    0.000 
#
# Total GULP energy -693739.854714 kJ/mol
# GULP energy per Si atom -12388.211691 kJ/mol
# Density = 1.532269 g / cm^3
# Si number density = 15.357646 Si / 1000 Ang^3
#
#
#
# Elastic Constant Matrix: (Units=GPa)
#
#
# Indices 1 2 3 4 5 6 
#
# 1 138.7065 18.7736 24.9046 0.0000 0.0000 0.0000
# 2 18.7736 50.4525 34.1502 0.0000 0.0000 0.0000
# 3 24.9046 34.1502 48.2872 0.0000 0.0000 0.0000
# 4 0.0000 0.0000 0.0000 15.8463 0.0000 0.0000
# 5 0.0000 0.0000 0.0000 0.0000 6.9272 0.0000
# 6 0.0000 0.0000 0.0000 0.0000 0.0000 12.1227
#
#
#
# Elastic Compliance Matrix: (Units=1/GPa)
#
#
# Indices 1 2 3 4 5 6 
#
# 1 0.007948 -0.000351 -0.003852 0.000000 0.000000 0.000000
# 2 -0.000351 0.038038 -0.026721 0.000000 0.000000 0.000000
# 3 -0.003852 -0.026721 0.041593 0.000000 0.000000 0.000000
# 4 0.000000 0.000000 0.000000 0.063106 0.000000 0.000000
# 5 0.000000 0.000000 0.000000 0.000000 0.144358 0.000000
# 6 0.000000 0.000000 0.000000 0.000000 0.000000 0.082490
#
#
# Mechanical properties :
#
#
# Convention : Reuss Voigt Hill
#
# Bulk Modulus (GPa) = 38.85881 43.67809 41.26845
# Shear Modulus (GPa) = 11.16179 17.62043 14.39111
#
# Velocity S-wave (km/s) = 2.69883 3.39091 3.06447
# Velocity P-wave (km/s) = 5.92192 6.62068 6.28102
#
# Compressibility (1/GPa) = 0.02573419
#
# Stress axis : x y z
#
# Youngs Moduli (GPa) = 125.81048 26.28976 24.04224
#
# Poissons Ratio (x) = 0.00922 0.09260
# Poissons Ratio (y) = 0.04412 0.64242
# Poissons Ratio (z) = 0.48456 0.70248
#
# Static dielectric constant tensor:
#      x y z
#    x 4.079790 0.000000 0.000000 
#    y 0.000000 2.768670 0.000000 
#    z 0.000000 0.000000 2.518320 
# 
# 
# High freq. dielectric constant tensor:
#      x y z
#    x 1.636240 0.000000 0.000000 
#    y 0.000000 1.540670 0.000000 
#    z 0.000000 0.000000 1.547220 
# 
# From -- ./inp_files/41851.got.cif
#   From: 2010.06.25/outbox.cif.g09.slc.cpg/sg52_21_cif.got.tgz:41851.got - 2010.06.26 19:32:48.
