data_PCOD8214142
_publ_section_title
;
Structure prediction by ZEFSAII (Michael W. Deem and Ramdas Pophale) SiO2 
 PCOD8214142
Probable space group: P M M A
;
_chemical_formula_sum "Si O2"
_cell_formula_units_Z 56
_cell_length_a 14.884920
_cell_length_b 14.199522
_cell_length_c 12.174464
_cell_angle_alpha 90.000000
_cell_angle_beta 90.000000
_cell_angle_gamma 90.000000
_cell_volume 2573.179481
_symmetry_space_group_name_H-M "P M M A"
_symmetry_group_IT_number 51
_symmetry_cell_setting 'orthorhombic'
loop_
_space_group_symop_operation_xyz
x,y,z
1/2-x,-y,z
1/2+x,-y,-z
-x,y,-z
-x,-y,-z
1/2+x,y,-z
1/2-x,y,z
x,-y,z
loop_
_atom_site_type_symbol
_atom_site_label
_atom_site_fract_x
_atom_site_fract_y
_atom_site_fract_z
Si Si1 0.979606 0.777408 0.619550
Si Si2 0.108864 0.390352 0.882118
Si Si3 0.604856 0.105744 0.016037
Si Si4 0.591539 0.608690 0.879193
Si Si5 0.351143 0.108018 0.221875
Si Si6 0.850780 0.390195 0.645300
Si Si7 0.346862 0.778752 0.766794
O O1 0.912625 0.839250 0.691079
O O2 0.930716 0.675410 0.598147
O O3 0.000000 0.821156 0.500000
O O4 0.076676 0.780174 0.675655
O O5 0.123359 0.500000 0.855920
O O6 0.169377 0.330282 0.800292
O O7 0.007880 0.348943 0.861307
O O8 0.136956 0.360779 0.006506
O O9 0.630208 0.163222 0.123763
O O10 0.643294 0.000000 0.031389
O O11 0.500000 0.104037 0.000000
O O12 0.643528 0.150685 0.902060
O O13 0.569197 0.500000 0.894162
O O14 0.655129 0.630237 0.776360
O O15 0.250000 0.116992 0.265802
O O16 0.383946 0.000000 0.217132
O O17 0.750000 0.367608 0.599109
O O18 0.875390 0.500000 0.622806
O O19 0.250000 0.813759 0.719156
#
# Coordination Sequence:
#
# PCOD8214142 Si02
#       7
#     8   8   8   8   8   8   8
#     4  12  27  45  66  88 127 176 224 275 322 373
#     4   9  18  33  53  84 128 169 204 246 305 382
#     4  10  21  41  69 100 136 170 204 253 320 394
#     4   8  15  29  53  83 117 156 195 243 306 374
#     4  10  22  43  73 105 131 160 205 262 325 392
#     4  10  21  39  65  94 121 159 217 277 330 381
#     4  12  26  39  61  95 131 172 216 261 322 390
#
# _framework density 21.76296
#
# number of rings (size 3 to 8) (size 9 to 14) (size 15 to 20)
#    0.000    1.857    2.857    1.714    4.000    3.429 
#    0.000    1.429    0.000    0.000    0.000    0.000 
#    0.000    0.000    0.000    0.000    0.000    0.000 
#
# Total GULP energy -693768.897196 kJ/mol
# GULP energy per Si atom -12388.730307 kJ/mol
# Density = 2.171343 g / cm^3
# Si number density = 21.762960 Si / 1000 Ang^3
#
#
#
# Elastic Constant Matrix: (Units=GPa)
#
#
# Indices 1 2 3 4 5 6 
#
# 1 134.5161 35.4465 51.6427 0.0000 0.0000 0.0000
# 2 35.4465 66.3237 42.9763 0.0000 0.0000 0.0000
# 3 51.6427 42.9763 114.4962 0.0000 0.0000 0.0000
# 4 0.0000 0.0000 0.0000 14.3808 0.0000 0.0000
# 5 0.0000 0.0000 0.0000 0.0000 5.3311 0.0000
# 6 0.0000 0.0000 0.0000 0.0000 0.0000 12.2471
#
#
#
# Elastic Compliance Matrix: (Units=1/GPa)
#
#
# Indices 1 2 3 4 5 6 
#
# 1 0.009427 -0.003017 -0.003120 0.000000 0.000000 0.000000
# 2 -0.003017 0.020889 -0.006480 0.000000 0.000000 0.000000
# 3 -0.003120 -0.006480 0.012573 0.000000 0.000000 0.000000
# 4 0.000000 0.000000 0.000000 0.069537 0.000000 0.000000
# 5 0.000000 0.000000 0.000000 0.000000 0.187577 0.000000
# 6 0.000000 0.000000 0.000000 0.000000 0.000000 0.081652
#
#
# Mechanical properties :
#
#
# Convention : Reuss Voigt Hill
#
# Bulk Modulus (GPa) = 56.63711 63.94078 60.28895
# Shear Modulus (GPa) = 12.11322 18.74317 15.42820
#
# Velocity S-wave (km/s) = 2.36179 2.93788 2.66544
# Velocity P-wave (km/s) = 5.78951 6.39941 6.10209
#
# Compressibility (1/GPa) = 0.01765627
#
# Stress axis : x y z
#
# Youngs Moduli (GPa) = 106.08285 47.87288 79.53422
#
# Poissons Ratio (x) = 0.14442 0.24811
# Poissons Ratio (y) = 0.32001 0.51538
# Poissons Ratio (z) = 0.33093 0.31021
#
# Static dielectric constant tensor:
#      x y z
#    x 4.022480 0.000000 0.000000 
#    y 0.000000 4.008110 0.000000 
#    z 0.000000 0.000000 3.688950 
# 
# 
# High freq. dielectric constant tensor:
#      x y z
#    x 1.862190 0.000000 0.000000 
#    y 0.000000 1.849000 0.000000 
#    z 0.000000 0.000000 1.823310 
# 
# From -- ./inp_files/16642.got.cif
#   From: 2010.03.12/outbox.cif.g09.slc.cpg/sg51_9_cif.got.tgz:16642.got - 2010.04.16 13:43:02.
