data_PCOD8214282
_publ_section_title
;
Structure prediction by ZEFSAII (Michael W. Deem and Ramdas Pophale) SiO2 
 PCOD8214282
Probable space group: P M M A
;
_chemical_formula_sum "Si O2"
_cell_formula_units_Z 64
_cell_length_a 18.712211
_cell_length_b 8.739068
_cell_length_c 19.820352
_cell_angle_alpha 90.000000
_cell_angle_beta 90.000000
_cell_angle_gamma 90.000000
_cell_volume 3241.168338
_symmetry_space_group_name_H-M "P M M A"
_symmetry_group_IT_number 51
_symmetry_cell_setting 'orthorhombic'
loop_
_space_group_symop_operation_xyz
x,y,z
1/2-x,-y,z
1/2+x,-y,-z
-x,y,-z
-x,-y,-z
1/2+x,y,-z
1/2-x,y,z
x,-y,z
loop_
_atom_site_type_symbol
_atom_site_label
_atom_site_fract_x
_atom_site_fract_y
_atom_site_fract_z
Si Si1 0.586870 0.680297 0.094407
Si Si2 0.831643 0.822791 0.971187
Si Si3 0.568597 0.818778 0.709389
Si Si4 0.927300 0.680164 0.345999
Si Si5 0.165999 0.323079 0.394869
Si Si6 0.944562 0.177188 0.861995
Si Si7 0.670452 0.318421 0.223648
Si Si8 0.418648 0.178699 0.515945
O O1 0.583592 0.500000 0.098034
O O2 0.506160 0.740724 0.095182
O O3 0.629099 0.748108 0.158813
O O4 0.627498 0.727060 0.027225
O O5 0.750000 0.766244 0.965310
O O6 0.869263 0.793902 0.899176
O O7 0.835596 0.000000 0.991548
O O8 0.500145 0.772173 0.665634
O O9 0.637542 0.738795 0.676733
O O10 0.560885 0.757631 0.786022
O O11 0.579045 0.000000 0.707031
O O12 0.942704 0.500000 0.341780
O O13 0.870148 0.734300 0.290697
O O14 0.895025 0.725881 0.418237
O O15 0.250000 0.297312 0.396370
O O16 0.145130 0.500000 0.403576
O O17 0.131600 0.226231 0.454789
O O18 0.964592 0.000000 0.859667
O O19 0.750000 0.248210 0.224812
O O20 0.674261 0.500000 0.219512
O O21 0.500000 0.221476 0.500000
O O22 0.409048 0.000000 0.530334
#
# Coordination Sequence:
#
# PCOD8214282 Si02
#       8
#     8   8   8   8   8   8   8   8
#     4  11  21  36  60  89 119 155 198 246 298 354
#     4  10  22  40  59  82 116 158 201 246 300 360
#     4  11  22  38  62  90 120 157 201 251 303 358
#     4  11  21  36  61  88 118 157 198 245 298 356
#     4  11  25  43  64  92 124 160 204 251 302 362
#     4  10  22  39  61  87 118 156 202 249 296 359
#     4   9  19  35  55  83 118 153 189 232 289 353
#     4  11  23  39  62  91 121 157 201 247 296 353
#
# _framework density 19.745967
#
# number of rings (size 3 to 8) (size 9 to 14) (size 15 to 20)
#    0.000    1.500    2.500    2.625    0.000    5.750 
#    0.000    2.500    0.000    3.375    0.000    0.000 
#    0.000    0.000    0.000    0.000    0.000    0.000 
#
# Total GULP energy -793929.878666 kJ/mol
# GULP energy per Si atom -12405.154354 kJ/mol
# Density = 1.970102 g / cm^3
# Si number density = 19.745967 Si / 1000 Ang^3
#
#
#
# Elastic Constant Matrix: (Units=GPa)
#
#
# Indices 1 2 3 4 5 6 
#
# 1 115.8790 32.1942 47.0582 0.0000 0.0000 0.0000
# 2 32.1942 48.9697 25.6672 0.0000 0.0000 0.0000
# 3 47.0582 25.6672 113.3656 0.0000 0.0000 0.0000
# 4 0.0000 0.0000 0.0000 32.1937 0.0000 0.0000
# 5 0.0000 0.0000 0.0000 0.0000 35.9942 0.0000
# 6 0.0000 0.0000 0.0000 0.0000 0.0000 25.1967
#
#
#
# Elastic Compliance Matrix: (Units=1/GPa)
#
#
# Indices 1 2 3 4 5 6 
#
# 1 0.011683 -0.005831 -0.003529 0.000000 0.000000 0.000000
# 2 -0.005831 0.026081 -0.003485 0.000000 0.000000 0.000000
# 3 -0.003529 -0.003485 0.011075 0.000000 0.000000 0.000000
# 4 0.000000 0.000000 0.000000 0.031062 0.000000 0.000000
# 5 0.000000 0.000000 0.000000 0.000000 0.027782 0.000000
# 6 0.000000 0.000000 0.000000 0.000000 0.000000 0.039688
#
#
# Mechanical properties :
#
#
# Convention : Reuss Voigt Hill
#
# Bulk Modulus (GPa) = 43.19854 54.22818 48.71336
# Shear Modulus (GPa) = 27.65848 30.22989 28.94419
#
# Velocity S-wave (km/s) = 3.74667 3.91697 3.83277
# Velocity P-wave (km/s) = 6.37506 6.92671 6.65660
#
# Compressibility (1/GPa) = 0.02314893
#
# Stress axis : x y z
#
# Youngs Moduli (GPa) = 85.59497 38.34280 90.29318
#
# Poissons Ratio (x) = 0.22357 0.31868
# Poissons Ratio (y) = 0.49909 0.31463
# Poissons Ratio (z) = 0.30210 0.13361
#
# Static dielectric constant tensor:
#      x y z
#    x 3.695290 0.000000 0.000000 
#    y 0.000000 3.459020 0.000000 
#    z 0.000000 0.000000 3.762810 
# 
# 
# High freq. dielectric constant tensor:
#      x y z
#    x 1.771130 0.000000 0.000000 
#    y 0.000000 1.761380 0.000000 
#    z 0.000000 0.000000 1.783270 
# 
# From -- ./inp_files/33903.got.cif
#   From: 2010.03.12/outbox.cif.g09.slc.cpg/sg51_17_cif.got.tgz:33903.got - 2010.04.16 13:43:02.
