data_PCOD8214508
_publ_section_title
;
Structure prediction by ZEFSAII (Michael W. Deem and Ramdas Pophale) SiO2 
 PCOD8214508
Probable space group: P M M A
;
_chemical_formula_sum "Si O2"
_cell_formula_units_Z 56
_cell_length_a 22.512354
_cell_length_b 8.575545
_cell_length_c 14.832285
_cell_angle_alpha 90.000000
_cell_angle_beta 90.000000
_cell_angle_gamma 90.000000
_cell_volume 2863.457234
_symmetry_space_group_name_H-M "P M M A"
_symmetry_group_IT_number 51
_symmetry_cell_setting 'orthorhombic'
loop_
_space_group_symop_operation_xyz
x,y,z
1/2-x,-y,z
1/2+x,-y,-z
-x,y,-z
-x,-y,-z
1/2+x,y,-z
1/2-x,y,z
x,-y,z
loop_
_atom_site_type_symbol
_atom_site_label
_atom_site_fract_x
_atom_site_fract_y
_atom_site_fract_z
Si Si1 0.991397 0.823171 0.394672
Si Si2 0.418973 0.315100 0.916547
Si Si3 0.098031 0.319641 0.300052
Si Si4 0.633241 0.680412 0.379971
Si Si5 0.683190 0.819524 0.206550
Si Si6 0.681493 0.822648 0.558208
Si Si7 0.949281 0.684470 0.886053
O O1 0.924947 0.783882 0.365873
O O2 0.000000 0.800558 0.500000
O O3 0.034674 0.701621 0.347158
O O4 0.006296 0.000000 0.365424
O O5 0.411306 0.500000 0.905767
O O6 0.364385 0.232759 0.867528
O O7 0.482372 0.256157 0.876537
O O8 0.418153 0.261827 0.021352
O O9 0.116382 0.500000 0.303285
O O10 0.147705 0.219347 0.350046
O O11 0.091120 0.257870 0.197274
O O12 0.615928 0.500000 0.375493
O O13 0.677514 0.723303 0.299292
O O14 0.663159 0.712380 0.476178
O O15 0.750000 0.789654 0.169413
O O16 0.673323 0.000000 0.229093
O O17 0.750000 0.799462 0.579870
O O18 0.666101 0.000000 0.531132
O O19 0.954062 0.500000 0.886103
#
# Coordination Sequence:
#
# PCOD8214508 Si02
#       7
#     8   8   8   8   8   8   8
#     4  11  22  36  56  83 119 155 186 226 284 341
#     4   9  17  36  63  87 114 147 186 231 284 344
#     4  11  21  35  58  87 117 148 190 238 282 333
#     4  12  24  38  60  86 112 146 193 240 284 338
#     4  11  24  40  57  82 119 157 192 235 288 346
#     4  11  24  41  57  75 107 151 194 236 284 337
#     4   8  17  34  59  90 117 143 179 233 294 341
#
# _framework density 19.556778999999999
#
# number of rings (size 3 to 8) (size 9 to 14) (size 15 to 20)
#    0.000    1.571    1.429    5.143    0.000    5.714 
#    0.000    4.286    0.000    4.286    0.000    0.000 
#    0.000    0.000    0.000    0.000    0.000    0.000 
#
# Total GULP energy -694479.065730 kJ/mol
# GULP energy per Si atom -12401.411888 kJ/mol
# Density = 1.951227 g / cm^3
# Si number density = 19.556779 Si / 1000 Ang^3
#
#
#
# Elastic Constant Matrix: (Units=GPa)
#
#
# Indices 1 2 3 4 5 6 
#
# 1 115.0065 25.0514 58.3392 0.0000 0.0000 0.0000
# 2 25.0514 50.7076 29.6953 0.0000 0.0000 0.0000
# 3 58.3392 29.6953 118.2505 0.0000 0.0000 0.0000
# 4 0.0000 0.0000 0.0000 -69.8103 0.0000 0.0000
# 5 0.0000 0.0000 0.0000 0.0000 28.2295 0.0000
# 6 0.0000 0.0000 0.0000 0.0000 0.0000 33.1859
#
#
#
# Elastic Compliance Matrix: (Units=1/GPa)
#
#
# Indices 1 2 3 4 5 6 
#
# 1 0.011944 -0.002872 -0.005171 0.000000 0.000000 0.000000
# 2 -0.002872 0.023812 -0.004563 0.000000 0.000000 0.000000
# 3 -0.005171 -0.004563 0.012154 0.000000 0.000000 0.000000
# 4 0.000000 0.000000 0.000000 -0.014325 0.000000 0.000000
# 5 0.000000 0.000000 0.000000 0.000000 0.035424 0.000000
# 6 0.000000 0.000000 0.000000 0.000000 0.000000 0.030133
#
#
# Mechanical properties :
#
#
# Convention : Reuss Voigt Hill
#
# Bulk Modulus (GPa) = 44.05857 56.68184 50.37020
# Shear Modulus (GPa) = 37.90154 9.71292 23.80723
#
# Velocity S-wave (km/s) = 4.40708 2.23099 3.49282
# Velocity P-wave (km/s) = 6.96232 5.97349 6.48677
#
# Compressibility (1/GPa) = 0.02269706
#
# Stress axis : x y z
#
# Youngs Moduli (GPa) = 83.72333 41.99576 82.27962
#
# Poissons Ratio (x) = 0.12063 0.42550
# Poissons Ratio (y) = 0.24049 0.37541
# Poissons Ratio (z) = 0.43296 0.19161
#
# Static dielectric constant tensor:
#      x y z
#    x 3.569710 0.000000 0.000000 
#    y 0.000000 3.537280 0.000000 
#    z 0.000000 0.000000 3.875320 
# 
# 
# High freq. dielectric constant tensor:
#      x y z
#    x 1.758470 0.000000 0.000000 
#    y 0.000000 1.755170 0.000000 
#    z 0.000000 0.000000 1.763980 
# 
# From -- ./inp_files/25667.got.cif
#   From: 2010.03.12/outbox.cif.g09.slc.cpg/sg51_13_cif.got.tgz:25667.got - 2010.04.16 13:43:02.
