data_PCOD8214595
_publ_section_title
;
Structure prediction by ZEFSAII (Michael W. Deem and Ramdas Pophale) SiO2 
 PCOD8214595
Probable space group: P M M A
;
_chemical_formula_sum "Si O2"
_cell_formula_units_Z 48
_cell_length_a 8.769077
_cell_length_b 9.718681
_cell_length_c 29.699256
_cell_angle_alpha 90.000000
_cell_angle_beta 90.000000
_cell_angle_gamma 90.000000
_cell_volume 2531.085296
_symmetry_space_group_name_H-M "P M M A"
_symmetry_group_IT_number 51
_symmetry_cell_setting 'orthorhombic'
loop_
_space_group_symop_operation_xyz
x,y,z
1/2-x,-y,z
1/2+x,-y,-z
-x,y,-z
-x,-y,-z
1/2+x,y,-z
1/2-x,y,z
x,-y,z
loop_
_atom_site_type_symbol
_atom_site_label
_atom_site_fract_x
_atom_site_fract_y
_atom_site_fract_z
Si Si1 0.069187 0.750971 0.601223
Si Si2 0.068105 0.000000 0.451187
Si Si3 0.569771 0.156035 0.300073
Si Si4 0.569521 0.156308 0.136631
Si Si5 0.569764 0.500000 0.549906
Si Si6 0.068257 0.342657 0.781344
Si Si7 0.420636 0.163589 0.044543
O O1 0.250000 0.739547 0.594416
O O2 0.025317 0.770811 0.653334
O O3 0.984891 0.623395 0.580348
O O4 0.999685 0.873263 0.574109
O O5 0.000000 0.000000 0.500000
O O6 0.250000 0.000000 0.452121
O O7 0.750000 0.143734 0.295502
O O8 0.504459 0.255355 0.261034
O O9 0.501596 0.000000 0.296932
O O10 0.750000 0.156290 0.134750
O O11 0.509503 0.261755 0.174495
O O12 0.508809 0.212237 0.089059
O O13 0.511419 0.000000 0.146751
O O14 0.750000 0.500000 0.543886
O O15 0.500000 0.500000 0.500000
O O16 0.250000 0.346478 0.780092
O O17 0.004978 0.500000 0.780639
O O18 0.250000 0.221809 0.046705
O O19 0.421805 0.000000 0.041816
O O20 0.500000 0.225665 0.000000
#
# Coordination Sequence:
#
# PCOD8214595 Si02
#       7
#     8   4   8   8   4   8   8
#     4  11  22  39  62  90 119 152 192 237 284 336
#     4  12  24  40  62  88 120 154 190 234 283 338
#     4   9  17  31  53  83 114 142 177 225 274 322
#     4   9  16  27  45  71 103 137 173 217 264 310
#     4  12  26  44  62  86 118 156 194 234 283 340
#     4   9  17  28  47  77 109 139 176 222 268 313
#     4   9  16  26  43  69 100 133 170 214 263 315
#
# _framework density 18.964196999999999
#
# number of rings (size 3 to 8) (size 9 to 14) (size 15 to 20)
#    0.000    2.167    0.833    3.500    1.167    4.000 
#    0.000    0.000    0.000    3.000    0.000    0.000 
#    0.000    0.000    0.000    0.000    0.000    0.000 
#
# Total GULP energy -594965.055219 kJ/mol
# GULP energy per Si atom -12395.105317 kJ/mol
# Density = 1.892103 g / cm^3
# Si number density = 18.964197 Si / 1000 Ang^3
#
#
#
# Elastic Constant Matrix: (Units=GPa)
#
#
# Indices 1 2 3 4 5 6 
#
# 1 46.6245 30.3170 45.6064 0.0000 0.0000 0.0000
# 2 30.3170 145.8367 91.3718 0.0000 0.0000 0.0000
# 3 45.6064 91.3718 197.3656 0.0000 0.0000 0.0000
# 4 0.0000 0.0000 0.0000 22.8979 0.0000 0.0000
# 5 0.0000 0.0000 0.0000 0.0000 24.8443 0.0000
# 6 0.0000 0.0000 0.0000 0.0000 0.0000 20.8890
#
#
#
# Elastic Compliance Matrix: (Units=1/GPa)
#
#
# Indices 1 2 3 4 5 6 
#
# 1 0.028354 -0.002520 -0.005385 0.000000 0.000000 0.000000
# 2 -0.002520 0.009883 -0.003993 0.000000 0.000000 0.000000
# 3 -0.005385 -0.003993 0.008160 0.000000 0.000000 0.000000
# 4 0.000000 0.000000 0.000000 0.043672 0.000000 0.000000
# 5 0.000000 0.000000 0.000000 0.000000 0.040251 0.000000
# 6 0.000000 0.000000 0.000000 0.000000 0.000000 0.047872
#
#
# Mechanical properties :
#
#
# Convention : Reuss Voigt Hill
#
# Bulk Modulus (GPa) = 44.24816 80.49082 62.36949
# Shear Modulus (GPa) = 23.86390 28.56168 26.21279
#
# Velocity S-wave (km/s) = 3.55119 3.88504 3.72186
# Velocity P-wave (km/s) = 6.34017 7.91583 7.17141
#
# Compressibility (1/GPa) = 0.02259981
#
# Stress axis : x y z
#
# Youngs Moduli (GPa) = 35.26793 101.18841 122.55477
#
# Poissons Ratio (x) = 0.25503 0.65998
# Poissons Ratio (y) = 0.08889 0.48934
# Poissons Ratio (z) = 0.18992 0.40402
#
# Static dielectric constant tensor:
#      x y z
#    x 3.293320 0.000000 0.000000 
#    y 0.000000 3.497570 0.000000 
#    z 0.000000 0.000000 3.864020 
# 
# 
# High freq. dielectric constant tensor:
#      x y z
#    x 1.705680 0.000000 0.000000 
#    y 0.000000 1.726810 0.000000 
#    z 0.000000 0.000000 1.757120 
# 
# From -- ./inp_files/37218.got.cif
#   From: 2010.03.12/outbox.cif.g09.slc.cpg/sg51_19_cif.got.tgz:37218.got - 2010.04.16 13:43:02.
