data_PCOD8214449
_publ_section_title
;
Structure prediction by ZEFSAII (Michael W. Deem and Ramdas Pophale) SiO2 
 PCOD8214449
Probable space group: P M M A
;
_chemical_formula_sum "Si O2"
_cell_formula_units_Z 56
_cell_length_a 21.314148
_cell_length_b 14.314719
_cell_length_c 8.623659
_cell_angle_alpha 90.000000
_cell_angle_beta 90.000000
_cell_angle_gamma 90.000000
_cell_volume 2631.130442
_symmetry_space_group_name_H-M "P M M A"
_symmetry_group_IT_number 51
_symmetry_cell_setting 'orthorhombic'
loop_
_space_group_symop_operation_xyz
x,y,z
1/2-x,-y,z
1/2+x,-y,-z
-x,y,-z
-x,-y,-z
1/2+x,y,-z
1/2-x,y,z
x,-y,z
loop_
_atom_site_type_symbol
_atom_site_label
_atom_site_fract_x
_atom_site_fract_y
_atom_site_fract_z
Si Si1 0.933669 0.101805 0.067743
Si Si2 0.425631 0.351632 0.631950
Si Si3 0.560920 0.600927 0.708294
Si Si4 0.937379 0.137799 0.416048
Si Si5 0.679776 0.895009 0.637090
Si Si6 0.362023 0.748676 0.112321
Si Si7 0.180570 0.394310 0.875327
O O1 0.934072 0.088288 0.251357
O O2 0.915478 0.000000 0.997061
O O3 0.885944 0.182064 0.020366
O O4 0.000000 0.133821 0.000000
O O5 0.409795 0.394446 0.464393
O O6 0.485486 0.401700 0.707107
O O7 0.445983 0.246366 0.607926
O O8 0.366464 0.360467 0.743168
O O9 0.582218 0.500000 0.778538
O O10 0.582514 0.689964 0.807251
O O11 0.873567 0.115792 0.507831
O O12 0.000000 0.098891 0.500000
O O13 0.750000 0.884057 0.564539
O O14 0.673901 0.813355 0.764690
O O15 0.673234 0.000000 0.708855
O O16 0.319083 0.672366 0.026612
O O17 0.250000 0.389677 0.802627
O O18 0.164110 0.500000 0.926920
#
# Coordination Sequence:
#
# PCOD8214449 Si02
#       7
#     8   8   8   8   8   8   8
#     4  11  24  40  63  97 133 167 210 264 326 392
#     4  11  20  41  64  93 129 162 209 269 319 378
#     4  11  22  38  66  98 128 165 210 266 326 382
#     4  12  22  43  71  98 129 169 217 270 326 385
#     4  11  25  45  68  96 130 172 221 271 325 385
#     4  12  23  42  64  92 133 169 212 264 321 386
#     4  11  25  43  63  90 127 173 219 263 318 385
#
# _framework density 21.283628
#
# number of rings (size 3 to 8) (size 9 to 14) (size 15 to 20)
#    0.000    0.714    4.286    5.143    0.000    2.857 
#    0.000    1.429    0.000    5.143    0.000    0.000 
#    0.000    0.000    0.000    0.000    0.000    0.000 
#
# Total GULP energy -694134.717565 kJ/mol
# GULP energy per Si atom -12395.262814 kJ/mol
# Density = 2.123519 g / cm^3
# Si number density = 21.283628 Si / 1000 Ang^3
#
#
#
# Elastic Constant Matrix: (Units=GPa)
#
#
# Indices 1 2 3 4 5 6 
#
# 1 121.3946 28.2528 64.1962 0.0000 0.0000 0.0000
# 2 28.2528 134.7835 24.8040 0.0000 0.0000 0.0000
# 3 64.1962 24.8040 107.0519 0.0000 0.0000 0.0000
# 4 0.0000 0.0000 0.0000 239.4900 0.0000 0.0000
# 5 0.0000 0.0000 0.0000 0.0000 29.2518 0.0000
# 6 0.0000 0.0000 0.0000 0.0000 0.0000 28.5262
#
#
#
# Elastic Compliance Matrix: (Units=1/GPa)
#
#
# Indices 1 2 3 4 5 6 
#
# 1 0.012268 -0.001272 -0.007062 0.000000 0.000000 0.000000
# 2 -0.001272 0.007882 -0.001063 0.000000 0.000000 0.000000
# 3 -0.007062 -0.001063 0.013823 0.000000 0.000000 0.000000
# 4 0.000000 0.000000 0.000000 0.004176 0.000000 0.000000
# 5 0.000000 0.000000 0.000000 0.000000 0.034186 0.000000
# 6 0.000000 0.000000 0.000000 0.000000 0.000000 0.035055
#
#
# Mechanical properties :
#
#
# Convention : Reuss Voigt Hill
#
# Bulk Modulus (GPa) = 65.88764 66.41511 66.15138
# Shear Modulus (GPa) = 38.09699 75.85208 56.97453
#
# Velocity S-wave (km/s) = 4.23539 5.97629 5.17951
# Velocity P-wave (km/s) = 7.41230 8.88223 8.18035
#
# Compressibility (1/GPa) = 0.01517735
#
# Stress axis : x y z
#
# Youngs Moduli (GPa) = 81.51084 126.87731 72.34476
#
# Poissons Ratio (x) = 0.16139 0.51092
# Poissons Ratio (y) = 0.10368 0.07693
# Poissons Ratio (z) = 0.57565 0.13492
#
# Static dielectric constant tensor:
#      x y z
#    x 3.739290 0.000000 0.000000 
#    y 0.000000 4.167950 0.000000 
#    z 0.000000 0.000000 3.771870 
# 
# 
# High freq. dielectric constant tensor:
#      x y z
#    x 1.820940 0.000000 0.000000 
#    y 0.000000 1.869130 0.000000 
#    z 0.000000 0.000000 1.822510 
# 
# From -- ./inp_files/11034.got.cif
#   From: 2010.03.12/outbox.cif.g09.slc.cpg/sg51_6_cif.got.tgz:11034.got - 2010.04.16 13:43:02.
