data_PCOD8214846
_publ_section_title
;
Structure prediction by ZEFSAII (Michael W. Deem and Ramdas Pophale) SiO2 
 PCOD8214846
Probable space group: P M M A
;
_chemical_formula_sum "Si O2"
_cell_formula_units_Z 40
_cell_length_a 7.781537
_cell_length_b 9.473968
_cell_length_c 29.798562
_cell_angle_alpha 90.000000
_cell_angle_beta 90.000000
_cell_angle_gamma 90.000000
_cell_volume 2196.810557
_symmetry_space_group_name_H-M "P M M A"
_symmetry_group_IT_number 51
_symmetry_cell_setting 'orthorhombic'
loop_
_space_group_symop_operation_xyz
x,y,z
1/2-x,-y,z
1/2+x,-y,-z
-x,y,-z
-x,-y,-z
1/2+x,y,-z
1/2-x,y,z
x,-y,z
loop_
_atom_site_type_symbol
_atom_site_label
_atom_site_fract_x
_atom_site_fract_y
_atom_site_fract_z
Si Si1 0.450133 0.158108 0.046758
Si Si2 0.250000 0.666908 0.289356
Si Si3 0.750000 0.331436 0.610289
Si Si4 0.557313 0.331986 0.451414
Si Si5 0.051937 0.843080 0.858893
Si Si6 0.551158 0.665472 0.224684
O O1 0.250000 0.155143 0.052091
O O2 0.523669 0.229793 0.092087
O O3 0.529792 0.000000 0.044390
O O4 0.500000 0.237689 0.000000
O O5 0.250000 0.500000 0.292553
O O6 0.250000 0.731342 0.339390
O O7 0.425239 0.716238 0.264595
O O8 0.750000 0.500000 0.610456
O O9 0.578289 0.275375 0.585380
O O10 0.500000 0.274185 0.500000
O O11 0.750000 0.277469 0.439887
O O12 0.555382 0.500000 0.452166
O O13 0.250000 0.859986 0.849258
O O14 0.979418 0.743001 0.819882
O O15 0.964809 0.000000 0.857449
O O16 0.750000 0.703214 0.236671
O O17 0.532343 0.500000 0.215504
#
# Coordination Sequence:
#
# PCOD8214846 Si02
#       6
#     8   4   4   8   8   8
#     4   9  16  25  39  61  89 116 139 170 215 264
#     4   9  18  30  43  59  81 111 153 195 226 263
#     4   9  16  24  34  51  73 101 139 183 222 257
#     4   9  14  20  31  47  70  99 132 174 222 264
#     4   9  17  29  46  68  90 112 144 184 222 263
#     4   9  18  32  48  64  86 117 151 187 226 266
#
# _framework density 18.208214999999999
#
# number of rings (size 3 to 8) (size 9 to 14) (size 15 to 20)
#    0.000    3.000    1.000    0.600    1.400    3.200 
#    0.000    4.000    0.000    0.600    0.000    0.000 
#    0.000    0.000    0.000    0.000    0.000    4.000 
#
# Total GULP energy -495588.132110 kJ/mol
# GULP energy per Si atom -12389.703303 kJ/mol
# Density = 1.816677 g / cm^3
# Si number density = 18.208215 Si / 1000 Ang^3
#
#
#
# Elastic Constant Matrix: (Units=GPa)
#
#
# Indices 1 2 3 4 5 6 
#
# 1 116.9270 15.6608 77.7381 0.0000 0.0000 0.0000
# 2 15.6608 17.0289 26.1798 0.0000 0.0000 0.0000
# 3 77.7381 26.1798 195.7648 0.0000 0.0000 0.0000
# 4 0.0000 0.0000 0.0000 6.9792 0.0000 0.0000
# 5 0.0000 0.0000 0.0000 0.0000 35.3413 0.0000
# 6 0.0000 0.0000 0.0000 0.0000 0.0000 6.9271
#
#
#
# Elastic Compliance Matrix: (Units=1/GPa)
#
#
# Indices 1 2 3 4 5 6 
#
# 1 0.011904 -0.004633 -0.004107 0.000000 0.000000 0.000000
# 2 -0.004633 0.075724 -0.008287 0.000000 0.000000 0.000000
# 3 -0.004107 -0.008287 0.007847 0.000000 0.000000 0.000000
# 4 0.000000 0.000000 0.000000 0.143282 0.000000 0.000000
# 5 0.000000 0.000000 0.000000 0.000000 0.028295 0.000000
# 6 0.000000 0.000000 0.000000 0.000000 0.000000 0.144361
#
#
# Mechanical properties :
#
#
# Convention : Reuss Voigt Hill
#
# Bulk Modulus (GPa) = 16.28102 63.20868 39.74485
# Shear Modulus (GPa) = 10.73095 23.85899 17.29497
#
# Velocity S-wave (km/s) = 2.43028 3.62379 3.08530
# Velocity P-wave (km/s) = 4.10317 7.23180 5.87941
#
# Compressibility (1/GPa) = 0.06142121
#
# Stress axis : x y z
#
# Youngs Moduli (GPa) = 84.00826 13.20578 127.42995
#
# Poissons Ratio (x) = 0.06118 0.52340
# Poissons Ratio (y) = 0.38918 1.05602
# Poissons Ratio (z) = 0.34505 0.10944
#
# Static dielectric constant tensor:
#      x y z
#    x 3.481000 0.000000 0.000000 
#    y 0.000000 2.850210 0.000000 
#    z 0.000000 0.000000 3.745030 
# 
# 
# High freq. dielectric constant tensor:
#      x y z
#    x 1.717070 0.000000 0.000000 
#    y 0.000000 1.615980 0.000000 
#    z 0.000000 0.000000 1.715680 
# 
# From -- ./inp_files/36048.got.cif
#   From: 2010.03.12/outbox.cif.g09.slc.cpg/sg51_19_cif.got.tgz:36048.got - 2010.04.16 13:43:02.
