data_PCOD8214609
_publ_section_title
;
Structure prediction by ZEFSAII (Michael W. Deem and Ramdas Pophale) SiO2 
 PCOD8214609
Probable space group: P M M A
;
_chemical_formula_sum "Si O2"
_cell_formula_units_Z 48
_cell_length_a 14.236347
_cell_length_b 19.180525
_cell_length_c 9.455406
_cell_angle_alpha 90.000000
_cell_angle_beta 90.000000
_cell_angle_gamma 90.000000
_cell_volume 2581.898926
_symmetry_space_group_name_H-M "P M M A"
_symmetry_group_IT_number 51
_symmetry_cell_setting 'orthorhombic'
loop_
_space_group_symop_operation_xyz
x,y,z
1/2-x,-y,z
1/2+x,-y,-z
-x,y,-z
-x,-y,-z
1/2+x,y,-z
1/2-x,y,z
x,-y,z
loop_
_atom_site_type_symbol
_atom_site_label
_atom_site_fract_x
_atom_site_fract_y
_atom_site_fract_z
Si Si1 0.998851 0.721889 0.159002
Si Si2 0.999161 0.579968 0.729880
Si Si3 0.858772 0.806304 0.664993
Si Si4 0.498995 0.076444 0.334668
Si Si5 0.351999 0.579948 0.501452
Si Si6 0.141369 0.807415 0.667053
O O1 0.999821 0.637203 0.146210
O O2 0.091009 0.745896 0.245365
O O3 0.905185 0.746809 0.239693
O O4 0.000000 0.752024 0.000000
O O5 0.014236 0.500000 0.784040
O O6 0.899428 0.586846 0.651425
O O7 0.080324 0.607316 0.624141
O O8 0.750000 0.809576 0.706160
O O9 0.905803 0.880194 0.707314
O O10 0.873910 0.790091 0.498764
O O11 0.500000 0.064413 0.500000
O O12 0.591821 0.119590 0.290882
O O13 0.498348 0.000000 0.259931
O O14 0.250000 0.618976 0.502008
O O15 0.335237 0.500000 0.535909
O O16 0.250000 0.813705 0.706525
#
# Coordination Sequence:
#
# PCOD8214609 Si02
#       6
#     8   8   8   8   8   8
#     4  11  23  36  51  73 105 140 176 219 264 314
#     4   9  19  33  50  74 100 128 169 216 264 316
#     4   9  19  35  55  78 105 140 179 215 254 305
#     4   8  14  27  51  84 116 136 160 209 264 308
#     4   8  15  29  50  75  99 122 153 201 258 312
#     4   9  19  35  55  78 105 140 179 215 254 305
#
# _framework density 18.590966999999999
#
# number of rings (size 3 to 8) (size 9 to 14) (size 15 to 20)
#    0.000    3.000    0.000    2.500    4.667    3.000 
#    0.000    3.333    0.000    8.000    0.000   16.333 
#    0.000    0.000    0.000    0.000    0.000    0.000 
#
# Total GULP energy -594746.476116 kJ/mol
# GULP energy per Si atom -12390.551586 kJ/mol
# Density = 1.854865 g / cm^3
# Si number density = 18.590967 Si / 1000 Ang^3
#
#
#
# Elastic Constant Matrix: (Units=GPa)
#
#
# Indices 1 2 3 4 5 6 
#
# 1 162.7591 43.1811 36.6857 0.0000 0.0000 0.0000
# 2 43.1811 130.1770 34.9331 0.0000 0.0000 0.0000
# 3 36.6857 34.9331 63.2473 0.0000 0.0000 0.0000
# 4 0.0000 0.0000 0.0000 9.2890 0.0000 0.0000
# 5 0.0000 0.0000 0.0000 0.0000 7.9842 0.0000
# 6 0.0000 0.0000 0.0000 0.0000 0.0000 12.9780
#
#
#
# Elastic Compliance Matrix: (Units=1/GPa)
#
#
# Indices 1 2 3 4 5 6 
#
# 1 0.007313 -0.001512 -0.003407 0.000000 0.000000 0.000000
# 2 -0.001512 0.009331 -0.004277 0.000000 0.000000 0.000000
# 3 -0.003407 -0.004277 0.020149 0.000000 0.000000 0.000000
# 4 0.000000 0.000000 0.000000 0.107654 0.000000 0.000000
# 5 0.000000 0.000000 0.000000 0.000000 0.125248 0.000000
# 6 0.000000 0.000000 0.000000 0.000000 0.000000 0.077054
#
#
# Mechanical properties :
#
#
# Convention : Reuss Voigt Hill
#
# Bulk Modulus (GPa) = 54.34067 65.08704 59.71385
# Shear Modulus (GPa) = 13.46714 22.14245 17.80480
#
# Velocity S-wave (km/s) = 2.69437 3.45488 3.09805
# Velocity P-wave (km/s) = 6.24280 7.14149 6.70722
#
# Compressibility (1/GPa) = 0.01840242
#
# Stress axis : x y z
#
# Youngs Moduli (GPa) = 136.74287 107.16988 49.62927
#
# Poissons Ratio (x) = 0.16199 0.16908
# Poissons Ratio (y) = 0.20669 0.21226
# Poissons Ratio (z) = 0.46587 0.45836
#
# Static dielectric constant tensor:
#      x y z
#    x 3.889990 0.000000 0.000000 
#    y 0.000000 3.560730 0.000000 
#    z 0.000000 0.000000 2.950610 
# 
# 
# High freq. dielectric constant tensor:
#      x y z
#    x 1.726130 0.000000 0.000000 
#    y 0.000000 1.723340 0.000000 
#    z 0.000000 0.000000 1.670690 
# 
# From -- ./inp_files/8228.got.cif
#   From: 2010.03.12/outbox.cif.g09.slc.cpg/sg51_5_cif.got.tgz:8228.got - 2010.04.16 13:43:02.
