data_PCOD8214276
_publ_section_title
;
Structure prediction by ZEFSAII (Michael W. Deem and Ramdas Pophale) SiO2 
 PCOD8214276
Probable space group: P M M A
;
_chemical_formula_sum "Si O2"
_cell_formula_units_Z 24
_cell_length_a 10.213064
_cell_length_b 16.465833
_cell_length_c 6.608801
_cell_angle_alpha 90.000000
_cell_angle_beta 90.000000
_cell_angle_gamma 90.000000
_cell_volume 1111.379636
_symmetry_space_group_name_H-M "P M M A"
_symmetry_group_IT_number 51
_symmetry_cell_setting 'orthorhombic'
loop_
_space_group_symop_operation_xyz
x,y,z
1/2-x,-y,z
1/2+x,-y,-z
-x,y,-z
-x,-y,-z
1/2+x,y,-z
1/2-x,y,z
x,-y,z
loop_
_atom_site_type_symbol
_atom_site_label
_atom_site_fract_x
_atom_site_fract_y
_atom_site_fract_z
Si Si1 0.397082 0.676235 0.318270
Si Si2 0.105168 0.500000 0.329565
Si Si3 0.396748 0.093116 0.665678
Si Si4 0.000000 0.202769 0.000000
O O1 0.500000 0.690135 0.500000
O O2 0.250000 0.685425 0.408458
O O3 0.413800 0.586097 0.213037
O O4 0.411792 0.741601 0.142796
O O5 0.250000 0.500000 0.427747
O O6 0.000000 0.500000 0.500000
O O7 0.500000 0.125961 0.500000
O O8 0.250000 0.101481 0.576482
O O9 0.429101 0.000000 0.720554
O O10 0.405352 0.145850 0.868347
#
# Coordination Sequence:
#
# PCOD8214276 Si02
#       4
#     8   4   8   4
#     4  10  22  39  60  86 118 156 197 241 288 340
#     4   8  16  35  58  80 111 153 197 237 281 335
#     4  10  23  43  64  86 115 153 195 238 287 346
#     4  12  23  35  60  92 122 150 188 239 295 348
#
# _framework density 21.594781999999999
#
# number of rings (size 3 to 8) (size 9 to 14) (size 15 to 20)
#    0.000    2.000    0.000    2.500    0.000    8.667 
#    0.000    3.333    0.000    6.000    0.000    0.000 
#    0.000    0.000    0.000    0.000    0.000    0.000 
#
# Total GULP energy -297365.717170 kJ/mol
# GULP energy per Si atom -12390.238215 kJ/mol
# Density = 2.154563 g / cm^3
# Si number density = 21.594782 Si / 1000 Ang^3
#
#
#
# Elastic Constant Matrix: (Units=GPa)
#
#
# Indices 1 2 3 4 5 6 
#
# 1 146.2031 51.8978 58.4920 0.0000 0.0000 0.0000
# 2 51.8978 136.9311 71.2026 0.0000 0.0000 0.0000
# 3 58.4920 71.2026 103.7619 0.0000 0.0000 0.0000
# 4 0.0000 0.0000 0.0000 15.4420 0.0000 0.0000
# 5 0.0000 0.0000 0.0000 0.0000 28.6305 0.0000
# 6 0.0000 0.0000 0.0000 0.0000 0.0000 -312.8320
#
#
#
# Elastic Compliance Matrix: (Units=1/GPa)
#
#
# Indices 1 2 3 4 5 6 
#
# 1 0.008956 -0.001196 -0.004228 0.000000 0.000000 0.000000
# 2 -0.001196 0.011514 -0.007227 0.000000 0.000000 0.000000
# 3 -0.004228 -0.007227 0.016980 0.000000 0.000000 0.000000
# 4 0.000000 0.000000 0.000000 0.064758 0.000000 0.000000
# 5 0.000000 0.000000 0.000000 0.000000 0.034928 0.000000
# 6 0.000000 0.000000 0.000000 0.000000 0.000000 -0.003197
#
#
# Mechanical properties :
#
#
# Convention : Reuss Voigt Hill
#
# Bulk Modulus (GPa) = 82.31513 83.34232 82.82873
# Shear Modulus (GPa) = 30.62028 -40.06498 -4.72235
#
# Velocity S-wave (km/s) = 3.76965 -4.31200 -1.48039
# Velocity P-wave (km/s) = 7.55962 3.72644 5.95962
#
# Compressibility (1/GPa) = 0.01214843
#
# Stress axis : x y z
#
# Youngs Moduli (GPa) = 111.66012 86.84963 58.89270
#
# Poissons Ratio (x) = 0.10386 0.24899
# Poissons Ratio (y) = 0.13353 0.42562
# Poissons Ratio (z) = 0.47208 0.62767
#
# Static dielectric constant tensor:
#      x y z
#    x 3.926270 0.000000 0.000000 
#    y 0.000000 4.895960 0.000000 
#    z 0.000000 0.000000 3.539980 
# 
# 
# High freq. dielectric constant tensor:
#      x y z
#    x 1.858010 0.000000 0.000000 
#    y 0.000000 1.887680 0.000000 
#    z 0.000000 0.000000 1.798560 
# 
# From -- ./inp_files/510.got.cif
#   From: 2010.03.12/outbox.cif.g09.slc.cpg/sg51_1_cif.got.tgz:510.got - 2010.04.16 13:43:02.
