data_PCOD8214949
_publ_section_title
;
Structure prediction by ZEFSAII (Michael W. Deem and Ramdas Pophale) SiO2 
 PCOD8214949
Probable space group: P N N A
;
_chemical_formula_sum "Si O2"
_cell_formula_units_Z 40
_cell_length_a 9.146383
_cell_length_b 11.851116
_cell_length_c 13.976344
_cell_angle_alpha 90.000000
_cell_angle_beta 90.000000
_cell_angle_gamma 90.000000
_cell_volume 1514.963654
_symmetry_space_group_name_H-M "P N N A"
_symmetry_group_IT_number 52
_symmetry_cell_setting 'orthorhombic'
loop_
_space_group_symop_operation_xyz
x,y,z
1/2-x,-y,z
x,1/2-y,1/2-z
1/2-x,1/2+y,1/2-z
-x,-y,-z
1/2+x,y,-z
-x,1/2+y,1/2+z
1/2+x,1/2-y,1/2+z
loop_
_atom_site_type_symbol
_atom_site_label
_atom_site_fract_x
_atom_site_fract_y
_atom_site_fract_z
Si Si1 0.240278 0.832366 0.505395
Si Si2 0.371653 0.590161 0.460624
Si Si3 0.000470 0.875851 0.369885
Si Si4 0.422316 0.878116 0.833058
Si Si5 0.097208 0.694989 0.657649
O O1 0.304775 0.715128 0.466141
O O2 0.365634 0.908257 0.557821
O O3 0.156550 0.901903 0.421105
O O4 0.115528 0.795991 0.581161
O O5 0.250000 0.500000 0.429987
O O6 0.445897 0.556967 0.564438
O O7 0.492602 0.595213 0.377701
O O8 0.987030 0.936260 0.264607
O O9 0.993951 0.743220 0.348600
O O10 0.249182 0.865572 0.815799
O O11 0.024090 0.750000 0.750000
#
# Coordination Sequence:
#
# PCOD8214949 Si02
#       5
#     8   8   8   8   8
#     4  10  17  31  51  76 102 138 174 229 268 319
#     4  10  21  33  50  82 119 149 174 221 284 340
#     4   9  16  31  49  75 102 132 183 228 274 307
#     4   9  17  30  52  70 104 144 179 223 270 327
#     4  10  16  32  50  70 102 146 186 217 276 317
#
# _framework density 26.403272999999999
#
# number of rings (size 3 to 8) (size 9 to 14) (size 15 to 20)
#    0.000    2.800    8.000    0.000    0.000    3.200 
#    3.600    0.000    0.000    0.000    0.000    2.800 
#    0.000    4.600    0.000    0.000    0.000    0.000 
#
# Total GULP energy -495633.894216 kJ/mol
# GULP energy per Si atom -12390.847355 kJ/mol
# Density = 2.634318 g / cm^3
# Si number density = 26.403273 Si / 1000 Ang^3
#
#
#
# Elastic Constant Matrix: (Units=GPa)
#
#
# Indices 1 2 3 4 5 6 
#
# 1 77.5738 20.2394 83.1318 0.0000 0.0000 0.0000
# 2 20.2394 28.7538 37.1487 0.0000 0.0000 0.0000
# 3 83.1318 37.1487 211.0099 0.0000 0.0000 0.0000
# 4 0.0000 0.0000 0.0000 22.0595 0.0000 0.0000
# 5 0.0000 0.0000 0.0000 0.0000 74.2135 0.0000
# 6 0.0000 0.0000 0.0000 0.0000 0.0000 19.1403
#
#
#
# Elastic Compliance Matrix: (Units=1/GPa)
#
#
# Indices 1 2 3 4 5 6 
#
# 1 0.023037 -0.005812 -0.008053 0.000000 0.000000 0.000000
# 2 -0.005812 0.046483 -0.005894 0.000000 0.000000 0.000000
# 3 -0.008053 -0.005894 0.008949 0.000000 0.000000 0.000000
# 4 0.000000 0.000000 0.000000 0.045332 0.000000 0.000000
# 5 0.000000 0.000000 0.000000 0.000000 0.013475 0.000000
# 6 0.000000 0.000000 0.000000 0.000000 0.000000 0.052246
#
#
# Mechanical properties :
#
#
# Convention : Reuss Voigt Hill
#
# Bulk Modulus (GPa) = 25.67184 66.48636 46.07910
# Shear Modulus (GPa) = 20.65921 34.87050 27.76486
#
# Velocity S-wave (km/s) = 2.80026 3.63807 3.24631
# Velocity P-wave (km/s) = 4.49437 6.54853 5.61616
#
# Compressibility (1/GPa) = 0.03895319
#
# Stress axis : x y z
#
# Youngs Moduli (GPa) = 43.40862 21.51303 111.74076
#
# Poissons Ratio (x) = 0.12503 0.89982
# Poissons Ratio (y) = 0.25227 0.65859
# Poissons Ratio (z) = 0.34956 0.12680
#
# Static dielectric constant tensor:
#      x y z
#    x 4.694470 0.000000 0.000000 
#    y 0.000000 4.495120 0.000000 
#    z 0.000000 0.000000 5.742430 
# 
# 
# High freq. dielectric constant tensor:
#      x y z
#    x 2.040660 0.000000 0.000000 
#    y 0.000000 2.037080 0.000000 
#    z 0.000000 0.000000 2.066440 
# 
# From -- ./inp_files/24441.got.cif
#   From: 2010.06.25/outbox.cif.g09.slc.cpg/sg52_13_cif.got.tgz:24441.got - 2010.06.26 19:32:48.
