data_PCOD8214806
_publ_section_title
;
Structure prediction by ZEFSAII (Michael W. Deem and Ramdas Pophale) SiO2 
 PCOD8214806
Probable space group: P M M A
;
_chemical_formula_sum "Si O2"
_cell_formula_units_Z 40
_cell_length_a 9.547928
_cell_length_b 9.695879
_cell_length_c 25.658853
_cell_angle_alpha 90.000000
_cell_angle_beta 90.000000
_cell_angle_gamma 90.000000
_cell_volume 2375.382547
_symmetry_space_group_name_H-M "P M M A"
_symmetry_group_IT_number 51
_symmetry_cell_setting 'orthorhombic'
loop_
_space_group_symop_operation_xyz
x,y,z
1/2-x,-y,z
1/2+x,-y,-z
-x,y,-z
-x,-y,-z
1/2+x,y,-z
1/2-x,y,z
x,-y,z
loop_
_atom_site_type_symbol
_atom_site_label
_atom_site_fract_x
_atom_site_fract_y
_atom_site_fract_z
Si Si1 0.905505 0.836100 0.357590
Si Si2 0.415220 0.341961 0.161591
Si Si3 0.912917 0.159379 0.240628
Si Si4 0.095315 0.663822 0.045629
Si Si5 0.591417 0.164468 0.548484
O O1 0.750000 0.779536 0.371607
O O2 0.948151 0.790364 0.299347
O O3 0.018801 0.778684 0.398736
O O4 0.900215 0.000000 0.360027
O O5 0.250000 0.321212 0.168127
O O6 0.456898 0.500000 0.172306
O O7 0.494941 0.247120 0.201799
O O8 0.461875 0.297894 0.103100
O O9 0.750000 0.183062 0.228481
O O10 0.953349 0.000000 0.233586
O O11 0.250000 0.726015 0.037974
O O12 0.101812 0.500000 0.040728
O O13 0.000000 0.728523 0.000000
O O14 0.500000 0.219315 0.500000
O O15 0.750000 0.222307 0.545023
O O16 0.594334 0.000000 0.548370
#
# Coordination Sequence:
#
# PCOD8214806 Si02
#       5
#     8   8   8   8   8
#     4   8  14  25  38  52  75 106 138 174 214 254
#     4   9  18  31  46  67  94 119 145 181 222 263
#     4   9  18  31  46  65  89 118 152 187 222 262
#     4   8  14  25  41  62  87 112 139 174 216 260
#     4   9  15  21  31  49  73 102 136 172 211 255
#
# _framework density 16.839393999999999
#
# number of rings (size 3 to 8) (size 9 to 14) (size 15 to 20)
#    0.000    3.400    0.000    3.000    0.000    4.800 
#    0.000    4.000    0.000    0.600    0.000    0.000 
#    0.000    0.800    0.000    2.600    0.000    5.800 
#
# Total GULP energy -495728.960511 kJ/mol
# GULP energy per Si atom -12393.224013 kJ/mol
# Density = 1.680107 g / cm^3
# Si number density = 16.839394 Si / 1000 Ang^3
#
#
#
# Elastic Constant Matrix: (Units=GPa)
#
#
# Indices 1 2 3 4 5 6 
#
# 1 109.4747 28.8847 92.3044 0.0000 0.0000 0.0000
# 2 28.8847 27.3841 36.6775 0.0000 0.0000 0.0000
# 3 92.3044 36.6775 160.5662 0.0000 0.0000 0.0000
# 4 0.0000 0.0000 0.0000 52.6201 0.0000 0.0000
# 5 0.0000 0.0000 0.0000 0.0000 39.9453 0.0000
# 6 0.0000 0.0000 0.0000 0.0000 0.0000 18.6661
#
#
#
# Elastic Compliance Matrix: (Units=1/GPa)
#
#
# Indices 1 2 3 4 5 6 
#
# 1 0.018793 -0.007713 -0.009042 0.000000 0.000000 0.000000
# 2 -0.007713 0.055780 -0.008308 0.000000 0.000000 0.000000
# 3 -0.009042 -0.008308 0.013324 0.000000 0.000000 0.000000
# 4 0.000000 0.000000 0.000000 0.019004 0.000000 0.000000
# 5 0.000000 0.000000 0.000000 0.000000 0.025034 0.000000
# 6 0.000000 0.000000 0.000000 0.000000 0.000000 0.053573
#
#
# Mechanical properties :
#
#
# Convention : Reuss Voigt Hill
#
# Bulk Modulus (GPa) = 26.47445 68.12869 47.30157
# Shear Modulus (GPa) = 20.14310 31.55021 25.84666
#
# Velocity S-wave (km/s) = 3.46235 4.33320 3.92202
# Velocity P-wave (km/s) = 5.63380 8.09823 6.97571
#
# Compressibility (1/GPa) = 0.03777227
#
# Stress axis : x y z
#
# Youngs Moduli (GPa) = 53.21083 17.92746 75.05506
#
# Poissons Ratio (x) = 0.13827 0.67863
# Poissons Ratio (y) = 0.41040 0.62355
# Poissons Ratio (z) = 0.48112 0.14894
#
# Static dielectric constant tensor:
#      x y z
#    x 3.474080 0.000000 0.000000 
#    y 0.000000 2.525700 0.000000 
#    z 0.000000 0.000000 3.438020 
# 
# 
# High freq. dielectric constant tensor:
#      x y z
#    x 1.653040 0.000000 0.000000 
#    y 0.000000 1.574760 0.000000 
#    z 0.000000 0.000000 1.665370 
# 
# From -- ./inp_files/31367.got.cif
#   From: 2010.03.12/outbox.cif.g09.slc.cpg/sg51_16_cif.got.tgz:31367.got - 2010.04.16 13:43:02.
