data_PCOD8214646
_publ_section_title
;
Structure prediction by ZEFSAII (Michael W. Deem and Ramdas Pophale) SiO2 
 PCOD8214646
Probable space group: P M M A
;
_chemical_formula_sum "Si O2"
_cell_formula_units_Z 64
_cell_length_a 14.639230
_cell_length_b 8.924962
_cell_length_c 24.177222
_cell_angle_alpha 90.000000
_cell_angle_beta 90.000000
_cell_angle_gamma 90.000000
_cell_volume 3158.864579
_symmetry_space_group_name_H-M "P M M A"
_symmetry_group_IT_number 51
_symmetry_cell_setting 'orthorhombic'
loop_
_space_group_symop_operation_xyz
x,y,z
1/2-x,-y,z
1/2+x,-y,-z
-x,y,-z
-x,-y,-z
1/2+x,y,-z
1/2-x,y,z
x,-y,z
loop_
_atom_site_type_symbol
_atom_site_label
_atom_site_fract_x
_atom_site_fract_y
_atom_site_fract_z
Si Si1 0.854906 0.677245 0.863441
Si Si2 0.142117 0.836552 0.482199
Si Si3 0.358371 0.334391 0.014231
Si Si4 0.980922 0.322508 0.306671
Si Si5 0.643697 0.177269 0.398023
Si Si6 0.646483 0.176487 0.094140
Si Si7 0.018120 0.177706 0.806998
Si Si8 0.645356 0.821421 0.637680
O O1 0.750000 0.721047 0.852124
O O2 0.869057 0.500000 0.856358
O O3 0.915693 0.767423 0.819808
O O4 0.886009 0.728283 0.925298
O O5 0.250000 0.856662 0.484180
O O6 0.112442 0.761039 0.540590
O O7 0.117037 0.757193 0.423832
O O8 0.096315 0.000000 0.480720
O O9 0.250000 0.340405 0.012629
O O10 0.399126 0.500000 0.005866
O O11 0.396055 0.233835 0.963977
O O12 0.982203 0.500000 0.302683
O O13 0.912411 0.270232 0.353938
O O14 0.946436 0.253196 0.249140
O O15 0.082818 0.261701 0.317962
O O16 0.750000 0.209851 0.387654
O O17 0.623452 0.000000 0.392845
O O18 0.750000 0.236001 0.102591
O O19 0.585722 0.235058 0.144839
O O20 0.644976 0.000000 0.091625
O O21 0.019680 0.000000 0.800194
O O22 0.750000 0.781051 0.651352
O O23 0.630357 0.000000 0.640135
#
# Coordination Sequence:
#
# PCOD8214646 Si02
#       8
#     8   8   8   8   8   8   8   8
#     4   9  19  37  59  83 113 146 177 215 268 326
#     4   7  12  27  55  88 113 136 174 222 270 322
#     4   8  15  30  54  83 112 142 175 209 256 326
#     4  12  26  40  54  77 112 150 189 231 276 331
#     4   9  18  36  62  87 112 144 182 226 274 323
#     4   9  19  36  57  81 109 139 173 220 274 320
#     4  11  24  40  57  78 104 140 191 238 274 319
#     4   9  18  36  62  87 111 142 183 229 273 323
#
# _framework density 20.260444
#
# number of rings (size 3 to 8) (size 9 to 14) (size 15 to 20)
#    0.000    2.750    0.000    3.750    0.000    4.250 
#    0.000    8.125    0.000    2.250    0.000    0.000 
#    0.000    0.000    0.000    0.000    0.000    0.000 
#
# Total GULP energy -793133.848325 kJ/mol
# GULP energy per Si atom -12392.716380 kJ/mol
# Density = 2.021433 g / cm^3
# Si number density = 20.260444 Si / 1000 Ang^3
#
#
#
# Elastic Constant Matrix: (Units=GPa)
#
#
# Indices 1 2 3 4 5 6 
#
# 1 41.0392 16.5568 5.3984 0.0000 0.0000 0.0000
# 2 16.5568 55.4208 23.4037 0.0000 0.0000 0.0000
# 3 5.3984 23.4037 86.8741 0.0000 0.0000 0.0000
# 4 0.0000 0.0000 0.0000 -94.8183 0.0000 0.0000
# 5 0.0000 0.0000 0.0000 0.0000 33.5696 0.0000
# 6 0.0000 0.0000 0.0000 0.0000 0.0000 11.6545
#
#
#
# Elastic Compliance Matrix: (Units=1/GPa)
#
#
# Indices 1 2 3 4 5 6 
#
# 1 0.027732 -0.008527 0.000574 0.000000 0.000000 0.000000
# 2 -0.008527 0.022982 -0.005661 0.000000 0.000000 0.000000
# 3 0.000574 -0.005661 0.013000 0.000000 0.000000 0.000000
# 4 0.000000 0.000000 0.000000 -0.010546 0.000000 0.000000
# 5 0.000000 0.000000 0.000000 0.000000 0.029789 0.000000
# 6 0.000000 0.000000 0.000000 0.000000 0.000000 0.085804
#
#
# Mechanical properties :
#
#
# Convention : Reuss Voigt Hill
#
# Bulk Modulus (GPa) = 27.40865 30.45021 28.92943
# Shear Modulus (GPa) = 24.02103 -0.72049 11.65027
#
# Velocity S-wave (km/s) = 3.44701 -0.59698 2.40057
# Velocity P-wave (km/s) = 5.42218 3.81927 4.68971
#
# Compressibility (1/GPa) = 0.03648484
#
# Stress axis : x y z
#
# Youngs Moduli (GPa) = 36.05992 43.51230 76.92050
#
# Poissons Ratio (x) = 0.37103 -0.04415
# Poissons Ratio (y) = 0.30749 0.43548
# Poissons Ratio (z) = -0.02070 0.24634
#
# Static dielectric constant tensor:
#      x y z
#    x 3.627270 0.000000 0.000000 
#    y 0.000000 3.337960 0.000000 
#    z 0.000000 0.000000 3.997340 
# 
# 
# High freq. dielectric constant tensor:
#      x y z
#    x 1.787190 0.000000 0.000000 
#    y 0.000000 1.754480 0.000000 
#    z 0.000000 0.000000 1.804230 
# 
# From -- ./inp_files/35861.got.cif
#   From: 2010.03.12/outbox.cif.g09.slc.cpg/sg51_18_cif.got.tgz:35861.got - 2010.04.16 13:43:02.
