data_PCOD8214477
_publ_section_title
;
Structure prediction by ZEFSAII (Michael W. Deem and Ramdas Pophale) SiO2 
 PCOD8214477
Probable space group: P M M A
;
_chemical_formula_sum "Si O2"
_cell_formula_units_Z 64
_cell_length_a 18.996491
_cell_length_b 13.711386
_cell_length_c 15.057257
_cell_angle_alpha 90.000000
_cell_angle_beta 90.000000
_cell_angle_gamma 90.000000
_cell_volume 3921.936940
_symmetry_space_group_name_H-M "P M M A"
_symmetry_group_IT_number 51
_symmetry_cell_setting 'orthorhombic'
loop_
_space_group_symop_operation_xyz
x,y,z
1/2-x,-y,z
1/2+x,-y,-z
-x,y,-z
-x,-y,-z
1/2+x,y,-z
1/2-x,y,z
x,-y,z
loop_
_atom_site_type_symbol
_atom_site_label
_atom_site_fract_x
_atom_site_fract_y
_atom_site_fract_z
Si Si1 0.169264 0.697301 0.604599
Si Si2 0.667249 0.611829 0.866342
Si Si3 0.458420 0.109231 0.362789
Si Si4 0.608389 0.109324 0.451381
Si Si5 0.072443 0.613838 0.459389
Si Si6 0.934853 0.700699 0.730259
Si Si7 0.415411 0.384196 0.768493
Si Si8 0.827626 0.615404 0.064493
O O1 0.250000 0.667015 0.616031
O O2 0.164136 0.813000 0.585771
O O3 0.137360 0.636766 0.523118
O O4 0.127921 0.669961 0.692937
O O5 0.750000 0.621794 0.849465
O O6 0.643117 0.500000 0.850972
O O7 0.627555 0.682963 0.799194
O O8 0.647974 0.647374 0.966040
O O9 0.538362 0.118594 0.393672
O O10 0.407909 0.133881 0.445956
O O11 0.445101 0.183133 0.281490
O O12 0.443103 0.000000 0.328101
O O13 0.639668 0.000000 0.442883
O O14 0.062984 0.500000 0.447062
O O15 0.087766 0.658545 0.364231
O O16 0.000000 0.658865 0.500000
O O17 0.004190 0.648277 0.766807
O O18 0.409768 0.500000 0.754177
O O19 0.383787 0.349421 0.862772
O O20 0.750000 0.658959 0.086351
O O21 0.821503 0.500000 0.065317
#
# Coordination Sequence:
#
# PCOD8214477 Si02
#       8
#     8   8   8   8   8   8   8   8
#     4  12  23  33  48  74 104 136 173 211 249 300
#     4   9  19  35  53  75 104 137 170 206 253 305
#     4   9  17  32  56  75  93 127 170 212 257 303
#     4   9  17  34  54  71  93 130 174 215 258 298
#     4  11  21  34  48  65 101 146 175 198 239 293
#     4  12  20  32  54  77 102 129 171 217 252 296
#     4  11  21  32  50  76 104 138 173 209 248 295
#     4   8  16  33  52  70 101 139 170 207 253 296
#
# _framework density 16.318466999999998
#
# number of rings (size 3 to 8) (size 9 to 14) (size 15 to 20)
#    0.000    1.875    3.750    3.375    0.000    2.750 
#    0.000    1.875    0.000    0.375    0.000    2.625 
#    0.000    2.000    0.000    0.000    0.000    0.000 
#
# Total GULP energy -793569.006178 kJ/mol
# GULP energy per Si atom -12399.515722 kJ/mol
# Density = 1.628133 g / cm^3
# Si number density = 16.318467 Si / 1000 Ang^3
#
#
#
# Elastic Constant Matrix: (Units=GPa)
#
#
# Indices 1 2 3 4 5 6 
#
# 1 57.1169 7.9676 28.4108 0.0000 0.0000 0.0000
# 2 7.9676 57.1012 16.2711 0.0000 0.0000 0.0000
# 3 28.4108 16.2711 90.1265 0.0000 0.0000 0.0000
# 4 0.0000 0.0000 0.0000 8.8275 0.0000 0.0000
# 5 0.0000 0.0000 0.0000 0.0000 -5.3755 0.0000
# 6 0.0000 0.0000 0.0000 0.0000 0.0000 18.9855
#
#
#
# Elastic Compliance Matrix: (Units=1/GPa)
#
#
# Indices 1 2 3 4 5 6 
#
# 1 0.020828 -0.001091 -0.006369 0.000000 0.000000 0.000000
# 2 -0.001091 0.018520 -0.002999 0.000000 0.000000 0.000000
# 3 -0.006369 -0.002999 0.013645 0.000000 0.000000 0.000000
# 4 0.000000 0.000000 0.000000 0.113282 0.000000 0.000000
# 5 0.000000 0.000000 0.000000 0.000000 -0.186030 0.000000
# 6 0.000000 0.000000 0.000000 0.000000 0.000000 0.052672
#
#
# Mechanical properties :
#
#
# Convention : Reuss Voigt Hill
#
# Bulk Modulus (GPa) = 31.17851 34.40486 32.79168
# Shear Modulus (GPa) = 77.48784 14.60052 46.04418
#
# Velocity S-wave (km/s) = 6.89839 2.99444 5.31764
# Velocity P-wave (km/s) = 9.08836 5.75193 7.60536
#
# Compressibility (1/GPa) = 0.03207338
#
# Stress axis : x y z
#
# Youngs Moduli (GPa) = 48.01212 53.99638 73.28891
#
# Poissons Ratio (x) = 0.05894 0.46675
# Poissons Ratio (y) = 0.05240 0.21982
# Poissons Ratio (z) = 0.30577 0.16196
#
# Static dielectric constant tensor:
#      x y z
#    x 3.157570 0.000000 0.000000 
#    y 0.000000 3.130560 0.000000 
#    z 0.000000 0.000000 3.182040 
# 
# 
# High freq. dielectric constant tensor:
#      x y z
#    x 1.619410 0.000000 0.000000 
#    y 0.000000 1.613450 0.000000 
#    z 0.000000 0.000000 1.618720 
# 
# From -- ./inp_files/25327.got.cif
#   From: 2010.03.12/outbox.cif.g09.slc.cpg/sg51_13_cif.got.tgz:25327.got - 2010.04.16 13:43:02.
