data_PCOD8214787
_publ_section_title
;
Structure prediction by ZEFSAII (Michael W. Deem and Ramdas Pophale) SiO2 
 PCOD8214787
Probable space group: P M M A
;
_chemical_formula_sum "Si O2"
_cell_formula_units_Z 40
_cell_length_a 15.132364
_cell_length_b 9.409002
_cell_length_c 14.865160
_cell_angle_alpha 90.000000
_cell_angle_beta 90.000000
_cell_angle_gamma 90.000000
_cell_volume 2116.508068
_symmetry_space_group_name_H-M "P M M A"
_symmetry_group_IT_number 51
_symmetry_cell_setting 'orthorhombic'
loop_
_space_group_symop_operation_xyz
x,y,z
1/2-x,-y,z
1/2+x,-y,-z
-x,y,-z
-x,-y,-z
1/2+x,y,-z
1/2-x,y,z
x,-y,z
loop_
_atom_site_type_symbol
_atom_site_label
_atom_site_fract_x
_atom_site_fract_y
_atom_site_fract_z
Si Si1 0.144776 0.659718 0.092175
Si Si2 0.000535 0.832016 0.600104
Si Si3 0.145062 0.841924 0.927996
Si Si4 0.348338 0.169619 0.729093
Si Si5 0.351329 0.834961 0.264439
O O1 0.250000 0.658776 0.087943
O O2 0.107120 0.500000 0.096317
O O3 0.113566 0.745148 0.180069
O O4 0.105605 0.736963 0.003642
O O5 0.083192 0.768265 0.656056
O O6 0.000000 0.765222 0.500000
O O7 0.908814 0.792570 0.648747
O O8 0.012367 0.000000 0.593803
O O9 0.250000 0.850378 0.936352
O O10 0.120557 0.781933 0.828897
O O11 0.105588 0.000000 0.942936
O O12 0.250000 0.227846 0.706667
O O13 0.346973 0.000000 0.728239
O O14 0.250000 0.799666 0.288294
O O15 0.363503 0.000000 0.239229
#
# Coordination Sequence:
#
# PCOD8214787 Si02
#       5
#     8   8   8   8   8
#     4   9  16  26  43  67  92 119 151 185 221 262
#     4   9  17  28  43  65  91 117 149 190 230 267
#     4   8  13  23  41  64  89 117 147 179 219 267
#     4   8  14  25  42  64  89 117 149 185 225 267
#     4   9  17  29  45  66  93 123 151 180 219 267
#
# _framework density 18.899052999999999
#
# number of rings (size 3 to 8) (size 9 to 14) (size 15 to 20)
#    0.000    3.400    0.000    1.800    0.000    3.200 
#    0.000    5.000    0.000    7.800    0.000    0.000 
#    0.000    6.400    0.000    0.000    0.000    0.000 
#
# Total GULP energy -495794.821387 kJ/mol
# GULP energy per Si atom -12394.870535 kJ/mol
# Density = 1.885604 g / cm^3
# Si number density = 18.899053 Si / 1000 Ang^3
#
#
#
# Elastic Constant Matrix: (Units=GPa)
#
#
# Indices 1 2 3 4 5 6 
#
# 1 75.8139 24.7039 70.3906 0.0000 0.0000 0.0000
# 2 24.7039 60.9341 55.7895 0.0000 0.0000 0.0000
# 3 70.3906 55.7895 197.8465 0.0000 0.0000 0.0000
# 4 0.0000 0.0000 0.0000 3.1764 0.0000 0.0000
# 5 0.0000 0.0000 0.0000 0.0000 20.2379 0.0000
# 6 0.0000 0.0000 0.0000 0.0000 0.0000 6.8407
#
#
#
# Elastic Compliance Matrix: (Units=1/GPa)
#
#
# Indices 1 2 3 4 5 6 
#
# 1 0.019901 -0.002137 -0.006478 0.000000 0.000000 0.000000
# 2 -0.002137 0.022352 -0.005543 0.000000 0.000000 0.000000
# 3 -0.006478 -0.005543 0.008922 0.000000 0.000000 0.000000
# 4 0.000000 0.000000 0.000000 0.314817 0.000000 0.000000
# 5 0.000000 0.000000 0.000000 0.000000 0.049412 0.000000
# 6 0.000000 0.000000 0.000000 0.000000 0.000000 0.146184
#
#
# Mechanical properties :
#
#
# Convention : Reuss Voigt Hill
#
# Bulk Modulus (GPa) = 43.74464 70.70693 57.22578
# Shear Modulus (GPa) = 8.36786 18.29839 13.33312
#
# Velocity S-wave (km/s) = 2.10648 3.11499 2.65899
# Velocity P-wave (km/s) = 5.39565 7.10153 6.30654
#
# Compressibility (1/GPa) = 0.02285994
#
# Stress axis : x y z
#
# Youngs Moduli (GPa) = 50.24864 44.73811 112.08253
#
# Poissons Ratio (x) = 0.09562 0.72604
# Poissons Ratio (y) = 0.10740 0.62122
# Poissons Ratio (z) = 0.32550 0.24796
#
# Static dielectric constant tensor:
#      x y z
#    x 3.334670 0.000000 0.000000 
#    y 0.000000 3.147510 0.000000 
#    z 0.000000 0.000000 3.748300 
# 
# 
# High freq. dielectric constant tensor:
#      x y z
#    x 1.719280 0.000000 0.000000 
#    y 0.000000 1.676830 0.000000 
#    z 0.000000 0.000000 1.737540 
# 
# From -- ./inp_files/23693.got.cif
#   From: 2010.03.12/outbox.cif.g09.slc.cpg/sg51_12_cif.got.tgz:23693.got - 2010.04.16 13:43:02.
