data_PCOD8214103
_publ_section_title
;
Structure prediction by ZEFSAII (Michael W. Deem and Ramdas Pophale) SiO2 
 PCOD8214103
Probable space group: P M M A
;
_chemical_formula_sum "Si O2"
_cell_formula_units_Z 48
_cell_length_a 16.165752
_cell_length_b 17.571499
_cell_length_c 8.127208
_cell_angle_alpha 90.000000
_cell_angle_beta 90.000000
_cell_angle_gamma 90.000000
_cell_volume 2308.586219
_symmetry_space_group_name_H-M "P M M A"
_symmetry_group_IT_number 51
_symmetry_cell_setting 'orthorhombic'
loop_
_space_group_symop_operation_xyz
x,y,z
1/2-x,-y,z
1/2+x,-y,-z
-x,y,-z
-x,-y,-z
1/2+x,y,-z
1/2-x,y,z
x,-y,z
loop_
_atom_site_type_symbol
_atom_site_label
_atom_site_fract_x
_atom_site_fract_y
_atom_site_fract_z
Si Si1 0.434183 0.358442 0.804589
Si Si2 0.605456 0.414573 0.859577
Si Si3 0.658329 0.659946 0.521004
Si Si4 0.842198 0.912916 0.319515
Si Si5 0.841278 0.825599 0.631637
Si Si6 0.490701 0.185909 0.817798
O O1 0.507370 0.418822 0.828135
O O2 0.395350 0.376241 0.626438
O O3 0.474280 0.275182 0.803747
O O4 0.374716 0.370537 0.965908
O O5 0.641351 0.500000 0.869355
O O6 0.644391 0.371540 0.704231
O O7 0.750000 0.639009 0.467389
O O8 0.644056 0.750357 0.521069
O O9 0.750000 0.894395 0.245734
O O10 0.838812 0.898982 0.514727
O O11 0.913307 0.858949 0.252886
O O12 0.865700 0.000000 0.284371
O O13 0.750000 0.819106 0.721362
O O14 0.919833 0.835759 0.746764
O O15 0.500000 0.157294 0.000000
#
# Coordination Sequence:
#
# PCOD8214103 Si02
#       6
#     8   8   8   8   8   8
#     4  11  21  39  64  93 123 165 217 265 318 394
#     4  11  24  42  63  90 128 168 211 272 330 384
#     4  11  23  39  63  92 123 166 217 266 322 388
#     4  10  23  42  65  96 133 169 210 263 320 381
#     4  10  21  39  62  92 127 166 215 268 320 379
#     4  12  22  37  66  96 128 169 216 264 318 388
#
# _framework density 20.791945999999999
#
# number of rings (size 3 to 8) (size 9 to 14) (size 15 to 20)
#    0.000    1.167    5.000    2.000    0.000    5.333 
#    0.000    0.000    0.000    2.000    0.000    0.000 
#    0.000    0.000    0.000    0.000    0.000    0.000 
#
# Total GULP energy -594695.827969 kJ/mol
# GULP energy per Si atom -12389.496416 kJ/mol
# Density = 2.074462 g / cm^3
# Si number density = 20.791946 Si / 1000 Ang^3
#
#
#
# Elastic Constant Matrix: (Units=GPa)
#
#
# Indices 1 2 3 4 5 6 
#
# 1 124.5350 33.3721 44.5015 0.0000 0.0000 0.0000
# 2 33.3721 69.0325 8.5109 0.0000 0.0000 0.0000
# 3 44.5015 8.5109 106.9516 0.0000 0.0000 0.0000
# 4 0.0000 0.0000 0.0000 10.2542 0.0000 0.0000
# 5 0.0000 0.0000 0.0000 0.0000 -718.5648 0.0000
# 6 0.0000 0.0000 0.0000 0.0000 0.0000 -192.5285
#
#
#
# Elastic Compliance Matrix: (Units=1/GPa)
#
#
# Indices 1 2 3 4 5 6 
#
# 1 0.010753 -0.004693 -0.004101 0.000000 0.000000 0.000000
# 2 -0.004693 0.016677 0.000625 0.000000 0.000000 0.000000
# 3 -0.004101 0.000625 0.011006 0.000000 0.000000 0.000000
# 4 0.000000 0.000000 0.000000 0.097521 0.000000 0.000000
# 5 0.000000 0.000000 0.000000 0.000000 -0.001392 0.000000
# 6 0.000000 0.000000 0.000000 0.000000 0.000000 -0.005194
#
#
# Mechanical properties :
#
#
# Convention : Reuss Voigt Hill
#
# Bulk Modulus (GPa) = 45.24711 52.58757 48.91734
# Shear Modulus (GPa) = 32.66380 -165.89217 -66.61418
#
# Velocity S-wave (km/s) = 3.96786 -8.94203 -5.66639
# Velocity P-wave (km/s) = 6.54225 9.01477 4.38549
#
# Compressibility (1/GPa) = 0.02210086
#
# Stress axis : x y z
#
# Youngs Moduli (GPa) = 93.00000 59.96159 90.85542
#
# Poissons Ratio (x) = 0.28137 0.37257
# Poissons Ratio (y) = 0.43641 -0.05682
# Poissons Ratio (z) = 0.38136 -0.03750
#
# Static dielectric constant tensor:
#      x y z
#    x 4.047040 0.000000 0.000000 
#    y 0.000000 3.615450 0.000000 
#    z 0.000000 0.000000 3.968810 
# 
# 
# High freq. dielectric constant tensor:
#      x y z
#    x 1.819470 0.000000 0.000000 
#    y 0.000000 1.802920 0.000000 
#    z 0.000000 0.000000 1.809740 
# 
# From -- ./inp_files/8280.got.cif
#   From: 2010.03.12/outbox.cif.g09.slc.cpg/sg51_5_cif.got.tgz:8280.got - 2010.04.16 13:43:02.
