data_PCOD8214356
_publ_section_title
;
Structure prediction by ZEFSAII (Michael W. Deem and Ramdas Pophale) SiO2 
 PCOD8214356
Probable space group: P M M A
;
_chemical_formula_sum "Si O2"
_cell_formula_units_Z 56
_cell_length_a 13.869381
_cell_length_b 22.005147
_cell_length_c 8.579427
_cell_angle_alpha 90.000000
_cell_angle_beta 90.000000
_cell_angle_gamma 90.000000
_cell_volume 2618.421969
_symmetry_space_group_name_H-M "P M M A"
_symmetry_group_IT_number 51
_symmetry_cell_setting 'orthorhombic'
loop_
_space_group_symop_operation_xyz
x,y,z
1/2-x,-y,z
1/2+x,-y,-z
-x,y,-z
-x,-y,-z
1/2+x,y,-z
1/2-x,y,z
x,-y,z
loop_
_atom_site_type_symbol
_atom_site_label
_atom_site_fract_x
_atom_site_fract_y
_atom_site_fract_z
Si Si1 0.500000 0.620544 0.500000
Si Si2 0.392655 0.819366 0.460349
Si Si3 0.359551 0.699353 0.291040
Si Si4 0.359422 0.068199 0.248315
Si Si5 0.362352 0.320945 0.948394
Si Si6 0.138631 0.568617 0.746088
Si Si7 0.500000 0.882562 0.000000
Si Si8 0.144696 0.197499 0.805078
O O1 0.427589 0.662967 0.405850
O O2 0.567354 0.576639 0.398706
O O3 0.500000 0.801627 0.500000
O O4 0.353964 0.770598 0.335766
O O5 0.383446 0.886324 0.388785
O O6 0.337247 0.816778 0.623766
O O7 0.250000 0.673536 0.298869
O O8 0.407718 0.692440 0.118651
O O9 0.250000 0.078426 0.191360
O O10 0.428364 0.076277 0.099939
O O11 0.373964 0.000000 0.313412
O O12 0.250000 0.323171 0.977772
O O13 0.397125 0.385507 0.881067
O O14 0.388316 0.267556 0.826271
O O15 0.250000 0.582767 0.697780
O O16 0.129544 0.500000 0.809588
O O17 0.438010 0.843054 0.880009
O O18 0.250000 0.187040 0.886136
#
# Coordination Sequence:
#
# PCOD8214356 Si02
#       8
#     4   8   8   8   8   8   4   8
#     4  12  23  38  62  96 125 160 210 256 312 378
#     4  12  23  43  64  95 127 165 211 259 316 378
#     4  11  23  40  64  93 127 161 200 258 318 373
#     4  11  25  45  67  91 126 171 213 260 315 375
#     4   9  21  40  62  90 122 162 209 256 310 372
#     4  10  22  42  64  87 123 168 211 259 311 368
#     4  12  23  42  66  96 129 158 216 260 320 378
#     4  11  23  39  64  94 127 162 203 262 322 378
#
# _framework density 21.386928000000001
#
# number of rings (size 3 to 8) (size 9 to 14) (size 15 to 20)
#    0.000    1.143    2.143    4.286    0.000    3.143 
#    0.000    2.143    0.000    6.000    0.000    0.000 
#    0.000    0.000    0.000    0.000    0.000    0.000 
#
# Total GULP energy -694366.483544 kJ/mol
# GULP energy per Si atom -12399.401492 kJ/mol
# Density = 2.133825 g / cm^3
# Si number density = 21.386928 Si / 1000 Ang^3
#
#
#
# Elastic Constant Matrix: (Units=GPa)
#
#
# Indices 1 2 3 4 5 6 
#
# 1 100.1392 31.6080 35.1579 0.0000 0.0000 0.0000
# 2 31.6080 128.2728 69.0059 0.0000 0.0000 0.0000
# 3 35.1579 69.0059 146.2408 0.0000 0.0000 0.0000
# 4 0.0000 0.0000 0.0000 31.4459 0.0000 0.0000
# 5 0.0000 0.0000 0.0000 0.0000 22.1273 0.0000
# 6 0.0000 0.0000 0.0000 0.0000 0.0000 27.9309
#
#
#
# Elastic Compliance Matrix: (Units=1/GPa)
#
#
# Indices 1 2 3 4 5 6 
#
# 1 0.011194 -0.001757 -0.001862 0.000000 0.000000 0.000000
# 2 -0.001757 0.010724 -0.004638 0.000000 0.000000 0.000000
# 3 -0.001862 -0.004638 0.009474 0.000000 0.000000 0.000000
# 4 0.000000 0.000000 0.000000 0.031801 0.000000 0.000000
# 5 0.000000 0.000000 0.000000 0.000000 0.045193 0.000000
# 6 0.000000 0.000000 0.000000 0.000000 0.000000 0.035803
#
#
# Mechanical properties :
#
#
# Convention : Reuss Voigt Hill
#
# Bulk Modulus (GPa) = 67.20999 71.79959 69.50479
# Shear Modulus (GPa) = 30.18196 32.22621 31.20408
#
# Velocity S-wave (km/s) = 3.76071 3.88599 3.82386
# Velocity P-wave (km/s) = 7.09586 7.33343 7.21562
#
# Compressibility (1/GPa) = 0.01487874
#
# Stress axis : x y z
#
# Youngs Moduli (GPa) = 89.33038 93.25139 105.54961
#
# Poissons Ratio (x) = 0.16380 0.19658
# Poissons Ratio (y) = 0.15691 0.48952
# Poissons Ratio (z) = 0.16637 0.43249
#
# Static dielectric constant tensor:
#      x y z
#    x 4.150320 0.000000 0.000000 
#    y 0.000000 3.799530 0.000000 
#    z 0.000000 0.000000 3.954530 
# 
# 
# High freq. dielectric constant tensor:
#      x y z
#    x 1.864900 0.000000 0.000000 
#    y 0.000000 1.828930 0.000000 
#    z 0.000000 0.000000 1.833660 
# 
# From -- ./inp_files/8611.got.cif
#   From: 2010.03.12/outbox.cif.g09.slc.cpg/sg51_5_cif.got.tgz:8611.got - 2010.04.16 13:43:02.
