data_PCOD8214627
_publ_section_title
;
Structure prediction by ZEFSAII (Michael W. Deem and Ramdas Pophale) SiO2 
 PCOD8214627
Probable space group: P M M A
;
_chemical_formula_sum "Si O2"
_cell_formula_units_Z 48
_cell_length_a 14.652660
_cell_length_b 13.555623
_cell_length_c 11.801261
_cell_angle_alpha 90.000000
_cell_angle_beta 90.000000
_cell_angle_gamma 90.000000
_cell_volume 2344.036499
_symmetry_space_group_name_H-M "P M M A"
_symmetry_group_IT_number 51
_symmetry_cell_setting 'orthorhombic'
loop_
_space_group_symop_operation_xyz
x,y,z
1/2-x,-y,z
1/2+x,-y,-z
-x,y,-z
-x,-y,-z
1/2+x,y,-z
1/2-x,y,z
x,-y,z
loop_
_atom_site_type_symbol
_atom_site_label
_atom_site_fract_x
_atom_site_fract_y
_atom_site_fract_z
Si Si1 0.016109 0.784915 0.629777
Si Si2 0.100217 0.188459 0.016611
Si Si3 0.644824 0.612523 0.301667
Si Si4 0.352951 0.113752 0.253126
Si Si5 0.144020 0.607128 0.963926
Si Si6 0.150282 0.891557 0.786828
O O1 0.065137 0.677885 0.639296
O O2 0.082965 0.862433 0.687308
O O3 0.000000 0.811503 0.500000
O O4 0.918570 0.802746 0.691727
O O5 0.148602 0.131033 0.117924
O O6 0.095815 0.307047 0.037614
O O7 0.152659 0.176678 0.897874
O O8 0.000000 0.144134 0.000000
O O9 0.750000 0.646656 0.330155
O O10 0.632010 0.500000 0.343147
O O11 0.627418 0.622093 0.169010
O O12 0.250000 0.130314 0.298552
O O13 0.383313 0.000000 0.277926
O O14 0.250000 0.610924 0.992371
O O15 0.104690 0.500000 0.001401
O O16 0.250000 0.887774 0.731199
O O17 0.123177 0.000000 0.828982
#
# Coordination Sequence:
#
# PCOD8214627 Si02
#       6
#     8   8   8   8   8   8
#     4  12  25  41  63  89 123 163 210 267 311 360
#     4  12  21  35  62  91 123 159 198 254 316 379
#     4   9  18  37  66  96 125 158 200 253 311 372
#     4  11  25  43  61  86 125 172 214 256 315 379
#     4   9  17  31  55  87 121 155 194 242 299 365
#     4  11  23  39  62  91 120 154 203 261 314 372
#
# _framework density 20.477497
#
# number of rings (size 3 to 8) (size 9 to 14) (size 15 to 20)
#    0.000    1.333    3.333    4.000    0.000    5.333 
#    0.000    2.500    0.000    1.500    0.000    0.000 
#    0.000    0.000    0.000    0.000    0.000    0.000 
#
# Total GULP energy -594803.279010 kJ/mol
# GULP energy per Si atom -12391.734979 kJ/mol
# Density = 2.043089 g / cm^3
# Si number density = 20.477497 Si / 1000 Ang^3
#
#
#
# Elastic Constant Matrix: (Units=GPa)
#
#
# Indices 1 2 3 4 5 6 
#
# 1 123.1090 44.1087 37.9831 0.0000 0.0000 0.0000
# 2 44.1087 116.1176 32.0287 0.0000 0.0000 0.0000
# 3 37.9831 32.0287 74.1887 0.0000 0.0000 0.0000
# 4 0.0000 0.0000 0.0000 9.3663 0.0000 0.0000
# 5 0.0000 0.0000 0.0000 0.0000 -2.6368 0.0000
# 6 0.0000 0.0000 0.0000 0.0000 0.0000 33.3857
#
#
#
# Elastic Compliance Matrix: (Units=1/GPa)
#
#
# Indices 1 2 3 4 5 6 
#
# 1 0.010400 -0.002817 -0.004108 0.000000 0.000000 0.000000
# 2 -0.002817 0.010539 -0.003108 0.000000 0.000000 0.000000
# 3 -0.004108 -0.003108 0.016924 0.000000 0.000000 0.000000
# 4 0.000000 0.000000 0.000000 0.106765 0.000000 0.000000
# 5 0.000000 0.000000 0.000000 0.000000 -0.379250 0.000000
# 6 0.000000 0.000000 0.000000 0.000000 0.000000 0.029953
#
#
# Mechanical properties :
#
#
# Convention : Reuss Voigt Hill
#
# Bulk Modulus (GPa) = 56.18949 60.18404 58.18676
# Shear Modulus (GPa) = -27.98461 21.30938 -3.33762
#
# Velocity S-wave (km/s) = -3.70077 3.22937 -1.27806
# Velocity P-wave (km/s) = 3.03945 6.58477 5.12823
#
# Compressibility (1/GPa) = 0.01779692
#
# Stress axis : x y z
#
# Youngs Moduli (GPa) = 96.15561 94.88269 59.08743
#
# Poissons Ratio (x) = 0.26732 0.24274
# Poissons Ratio (y) = 0.27090 0.18362
# Poissons Ratio (z) = 0.39503 0.29486
#
# Static dielectric constant tensor:
#      x y z
#    x 3.827340 0.000000 0.000000 
#    y 0.000000 4.010660 0.000000 
#    z 0.000000 0.000000 3.273810 
# 
# 
# High freq. dielectric constant tensor:
#      x y z
#    x 1.811380 0.000000 0.000000 
#    y 0.000000 1.813280 0.000000 
#    z 0.000000 0.000000 1.754190 
# 
# From -- ./inp_files/16441.got.cif
#   From: 2010.03.12/outbox.cif.g09.slc.cpg/sg51_9_cif.got.tgz:16441.got - 2010.04.16 13:43:02.
