data_PCOD8214059
_publ_section_title
;
Structure prediction by ZEFSAII (Michael W. Deem and Ramdas Pophale) SiO2 
 PCOD8214059
Probable space group: P M M A
;
_chemical_formula_sum "Si O2"
_cell_formula_units_Z 56
_cell_length_a 16.159622
_cell_length_b 8.958128
_cell_length_c 18.856485
_cell_angle_alpha 90.000000
_cell_angle_beta 90.000000
_cell_angle_gamma 90.000000
_cell_volume 2729.664058
_symmetry_space_group_name_H-M "P M M A"
_symmetry_group_IT_number 51
_symmetry_cell_setting 'orthorhombic'
loop_
_space_group_symop_operation_xyz
x,y,z
1/2-x,-y,z
1/2+x,-y,-z
-x,y,-z
-x,-y,-z
1/2+x,y,-z
1/2-x,y,z
x,-y,z
loop_
_atom_site_type_symbol
_atom_site_label
_atom_site_fract_x
_atom_site_fract_y
_atom_site_fract_z
Si Si1 0.919753 0.669878 0.207923
Si Si2 0.414687 0.673243 0.041095
Si Si3 0.500077 0.176344 0.418665
Si Si4 0.921424 0.172810 0.808566
Si Si5 0.656502 0.165660 0.080329
Si Si6 0.841089 0.175162 0.665545
Si Si7 0.657831 0.329096 0.352040
O O1 0.951778 0.500000 0.200754
O O2 0.889466 0.719061 0.130999
O O3 0.848575 0.683771 0.266720
O O4 0.994054 0.779159 0.230956
O O5 0.391804 0.500000 0.039774
O O6 0.412347 0.726735 0.121938
O O7 0.500000 0.706667 0.000000
O O8 0.346184 0.768498 0.999105
O O9 0.500000 0.226595 0.500000
O O10 0.417417 0.244700 0.380351
O O11 0.586090 0.233854 0.387262
O O12 0.500281 0.000000 0.409541
O O13 0.851118 0.205239 0.749936
O O14 0.923546 0.000000 0.830511
O O15 0.750000 0.153234 0.105464
O O16 0.615680 0.000000 0.083514
O O17 0.750000 0.240281 0.643452
O O18 0.841602 0.000000 0.650840
O O19 0.750000 0.271369 0.373340
O O20 0.646729 0.500000 0.376010
#
# Coordination Sequence:
#
# PCOD8214059 Si02
#       7
#     8   8   8   8   8   8   8
#     4  11  21  36  59  85 116 155 198 243 300 360
#     4  11  23  38  57  82 112 151 195 244 304 364
#     4  10  21  38  63  95 126 159 201 247 297 353
#     4  11  21  35  60  86 112 151 202 254 305 358
#     4  11  24  39  57  84 115 149 193 244 297 356
#     4   9  19  37  60  87 121 159 199 246 302 359
#     4  10  22  39  60  88 124 164 202 242 296 361
#
# _framework density 20.515345
#
# number of rings (size 3 to 8) (size 9 to 14) (size 15 to 20)
#    0.000    1.571    2.857    2.143    0.000    4.571 
#    0.000    2.857    0.000    3.429    0.000    0.000 
#    0.000    0.000    0.000    0.000    0.000    0.000 
#
# Total GULP energy -694169.660591 kJ/mol
# GULP energy per Si atom -12395.886796 kJ/mol
# Density = 2.046865 g / cm^3
# Si number density = 20.515345 Si / 1000 Ang^3
#
#
#
# Elastic Constant Matrix: (Units=GPa)
#
#
# Indices 1 2 3 4 5 6 
#
# 1 126.2229 18.7268 53.9127 0.0000 0.0000 0.0000
# 2 18.7268 62.3956 38.2905 0.0000 0.0000 0.0000
# 3 53.9127 38.2905 111.0376 0.0000 0.0000 0.0000
# 4 0.0000 0.0000 0.0000 22.8859 0.0000 0.0000
# 5 0.0000 0.0000 0.0000 0.0000 21.9451 0.0000
# 6 0.0000 0.0000 0.0000 0.0000 0.0000 22.7109
#
#
#
# Elastic Compliance Matrix: (Units=1/GPa)
#
#
# Indices 1 2 3 4 5 6 
#
# 1 0.009995 -0.000028 -0.004844 0.000000 0.000000 0.000000
# 2 -0.000028 0.020329 -0.006997 0.000000 0.000000 0.000000
# 3 -0.004844 -0.006997 0.013771 0.000000 0.000000 0.000000
# 4 0.000000 0.000000 0.000000 0.043695 0.000000 0.000000
# 5 0.000000 0.000000 0.000000 0.000000 0.045568 0.000000
# 6 0.000000 0.000000 0.000000 0.000000 0.000000 0.044032
#
#
# Mechanical properties :
#
#
# Convention : Reuss Voigt Hill
#
# Bulk Modulus (GPa) = 49.11907 57.94626 53.53267
# Shear Modulus (GPa) = 24.04862 26.09012 25.06937
#
# Velocity S-wave (km/s) = 3.42749 3.57001 3.49948
# Velocity P-wave (km/s) = 6.29747 6.73052 6.51760
#
# Compressibility (1/GPa) = 0.02035869
#
# Stress axis : x y z
#
# Youngs Moduli (GPa) = 100.04599 49.19121 72.61874
#
# Poissons Ratio (x) = 0.00135 0.35174
# Poissons Ratio (y) = 0.00275 0.50811
# Poissons Ratio (z) = 0.48459 0.34419
#
# Static dielectric constant tensor:
#      x y z
#    x 3.964080 0.000000 0.000000 
#    y 0.000000 3.577650 0.000000 
#    z 0.000000 0.000000 3.730940 
# 
# 
# High freq. dielectric constant tensor:
#      x y z
#    x 1.801950 0.000000 0.000000 
#    y 0.000000 1.787850 0.000000 
#    z 0.000000 0.000000 1.801200 
# 
# From -- ./inp_files/33405.got.cif
#   From: 2010.03.12/outbox.cif.g09.slc.cpg/sg51_17_cif.got.tgz:33405.got - 2010.04.16 13:43:02.
