data_PCOD8214659
_publ_section_title
;
Structure prediction by ZEFSAII (Michael W. Deem and Ramdas Pophale) SiO2 
 PCOD8214659
Probable space group: P M M A
;
_chemical_formula_sum "Si O2"
_cell_formula_units_Z 56
_cell_length_a 19.288072
_cell_length_b 15.431667
_cell_length_c 9.202787
_cell_angle_alpha 90.000000
_cell_angle_beta 90.000000
_cell_angle_gamma 90.000000
_cell_volume 2739.182901
_symmetry_space_group_name_H-M "P M M A"
_symmetry_group_IT_number 51
_symmetry_cell_setting 'orthorhombic'
loop_
_space_group_symop_operation_xyz
x,y,z
1/2-x,-y,z
1/2+x,-y,-z
-x,y,-z
-x,-y,-z
1/2+x,y,-z
1/2-x,y,z
x,-y,z
loop_
_atom_site_type_symbol
_atom_site_label
_atom_site_fract_x
_atom_site_fract_y
_atom_site_fract_z
Si Si1 0.551037 0.899989 0.366457
Si Si2 0.963969 0.255712 0.152366
Si Si3 0.970621 0.596868 0.655155
Si Si4 0.831431 0.905733 0.861316
Si Si5 0.671564 0.737177 0.010747
Si Si6 0.829090 0.154064 0.558752
Si Si7 0.673761 0.660625 0.693391
O O1 0.500000 0.884577 0.500000
O O2 0.529974 0.834435 0.238752
O O3 0.628310 0.874164 0.417557
O O4 0.549042 0.000000 0.312018
O O5 0.004513 0.333266 0.229372
O O6 0.884623 0.291475 0.131211
O O7 0.000000 0.237858 0.000000
O O8 0.996198 0.500000 0.696383
O O9 0.886717 0.594551 0.650300
O O10 0.000000 0.625206 0.500000
O O11 0.750000 0.889708 0.840220
O O12 0.856167 0.834616 0.975843
O O13 0.862182 0.895267 0.699075
O O14 0.850248 0.000000 0.924302
O O15 0.750000 0.734450 0.075170
O O16 0.667755 0.682284 0.864005
O O17 0.750000 0.126511 0.528318
O O18 0.834975 0.255727 0.591626
O O19 0.750000 0.619257 0.665529
#
# Coordination Sequence:
#
# PCOD8214659 Si02
#       7
#     8   8   8   8   8   8   8
#     4  11  25  40  56  83 123 168 213 259 309 365
#     4  12  24  41  63  87 122 163 203 255 314 376
#     4  11  24  43  68  96 124 159 203 252 312 384
#     4   8  14  26  49  80 111 148 197 250 298 349
#     4   9  19  35  56  85 119 156 201 248 302 364
#     4   9  17  32  57  84 114 156 204 253 304 357
#     4   9  17  35  62  92 123 159 203 251 302 363
#
# _framework density 20.444051999999999
#
# number of rings (size 3 to 8) (size 9 to 14) (size 15 to 20)
#    0.000    2.143    1.429    4.286    2.000    2.857 
#    0.000    0.714    0.000    1.286    0.000    0.000 
#    0.000    0.000    0.000    0.000    0.000    0.000 
#
# Total GULP energy -694159.365846 kJ/mol
# GULP energy per Si atom -12395.702962 kJ/mol
# Density = 2.039752 g / cm^3
# Si number density = 20.444052 Si / 1000 Ang^3
#
#
#
# Elastic Constant Matrix: (Units=GPa)
#
#
# Indices 1 2 3 4 5 6 
#
# 1 124.8540 37.3308 47.8185 0.0000 0.0000 0.0000
# 2 37.3308 78.5838 43.0400 0.0000 0.0000 0.0000
# 3 47.8185 43.0400 79.4478 0.0000 0.0000 0.0000
# 4 0.0000 0.0000 0.0000 11.3727 0.0000 0.0000
# 5 0.0000 0.0000 0.0000 0.0000 31.3746 0.0000
# 6 0.0000 0.0000 0.0000 0.0000 0.0000 18.0903
#
#
#
# Elastic Compliance Matrix: (Units=1/GPa)
#
#
# Indices 1 2 3 4 5 6 
#
# 1 0.010671 -0.002206 -0.005228 0.000000 0.000000 0.000000
# 2 -0.002206 0.018550 -0.008721 0.000000 0.000000 0.000000
# 3 -0.005228 -0.008721 0.020458 0.000000 0.000000 0.000000
# 4 0.000000 0.000000 0.000000 0.087930 0.000000 0.000000
# 5 0.000000 0.000000 0.000000 0.000000 0.031873 0.000000
# 6 0.000000 0.000000 0.000000 0.000000 0.000000 0.055278
#
#
# Mechanical properties :
#
#
# Convention : Reuss Voigt Hill
#
# Bulk Modulus (GPa) = 57.57453 59.91822 58.74638
# Shear Modulus (GPa) = 19.02152 22.48061 20.75106
#
# Velocity S-wave (km/s) = 3.05358 3.31964 3.18939
# Velocity P-wave (km/s) = 6.37618 6.63818 6.50850
#
# Compressibility (1/GPa) = 0.01736879
#
# Stress axis : x y z
#
# Youngs Moduli (GPa) = 93.71065 53.90859 48.88041
#
# Poissons Ratio (x) = 0.11893 0.25553
# Poissons Ratio (y) = 0.20673 0.42631
# Poissons Ratio (z) = 0.48989 0.47016
#
# Static dielectric constant tensor:
#      x y z
#    x 3.997160 0.000000 0.000000 
#    y 0.000000 3.507710 0.000000 
#    z 0.000000 0.000000 3.482420 
# 
# 
# High freq. dielectric constant tensor:
#      x y z
#    x 1.812750 0.000000 0.000000 
#    y 0.000000 1.779820 0.000000 
#    z 0.000000 0.000000 1.773840 
# 
# From -- ./inp_files/10992.got.cif
#   From: 2010.03.12/outbox.cif.g09.slc.cpg/sg51_6_cif.got.tgz:10992.got - 2010.04.16 13:43:02.
