data_PCOD8214858
_publ_section_title
;
Structure prediction by ZEFSAII (Michael W. Deem and Ramdas Pophale) SiO2 
 PCOD8214858
Probable space group: P M M A
;
_chemical_formula_sum "Si O2"
_cell_formula_units_Z 48
_cell_length_a 9.122979
_cell_length_b 9.518883
_cell_length_c 31.219066
_cell_angle_alpha 90.000000
_cell_angle_beta 90.000000
_cell_angle_gamma 90.000000
_cell_volume 2711.081477
_symmetry_space_group_name_H-M "P M M A"
_symmetry_group_IT_number 51
_symmetry_cell_setting 'orthorhombic'
loop_
_space_group_symop_operation_xyz
x,y,z
1/2-x,-y,z
1/2+x,-y,-z
-x,y,-z
-x,-y,-z
1/2+x,y,-z
1/2-x,y,z
x,-y,z
loop_
_atom_site_type_symbol
_atom_site_label
_atom_site_fract_x
_atom_site_fract_y
_atom_site_fract_z
Si Si1 0.915802 0.332428 0.291195
Si Si2 0.420794 0.337013 0.876240
Si Si3 0.921459 0.838605 0.042650
Si Si4 0.084082 0.667482 0.541770
Si Si5 0.584132 0.667468 0.625281
Si Si6 0.084576 0.332746 0.208170
O O1 0.750000 0.274847 0.292125
O O2 0.915762 0.500000 0.290983
O O3 0.001603 0.275260 0.332684
O O4 0.996230 0.273371 0.248950
O O5 0.250000 0.310028 0.867600
O O6 0.453737 0.500000 0.884681
O O7 0.477936 0.251986 0.917322
O O8 0.507607 0.279299 0.835111
O O9 0.750000 0.817640 0.035710
O O10 0.962958 0.000000 0.051570
O O11 0.000000 0.782547 0.000000
O O12 0.250000 0.725329 0.541674
O O13 0.084929 0.500000 0.541779
O O14 0.000000 0.724863 0.500000
O O15 0.000616 0.724952 0.583637
O O16 0.750000 0.725357 0.624971
O O17 0.584920 0.500000 0.625214
O O18 0.250000 0.274750 0.209795
O O19 0.082943 0.500000 0.209363
#
# Coordination Sequence:
#
# PCOD8214858 Si02
#       6
#     8   8   8   8   8   8
#     4   9  15  22  32  45  62  85 111 139 175 222
#     4   9  17  29  44  62  84 109 136 166 201 241
#     4   9  18  32  48  65  86 112 140 169 202 240
#     4   9  15  21  27  34  45  63  90 127 173 223
#     4   9  15  21  28  38  52  71  98 133 173 219
#     4   9  16  25  37  54  75  97 121 151 188 229
#
# _framework density 17.705112
#
# number of rings (size 3 to 8) (size 9 to 14) (size 15 to 20)
#    0.000    3.000    0.000    2.000    0.000    9.000 
#    0.000    0.000    0.000    0.000    0.000    0.000 
#    0.000    0.000    0.000    0.000    0.000    0.000 
#
# Total GULP energy -595153.993892 kJ/mol
# GULP energy per Si atom -12399.041539 kJ/mol
# Density = 1.766481 g / cm^3
# Si number density = 17.705112 Si / 1000 Ang^3
#
#
#
# Elastic Constant Matrix: (Units=GPa)
#
#
# Indices 1 2 3 4 5 6 
#
# 1 149.6560 16.5449 103.5908 0.0000 0.0000 0.0000
# 2 16.5449 13.5539 27.8802 0.0000 0.0000 0.0000
# 3 103.5908 27.8802 209.1506 0.0000 0.0000 0.0000
# 4 0.0000 0.0000 0.0000 0.3189 0.0000 0.0000
# 5 0.0000 0.0000 0.0000 0.0000 42.8765 0.0000
# 6 0.0000 0.0000 0.0000 0.0000 0.0000 6.7188
#
#
#
# Elastic Compliance Matrix: (Units=1/GPa)
#
#
# Indices 1 2 3 4 5 6 
#
# 1 0.010247 -0.002850 -0.004695 0.000000 0.000000 0.000000
# 2 -0.002850 0.102445 -0.012245 0.000000 0.000000 0.000000
# 3 -0.004695 -0.012245 0.008739 0.000000 0.000000 0.000000
# 4 0.000000 0.000000 0.000000 3.135394 0.000000 0.000000
# 5 0.000000 0.000000 0.000000 0.000000 0.023323 0.000000
# 6 0.000000 0.000000 0.000000 0.000000 0.000000 0.148836
#
#
# Mechanical properties :
#
#
# Convention : Reuss Voigt Hill
#
# Bulk Modulus (GPa) = 12.21727 74.26580 43.24154
# Shear Modulus (GPa) = 1.43027 24.93916 13.18472
#
# Velocity S-wave (km/s) = 0.89977 3.75718 2.73185
# Velocity P-wave (km/s) = 2.82752 7.80121 5.86744
#
# Compressibility (1/GPa) = 0.08185135
#
# Stress axis : x y z
#
# Youngs Moduli (GPa) = 97.58733 9.76133 114.42843
#
# Poissons Ratio (x) = 0.02782 0.53729
# Poissons Ratio (y) = 0.27813 1.40112
# Poissons Ratio (z) = 0.45822 0.11952
#
# Static dielectric constant tensor:
#      x y z
#    x 3.448250 0.000000 0.000000 
#    y 0.000000 2.508780 0.000000 
#    z 0.000000 0.000000 3.543530 
# 
# 
# High freq. dielectric constant tensor:
#      x y z
#    x 1.697560 0.000000 0.000000 
#    y 0.000000 1.591880 0.000000 
#    z 0.000000 0.000000 1.704700 
# 
# From -- ./inp_files/36156.got.cif
#   From: 2010.03.12/outbox.cif.g09.slc.cpg/sg51_19_cif.got.tgz:36156.got - 2010.04.16 13:43:02.
