data_PCOD8214944
_publ_section_title
;
Structure prediction by ZEFSAII (Michael W. Deem and Ramdas Pophale) SiO2 
 PCOD8214944
Probable space group: P N N A
;
_chemical_formula_sum "Si O2"
_cell_formula_units_Z 52
_cell_length_a 13.743634
_cell_length_b 17.467256
_cell_length_c 12.105996
_cell_angle_alpha 90.000000
_cell_angle_beta 90.000000
_cell_angle_gamma 90.000000
_cell_volume 2906.208660
_symmetry_space_group_name_H-M "P N N A"
_symmetry_group_IT_number 52
_symmetry_cell_setting 'orthorhombic'
loop_
_space_group_symop_operation_xyz
x,y,z
1/2-x,-y,z
x,1/2-y,1/2-z
1/2-x,1/2+y,1/2-z
-x,-y,-z
1/2+x,y,-z
-x,1/2+y,1/2+z
1/2+x,1/2-y,1/2+z
loop_
_atom_site_type_symbol
_atom_site_label
_atom_site_fract_x
_atom_site_fract_y
_atom_site_fract_z
Si Si1 0.136887 0.733361 0.496115
Si Si2 0.427637 0.784227 0.486379
Si Si3 0.949344 0.664109 0.223222
Si Si4 0.733751 0.318071 0.835716
Si Si5 0.367047 0.101894 0.181609
Si Si6 0.250000 0.000000 0.035842
Si Si7 0.305889 0.652137 0.587100
O O1 0.193836 0.802940 0.438179
O O2 0.116625 0.671818 0.401420
O O3 0.201420 0.694822 0.593273
O O4 0.037971 0.765644 0.548956
O O5 0.423908 0.838694 0.594096
O O6 0.374058 0.830613 0.387544
O O7 0.374414 0.702503 0.506425
O O8 0.989128 0.750000 0.250000
O O9 0.851092 0.646430 0.291062
O O10 0.031097 0.599904 0.251197
O O11 0.727223 0.250000 0.750000
O O12 0.776130 0.389252 0.766521
O O13 0.341665 0.026674 0.111068
O O14 0.206574 0.067611 0.961790
#
# Coordination Sequence:
#
# PCOD8214944 Si02
#       7
#     8   8   8   8   8   4   8
#     4   9  15  29  49  75 102 127 167 215 266 307
#     4  10  17  30  54  79  99 132 171 223 271 311
#     4  10  16  30  53  76  99 134 173 215 271 314
#     4   9  17  29  50  75 103 130 172 219 260 304
#     4  10  16  31  50  71 101 140 177 207 251 317
#     4  10  22  32  48  76 112 142 176 208 252 314
#     4   9  19  30  47  80 106 134 172 210 254 319
#
# _framework density 17.892728000000002
#
# number of rings (size 3 to 8) (size 9 to 14) (size 15 to 20)
#    0.000    2.462    4.615    1.385    0.000    0.615 
#    0.000    3.846    0.000    1.846    0.000    0.000 
#    0.000    0.000    0.000    0.000    0.000    0.000 
#
# Total GULP energy -644329.981819 kJ/mol
# GULP energy per Si atom -12390.961189 kJ/mol
# Density = 1.785200 g / cm^3
# Si number density = 17.892728 Si / 1000 Ang^3
#
#
#
# Elastic Constant Matrix: (Units=GPa)
#
#
# Indices 1 2 3 4 5 6 
#
# 1 142.8506 26.2063 60.9971 0.0000 0.0000 0.0000
# 2 26.2063 47.3392 23.3664 0.0000 0.0000 0.0000
# 3 60.9971 23.3664 67.4149 0.0000 0.0000 0.0000
# 4 0.0000 0.0000 0.0000 12.0940 0.0000 0.0000
# 5 0.0000 0.0000 0.0000 0.0000 35.4129 0.0000
# 6 0.0000 0.0000 0.0000 0.0000 0.0000 17.8547
#
#
#
# Elastic Compliance Matrix: (Units=1/GPa)
#
#
# Indices 1 2 3 4 5 6 
#
# 1 0.011493 -0.001483 -0.009885 0.000000 0.000000 0.000000
# 2 -0.001483 0.025675 -0.007557 0.000000 0.000000 0.000000
# 3 -0.009885 -0.007557 0.026397 0.000000 0.000000 0.000000
# 4 0.000000 0.000000 0.000000 0.082686 0.000000 0.000000
# 5 0.000000 0.000000 0.000000 0.000000 0.028238 0.000000
# 6 0.000000 0.000000 0.000000 0.000000 0.000000 0.056008
#
#
# Mechanical properties :
#
#
# Convention : Reuss Voigt Hill
#
# Bulk Modulus (GPa) = 38.88839 53.19379 46.04109
# Shear Modulus (GPa) = 18.05575 22.87466 20.46520
#
# Velocity S-wave (km/s) = 3.18010 3.57940 3.38564
# Velocity P-wave (km/s) = 5.93847 6.84665 6.40867
#
# Compressibility (1/GPa) = 0.02571462
#
# Stress axis : x y z
#
# Youngs Moduli (GPa) = 87.00681 38.94773 37.88328
#
# Poissons Ratio (x) = 0.05777 0.37448
# Poissons Ratio (y) = 0.12906 0.28629
# Poissons Ratio (z) = 0.86007 0.29433
#
# Static dielectric constant tensor:
#      x y z
#    x 3.521900 0.000000 0.000000 
#    y 0.000000 2.906320 0.000000 
#    z 0.000000 0.000000 3.366460 
# 
# 
# High freq. dielectric constant tensor:
#      x y z
#    x 1.699780 0.000000 0.000000 
#    y 0.000000 1.637520 0.000000 
#    z 0.000000 0.000000 1.678720 
# 
# From -- ./inp_files/19784.got.cif
#   From: 2010.06.25/outbox.cif.g09.slc.cpg/sg52_10_cif.got.tgz:19784.got - 2010.06.26 19:32:48.
