data_PCOD8214181
_publ_section_title
;
Structure prediction by ZEFSAII (Michael W. Deem and Ramdas Pophale) SiO2 
 PCOD8214181
Probable space group: P M M A
;
_chemical_formula_sum "Si O2"
_cell_formula_units_Z 48
_cell_length_a 8.944527
_cell_length_b 31.379502
_cell_length_c 9.103333
_cell_angle_alpha 90.000000
_cell_angle_beta 90.000000
_cell_angle_gamma 90.000000
_cell_volume 2555.076195
_symmetry_space_group_name_H-M "P M M A"
_symmetry_group_IT_number 51
_symmetry_cell_setting 'orthorhombic'
loop_
_space_group_symop_operation_xyz
x,y,z
1/2-x,-y,z
1/2+x,-y,-z
-x,y,-z
-x,-y,-z
1/2+x,y,-z
1/2-x,y,z
x,-y,z
loop_
_atom_site_type_symbol
_atom_site_label
_atom_site_fract_x
_atom_site_fract_y
_atom_site_fract_z
Si Si1 0.927804 0.672531 0.658256
Si Si2 0.425407 0.407987 0.157897
Si Si3 0.922858 0.000000 0.153836
Si Si4 0.926287 0.907974 0.158664
Si Si5 0.423146 0.170103 0.653667
Si Si6 0.074541 0.746706 0.843403
Si Si7 0.076331 0.500000 0.154230
O O1 0.750000 0.676987 0.645380
O O2 0.978504 0.627281 0.726259
O O3 0.000000 0.677341 0.500000
O O4 0.991482 0.708718 0.762294
O O5 0.250000 0.403889 0.130214
O O6 0.467684 0.454704 0.230006
O O7 0.500000 0.400555 0.000000
O O8 0.964349 0.954824 0.231795
O O9 0.750000 0.000000 0.118679
O O10 0.000000 0.000000 0.000000
O O11 0.750000 0.901577 0.136743
O O12 0.990122 0.872156 0.268372
O O13 0.000000 0.902649 0.000000
O O14 0.500000 0.178493 0.500000
O O15 0.250000 0.163719 0.621785
O O16 0.454760 0.210076 0.756437
O O17 0.250000 0.736349 0.858539
O O18 0.000000 0.752736 0.000000
O O19 0.250000 0.500000 0.123692
O O20 0.000000 0.500000 0.000000
#
# Coordination Sequence:
#
# PCOD8214181 Si02
#       7
#     8   8   4   8   8   8   4
#     4  11  23  38  55  78 108 142 176 215 262 312
#     4   9  18  32  53  78 104 135 173 215 259 306
#     4   8  14  26  47  72 100 130 164 208 255 298
#     4   9  17  31  51  76 102 132 170 212 255 302
#     4  10  22  37  53  75 105 138 172 209 255 306
#     4  11  23  39  59  82 105 134 172 215 260 310
#     4   8  14  28  49  74 102 132 168 212 257 302
#
# _framework density 18.786131999999998
#
# number of rings (size 3 to 8) (size 9 to 14) (size 15 to 20)
#    0.000    2.333    0.000    2.500    0.000    6.000 
#    0.000    0.833    0.000    0.000    0.000    0.000 
#    0.000    0.000    0.000    0.000    0.000    0.000 
#
# Total GULP energy -594765.242013 kJ/mol
# GULP energy per Si atom -12390.942542 kJ/mol
# Density = 1.874337 g / cm^3
# Si number density = 18.786132 Si / 1000 Ang^3
#
#
#
# Elastic Constant Matrix: (Units=GPa)
#
#
# Indices 1 2 3 4 5 6 
#
# 1 54.0155 53.5022 45.0777 0.0000 0.0000 0.0000
# 2 53.5022 157.2257 57.7732 0.0000 0.0000 0.0000
# 3 45.0777 57.7732 111.3459 0.0000 0.0000 0.0000
# 4 0.0000 0.0000 0.0000 -97.0627 0.0000 0.0000
# 5 0.0000 0.0000 0.0000 0.0000 27.0732 0.0000
# 6 0.0000 0.0000 0.0000 0.0000 0.0000 21.9119
#
#
#
# Elastic Compliance Matrix: (Units=1/GPa)
#
#
# Indices 1 2 3 4 5 6 
#
# 1 0.034916 -0.008263 -0.009848 0.000000 0.000000 0.000000
# 2 -0.008263 0.009814 -0.001747 0.000000 0.000000 0.000000
# 3 -0.009848 -0.001747 0.013874 0.000000 0.000000 0.000000
# 4 0.000000 0.000000 0.000000 -0.010303 0.000000 0.000000
# 5 0.000000 0.000000 0.000000 0.000000 0.036937 0.000000
# 6 0.000000 0.000000 0.000000 0.000000 0.000000 0.045637
#
#
# Mechanical properties :
#
#
# Convention : Reuss Voigt Hill
#
# Bulk Modulus (GPa) = 52.94233 70.58813 61.76523
# Shear Modulus (GPa) = 28.26636 1.46675 14.86656
#
# Velocity S-wave (km/s) = 3.88318 0.88457 2.81616
# Velocity P-wave (km/s) = 6.95329 6.22089 6.59726
#
# Compressibility (1/GPa) = 0.01888848
#
# Stress axis : x y z
#
# Youngs Moduli (GPa) = 28.63995 101.89584 72.07473
#
# Poissons Ratio (x) = 0.84195 0.70982
# Poissons Ratio (y) = 0.23665 0.12591
# Poissons Ratio (z) = 0.28206 0.17801
#
# Static dielectric constant tensor:
#      x y z
#    x 3.422650 0.000000 0.000000 
#    y 0.000000 4.378640 0.000000 
#    z 0.000000 0.000000 3.183640 
# 
# 
# High freq. dielectric constant tensor:
#      x y z
#    x 1.729280 0.000000 0.000000 
#    y 0.000000 1.763020 0.000000 
#    z 0.000000 0.000000 1.702870 
# 
# From -- ./inp_files/6143.got.cif
#   From: 2010.03.12/outbox.cif.g09.slc.cpg/sg51_4_cif.got.tgz:6143.got - 2010.04.16 13:43:02.
