data_PCOD8214460
_publ_section_title
;
Structure prediction by ZEFSAII (Michael W. Deem and Ramdas Pophale) SiO2 
 PCOD8214460
Probable space group: P M M A
;
_chemical_formula_sum "Si O2"
_cell_formula_units_Z 40
_cell_length_a 14.509574
_cell_length_b 9.065370
_cell_length_c 15.841532
_cell_angle_alpha 90.000000
_cell_angle_beta 90.000000
_cell_angle_gamma 90.000000
_cell_volume 2083.710476
_symmetry_space_group_name_H-M "P M M A"
_symmetry_group_IT_number 51
_symmetry_cell_setting 'orthorhombic'
loop_
_space_group_symop_operation_xyz
x,y,z
1/2-x,-y,z
1/2+x,-y,-z
-x,y,-z
-x,-y,-z
1/2+x,y,-z
1/2-x,y,z
x,-y,z
loop_
_atom_site_type_symbol
_atom_site_label
_atom_site_fract_x
_atom_site_fract_y
_atom_site_fract_z
Si Si1 0.902296 0.161915 0.544978
Si Si2 0.027980 0.174599 0.130683
Si Si3 0.649873 0.170409 0.369013
Si Si4 0.853453 0.174465 0.028325
Si Si5 0.025717 0.326113 0.303234
O O1 0.836548 0.213418 0.468317
O O2 0.903527 0.273847 0.623643
O O3 0.000000 0.154410 0.500000
O O4 0.873696 0.000000 0.579403
O O5 0.103388 0.222575 0.061256
O O6 0.057652 0.258346 0.214968
O O7 0.029752 0.000000 0.146285
O O8 0.924691 0.224811 0.101719
O O9 0.750000 0.190777 0.325779
O O10 0.578135 0.274096 0.321776
O O11 0.616213 0.000000 0.361479
O O12 0.750000 0.242399 0.040392
O O13 0.846654 0.000000 0.030477
O O14 0.028895 0.500000 0.298175
#
# Coordination Sequence:
#
# PCOD8214460 Si02
#       5
#     8   8   8   8   8
#     4   8  15  30  50  68  88 119 159 198 236 279
#     4   9  17  31  52  75  98 126 162 204 249 296
#     4   9  18  33  52  72  94 123 162 207 250 289
#     4   8  15  30  53  77  96 119 159 209 254 295
#     4  11  21  31  46  70 101 133 162 194 236 289
#
# _framework density 19.196525999999999
#
# number of rings (size 3 to 8) (size 9 to 14) (size 15 to 20)
#    0.000    3.000    0.000    4.200    0.000    4.800 
#    0.000    5.000    0.000    7.800    0.000    0.000 
#    0.000    0.000    0.000    0.000    0.000    0.000 
#
# Total GULP energy -495597.649460 kJ/mol
# GULP energy per Si atom -12389.941237 kJ/mol
# Density = 1.915283 g / cm^3
# Si number density = 19.196526 Si / 1000 Ang^3
#
#
#
# Elastic Constant Matrix: (Units=GPa)
#
#
# Indices 1 2 3 4 5 6 
#
# 1 53.6253 -2.5659 -11.0707 0.0000 0.0000 0.0000
# 2 -2.5659 73.8931 30.7025 0.0000 0.0000 0.0000
# 3 -11.0707 30.7025 80.2537 0.0000 0.0000 0.0000
# 4 0.0000 0.0000 0.0000 3.4090 0.0000 0.0000
# 5 0.0000 0.0000 0.0000 0.0000 14.0180 0.0000
# 6 0.0000 0.0000 0.0000 0.0000 0.0000 10.0116
#
#
#
# Elastic Compliance Matrix: (Units=1/GPa)
#
#
# Indices 1 2 3 4 5 6 
#
# 1 0.019211 -0.000516 0.002848 0.000000 0.000000 0.000000
# 2 -0.000516 0.016105 -0.006232 0.000000 0.000000 0.000000
# 3 0.002848 -0.006232 0.015238 0.000000 0.000000 0.000000
# 4 0.000000 0.000000 0.000000 0.293343 0.000000 0.000000
# 5 0.000000 0.000000 0.000000 0.000000 0.071337 0.000000
# 6 0.000000 0.000000 0.000000 0.000000 0.000000 0.099884
#
#
# Mechanical properties :
#
#
# Convention : Reuss Voigt Hill
#
# Bulk Modulus (GPa) = 23.39092 26.87821 25.13456
# Shear Modulus (GPa) = 9.30804 18.20146 13.75475
#
# Velocity S-wave (km/s) = 2.20439 3.08257 2.67970
# Velocity P-wave (km/s) = 4.32326 5.16736 4.76404
#
# Compressibility (1/GPa) = 0.04275163
#
# Stress axis : x y z
#
# Youngs Moduli (GPa) = 52.05331 62.09384 65.62725
#
# Poissons Ratio (x) = 0.03204 -0.18687
# Poissons Ratio (y) = 0.02686 0.40901
# Poissons Ratio (z) = -0.14822 0.38699
#
# Static dielectric constant tensor:
#      x y z
#    x -7.912240 0.000000 0.000000 
#    y 0.000000 3.069950 0.000000 
#    z 0.000000 0.000000 3.627250 
# 
# 
# High freq. dielectric constant tensor:
#      x y z
#    x 1.737190 0.000000 0.000000 
#    y 0.000000 1.701540 0.000000 
#    z 0.000000 0.000000 1.745540 
# 
# From -- ./inp_files/23725.got.cif
#   From: 2010.03.12/outbox.cif.g09.slc.cpg/sg51_12_cif.got.tgz:23725.got - 2010.04.16 13:43:02.
