data_PCOD8214496
_publ_section_title
;
Structure prediction by ZEFSAII (Michael W. Deem and Ramdas Pophale) SiO2 
 PCOD8214496
Probable space group: P M M A
;
_chemical_formula_sum "Si O2"
_cell_formula_units_Z 64
_cell_length_a 19.852823
_cell_length_b 8.869813
_cell_length_c 18.932765
_cell_angle_alpha 90.000000
_cell_angle_beta 90.000000
_cell_angle_gamma 90.000000
_cell_volume 3333.886256
_symmetry_space_group_name_H-M "P M M A"
_symmetry_group_IT_number 51
_symmetry_cell_setting 'orthorhombic'
loop_
_space_group_symop_operation_xyz
x,y,z
1/2-x,-y,z
1/2+x,-y,-z
-x,y,-z
-x,-y,-z
1/2+x,y,-z
1/2-x,y,z
x,-y,z
loop_
_atom_site_type_symbol
_atom_site_label
_atom_site_fract_x
_atom_site_fract_y
_atom_site_fract_z
Si Si1 0.322838 0.171212 0.605914
Si Si2 0.544970 0.178902 0.711935
Si Si3 0.048523 0.322096 0.823340
Si Si4 0.969508 0.823765 0.429254
Si Si5 0.178625 0.676853 0.751094
Si Si6 0.071156 0.834604 0.965758
Si Si7 0.826762 0.677157 0.765827
Si Si8 0.172187 0.674680 0.071577
O O1 0.250000 0.190350 0.565283
O O2 0.389501 0.208926 0.561296
O O3 0.324407 0.286991 0.669266
O O4 0.328642 0.000000 0.634731
O O5 0.513111 0.242193 0.784146
O O6 0.504045 0.241518 0.642722
O O7 0.622474 0.235438 0.712915
O O8 0.543229 0.000000 0.713551
O O9 0.039979 0.500000 0.812911
O O10 0.116128 0.249316 0.790316
O O11 0.055683 0.285279 0.904944
O O12 0.000000 0.748335 0.500000
O O13 0.985284 0.000000 0.428779
O O14 0.250000 0.735900 0.782888
O O15 0.173834 0.500000 0.761126
O O16 0.125974 0.772483 0.020430
O O17 0.096119 0.000000 0.938744
O O18 0.000000 0.859417 0.000000
O O19 0.750000 0.721103 0.745372
O O20 0.837938 0.500000 0.756038
O O21 0.840634 0.722886 0.847272
O O22 0.250000 0.702557 0.051409
O O23 0.153365 0.500000 0.061490
#
# Coordination Sequence:
#
# PCOD8214496 Si02
#       8
#     8   8   8   8   8   8   8   8
#     4   9  16  29  52  77 101 136 180 218 255 307
#     4  11  21  34  55  82 111 140 178 230 279 326
#     4  11  22  35  54  77 105 143 184 224 273 331
#     4   9  18  33  52  78 113 147 179 223 278 329
#     4   9  18  32  50  74 103 133 168 213 261 307
#     4  11  24  38  52  76 109 142 180 228 279 326
#     4   9  19  37  60  83 108 142 182 223 271 330
#     4   9  19  37  59  80 104 140 185 226 269 328
#
# _framework density 19.196815000000001
#
# number of rings (size 3 to 8) (size 9 to 14) (size 15 to 20)
#    0.000    2.250    1.250    2.625    0.000    5.000 
#    0.000    3.125    0.000    5.625    0.000    1.750 
#    0.000    0.000    0.000    0.000    0.000    0.000 
#
# Total GULP energy -792972.034196 kJ/mol
# GULP energy per Si atom -12390.188034 kJ/mol
# Density = 1.915312 g / cm^3
# Si number density = 19.196815 Si / 1000 Ang^3
#
#
#
# Elastic Constant Matrix: (Units=GPa)
#
#
# Indices 1 2 3 4 5 6 
#
# 1 150.2409 37.0780 56.1403 0.0000 0.0000 0.0000
# 2 37.0780 45.5005 18.7405 0.0000 0.0000 0.0000
# 3 56.1403 18.7405 74.6426 0.0000 0.0000 0.0000
# 4 0.0000 0.0000 0.0000 16.2778 0.0000 0.0000
# 5 0.0000 0.0000 0.0000 0.0000 29.8909 0.0000
# 6 0.0000 0.0000 0.0000 0.0000 0.0000 40.3809
#
#
#
# Elastic Compliance Matrix: (Units=1/GPa)
#
#
# Indices 1 2 3 4 5 6 
#
# 1 0.010519 -0.005926 -0.006424 0.000000 0.000000 0.000000
# 2 -0.005926 0.027851 -0.002536 0.000000 0.000000 0.000000
# 3 -0.006424 -0.002536 0.018865 0.000000 0.000000 0.000000
# 4 0.000000 0.000000 0.000000 0.061433 0.000000 0.000000
# 5 0.000000 0.000000 0.000000 0.000000 0.033455 0.000000
# 6 0.000000 0.000000 0.000000 0.000000 0.000000 0.024764
#
#
# Mechanical properties :
#
#
# Convention : Reuss Voigt Hill
#
# Bulk Modulus (GPa) = 36.41015 54.92239 45.66627
# Shear Modulus (GPa) = 23.16827 27.87159 25.51993
#
# Velocity S-wave (km/s) = 3.47779 3.81450 3.65003
# Velocity P-wave (km/s) = 5.92745 6.93345 6.45009
#
# Compressibility (1/GPa) = 0.02746487
#
# Stress axis : x y z
#
# Youngs Moduli (GPa) = 95.06864 35.90520 53.00810
#
# Poissons Ratio (x) = 0.21277 0.34050
# Poissons Ratio (y) = 0.56337 0.13440
# Poissons Ratio (z) = 0.61068 0.09104
#
# Static dielectric constant tensor:
#      x y z
#    x 4.013100 0.000000 0.000000 
#    y 0.000000 3.425340 0.000000 
#    z 0.000000 0.000000 3.340940 
# 
# 
# High freq. dielectric constant tensor:
#      x y z
#    x 1.771530 0.000000 0.000000 
#    y 0.000000 1.730940 0.000000 
#    z 0.000000 0.000000 1.715810 
# 
# From -- ./inp_files/30666.got.cif
#   From: 2010.03.12/outbox.cif.g09.slc.cpg/sg51_16_cif.got.tgz:30666.got - 2010.04.16 13:43:02.
