data_PCOD8214983
_publ_section_title
;
Structure prediction by ZEFSAII (Michael W. Deem and Ramdas Pophale) SiO2 
 PCOD8214983
Probable space group: P N N A
;
_chemical_formula_sum "Si O2"
_cell_formula_units_Z 48
_cell_length_a 12.600583
_cell_length_b 11.008612
_cell_length_c 19.999260
_cell_angle_alpha 90.000000
_cell_angle_beta 90.000000
_cell_angle_gamma 90.000000
_cell_volume 2774.195935
_symmetry_space_group_name_H-M "P N N A"
_symmetry_group_IT_number 52
_symmetry_cell_setting 'orthorhombic'
loop_
_space_group_symop_operation_xyz
x,y,z
1/2-x,-y,z
x,1/2-y,1/2-z
1/2-x,1/2+y,1/2-z
-x,-y,-z
1/2+x,y,-z
-x,1/2+y,1/2+z
1/2+x,1/2-y,1/2+z
loop_
_atom_site_type_symbol
_atom_site_label
_atom_site_fract_x
_atom_site_fract_y
_atom_site_fract_z
Si Si1 0.073086 0.700409 0.886527
Si Si2 0.147406 0.563663 0.448216
Si Si3 0.089356 0.048311 0.451733
Si Si4 0.208530 0.671312 0.013485
Si Si5 0.565790 0.527366 0.410630
Si Si6 0.685233 0.750000 0.250000
Si Si7 0.750000 0.500000 0.307496
O O1 0.033578 0.831732 0.910368
O O2 0.113016 0.707319 0.811258
O O3 0.971537 0.609656 0.888892
O O4 0.166611 0.656851 0.937144
O O5 0.250000 0.500000 0.415203
O O6 0.174886 0.703360 0.454842
O O7 0.123921 0.497725 0.519325
O O8 0.042776 0.549386 0.402211
O O9 0.164245 0.150722 0.487136
O O10 0.159613 0.929709 0.435626
O O11 0.000000 0.000000 0.500000
O O12 0.643983 0.492669 0.351081
O O13 0.752769 0.627540 0.266369
#
# Coordination Sequence:
#
# PCOD8214983 Si02
#       7
#     8   8   8   8   8   4   4
#     4   9  18  34  50  76 104 140 178 213 267 332
#     4  10  17  28  49  79 102 142 161 206 283 328
#     4   9  17  31  48  73 110 137 168 227 268 322
#     4   9  18  30  48  80 109 130 175 220 274 323
#     4   9  18  31  49  73 110 131 171 219 263 317
#     4  10  22  36  56  74 108 152 186 216 276 318
#     4  10  20  40  50  80 104 144 184 230 252 330
#
# _framework density 17.302311
#
# number of rings (size 3 to 8) (size 9 to 14) (size 15 to 20)
#    0.000    2.667    0.833    1.000    0.000    4.000 
#    3.000    0.000    0.000    0.000   34.667    1.167 
#    0.000    0.000    0.000    0.000    0.000    0.000 
#
# Total GULP energy -594675.030780 kJ/mol
# GULP energy per Si atom -12389.063141 kJ/mol
# Density = 1.726293 g / cm^3
# Si number density = 17.302311 Si / 1000 Ang^3
#
#
#
# Elastic Constant Matrix: (Units=GPa)
#
#
# Indices 1 2 3 4 5 6 
#
# 1 131.8543 66.5390 39.7417 0.0000 0.0000 0.0000
# 2 66.5390 113.6457 40.9946 0.0000 0.0000 0.0000
# 3 39.7417 40.9946 66.1233 0.0000 0.0000 0.0000
# 4 0.0000 0.0000 0.0000 23.4026 0.0000 0.0000
# 5 0.0000 0.0000 0.0000 0.0000 16.1441 0.0000
# 6 0.0000 0.0000 0.0000 0.0000 0.0000 35.3150
#
#
#
# Elastic Compliance Matrix: (Units=1/GPa)
#
#
# Indices 1 2 3 4 5 6 
#
# 1 0.011355 -0.005392 -0.003481 0.000000 0.000000 0.000000
# 2 -0.005392 0.013895 -0.005373 0.000000 0.000000 0.000000
# 3 -0.003481 -0.005373 0.020547 0.000000 0.000000 0.000000
# 4 0.000000 0.000000 0.000000 0.042730 0.000000 0.000000
# 5 0.000000 0.000000 0.000000 0.000000 0.061942 0.000000
# 6 0.000000 0.000000 0.000000 0.000000 0.000000 0.028317
#
#
# Mechanical properties :
#
#
# Convention : Reuss Voigt Hill
#
# Bulk Modulus (GPa) = 57.79599 67.35265 62.57432
# Shear Modulus (GPa) = 23.46900 25.92888 24.69894
#
# Velocity S-wave (km/s) = 3.68694 3.87535 3.78232
# Velocity P-wave (km/s) = 7.18337 7.68348 7.43763
#
# Compressibility (1/GPa) = 0.01730224
#
# Stress axis : x y z
#
# Youngs Moduli (GPa) = 88.07028 71.96960 48.66882
#
# Poissons Ratio (x) = 0.38808 0.16943
# Poissons Ratio (y) = 0.47490 0.26152
# Poissons Ratio (z) = 0.30660 0.38673
#
# Static dielectric constant tensor:
#      x y z
#    x 3.667670 0.000000 0.000000 
#    y 0.000000 3.614100 0.000000 
#    z 0.000000 0.000000 2.879770 
# 
# 
# High freq. dielectric constant tensor:
#      x y z
#    x 1.677800 0.000000 0.000000 
#    y 0.000000 1.685160 0.000000 
#    z 0.000000 0.000000 1.612630 
# 
# From -- ./inp_files/32246.got.cif
#   From: 2010.06.25/outbox.cif.g09.slc.cpg/sg52_17_cif.got.tgz:32246.got - 2010.06.26 19:32:48.
