data_PCOD8214245
_publ_section_title
;
Structure prediction by ZEFSAII (Michael W. Deem and Ramdas Pophale) SiO2 
 PCOD8214245
Probable space group: P M M A
;
_chemical_formula_sum "Si O2"
_cell_formula_units_Z 40
_cell_length_a 18.326916
_cell_length_b 12.553233
_cell_length_c 8.937244
_cell_angle_alpha 90.000000
_cell_angle_beta 90.000000
_cell_angle_gamma 90.000000
_cell_volume 2056.120647
_symmetry_space_group_name_H-M "P M M A"
_symmetry_group_IT_number 51
_symmetry_cell_setting 'orthorhombic'
loop_
_space_group_symop_operation_xyz
x,y,z
1/2-x,-y,z
1/2+x,-y,-z
-x,y,-z
-x,-y,-z
1/2+x,y,-z
1/2-x,y,z
x,-y,z
loop_
_atom_site_type_symbol
_atom_site_label
_atom_site_fract_x
_atom_site_fract_y
_atom_site_fract_z
Si Si1 0.473744 0.877984 0.830370
Si Si2 0.553638 0.291565 0.630535
Si Si3 0.667123 0.620286 0.437617
Si Si4 0.924807 0.618998 0.932827
Si Si5 0.833580 0.747126 0.142770
O O1 0.526798 0.816287 0.712825
O O2 0.389179 0.842294 0.816018
O O3 0.478376 0.000000 0.780760
O O4 0.500000 0.862192 0.000000
O O5 0.500000 0.330813 0.500000
O O6 0.630738 0.289169 0.543784
O O7 0.564649 0.382038 0.755117
O O8 0.750000 0.619136 0.488395
O O9 0.634452 0.500000 0.453296
O O10 0.658656 0.655120 0.265797
O O11 0.910233 0.500000 0.989901
O O12 0.858151 0.693827 0.985766
O O13 0.000000 0.666058 0.000000
O O14 0.750000 0.789485 0.129832
#
# Coordination Sequence:
#
# PCOD8214245 Si02
#       5
#     8   8   8   8   8
#     4  11  23  44  66  86 113 150 203 259 309 350
#     4  12  21  38  61  90 119 158 200 244 299 357
#     4  10  22  38  57  87 129 168 197 236 296 361
#     4  11  21  35  57  87 121 155 200 242 283 346
#     4  11  21  40  63  87 121 158 204 248 295 358
#
# _framework density 19.45411
#
# number of rings (size 3 to 8) (size 9 to 14) (size 15 to 20)
#    0.000    1.000    6.000    1.200    0.000    6.000 
#    0.000    0.000    0.000    0.600    0.000    0.000 
#    0.000    0.000    0.000    0.000    0.000    0.000 
#
# Total GULP energy -495652.987769 kJ/mol
# GULP energy per Si atom -12391.324694 kJ/mol
# Density = 1.940983 g / cm^3
# Si number density = 19.454110 Si / 1000 Ang^3
#
#
#
# Elastic Constant Matrix: (Units=GPa)
#
#
# Indices 1 2 3 4 5 6 
#
# 1 118.4461 60.0529 47.7616 0.0000 0.0000 0.0000
# 2 60.0529 104.3380 26.2702 0.0000 0.0000 0.0000
# 3 47.7616 26.2702 115.0969 0.0000 0.0000 0.0000
# 4 0.0000 0.0000 0.0000 26.0412 0.0000 0.0000
# 5 0.0000 0.0000 0.0000 0.0000 34.8742 0.0000
# 6 0.0000 0.0000 0.0000 0.0000 0.0000 13.5126
#
#
#
# Elastic Compliance Matrix: (Units=1/GPa)
#
#
# Indices 1 2 3 4 5 6 
#
# 1 0.013502 -0.006749 -0.004063 0.000000 0.000000 0.000000
# 2 -0.006749 0.013542 -0.000290 0.000000 0.000000 0.000000
# 3 -0.004063 -0.000290 0.010441 0.000000 0.000000 0.000000
# 4 0.000000 0.000000 0.000000 0.038401 0.000000 0.000000
# 5 0.000000 0.000000 0.000000 0.000000 0.028674 0.000000
# 6 0.000000 0.000000 0.000000 0.000000 0.000000 0.074005
#
#
# Mechanical properties :
#
#
# Convention : Reuss Voigt Hill
#
# Bulk Modulus (GPa) = 65.44001 67.33894 66.38947
# Shear Modulus (GPa) = 24.28811 28.47202 26.38006
#
# Velocity S-wave (km/s) = 3.53722 3.82978 3.68641
# Velocity P-wave (km/s) = 7.09885 7.36517 7.23324
#
# Compressibility (1/GPa) = 0.01528117
#
# Stress axis : x y z
#
# Youngs Moduli (GPa) = 74.06043 73.84677 95.78059
#
# Poissons Ratio (x) = 0.49836 0.38914
# Poissons Ratio (y) = 0.49980 0.02781
# Poissons Ratio (z) = 0.30089 0.02144
#
# Static dielectric constant tensor:
#      x y z
#    x 3.734060 0.000000 0.000000 
#    y 0.000000 3.381570 0.000000 
#    z 0.000000 0.000000 3.695860 
# 
# 
# High freq. dielectric constant tensor:
#      x y z
#    x 1.755040 0.000000 0.000000 
#    y 0.000000 1.737450 0.000000 
#    z 0.000000 0.000000 1.765870 
# 
# From -- ./inp_files/7965.got.cif
#   From: 2010.03.12/outbox.cif.g09.slc.cpg/sg51_4_cif.got.tgz:7965.got - 2010.04.16 13:43:02.
