data_PCOD8214698
_publ_section_title
;
Structure prediction by ZEFSAII (Michael W. Deem and Ramdas Pophale) SiO2 
 PCOD8214698
Probable space group: P M M A
;
_chemical_formula_sum "Si O2"
_cell_formula_units_Z 48
_cell_length_a 10.112044
_cell_length_b 10.012124
_cell_length_c 30.823568
_cell_angle_alpha 90.000000
_cell_angle_beta 90.000000
_cell_angle_gamma 90.000000
_cell_volume 3120.671679
_symmetry_space_group_name_H-M "P M M A"
_symmetry_group_IT_number 51
_symmetry_cell_setting 'orthorhombic'
loop_
_space_group_symop_operation_xyz
x,y,z
1/2-x,-y,z
1/2+x,-y,-z
-x,y,-z
-x,-y,-z
1/2+x,y,-z
1/2-x,y,z
x,-y,z
loop_
_atom_site_type_symbol
_atom_site_label
_atom_site_fract_x
_atom_site_fract_y
_atom_site_fract_z
Si Si1 0.102669 0.340980 0.298622
Si Si2 0.907193 0.148635 0.868679
Si Si3 0.592736 0.648684 0.797693
Si Si4 0.102081 0.658919 0.631670
Si Si5 0.897817 0.341064 0.465233
Si Si6 0.397403 0.841040 0.034915
O O1 0.250000 0.284241 0.307964
O O2 0.106881 0.500000 0.301425
O O3 0.053803 0.299886 0.250436
O O4 0.001621 0.279650 0.333928
O O5 0.750000 0.142982 0.865006
O O6 0.967823 0.250056 0.833217
O O7 0.945669 0.199987 0.916835
O O8 0.964972 0.000000 0.860193
O O9 0.750000 0.643219 0.801180
O O10 0.535181 0.500000 0.806229
O O11 0.250000 0.709307 0.643075
O O12 0.098607 0.500000 0.633831
O O13 0.062546 0.706555 0.583207
O O14 0.750000 0.290989 0.476669
O O15 0.901795 0.500000 0.467199
O O16 0.000000 0.278789 0.500000
O O17 0.250000 0.784236 0.025467
O O18 0.393048 0.000000 0.031934
O O19 0.500000 0.780401 0.000000
#
# Coordination Sequence:
#
# PCOD8214698 Si02
#       6
#     8   8   8   8   8   8
#     4   8  13  20  30  44  59  76 102 135 167 197
#     4   8  13  21  34  52  71  90 114 143 173 206
#     4   8  13  21  33  49  68  88 112 144 177 206
#     4   8  13  20  28  38  54  76 102 133 167 201
#     4   8  13  19  25  34  49  70  97 129 164 199
#     4   8  13  21  34  52  71  90 114 143 172 203
#
# _framework density 15.381304999999999
#
# number of rings (size 3 to 8) (size 9 to 14) (size 15 to 20)
#    0.000    4.000    0.000    3.000    0.000    0.667 
#    0.000    3.333    0.000    1.500    0.000    0.000 
#    0.000    0.000    0.000    0.000    0.000    0.833 
#
# Total GULP energy -594659.146975 kJ/mol
# GULP energy per Si atom -12388.732229 kJ/mol
# Density = 1.534630 g / cm^3
# Si number density = 15.381305 Si / 1000 Ang^3
#
#
#
# Elastic Constant Matrix: (Units=GPa)
#
#
# Indices 1 2 3 4 5 6 
#
# 1 70.4632 17.0811 76.6278 0.0000 0.0000 0.0000
# 2 17.0811 23.8545 34.0431 0.0000 0.0000 0.0000
# 3 76.6278 34.0431 158.7478 0.0000 0.0000 0.0000
# 4 0.0000 0.0000 0.0000 4.4701 0.0000 0.0000
# 5 0.0000 0.0000 0.0000 0.0000 25.3481 0.0000
# 6 0.0000 0.0000 0.0000 0.0000 0.0000 3.5373
#
#
#
# Elastic Compliance Matrix: (Units=1/GPa)
#
#
# Indices 1 2 3 4 5 6 
#
# 1 0.029896 -0.001171 -0.014180 0.000000 0.000000 0.000000
# 2 -0.001171 0.060454 -0.012399 0.000000 0.000000 0.000000
# 3 -0.014180 -0.012399 0.015803 0.000000 0.000000 0.000000
# 4 0.000000 0.000000 0.000000 0.223710 0.000000 0.000000
# 5 0.000000 0.000000 0.000000 0.000000 0.039451 0.000000
# 6 0.000000 0.000000 0.000000 0.000000 0.000000 0.282700
#
#
# Mechanical properties :
#
#
# Convention : Reuss Voigt Hill
#
# Bulk Modulus (GPa) = 19.74204 56.50772 38.12488
# Shear Modulus (GPa) = 6.90229 15.02533 10.96381
#
# Velocity S-wave (km/s) = 2.12066 3.12886 2.67273
# Velocity P-wave (km/s) = 4.34272 7.06192 5.86216
#
# Compressibility (1/GPa) = 0.05065333
#
# Stress axis : x y z
#
# Youngs Moduli (GPa) = 33.44941 16.54153 63.27994
#
# Poissons Ratio (x) = 0.01937 0.89729
# Poissons Ratio (y) = 0.03917 0.78461
# Poissons Ratio (z) = 0.47430 0.20510
#
# Static dielectric constant tensor:
#      x y z
#    x 2.963430 0.000000 0.000000 
#    y 0.000000 2.505150 0.000000 
#    z 0.000000 0.000000 3.356250 
# 
# 
# High freq. dielectric constant tensor:
#      x y z
#    x 1.559520 0.000000 0.000000 
#    y 0.000000 1.514290 0.000000 
#    z 0.000000 0.000000 1.604200 
# 
# From -- ./inp_files/32943.got.cif
#   From: 2010.03.12/outbox.cif.g09.slc.cpg/sg51_17_cif.got.tgz:32943.got - 2010.04.16 13:43:02.
