data_PCOD8214490
_publ_section_title
;
Structure prediction by ZEFSAII (Michael W. Deem and Ramdas Pophale) SiO2 
 PCOD8214490
Probable space group: P M M A
;
_chemical_formula_sum "Si O2"
_cell_formula_units_Z 48
_cell_length_a 26.073113
_cell_length_b 8.939839
_cell_length_c 11.619932
_cell_angle_alpha 90.000000
_cell_angle_beta 90.000000
_cell_angle_gamma 90.000000
_cell_volume 2708.483355
_symmetry_space_group_name_H-M "P M M A"
_symmetry_group_IT_number 51
_symmetry_cell_setting 'orthorhombic'
loop_
_space_group_symop_operation_xyz
x,y,z
1/2-x,-y,z
1/2+x,-y,-z
-x,y,-z
-x,-y,-z
1/2+x,y,-z
1/2-x,y,z
x,-y,z
loop_
_atom_site_type_symbol
_atom_site_label
_atom_site_fract_x
_atom_site_fract_y
_atom_site_fract_z
Si Si1 0.071530 0.673012 0.291802
Si Si2 0.458767 0.332840 0.639685
Si Si3 0.445212 0.176071 0.048648
Si Si4 0.191352 0.675579 0.669358
Si Si5 0.108827 0.330736 0.852438
Si Si6 0.621531 0.175355 0.508427
O O1 0.084245 0.500000 0.272390
O O2 0.066894 0.750082 0.169570
O O3 0.116789 0.749705 0.365548
O O4 0.019343 0.695217 0.365320
O O5 0.445205 0.500000 0.592995
O O6 0.441182 0.320145 0.771789
O O7 0.429549 0.210368 0.564582
O O8 0.444865 0.000000 0.065302
O O9 0.500000 0.231948 0.000000
O O10 0.400148 0.223414 0.960863
O O11 0.250000 0.719860 0.691521
O O12 0.183815 0.500000 0.647346
O O13 0.158853 0.724314 0.781598
O O14 0.171382 0.760116 0.556053
O O15 0.116721 0.500000 0.896872
O O16 0.627926 0.000000 0.523853
#
# Coordination Sequence:
#
# PCOD8214490 Si02
#       6
#     8   8   8   8   8   8
#     4  11  21  34  52  71 101 145 187 219 253 305
#     4   9  18  32  50  72 101 140 182 217 252 304
#     4  11  22  33  48  74 110 146 179 217 263 314
#     4   9  19  38  62  83 103 132 174 221 266 316
#     4   9  17  32  53  78 104 136 178 219 259 305
#     4  11  22  33  49  77 110 137 169 216 270 320
#
# _framework density 17.722094999999999
#
# number of rings (size 3 to 8) (size 9 to 14) (size 15 to 20)
#    0.000    2.000    1.667    4.000    0.000    7.000 
#    0.000    0.000    0.000    1.000    0.000    2.333 
#    0.000    0.000    0.000    0.000    0.000    0.000 
#
# Total GULP energy -595244.476200 kJ/mol
# GULP energy per Si atom -12400.926588 kJ/mol
# Density = 1.768176 g / cm^3
# Si number density = 17.722095 Si / 1000 Ang^3
#
#
#
# Elastic Constant Matrix: (Units=GPa)
#
#
# Indices 1 2 3 4 5 6 
#
# 1 89.6854 36.6448 40.4335 0.0000 0.0000 0.0000
# 2 36.6448 91.2859 54.0100 0.0000 0.0000 0.0000
# 3 40.4335 54.0100 99.9981 0.0000 0.0000 0.0000
# 4 0.0000 0.0000 0.0000 26.7172 0.0000 0.0000
# 5 0.0000 0.0000 0.0000 0.0000 18.4667 0.0000
# 6 0.0000 0.0000 0.0000 0.0000 0.0000 15.5533
#
#
#
# Elastic Compliance Matrix: (Units=1/GPa)
#
#
# Indices 1 2 3 4 5 6 
#
# 1 0.014325 -0.003415 -0.003948 0.000000 0.000000 0.000000
# 2 -0.003415 0.016913 -0.007754 0.000000 0.000000 0.000000
# 3 -0.003948 -0.007754 0.015785 0.000000 0.000000 0.000000
# 4 0.000000 0.000000 0.000000 0.037429 0.000000 0.000000
# 5 0.000000 0.000000 0.000000 0.000000 0.054152 0.000000
# 6 0.000000 0.000000 0.000000 0.000000 0.000000 0.064295
#
#
# Mechanical properties :
#
#
# Convention : Reuss Voigt Hill
#
# Bulk Modulus (GPa) = 59.56214 60.34955 59.95584
# Shear Modulus (GPa) = 20.94422 22.13951 21.54186
#
# Velocity S-wave (km/s) = 3.44148 3.53832 3.49024
# Velocity P-wave (km/s) = 7.03375 7.12883 7.08145
#
# Compressibility (1/GPa) = 0.01678919
#
# Stress axis : x y z
#
# Youngs Moduli (GPa) = 69.80703 59.12520 63.35245
#
# Poissons Ratio (x) = 0.20189 0.25011
# Poissons Ratio (y) = 0.23837 0.49125
# Poissons Ratio (z) = 0.27560 0.45848
#
# Static dielectric constant tensor:
#      x y z
#    x 3.137150 0.000000 0.000000 
#    y 0.000000 3.207970 0.000000 
#    z 0.000000 0.000000 3.252800 
# 
# 
# High freq. dielectric constant tensor:
#      x y z
#    x 1.653020 0.000000 0.000000 
#    y 0.000000 1.684920 0.000000 
#    z 0.000000 0.000000 1.686740 
# 
# From -- ./inp_files/19001.got.cif
#   From: 2010.03.12/outbox.cif.g09.slc.cpg/sg51_10_cif.got.tgz:19001.got - 2010.04.16 13:43:02.
