data_PCOD8214799
_publ_section_title
;
Structure prediction by ZEFSAII (Michael W. Deem and Ramdas Pophale) SiO2 
 PCOD8214799
Probable space group: P M M A
;
_chemical_formula_sum "Si O2"
_cell_formula_units_Z 48
_cell_length_a 10.251371
_cell_length_b 9.906085
_cell_length_c 29.445403
_cell_angle_alpha 90.000000
_cell_angle_beta 90.000000
_cell_angle_gamma 90.000000
_cell_volume 2990.208721
_symmetry_space_group_name_H-M "P M M A"
_symmetry_group_IT_number 51
_symmetry_cell_setting 'orthorhombic'
loop_
_space_group_symop_operation_xyz
x,y,z
1/2-x,-y,z
1/2+x,-y,-z
-x,y,-z
-x,-y,-z
1/2+x,y,-z
1/2-x,y,z
x,-y,z
loop_
_atom_site_type_symbol
_atom_site_label
_atom_site_fract_x
_atom_site_fract_y
_atom_site_fract_z
Si Si1 0.904932 0.651630 0.279428
Si Si2 0.404603 0.349724 0.619925
Si Si3 0.511873 0.160683 0.103546
Si Si4 0.404765 0.845925 0.798560
Si Si5 0.750000 0.161055 0.941794
Si Si6 0.250000 0.838851 0.955729
Si Si7 0.599001 0.156267 0.459810
O O1 0.750000 0.660268 0.279000
O O2 0.950265 0.500000 0.266951
O O3 0.956981 0.690303 0.329863
O O4 0.961708 0.756099 0.242609
O O5 0.250000 0.350392 0.621446
O O6 0.454886 0.500000 0.606780
O O7 0.452507 0.241698 0.583071
O O8 0.532523 0.210675 0.155027
O O9 0.375313 0.216574 0.084945
O O10 0.623705 0.217578 0.070422
O O11 0.517567 0.000000 0.103003
O O12 0.250000 0.834109 0.803372
O O13 0.446389 0.000000 0.789062
O O14 0.750000 0.000000 0.942781
O O15 0.750000 0.217709 0.993044
O O16 0.250000 0.000000 0.956335
O O17 0.500000 0.193620 0.500000
O O18 0.750000 0.191145 0.472893
O O19 0.587173 0.000000 0.446496
#
# Coordination Sequence:
#
# PCOD8214799 Si02
#       7
#     8   8   8   8   4   4   8
#     4   8  14  24  38  58  83 106 131 168 209 245
#     4   8  14  25  40  59  84 110 136 172 213 245
#     4   9  15  23  33  50  76 103 130 162 198 237
#     4   9  15  23  36  55  80 106 129 160 204 245
#     4   9  16  22  32  50  73 105 137 161 192 239
#     4   9  14  22  34  48  73 105 133 161 198 239
#     4   9  17  28  42  62  88 116 143 171 204 243
#
# _framework density 16.052392000000001
#
# number of rings (size 3 to 8) (size 9 to 14) (size 15 to 20)
#    0.000    3.333    0.833    1.500    0.000    3.000 
#    0.000    3.333    0.000    0.000    2.167    0.583 
#    0.000    4.000    0.000    0.000    0.000    0.000 
#
# Total GULP energy -594874.785955 kJ/mol
# GULP energy per Si atom -12393.224707 kJ/mol
# Density = 1.601586 g / cm^3
# Si number density = 16.052392 Si / 1000 Ang^3
#
#
#
# Elastic Constant Matrix: (Units=GPa)
#
#
# Indices 1 2 3 4 5 6 
#
# 1 65.8478 22.0867 49.7130 0.0000 0.0000 0.0000
# 2 22.0867 58.2342 72.1810 0.0000 0.0000 0.0000
# 3 49.7130 72.1810 168.7404 0.0000 0.0000 0.0000
# 4 0.0000 0.0000 0.0000 8.1081 0.0000 0.0000
# 5 0.0000 0.0000 0.0000 0.0000 15.3120 0.0000
# 6 0.0000 0.0000 0.0000 0.0000 0.0000 6.3602
#
#
#
# Elastic Compliance Matrix: (Units=1/GPa)
#
#
# Indices 1 2 3 4 5 6 
#
# 1 0.019540 -0.000587 -0.005506 0.000000 0.000000 0.000000
# 2 -0.000587 0.036570 -0.015471 0.000000 0.000000 0.000000
# 3 -0.005506 -0.015471 0.014166 0.000000 0.000000 0.000000
# 4 0.000000 0.000000 0.000000 0.123333 0.000000 0.000000
# 5 0.000000 0.000000 0.000000 0.000000 0.065308 0.000000
# 6 0.000000 0.000000 0.000000 0.000000 0.000000 0.157227
#
#
# Mechanical properties :
#
#
# Convention : Reuss Voigt Hill
#
# Bulk Modulus (GPa) = 36.83200 64.53154 50.68177
# Shear Modulus (GPa) = 10.67644 15.87886 13.27765
#
# Velocity S-wave (km/s) = 2.58175 3.14855 2.87913
# Velocity P-wave (km/s) = 5.64641 7.31476 6.53405
#
# Compressibility (1/GPa) = 0.02715031
#
# Stress axis : x y z
#
# Youngs Moduli (GPa) = 51.17715 27.34468 70.59123
#
# Poissons Ratio (x) = 0.01604 0.38866
# Poissons Ratio (y) = 0.03002 1.09209
# Poissons Ratio (z) = 0.28177 0.42304
#
# Static dielectric constant tensor:
#      x y z
#    x 2.780020 0.000000 0.000000 
#    y 0.000000 2.842830 0.000000 
#    z 0.000000 0.000000 3.376860 
# 
# 
# High freq. dielectric constant tensor:
#      x y z
#    x 1.575270 0.000000 0.000000 
#    y 0.000000 1.578960 0.000000 
#    z 0.000000 0.000000 1.630500 
# 
# From -- ./inp_files/35372.got.cif
#   From: 2010.03.12/outbox.cif.g09.slc.cpg/sg51_18_cif.got.tgz:35372.got - 2010.04.16 13:43:02.
