data_PCOD8214741
_publ_section_title
;
Structure prediction by ZEFSAII (Michael W. Deem and Ramdas Pophale) SiO2 
 PCOD8214741
Probable space group: P M M A
;
_chemical_formula_sum "Si O2"
_cell_formula_units_Z 48
_cell_length_a 14.183799
_cell_length_b 9.407410
_cell_length_c 21.305830
_cell_angle_alpha 90.000000
_cell_angle_beta 90.000000
_cell_angle_gamma 90.000000
_cell_volume 2842.896821
_symmetry_space_group_name_H-M "P M M A"
_symmetry_group_IT_number 51
_symmetry_cell_setting 'orthorhombic'
loop_
_space_group_symop_operation_xyz
x,y,z
1/2-x,-y,z
1/2+x,-y,-z
-x,y,-z
-x,-y,-z
1/2+x,y,-z
1/2-x,y,z
x,-y,z
loop_
_atom_site_type_symbol
_atom_site_label
_atom_site_fract_x
_atom_site_fract_y
_atom_site_fract_z
Si Si1 0.512952 0.666993 0.741043
Si Si2 0.486453 0.834408 0.929230
Si Si3 0.642128 0.334786 0.158976
Si Si4 0.145827 0.330600 0.500299
Si Si5 0.358014 0.164687 0.170662
Si Si6 0.000129 0.331262 0.600506
O O1 0.534665 0.500000 0.740745
O O2 0.417179 0.702270 0.778614
O O3 0.602532 0.743971 0.771649
O O4 0.500241 0.729566 0.670975
O O5 0.398189 0.751784 0.899828
O O6 0.582753 0.800600 0.891965
O O7 0.461049 0.000000 0.927298
O O8 0.500000 0.780379 0.000000
O O9 0.750000 0.290137 0.171401
O O10 0.633520 0.500000 0.142227
O O11 0.250000 0.263752 0.500209
O O12 0.149483 0.500000 0.501320
O O13 0.092701 0.279952 0.437116
O O14 0.091644 0.275737 0.562507
O O15 0.250000 0.207566 0.157692
O O16 0.367410 0.000000 0.188909
O O17 0.003220 0.500000 0.603375
#
# Coordination Sequence:
#
# PCOD8214741 Si02
#       6
#     8   8   8   8   8   8
#     4   9  17  29  45  65  89 116 148 184 217 254
#     4   9  18  32  50  70  89 112 145 183 220 259
#     4   9  18  31  45  64  92 122 149 179 217 260
#     4   8  13  21  33  52  81 112 139 172 215 257
#     4   9  18  32  47  64  89 117 143 175 217 263
#     4   8  14  23  35  55  82 110 140 174 213 254
#
# _framework density 16.884188000000002
#
# number of rings (size 3 to 8) (size 9 to 14) (size 15 to 20)
#    0.000    3.333    0.000    1.000    0.000    3.000 
#    0.000    6.667    0.000    0.000    0.000    2.333 
#    0.000    1.333    0.000    0.000    0.000    0.000 
#
# Total GULP energy -595050.884308 kJ/mol
# GULP energy per Si atom -12396.893423 kJ/mol
# Density = 1.684576 g / cm^3
# Si number density = 16.884188 Si / 1000 Ang^3
#
#
#
# Elastic Constant Matrix: (Units=GPa)
#
#
# Indices 1 2 3 4 5 6 
#
# 1 151.0618 31.1092 71.4993 0.0000 0.0000 0.0000
# 2 31.1092 24.7171 32.5859 0.0000 0.0000 0.0000
# 3 71.4993 32.5859 160.3873 0.0000 0.0000 0.0000
# 4 0.0000 0.0000 0.0000 13.6204 0.0000 0.0000
# 5 0.0000 0.0000 0.0000 0.0000 14.6532 0.0000
# 6 0.0000 0.0000 0.0000 0.0000 0.0000 19.3220
#
#
#
# Elastic Compliance Matrix: (Units=1/GPa)
#
#
# Indices 1 2 3 4 5 6 
#
# 1 0.009616 -0.008812 -0.002497 0.000000 0.000000 0.000000
# 2 -0.008812 0.063334 -0.008939 0.000000 0.000000 0.000000
# 3 -0.002497 -0.008939 0.009164 0.000000 0.000000 0.000000
# 4 0.000000 0.000000 0.000000 0.073419 0.000000 0.000000
# 5 0.000000 0.000000 0.000000 0.000000 0.068245 0.000000
# 6 0.000000 0.000000 0.000000 0.000000 0.000000 0.051755
#
#
# Mechanical properties :
#
#
# Convention : Reuss Voigt Hill
#
# Bulk Modulus (GPa) = 24.02766 67.39501 45.71134
# Shear Modulus (GPa) = 15.15611 22.91722 19.03667
#
# Velocity S-wave (km/s) = 2.99933 3.68818 3.36145
# Velocity P-wave (km/s) = 5.12410 7.62493 6.49600
#
# Compressibility (1/GPa) = 0.04161870
#
# Stress axis : x y z
#
# Youngs Moduli (GPa) = 103.99249 15.78942 109.12222
#
# Poissons Ratio (x) = 0.13913 0.27242
# Poissons Ratio (y) = 0.91634 0.97548
# Poissons Ratio (z) = 0.25962 0.14115
#
# Static dielectric constant tensor:
#      x y z
#    x 3.344050 0.000000 0.000000 
#    y 0.000000 2.794040 0.000000 
#    z 0.000000 0.000000 3.354320 
# 
# 
# High freq. dielectric constant tensor:
#      x y z
#    x 1.655350 0.000000 0.000000 
#    y 0.000000 1.608470 0.000000 
#    z 0.000000 0.000000 1.654720 
# 
# From -- ./inp_files/33187.got.cif
#   From: 2010.03.12/outbox.cif.g09.slc.cpg/sg51_17_cif.got.tgz:33187.got - 2010.04.16 13:43:02.
