data_PCOD8214924
_publ_section_title
;
Structure prediction by ZEFSAII (Michael W. Deem and Ramdas Pophale) SiO2 
 PCOD8214924
Probable space group: P N N A
;
_chemical_formula_sum "Si O2"
_cell_formula_units_Z 56
_cell_length_a 5.234184
_cell_length_b 25.860054
_cell_length_c 28.003265
_cell_angle_alpha 90.000000
_cell_angle_beta 90.000000
_cell_angle_gamma 90.000000
_cell_volume 3790.417803
_symmetry_space_group_name_H-M "P N N A"
_symmetry_group_IT_number 52
_symmetry_cell_setting 'orthorhombic'
loop_
_space_group_symop_operation_xyz
x,y,z
1/2-x,-y,z
x,1/2-y,1/2-z
1/2-x,1/2+y,1/2-z
-x,-y,-z
1/2+x,y,-z
-x,1/2+y,1/2+z
1/2+x,1/2-y,1/2+z
loop_
_atom_site_type_symbol
_atom_site_label
_atom_site_fract_x
_atom_site_fract_y
_atom_site_fract_z
Si Si1 0.759229 0.685626 0.977554
Si Si2 0.996757 0.967774 0.626672
Si Si3 0.636597 0.066367 0.522815
Si Si4 0.097957 0.863626 0.669801
Si Si5 0.599380 0.688396 0.869334
Si Si6 0.591764 0.718892 0.700412
Si Si7 0.404871 0.190960 0.767523
O O1 0.813746 0.625909 0.990535
O O2 0.660086 0.695336 0.924548
O O3 0.538028 0.710712 0.011701
O O4 0.084742 0.925568 0.665620
O O5 0.910111 0.938571 0.578834
O O6 0.250000 0.000000 0.615590
O O7 0.750000 0.000000 0.645513
O O8 0.406963 0.040065 0.491700
O O9 0.326929 0.840228 0.637560
O O10 0.139779 0.848754 0.724594
O O11 0.822055 0.844159 0.654404
O O12 0.599894 0.744455 0.845311
O O13 0.564866 0.750000 0.750000
O O14 0.334849 0.684493 0.696766
O O15 0.835431 0.680387 0.702672
O O16 0.433905 0.250000 0.750000
#
# Coordination Sequence:
#
# PCOD8214924 Si02
#       7
#     8   8   8   8   8   8   8
#     4  10  21  33  45  63  83 106 145 178 211 268
#     4  12  26  38  46  60  79 105 146 179 214 271
#     4  10  21  35  51  60  71  94 133 192 243 265
#     4  12  21  32  50  65  84 110 130 165 227 265
#     4  12  19  30  51  66  84 112 131 164 226 265
#     4  10  16  27  43  72  93 100 121 156 202 282
#     4  10  16  29  44  71  93 100 119 155 203 281
#
# _framework density 14.774096999999999
#
# number of rings (size 3 to 8) (size 9 to 14) (size 15 to 20)
#    0.000    1.143    7.143    2.571    4.000    1.714 
#    0.000    0.000    0.000    0.000    0.000    0.000 
#    0.000    0.000    0.000    0.000    0.000    0.000 
#
# Total GULP energy -693996.431694 kJ/mol
# GULP energy per Si atom -12392.793423 kJ/mol
# Density = 1.474047 g / cm^3
# Si number density = 14.774097 Si / 1000 Ang^3
#
#
#
# Elastic Constant Matrix: (Units=GPa)
#
#
# Indices 1 2 3 4 5 6 
#
# 1 108.4851 22.5852 39.0983 0.0000 0.0000 0.0000
# 2 22.5852 31.8172 29.8125 0.0000 0.0000 0.0000
# 3 39.0983 29.8125 40.0299 0.0000 0.0000 0.0000
# 4 0.0000 0.0000 0.0000 14.3228 0.0000 0.0000
# 5 0.0000 0.0000 0.0000 0.0000 20.0997 0.0000
# 6 0.0000 0.0000 0.0000 0.0000 0.0000 12.1545
#
#
#
# Elastic Compliance Matrix: (Units=1/GPa)
#
#
# Indices 1 2 3 4 5 6 
#
# 1 0.015185 0.010319 -0.022516 0.000000 0.000000 0.000000
# 2 0.010319 0.111026 -0.092767 0.000000 0.000000 0.000000
# 3 -0.022516 -0.092767 0.116062 0.000000 0.000000 0.000000
# 4 0.000000 0.000000 0.000000 0.069819 0.000000 0.000000
# 5 0.000000 0.000000 0.000000 0.000000 0.049752 0.000000
# 6 0.000000 0.000000 0.000000 0.000000 0.000000 0.082274
#
#
# Mechanical properties :
#
#
# Convention : Reuss Voigt Hill
#
# Bulk Modulus (GPa) = 30.91633 40.36938 35.64285
# Shear Modulus (GPa) = 7.52075 15.23781 11.37928
#
# Velocity S-wave (km/s) = 2.25866 3.21501 2.77829
# Velocity P-wave (km/s) = 5.27006 6.41603 5.87107
#
# Compressibility (1/GPa) = 0.03234537
#
# Stress axis : x y z
#
# Youngs Moduli (GPa) = 65.85659 9.00688 8.61605
#
# Poissons Ratio (x) = -0.09294 0.19400
# Poissons Ratio (y) = -0.67958 0.79928
# Poissons Ratio (z) = 1.48285 0.83554
#
# Static dielectric constant tensor:
#      x y z
#    x 4.350040 0.000000 0.000000 
#    y 0.000000 2.979120 0.000000 
#    z 0.000000 0.000000 2.781510 
# 
# 
# High freq. dielectric constant tensor:
#      x y z
#    x 1.612320 0.000000 0.000000 
#    y 0.000000 1.504040 0.000000 
#    z 0.000000 0.000000 1.533240 
# 
# From -- ./inp_files/41841.got.cif
#   From: 2010.06.25/outbox.cif.g09.slc.cpg/sg52_21_cif.got.tgz:41841.got - 2010.06.26 19:32:48.
