data_PCOD8214469
_publ_section_title
;
Structure prediction by ZEFSAII (Michael W. Deem and Ramdas Pophale) SiO2 
 PCOD8214469
Probable space group: P M M A
;
_chemical_formula_sum "Si O2"
_cell_formula_units_Z 52
_cell_length_a 9.099114
_cell_length_b 12.604515
_cell_length_c 30.063533
_cell_angle_alpha 90.000000
_cell_angle_beta 90.000000
_cell_angle_gamma 90.000000
_cell_volume 3447.984162
_symmetry_space_group_name_H-M "P M M A"
_symmetry_group_IT_number 51
_symmetry_cell_setting 'orthorhombic'
loop_
_space_group_symop_operation_xyz
x,y,z
1/2-x,-y,z
1/2+x,-y,-z
-x,y,-z
-x,-y,-z
1/2+x,y,-z
1/2-x,y,z
x,-y,z
loop_
_atom_site_type_symbol
_atom_site_label
_atom_site_fract_x
_atom_site_fract_y
_atom_site_fract_z
Si Si1 0.415546 0.126493 0.956799
Si Si2 0.580045 0.618621 0.544020
Si Si3 0.085363 0.873399 0.129366
Si Si4 0.426885 0.000000 0.548177
Si Si5 0.922078 0.815283 0.602361
Si Si6 0.413354 0.126155 0.786222
Si Si7 0.079610 0.124391 0.687268
O O1 0.250000 0.170033 0.957956
O O2 0.492886 0.170256 0.912329
O O3 0.417223 0.000000 0.956917
O O4 0.500000 0.170545 0.000000
O O5 0.500000 0.660720 0.500000
O O6 0.750000 0.618289 0.532004
O O7 0.526006 0.500000 0.557144
O O8 0.546591 0.697335 0.584520
O O9 0.250000 0.830002 0.124767
O O10 0.019334 0.828231 0.175513
O O11 0.082743 0.000000 0.129661
O O12 0.500000 0.000000 0.500000
O O13 0.480027 0.103272 0.574435
O O14 0.250000 0.000000 0.544503
O O15 0.750000 0.845931 0.599076
O O16 0.974615 0.813696 0.653364
O O17 0.250000 0.170511 0.795205
O O18 0.467089 0.160593 0.737055
O O19 0.408971 0.000000 0.788158
O O20 0.250000 0.152084 0.678547
O O21 0.053142 0.000000 0.680504
#
# Coordination Sequence:
#
# PCOD8214469 Si02
#       7
#     8   8   8   4   8   8   8
#     4   9  15  21  28  37  51  72  99 135 180 228
#     4   9  19  35  52  69  88 109 135 167 201 236
#     4   9  15  21  29  42  58  77 105 141 181 222
#     4  12  24  36  48  64  90 116 138 164 197 236
#     4  11  21  32  48  69  89 111 138 166 199 240
#     4   8  14  24  36  48  64  89 119 146 179 222
#     4   9  17  29  43  59  81 109 133 159 195 235
#
# _framework density 15.081275
#
# number of rings (size 3 to 8) (size 9 to 14) (size 15 to 20)
#    0.000    2.615    0.769    3.462    0.000    6.769 
#    0.000    1.538    0.000    0.000    0.000    0.000 
#    0.000    0.000    0.000    0.000    0.000    0.000 
#
# Total GULP energy -644623.724414 kJ/mol
# GULP energy per Si atom -12396.610085 kJ/mol
# Density = 1.504695 g / cm^3
# Si number density = 15.081275 Si / 1000 Ang^3
#
#
#
# Elastic Constant Matrix: (Units=GPa)
#
#
# Indices 1 2 3 4 5 6 
#
# 1 112.0835 23.9614 75.0714 0.0000 0.0000 0.0000
# 2 23.9614 32.9495 27.6374 0.0000 0.0000 0.0000
# 3 75.0714 27.6374 145.7980 0.0000 0.0000 0.0000
# 4 0.0000 0.0000 0.0000 6.1480 0.0000 0.0000
# 5 0.0000 0.0000 0.0000 0.0000 34.1026 0.0000
# 6 0.0000 0.0000 0.0000 0.0000 0.0000 8.3264
#
#
#
# Elastic Compliance Matrix: (Units=1/GPa)
#
#
# Indices 1 2 3 4 5 6 
#
# 1 0.014283 -0.005016 -0.006404 0.000000 0.000000 0.000000
# 2 -0.005016 0.037849 -0.004592 0.000000 0.000000 0.000000
# 3 -0.006404 -0.004592 0.011026 0.000000 0.000000 0.000000
# 4 0.000000 0.000000 0.000000 0.162655 0.000000 0.000000
# 5 0.000000 0.000000 0.000000 0.000000 0.029323 0.000000
# 6 0.000000 0.000000 0.000000 0.000000 0.000000 0.120100
#
#
# Mechanical properties :
#
#
# Convention : Reuss Voigt Hill
#
# Bulk Modulus (GPa) = 32.11748 60.46347 46.29047
# Shear Modulus (GPa) = 11.97208 20.65945 16.31577
#
# Velocity S-wave (km/s) = 2.82057 3.70520 3.29273
# Velocity P-wave (km/s) = 5.65243 7.64745 6.72434
#
# Compressibility (1/GPa) = 0.03113570
#
# Stress axis : x y z
#
# Youngs Moduli (GPa) = 70.01213 26.42097 90.69061
#
# Poissons Ratio (x) = 0.13252 0.58075
# Poissons Ratio (y) = 0.35116 0.41645
# Poissons Ratio (z) = 0.44833 0.12132
#
# Static dielectric constant tensor:
#      x y z
#    x 3.070150 0.000000 0.000000 
#    y 0.000000 2.417800 0.000000 
#    z 0.000000 0.000000 3.167250 
# 
# 
# High freq. dielectric constant tensor:
#      x y z
#    x 1.590730 0.000000 0.000000 
#    y 0.000000 1.494800 0.000000 
#    z 0.000000 0.000000 1.591440 
# 
# From -- ./inp_files/37322.got.cif
#   From: 2010.03.12/outbox.cif.g09.slc.cpg/sg51_19_cif.got.tgz:37322.got - 2010.04.16 13:43:02.
