data_PCOD8214782
_publ_section_title
;
Structure prediction by ZEFSAII (Michael W. Deem and Ramdas Pophale) SiO2 
 PCOD8214782
Probable space group: P M M A
;
_chemical_formula_sum "Si O2"
_cell_formula_units_Z 56
_cell_length_a 25.267122
_cell_length_b 9.351057
_cell_length_c 15.128460
_cell_angle_alpha 90.000000
_cell_angle_beta 90.000000
_cell_angle_gamma 90.000000
_cell_volume 3574.466267
_symmetry_space_group_name_H-M "P M M A"
_symmetry_group_IT_number 51
_symmetry_cell_setting 'orthorhombic'
loop_
_space_group_symop_operation_xyz
x,y,z
1/2-x,-y,z
1/2+x,-y,-z
-x,y,-z
-x,-y,-z
1/2+x,y,-z
1/2-x,y,z
x,-y,z
loop_
_atom_site_type_symbol
_atom_site_label
_atom_site_fract_x
_atom_site_fract_y
_atom_site_fract_z
Si Si1 0.600701 0.167729 0.607216
Si Si2 0.602055 0.164980 0.403393
Si Si3 0.498643 0.661610 0.605012
Si Si4 0.810367 0.165303 0.263903
Si Si5 0.187156 0.159035 0.067872
Si Si6 0.308688 0.829890 0.262873
Si Si7 0.686958 0.339378 0.094887
O O1 0.613544 0.202092 0.505349
O O2 0.549245 0.252507 0.641279
O O3 0.650294 0.225462 0.663823
O O4 0.590450 0.000000 0.622271
O O5 0.554702 0.259860 0.363291
O O6 0.655263 0.200824 0.350164
O O7 0.585284 0.000000 0.393312
O O8 0.500000 0.663529 0.500000
O O9 0.499397 0.500000 0.641988
O O10 0.750000 0.206551 0.287048
O O11 0.832513 0.256257 0.181868
O O12 0.814772 0.000000 0.236630
O O13 0.250000 0.150663 0.060243
O O14 0.172211 0.219720 0.165133
O O15 0.163415 0.000000 0.053656
O O16 0.163638 0.262836 0.992572
O O17 0.250000 0.768186 0.284398
O O18 0.305754 0.000000 0.263297
O O19 0.750000 0.338433 0.091468
O O20 0.664554 0.500000 0.098051
#
# Coordination Sequence:
#
# PCOD8214782 Si02
#       7
#     8   8   8   8   8   8   8
#     4   9  16  27  44  64  86 111 140 175 208 240
#     4   9  17  28  43  63  85 110 141 175 208 242
#     4   9  17  29  44  60  79 106 142 181 215 245
#     4   9  17  28  41  60  87 115 140 167 204 251
#     4   8  13  23  39  57  79 108 139 169 201 239
#     4   8  14  24  40  64  90 114 140 168 202 247
#     4   9  16  25  38  57  80 107 140 175 207 239
#
# _framework density 15.666675
#
# number of rings (size 3 to 8) (size 9 to 14) (size 15 to 20)
#    0.000    3.286    0.000    1.714    0.000    4.571 
#    0.000    3.571    0.000    1.286    0.000    5.000 
#    0.000    8.000    0.000    0.000    0.000    0.000 
#
# Total GULP energy -694174.232774 kJ/mol
# GULP energy per Si atom -12395.968442 kJ/mol
# Density = 1.563102 g / cm^3
# Si number density = 15.666675 Si / 1000 Ang^3
#
#
#
# Elastic Constant Matrix: (Units=GPa)
#
#
# Indices 1 2 3 4 5 6 
#
# 1 83.3204 42.6173 54.1873 0.0000 0.0000 0.0000
# 2 42.6173 76.1585 47.3666 0.0000 0.0000 0.0000
# 3 54.1873 47.3666 95.2493 0.0000 0.0000 0.0000
# 4 0.0000 0.0000 0.0000 12.2833 0.0000 0.0000
# 5 0.0000 0.0000 0.0000 0.0000 3.3000 0.0000
# 6 0.0000 0.0000 0.0000 0.0000 0.0000 12.3715
#
#
#
# Elastic Compliance Matrix: (Units=1/GPa)
#
#
# Indices 1 2 3 4 5 6 
#
# 1 0.020910 -0.006229 -0.008798 0.000000 0.000000 0.000000
# 2 -0.006229 0.020866 -0.006833 0.000000 0.000000 0.000000
# 3 -0.008798 -0.006833 0.018902 0.000000 0.000000 0.000000
# 4 0.000000 0.000000 0.000000 0.081412 0.000000 0.000000
# 5 0.000000 0.000000 0.000000 0.000000 0.303035 0.000000
# 6 0.000000 0.000000 0.000000 0.000000 0.000000 0.080831
#
#
# Mechanical properties :
#
#
# Convention : Reuss Voigt Hill
#
# Bulk Modulus (GPa) = 58.96911 60.34117 59.65514
# Shear Modulus (GPa) = 8.69073 12.96142 10.82608
#
# Velocity S-wave (km/s) = 2.35782 2.87944 2.63159
# Velocity P-wave (km/s) = 6.71818 7.04657 6.88434
#
# Compressibility (1/GPa) = 0.01695803
#
# Stress axis : x y z
#
# Youngs Moduli (GPa) = 47.82504 47.92557 52.90536
#
# Poissons Ratio (x) = 0.29852 0.46545
# Poissons Ratio (y) = 0.29790 0.36149
# Poissons Ratio (z) = 0.42076 0.32746
#
# Static dielectric constant tensor:
#      x y z
#    x 2.841650 0.000000 0.000000 
#    y 0.000000 3.023580 0.000000 
#    z 0.000000 0.000000 3.019960 
# 
# 
# High freq. dielectric constant tensor:
#      x y z
#    x 1.566700 0.000000 0.000000 
#    y 0.000000 1.591140 0.000000 
#    z 0.000000 0.000000 1.590120 
# 
# From -- ./inp_files/26504.got.cif
#   From: 2010.03.12/outbox.cif.g09.slc.cpg/sg51_14_cif.got.tgz:26504.got - 2010.04.16 13:43:02.
