data_PCOD8214647
_publ_section_title
;
Structure prediction by ZEFSAII (Michael W. Deem and Ramdas Pophale) SiO2 
 PCOD8214647
Probable space group: P M M A
;
_chemical_formula_sum "Si O2"
_cell_formula_units_Z 64
_cell_length_a 18.786278
_cell_length_b 20.058336
_cell_length_c 9.199885
_cell_angle_alpha 90.000000
_cell_angle_beta 90.000000
_cell_angle_gamma 90.000000
_cell_volume 3466.714248
_symmetry_space_group_name_H-M "P M M A"
_symmetry_group_IT_number 51
_symmetry_cell_setting 'orthorhombic'
loop_
_space_group_symop_operation_xyz
x,y,z
1/2-x,-y,z
1/2+x,-y,-z
-x,y,-z
-x,-y,-z
1/2+x,y,-z
1/2-x,y,z
x,-y,z
loop_
_atom_site_type_symbol
_atom_site_label
_atom_site_fract_x
_atom_site_fract_y
_atom_site_fract_z
Si Si1 0.669850 0.220195 0.516058
Si Si2 0.830948 0.147501 0.817786
Si Si3 0.472861 0.576422 0.341075
Si Si4 0.037794 0.310854 0.848120
Si Si5 0.037794 0.810853 0.651880
Si Si6 0.169850 0.720194 0.016057
Si Si7 0.527139 0.076422 0.841074
Si Si8 0.330948 0.352500 0.317786
O O1 0.750000 0.209784 0.462203
O O2 0.654672 0.177336 0.659288
O O3 0.621953 0.195530 0.381047
O O4 0.656076 0.297318 0.557332
O O5 0.750000 0.119860 0.828866
O O6 0.843924 0.202683 0.942668
O O7 0.887980 0.088934 0.837938
O O8 0.500000 0.594733 0.500000
O O9 0.487309 0.500000 0.300535
O O10 0.517959 0.619560 0.226428
O O11 0.387980 0.588933 0.337938
O O12 0.010312 0.250001 0.749999
O O13 0.121953 0.304471 0.881048
O O14 0.000000 0.303112 0.000000
O O15 0.000000 0.803113 0.500000
O O16 0.017960 0.880439 0.726430
O O17 0.250000 0.709783 0.962202
O O18 0.154673 0.677335 0.159288
O O19 0.512693 0.000000 0.800527
O O20 0.500000 0.094729 0.000000
O O21 0.250000 0.380141 0.328866
#
# Coordination Sequence:
#
# PCOD8214647 Si02
#       8
#     8   8   8   8   8   8   8   8
#     4   9  18  33  56  86 116 145 187 238 284 338
#     4   9  17  35  59  83 113 148 190 237 283 336
#     4  11  24  40  57  83 117 153 196 241 288 347
#     4  12  22  35  59  86 117 151 191 234 294 345
#     4  12  22  35  59  86 117 151 191 234 294 345
#     4   9  18  33  56  86 116 145 187 238 284 338
#     4  11  24  40  57  83 117 153 196 241 288 347
#     4   9  17  35  59  83 113 148 190 237 283 336
#
# _framework density 18.461283999999999
#
# number of rings (size 3 to 8) (size 9 to 14) (size 15 to 20)
#    0.000    1.750    2.500    5.250    0.000    1.500 
#    0.000    1.250    0.000    2.250    0.000    0.000 
#    0.000    0.000    0.000    0.000    0.000    0.000 
#
# Total GULP energy -793585.028066 kJ/mol
# GULP energy per Si atom -12399.766064 kJ/mol
# Density = 1.841927 g / cm^3
# Si number density = 18.461284 Si / 1000 Ang^3
#
#
#
# Elastic Constant Matrix: (Units=GPa)
#
#
# Indices 1 2 3 4 5 6 
#
# 1 111.3148 52.5398 58.9473 0.0000 0.0000 0.0000
# 2 52.5398 85.6184 60.3890 0.0000 0.0000 0.0000
# 3 58.9473 60.3890 103.4539 0.0000 0.0000 0.0000
# 4 0.0000 0.0000 0.0000 27.5786 0.0000 0.0000
# 5 0.0000 0.0000 0.0000 0.0000 33.9425 0.0000
# 6 0.0000 0.0000 0.0000 0.0000 0.0000 11.1296
#
#
#
# Elastic Compliance Matrix: (Units=1/GPa)
#
#
# Indices 1 2 3 4 5 6 
#
# 1 0.014045 -0.005056 -0.005052 0.000000 0.000000 0.000000
# 2 -0.005056 0.021674 -0.009771 0.000000 0.000000 0.000000
# 3 -0.005052 -0.009771 0.018248 0.000000 0.000000 0.000000
# 4 0.000000 0.000000 0.000000 0.036260 0.000000 0.000000
# 5 0.000000 0.000000 0.000000 0.000000 0.029462 0.000000
# 6 0.000000 0.000000 0.000000 0.000000 0.000000 0.089851
#
#
# Mechanical properties :
#
#
# Convention : Reuss Voigt Hill
#
# Bulk Modulus (GPa) = 70.37070 71.57105 70.97087
# Shear Modulus (GPa) = 19.68255 23.09753 21.39004
#
# Velocity S-wave (km/s) = 3.26874 3.54097 3.40758
# Velocity P-wave (km/s) = 7.24203 7.45455 7.34906
#
# Compressibility (1/GPa) = 0.01421046
#
# Stress axis : x y z
#
# Youngs Moduli (GPa) = 71.20067 46.13849 54.80029
#
# Poissons Ratio (x) = 0.23326 0.27682
# Poissons Ratio (y) = 0.35996 0.53545
# Poissons Ratio (z) = 0.35967 0.45082
#
# Static dielectric constant tensor:
#      x y z
#    x 3.781660 0.000000 0.000000 
#    y 0.000000 3.108700 0.000000 
#    z 0.000000 0.000000 3.476110 
# 
# 
# High freq. dielectric constant tensor:
#      x y z
#    x 1.734760 0.000000 0.000000 
#    y 0.000000 1.686880 0.000000 
#    z 0.000000 0.000000 1.713740 
# 
# From -- ./inp_files/11199.got.cif
#   From: 2010.03.12/outbox.cif.g09.slc.cpg/sg51_6_cif.got.tgz:11199.got - 2010.04.16 13:43:02.
