data_PCOD8214888
_publ_section_title
;
Structure prediction by ZEFSAII (Michael W. Deem and Ramdas Pophale) SiO2 
 PCOD8214888
Probable space group: P M M A
;
_chemical_formula_sum "Si O2"
_cell_formula_units_Z 40
_cell_length_a 28.058333
_cell_length_b 14.036155
_cell_length_c 5.252481
_cell_angle_alpha 90.000000
_cell_angle_beta 90.000000
_cell_angle_gamma 90.000000
_cell_volume 2068.590428
_symmetry_space_group_name_H-M "P M M A"
_symmetry_group_IT_number 51
_symmetry_cell_setting 'orthorhombic'
loop_
_space_group_symop_operation_xyz
x,y,z
1/2-x,-y,z
1/2+x,-y,-z
-x,y,-z
-x,-y,-z
1/2+x,y,-z
1/2-x,y,z
x,-y,z
loop_
_atom_site_type_symbol
_atom_site_label
_atom_site_fract_x
_atom_site_fract_y
_atom_site_fract_z
Si Si1 0.946052 0.613704 0.527043
Si Si2 0.104252 0.611043 0.970493
Si Si3 0.696250 0.607430 0.752181
Si Si4 0.193145 0.891831 0.021288
Si Si5 0.805536 0.208471 0.476193
O O1 0.943753 0.500000 0.527346
O O2 0.914590 0.656409 0.292965
O O3 0.000000 0.650176 0.500000
O O4 0.924135 0.655012 0.788064
O O5 0.092413 0.500000 0.960726
O O6 0.160886 0.628591 0.012172
O O7 0.750000 0.622628 0.858105
O O8 0.688461 0.500000 0.646400
O O9 0.685827 0.678193 0.516462
O O10 0.250000 0.886290 0.022929
O O11 0.171597 0.829749 0.786382
O O12 0.175377 0.000000 0.992705
O O13 0.172385 0.847624 0.281688
O O14 0.750000 0.184550 0.465583
#
# Coordination Sequence:
#
# PCOD8214888 Si02
#       5
#     8   8   8   8   8
#     4   9  16  27  43  61  79 100 135 186 234 272
#     4   9  17  28  42  60  81 109 146 183 221 261
#     4   9  18  32  46  62  90 128 166 197 216 242
#     4   9  16  27  43  61  79 100 135 186 234 272
#     4   9  17  28  42  60  81 109 146 183 221 261
#
# _framework density 19.336839000000001
#
# number of rings (size 3 to 8) (size 9 to 14) (size 15 to 20)
#    0.000    3.000    0.000    1.200    0.000    6.400 
#    0.000    6.000    0.000   16.800    0.000    0.000 
#    0.000    0.000    0.000    0.000    0.000   70.000 
#
# Total GULP energy -495728.694478 kJ/mol
# GULP energy per Si atom -12393.217362 kJ/mol
# Density = 1.929283 g / cm^3
# Si number density = 19.336839 Si / 1000 Ang^3
#
#
#
# Elastic Constant Matrix: (Units=GPa)
#
#
# Indices 1 2 3 4 5 6 
#
# 1 69.6972 3.1358 15.7450 0.0000 0.0000 0.0000
# 2 3.1358 71.0155 18.2489 0.0000 0.0000 0.0000
# 3 15.7450 18.2489 120.4129 0.0000 0.0000 0.0000
# 4 0.0000 0.0000 0.0000 7.1756 0.0000 0.0000
# 5 0.0000 0.0000 0.0000 0.0000 12.7424 0.0000
# 6 0.0000 0.0000 0.0000 0.0000 0.0000 2.5682
#
#
#
# Elastic Compliance Matrix: (Units=1/GPa)
#
#
# Indices 1 2 3 4 5 6 
#
# 1 0.014786 -0.000162 -0.001909 0.000000 0.000000 0.000000
# 2 -0.000162 0.014654 -0.002200 0.000000 0.000000 0.000000
# 3 -0.001909 -0.002200 0.008888 0.000000 0.000000 0.000000
# 4 0.000000 0.000000 0.000000 0.139361 0.000000 0.000000
# 5 0.000000 0.000000 0.000000 0.000000 0.078478 0.000000
# 6 0.000000 0.000000 0.000000 0.000000 0.000000 0.389385
#
#
# Mechanical properties :
#
#
# Convention : Reuss Voigt Hill
#
# Bulk Modulus (GPa) = 33.57258 37.26500 35.41879
# Shear Modulus (GPa) = 7.52986 19.43030 13.48008
#
# Velocity S-wave (km/s) = 1.97548 3.17335 2.64317
# Velocity P-wave (km/s) = 4.75426 5.72191 5.26038
#
# Compressibility (1/GPa) = 0.02978621
#
# Stress axis : x y z
#
# Youngs Moduli (GPa) = 67.63023 68.24151 112.51503
#
# Poissons Ratio (x) = 0.01108 0.21477
# Poissons Ratio (y) = 0.01098 0.24749
# Poissons Ratio (z) = 0.12909 0.15010
#
# Static dielectric constant tensor:
#      x y z
#    x 3.254930 0.000000 0.000000 
#    y 0.000000 3.249300 0.000000 
#    z 0.000000 0.000000 3.826820 
# 
# 
# High freq. dielectric constant tensor:
#      x y z
#    x 1.703280 0.000000 0.000000 
#    y 0.000000 1.703170 0.000000 
#    z 0.000000 0.000000 1.767070 
# 
# From -- ./inp_files/3449.got.cif
#   From: 2010.03.12/outbox.cif.g09.slc.cpg/sg51_2_cif.got.tgz:3449.got - 2010.04.16 13:43:02.
