data_PCOD8214748
_publ_section_title
;
Structure prediction by ZEFSAII (Michael W. Deem and Ramdas Pophale) SiO2 
 PCOD8214748
Probable space group: P M M A
;
_chemical_formula_sum "Si O2"
_cell_formula_units_Z 40
_cell_length_a 9.354392
_cell_length_b 9.391911
_cell_length_c 26.052047
_cell_angle_alpha 90.000000
_cell_angle_beta 90.000000
_cell_angle_gamma 90.000000
_cell_volume 2288.818667
_symmetry_space_group_name_H-M "P M M A"
_symmetry_group_IT_number 51
_symmetry_cell_setting 'orthorhombic'
loop_
_space_group_symop_operation_xyz
x,y,z
1/2-x,-y,z
1/2+x,-y,-z
-x,y,-z
-x,-y,-z
1/2+x,y,-z
1/2-x,y,z
x,-y,z
loop_
_atom_site_type_symbol
_atom_site_label
_atom_site_fract_x
_atom_site_fract_y
_atom_site_fract_z
Si Si1 0.588158 0.669349 0.548374
Si Si2 0.915981 0.334077 0.352168
Si Si3 0.420816 0.340752 0.841098
Si Si4 0.908367 0.669616 0.046565
Si Si5 0.579913 0.160146 0.253481
O O1 0.500000 0.730910 0.500000
O O2 0.750000 0.729528 0.547436
O O3 0.590573 0.500000 0.545673
O O4 0.508779 0.719803 0.599859
O O5 0.750000 0.303755 0.364395
O O6 0.940717 0.500000 0.340530
O O7 0.971603 0.246657 0.303218
O O8 0.250000 0.342948 0.841091
O O9 0.477768 0.500000 0.829442
O O10 0.473134 0.288263 0.897531
O O11 0.481935 0.235405 0.797630
O O12 0.750000 0.733422 0.040609
O O13 0.903243 0.500000 0.043099
O O14 0.000000 0.735225 0.000000
O O15 0.750000 0.160349 0.251304
O O16 0.519400 0.000000 0.256185
#
# Coordination Sequence:
#
# PCOD8214748 Si02
#       5
#     8   8   8   8   8
#     4   9  16  26  42  65  91 115 139 170 207 245
#     4   9  16  26  42  64  88 112 137 167 205 247
#     4   8  13  22  37  57  80 106 137 172 208 246
#     4   8  13  21  35  56  80 104 131 165 204 244
#     4   9  16  25  39  60  84 109 139 175 210 244
#
# _framework density 17.476265000000001
#
# number of rings (size 3 to 8) (size 9 to 14) (size 15 to 20)
#    0.000    3.400    0.000    2.400    0.000    4.800 
#    0.000    0.000    0.000    3.000    0.000    5.600 
#    0.000    0.000    0.000    0.000    0.000    0.000 
#
# Total GULP energy -495753.605430 kJ/mol
# GULP energy per Si atom -12393.840136 kJ/mol
# Density = 1.743649 g / cm^3
# Si number density = 17.476265 Si / 1000 Ang^3
#
#
#
# Elastic Constant Matrix: (Units=GPa)
#
#
# Indices 1 2 3 4 5 6 
#
# 1 60.2902 20.9429 59.9794 0.0000 0.0000 0.0000
# 2 20.9429 62.0941 63.4979 0.0000 0.0000 0.0000
# 3 59.9794 63.4979 200.2557 0.0000 0.0000 0.0000
# 4 0.0000 0.0000 0.0000 4.0376 0.0000 0.0000
# 5 0.0000 0.0000 0.0000 0.0000 25.9409 0.0000
# 6 0.0000 0.0000 0.0000 0.0000 0.0000 5.9317
#
#
#
# Elastic Compliance Matrix: (Units=1/GPa)
#
#
# Indices 1 2 3 4 5 6 
#
# 1 0.023676 -0.001086 -0.006747 0.000000 0.000000 0.000000
# 2 -0.001086 0.023882 -0.007247 0.000000 0.000000 0.000000
# 3 -0.006747 -0.007247 0.009312 0.000000 0.000000 0.000000
# 4 0.000000 0.000000 0.000000 0.247671 0.000000 0.000000
# 5 0.000000 0.000000 0.000000 0.000000 0.038549 0.000000
# 6 0.000000 0.000000 0.000000 0.000000 0.000000 0.168586
#
#
# Mechanical properties :
#
#
# Convention : Reuss Voigt Hill
#
# Bulk Modulus (GPa) = 37.43922 67.94227 52.69074
# Shear Modulus (GPa) = 9.07869 19.06335 14.07102
#
# Velocity S-wave (km/s) = 2.28170 3.30633 2.84060
# Velocity P-wave (km/s) = 5.33019 7.31690 6.40109
#
# Compressibility (1/GPa) = 0.02670996
#
# Stress axis : x y z
#
# Youngs Moduli (GPa) = 42.23725 41.87245 107.38309
#
# Poissons Ratio (x) = 0.04547 0.72451
# Poissons Ratio (y) = 0.04586 0.77825
# Poissons Ratio (z) = 0.28497 0.30347
#
# Static dielectric constant tensor:
#      x y z
#    x 2.983930 0.000000 0.000000 
#    y 0.000000 2.928420 0.000000 
#    z 0.000000 0.000000 3.609290 
# 
# 
# High freq. dielectric constant tensor:
#      x y z
#    x 1.628390 0.000000 0.000000 
#    y 0.000000 1.625830 0.000000 
#    z 0.000000 0.000000 1.696810 
# 
# From -- ./inp_files/35980.got.cif
#   From: 2010.03.12/outbox.cif.g09.slc.cpg/sg51_18_cif.got.tgz:35980.got - 2010.04.16 13:43:02.
