data_PCOD8214210
_publ_section_title
;
Structure prediction by ZEFSAII (Michael W. Deem and Ramdas Pophale) SiO2 
 PCOD8214210
Probable space group: P M M A
;
_chemical_formula_sum "Si O2"
_cell_formula_units_Z 64
_cell_length_a 22.938220
_cell_length_b 8.952432
_cell_length_c 16.270923
_cell_angle_alpha 90.000000
_cell_angle_beta 90.000000
_cell_angle_gamma 90.000000
_cell_volume 3341.280487
_symmetry_space_group_name_H-M "P M M A"
_symmetry_group_IT_number 51
_symmetry_cell_setting 'orthorhombic'
loop_
_space_group_symop_operation_xyz
x,y,z
1/2-x,-y,z
1/2+x,-y,-z
-x,y,-z
-x,-y,-z
1/2+x,y,-z
1/2-x,y,z
x,-y,z
loop_
_atom_site_type_symbol
_atom_site_label
_atom_site_fract_x
_atom_site_fract_y
_atom_site_fract_z
Si Si1 0.818118 0.177187 0.835503
Si Si2 0.534216 0.672471 0.118585
Si Si3 0.186920 0.824091 0.643753
Si Si4 0.317605 0.836493 0.467080
Si Si5 0.492251 0.676914 0.406950
Si Si6 0.927200 0.826250 0.279782
Si Si7 0.628084 0.324843 0.674908
Si Si8 0.592327 0.672304 0.949223
O O1 0.750000 0.230111 0.838018
O O2 0.852832 0.243113 0.758042
O O3 0.852993 0.230675 0.916932
O O4 0.820565 0.000000 0.830448
O O5 0.542174 0.500000 0.143581
O O6 0.550057 0.780567 0.191739
O O7 0.466572 0.704631 0.100994
O O8 0.577223 0.712386 0.043408
O O9 0.250000 0.750072 0.664374
O O10 0.160460 0.771409 0.555112
O O11 0.141556 0.785641 0.715942
O O12 0.194788 0.000000 0.635935
O O13 0.250000 0.861367 0.478754
O O14 0.326535 0.715274 0.396171
O O15 0.345756 0.000000 0.445342
O O16 0.500000 0.739780 0.500000
O O17 0.492354 0.500000 0.409273
O O18 0.545013 0.734807 0.353433
O O19 0.433657 0.733028 0.360865
O O20 0.939670 0.000000 0.293740
O O21 0.627906 0.500000 0.693589
O O22 0.610189 0.500000 0.940633
#
# Coordination Sequence:
#
# PCOD8214210 Si02
#       8
#     8   8   8   8   8   8   8   8
#     4  11  24  39  55  79 113 149 182 223 277 329
#     4   9  19  37  60  84 110 138 169 213 270 323
#     4   8  16  32  51  71  99 134 169 207 252 301
#     4   9  17  31  51  71  94 130 174 218 261 299
#     4  10  22  38  53  73 108 150 184 223 279 328
#     4  11  21  32  53  83 107 134 175 216 257 310
#     4  11  22  34  51  75 103 140 183 221 264 322
#     4   9  19  38  62  83 104 137 178 216 261 320
#
# _framework density 19.154333999999999
#
# number of rings (size 3 to 8) (size 9 to 14) (size 15 to 20)
#    0.000    2.250    0.000    4.500    0.000    8.000 
#    0.000    2.500    0.000    5.250    0.000    0.000 
#    0.000    0.000    0.000    0.000    0.000    0.000 
#
# Total GULP energy -793183.821216 kJ/mol
# GULP energy per Si atom -12393.497206 kJ/mol
# Density = 1.911074 g / cm^3
# Si number density = 19.154334 Si / 1000 Ang^3
#
#
#
# Elastic Constant Matrix: (Units=GPa)
#
#
# Indices 1 2 3 4 5 6 
#
# 1 97.6335 29.8835 52.3488 0.0000 0.0000 0.0000
# 2 29.8835 23.5099 17.0231 0.0000 0.0000 0.0000
# 3 52.3488 17.0231 93.1339 0.0000 0.0000 0.0000
# 4 0.0000 0.0000 0.0000 19.3671 0.0000 0.0000
# 5 0.0000 0.0000 0.0000 0.0000 31.6613 0.0000
# 6 0.0000 0.0000 0.0000 0.0000 0.0000 24.7109
#
#
#
# Elastic Compliance Matrix: (Units=1/GPa)
#
#
# Indices 1 2 3 4 5 6 
#
# 1 0.020843 -0.020758 -0.007921 0.000000 0.000000 0.000000
# 2 -0.020758 0.069697 -0.001071 0.000000 0.000000 0.000000
# 3 -0.007921 -0.001071 0.015386 0.000000 0.000000 0.000000
# 4 0.000000 0.000000 0.000000 0.051634 0.000000 0.000000
# 5 0.000000 0.000000 0.000000 0.000000 0.031584 0.000000
# 6 0.000000 0.000000 0.000000 0.000000 0.000000 0.040468
#
#
# Mechanical properties :
#
#
# Convention : Reuss Voigt Hill
#
# Bulk Modulus (GPa) = 21.54080 45.86534 33.70307
# Shear Modulus (GPa) = 16.41558 22.81598 19.61578
#
# Velocity S-wave (km/s) = 2.93066 3.45507 3.20361
# Velocity P-wave (km/s) = 4.76676 6.31774 5.59624
#
# Compressibility (1/GPa) = 0.04642353
#
# Stress axis : x y z
#
# Youngs Moduli (GPa) = 47.97696 14.34786 64.99605
#
# Poissons Ratio (x) = 0.29784 0.51486
# Poissons Ratio (y) = 0.99592 0.06964
# Poissons Ratio (z) = 0.38005 0.01537
#
# Static dielectric constant tensor:
#      x y z
#    x 3.712110 0.000000 0.000000 
#    y 0.000000 3.306090 0.000000 
#    z 0.000000 0.000000 3.537040 
# 
# 
# High freq. dielectric constant tensor:
#      x y z
#    x 1.748290 0.000000 0.000000 
#    y 0.000000 1.729070 0.000000 
#    z 0.000000 0.000000 1.744680 
# 
# From -- ./inp_files/26323.got.cif
#   From: 2010.03.12/outbox.cif.g09.slc.cpg/sg51_14_cif.got.tgz:26323.got - 2010.04.16 13:43:02.
