data_PCOD8214050
_publ_section_title
;
Structure prediction by ZEFSAII (Michael W. Deem and Ramdas Pophale) SiO2 
 PCOD8214050
Probable space group: P M M A
;
_chemical_formula_sum "Si O2"
_cell_formula_units_Z 64
_cell_length_a 30.580829
_cell_length_b 8.588352
_cell_length_c 11.757564
_cell_angle_alpha 90.000000
_cell_angle_beta 90.000000
_cell_angle_gamma 90.000000
_cell_volume 3087.993957
_symmetry_space_group_name_H-M "P M M A"
_symmetry_group_IT_number 51
_symmetry_cell_setting 'orthorhombic'
loop_
_space_group_symop_operation_xyz
x,y,z
1/2-x,-y,z
1/2+x,-y,-z
-x,y,-z
-x,-y,-z
1/2+x,y,-z
1/2-x,y,z
x,-y,z
loop_
_atom_site_type_symbol
_atom_site_label
_atom_site_fract_x
_atom_site_fract_y
_atom_site_fract_z
Si Si1 0.674633 0.180029 0.491512
Si Si2 0.700975 0.678159 0.722031
Si Si3 0.957106 0.679936 0.265964
Si Si4 0.377810 0.820350 0.868388
Si Si5 0.047128 0.819981 0.254120
Si Si6 0.299575 0.678580 0.738799
Si Si7 0.624017 0.681398 0.886590
Si Si8 0.073368 0.179633 0.507404
O O1 0.697270 0.216332 0.610771
O O2 0.696918 0.281821 0.394131
O O3 0.623965 0.224062 0.500174
O O4 0.681589 0.000000 0.461806
O O5 0.750000 0.695540 0.771748
O O6 0.690688 0.500000 0.688254
O O7 0.666834 0.735234 0.816964
O O8 0.968197 0.500000 0.251294
O O9 0.914314 0.719547 0.194228
O O10 0.949728 0.715792 0.398370
O O11 0.998025 0.777157 0.216585
O O12 0.330707 0.785978 0.814290
O O13 0.389079 0.000000 0.848969
O O14 0.377166 0.783310 0.000768
O O15 0.080817 0.713437 0.186070
O O16 0.051170 0.783066 0.387521
O O17 0.057172 0.000000 0.227613
O O18 0.250000 0.707499 0.779354
O O19 0.313207 0.500000 0.757234
O O20 0.626347 0.500000 0.918540
O O21 0.066859 0.000000 0.541923
#
# Coordination Sequence:
#
# PCOD8214050 Si02
#       8
#     8   8   8   8   8   8   8   8
#     4  11  21  36  62  95 130 167 206 252 309 370
#     4  10  22  40  63  92 128 168 207 252 309 370
#     4  12  25  41  65  96 128 163 209 257 311 372
#     4  12  26  45  67  91 123 164 212 260 314 371
#     4  11  23  42  66  93 129 167 207 254 313 373
#     4  11  24  42  65  94 128 166 208 257 314 371
#     4  11  24  43  66  92 124 163 213 264 312 368
#     4  10  21  38  62  93 130 168 204 250 310 372
#
# _framework density 20.725431
#
# number of rings (size 3 to 8) (size 9 to 14) (size 15 to 20)
#    0.000    1.000    2.500    4.500    0.000    7.250 
#    0.000    3.750    0.000    0.000    0.000    0.000 
#    0.000    0.000    0.000    0.000    0.000    0.000 
#
# Total GULP energy -794090.449805 kJ/mol
# GULP energy per Si atom -12407.663278 kJ/mol
# Density = 2.067826 g / cm^3
# Si number density = 20.725431 Si / 1000 Ang^3
#
#
#
# Elastic Constant Matrix: (Units=GPa)
#
#
# Indices 1 2 3 4 5 6 
#
# 1 121.3469 20.7258 36.7530 0.0000 0.0000 0.0000
# 2 20.7258 62.7219 24.3333 0.0000 0.0000 0.0000
# 3 36.7530 24.3333 93.5553 0.0000 0.0000 0.0000
# 4 0.0000 0.0000 0.0000 35.6971 0.0000 0.0000
# 5 0.0000 0.0000 0.0000 0.0000 4.1163 0.0000
# 6 0.0000 0.0000 0.0000 0.0000 0.0000 30.4911
#
#
#
# Elastic Compliance Matrix: (Units=1/GPa)
#
#
# Indices 1 2 3 4 5 6 
#
# 1 0.009551 -0.001891 -0.003260 0.000000 0.000000 0.000000
# 2 -0.001891 0.018107 -0.003967 0.000000 0.000000 0.000000
# 3 -0.003260 -0.003967 0.013001 0.000000 0.000000 0.000000
# 4 0.000000 0.000000 0.000000 0.028014 0.000000 0.000000
# 5 0.000000 0.000000 0.000000 0.000000 0.242936 0.000000
# 6 0.000000 0.000000 0.000000 0.000000 0.000000 0.032796
#
#
# Mechanical properties :
#
#
# Convention : Reuss Voigt Hill
#
# Bulk Modulus (GPa) = 44.59608 49.02761 46.81185
# Shear Modulus (GPa) = 13.50924 27.11502 20.31213
#
# Velocity S-wave (km/s) = 2.55585 3.62096 3.13398
# Velocity P-wave (km/s) = 5.50219 6.41786 5.97758
#
# Compressibility (1/GPa) = 0.02242349
#
# Stress axis : x y z
#
# Youngs Moduli (GPa) = 104.69746 55.22660 76.91496
#
# Poissons Ratio (x) = 0.10445 0.25077
# Poissons Ratio (y) = 0.19801 0.30509
# Poissons Ratio (z) = 0.34135 0.21906
#
# Static dielectric constant tensor:
#      x y z
#    x 3.897440 0.000000 0.000000 
#    y 0.000000 3.716090 0.000000 
#    z 0.000000 0.000000 3.649130 
# 
# 
# High freq. dielectric constant tensor:
#      x y z
#    x 1.827440 0.000000 0.000000 
#    y 0.000000 1.813910 0.000000 
#    z 0.000000 0.000000 1.803820 
# 
# From -- ./inp_files/19457.got.cif
#   From: 2010.03.12/outbox.cif.g09.slc.cpg/sg51_10_cif.got.tgz:19457.got - 2010.04.16 13:43:02.
