data_PCOD8214874
_publ_section_title
;
Structure prediction by ZEFSAII (Michael W. Deem and Ramdas Pophale) SiO2 
 PCOD8214874
Probable space group: P M M A
;
_chemical_formula_sum "Si O2"
_cell_formula_units_Z 56
_cell_length_a 9.390633
_cell_length_b 13.652926
_cell_length_c 28.776404
_cell_angle_alpha 90.000000
_cell_angle_beta 90.000000
_cell_angle_gamma 90.000000
_cell_volume 3689.411748
_symmetry_space_group_name_H-M "P M M A"
_symmetry_group_IT_number 51
_symmetry_cell_setting 'orthorhombic'
loop_
_space_group_symop_operation_xyz
x,y,z
1/2-x,-y,z
1/2+x,-y,-z
-x,y,-z
-x,-y,-z
1/2+x,y,-z
1/2-x,y,z
x,-y,z
loop_
_atom_site_type_symbol
_atom_site_label
_atom_site_fract_x
_atom_site_fract_y
_atom_site_fract_z
Si Si1 0.915694 0.723999 0.725889
Si Si2 0.911392 0.616558 0.456329
Si Si3 0.416325 0.223890 0.863080
Si Si4 0.916177 0.112782 0.044892
Si Si5 0.916315 0.611686 0.818454
Si Si6 0.914948 0.613707 0.632862
Si Si7 0.916375 0.111644 0.229672
O O1 0.750000 0.749788 0.726347
O O2 0.954717 0.648509 0.766852
O O3 0.961825 0.674601 0.677800
O O4 0.001350 0.824842 0.731883
O O5 0.750000 0.657528 0.457610
O O6 0.910064 0.500000 0.458439
O O7 0.000000 0.658665 0.500000
O O8 0.989067 0.652116 0.409532
O O9 0.250000 0.247816 0.863641
O O10 0.466802 0.175361 0.911012
O O11 0.499953 0.325395 0.856740
O O12 0.454730 0.148742 0.821893
O O13 0.750000 0.126404 0.035281
O O14 0.953938 0.000000 0.055149
O O15 0.000000 0.151792 0.000000
O O16 0.750000 0.622636 0.828596
O O17 0.966906 0.500000 0.822724
O O18 0.750000 0.630736 0.620028
O O19 0.943345 0.500000 0.643548
O O20 0.750000 0.121897 0.239672
O O21 0.967641 0.000000 0.233931
#
# Coordination Sequence:
#
# PCOD8214874 Si02
#       7
#     8   8   8   8   8   8   8
#     4   9  17  28  42  61  84 110 140 172 206 244
#     4   9  16  25  37  54  77 106 140 175 209 245
#     4   9  17  29  45  64  85 110 139 169 202 243
#     4   9  17  29  45  65  88 111 134 164 205 251
#     4   9  17  29  44  62  85 112 141 173 207 242
#     4   9  16  26  40  57  80 111 142 171 205 244
#     4   9  17  29  44  61  83 111 139 167 202 244
#
# _framework density 15.178570000000001
#
# number of rings (size 3 to 8) (size 9 to 14) (size 15 to 20)
#    0.000    3.000    0.000    1.286    0.000    6.857 
#    0.000    0.000    0.000    5.571    0.000    0.000 
#    0.000    0.571    0.000    1.857    0.000    2.714 
#
# Total GULP energy -694425.794623 kJ/mol
# GULP energy per Si atom -12400.460618 kJ/mol
# Density = 1.514402 g / cm^3
# Si number density = 15.178570 Si / 1000 Ang^3
#
#
#
# Elastic Constant Matrix: (Units=GPa)
#
#
# Indices 1 2 3 4 5 6 
#
# 1 61.7013 44.7888 58.4210 0.0000 0.0000 0.0000
# 2 44.7888 99.9087 58.5789 0.0000 0.0000 0.0000
# 3 58.4210 58.5789 127.4131 0.0000 0.0000 0.0000
# 4 0.0000 0.0000 0.0000 20.5174 0.0000 0.0000
# 5 0.0000 0.0000 0.0000 0.0000 28.6543 0.0000
# 6 0.0000 0.0000 0.0000 0.0000 0.0000 24.2903
#
#
#
# Elastic Compliance Matrix: (Units=1/GPa)
#
#
# Indices 1 2 3 4 5 6 
#
# 1 0.032777 -0.008053 -0.011326 0.000000 0.000000 0.000000
# 2 -0.008053 0.015681 -0.003517 0.000000 0.000000 0.000000
# 3 -0.011326 -0.003517 0.014659 0.000000 0.000000 0.000000
# 4 0.000000 0.000000 0.000000 0.048739 0.000000 0.000000
# 5 0.000000 0.000000 0.000000 0.000000 0.034899 0.000000
# 6 0.000000 0.000000 0.000000 0.000000 0.000000 0.041169
#
#
# Mechanical properties :
#
#
# Convention : Reuss Voigt Hill
#
# Bulk Modulus (GPa) = 57.72265 68.06671 62.89468
# Shear Modulus (GPa) = 20.87757 23.17471 22.02614
#
# Velocity S-wave (km/s) = 3.71275 3.91167 3.81351
# Velocity P-wave (km/s) = 7.51604 8.08350 7.80493
#
# Compressibility (1/GPa) = 0.01732422
#
# Stress axis : x y z
#
# Youngs Moduli (GPa) = 30.50933 63.76954 68.21791
#
# Poissons Ratio (x) = 0.51353 0.77266
# Poissons Ratio (y) = 0.24569 0.23994
# Poissons Ratio (z) = 0.34556 0.22430
#
# Static dielectric constant tensor:
#      x y z
#    x 2.934530 0.000000 0.000000 
#    y 0.000000 2.763400 0.000000 
#    z 0.000000 0.000000 2.940440 
# 
# 
# High freq. dielectric constant tensor:
#      x y z
#    x 1.583620 0.000000 0.000000 
#    y 0.000000 1.551450 0.000000 
#    z 0.000000 0.000000 1.576920 
# 
# From -- ./inp_files/37502.got.cif
#   From: 2010.03.12/outbox.cif.g09.slc.cpg/sg51_19_cif.got.tgz:37502.got - 2010.04.16 13:43:02.
