data_PCOD8214078
_publ_section_title
;
Structure prediction by ZEFSAII (Michael W. Deem and Ramdas Pophale) SiO2 
 PCOD8214078
Probable space group: P M M A
;
_chemical_formula_sum "Si O2"
_cell_formula_units_Z 64
_cell_length_a 30.784130
_cell_length_b 8.692921
_cell_length_c 11.966605
_cell_angle_alpha 90.000000
_cell_angle_beta 90.000000
_cell_angle_gamma 90.000000
_cell_volume 3202.311486
_symmetry_space_group_name_H-M "P M M A"
_symmetry_group_IT_number 51
_symmetry_cell_setting 'orthorhombic'
loop_
_space_group_symop_operation_xyz
x,y,z
1/2-x,-y,z
1/2+x,-y,-z
-x,y,-z
-x,-y,-z
1/2+x,y,-z
1/2-x,y,z
x,-y,z
loop_
_atom_site_type_symbol
_atom_site_label
_atom_site_fract_x
_atom_site_fract_y
_atom_site_fract_z
Si Si1 0.586386 0.179142 0.751638
Si Si2 0.451712 0.678060 0.040240
Si Si3 0.298537 0.175860 0.019610
Si Si4 0.374925 0.817966 0.636173
Si Si5 0.547878 0.817943 0.516071
Si Si6 0.201130 0.822711 0.476225
Si Si7 0.126035 0.679159 0.879339
Si Si8 0.178598 0.320715 0.243699
O O1 0.553743 0.214359 0.852172
O O2 0.563807 0.230855 0.637756
O O3 0.628077 0.284172 0.768565
O O4 0.599381 0.000000 0.749388
O O5 0.444683 0.500000 0.072339
O O6 0.500000 0.710486 0.000000
O O7 0.417276 0.728689 0.945684
O O8 0.250000 0.191612 0.969071
O O9 0.296151 0.228758 0.147978
O O10 0.314664 0.000000 0.013632
O O11 0.331327 0.280156 0.949724
O O12 0.418353 0.752435 0.576005
O O13 0.332403 0.758840 0.568881
O O14 0.373054 0.765214 0.762519
O O15 0.375314 0.000000 0.634141
O O16 0.500000 0.745104 0.500000
O O17 0.545342 0.000000 0.504083
O O18 0.250000 0.804186 0.523570
O O19 0.196775 0.726434 0.363583
O O20 0.190422 0.000000 0.447790
O O21 0.126050 0.500000 0.854261
O O22 0.186605 0.500000 0.225083
#
# Coordination Sequence:
#
# PCOD8214078 Si02
#       8
#     8   8   8   8   8   8   8   8
#     4  11  21  37  64  92 120 156 203 250 297 354
#     4  10  23  42  61  86 125 165 200 247 306 362
#     4  11  24  42  65  91 119 156 202 250 301 360
#     4  10  21  39  61  85 119 159 201 249 297 350
#     4   9  19  36  59  89 121 152 193 249 300 344
#     4  10  21  39  62  87 116 154 200 246 293 349
#     4  11  24  41  61  88 123 162 201 248 302 358
#     4  12  23  37  60  91 127 159 192 241 305 361
#
# _framework density 19.985564
#
# number of rings (size 3 to 8) (size 9 to 14) (size 15 to 20)
#    0.000    1.500    2.500    2.625    1.750    4.500 
#    0.000    1.250    0.000    1.875    0.000    0.000 
#    0.000    0.000    0.000    0.000    0.000    0.000 
#
# Total GULP energy -793805.479430 kJ/mol
# GULP energy per Si atom -12403.210616 kJ/mol
# Density = 1.994008 g / cm^3
# Si number density = 19.985564 Si / 1000 Ang^3
#
#
#
# Elastic Constant Matrix: (Units=GPa)
#
#
# Indices 1 2 3 4 5 6 
#
# 1 134.4008 18.2320 47.7543 0.0000 0.0000 0.0000
# 2 18.2320 25.9036 6.1153 0.0000 0.0000 0.0000
# 3 47.7543 6.1153 121.1875 0.0000 0.0000 0.0000
# 4 0.0000 0.0000 0.0000 15.8503 0.0000 0.0000
# 5 0.0000 0.0000 0.0000 0.0000 39.8648 0.0000
# 6 0.0000 0.0000 0.0000 0.0000 0.0000 23.3703
#
#
#
# Elastic Compliance Matrix: (Units=1/GPa)
#
#
# Indices 1 2 3 4 5 6 
#
# 1 0.009452 -0.005843 -0.003430 0.000000 0.000000 0.000000
# 2 -0.005843 0.042682 0.000149 0.000000 0.000000 0.000000
# 3 -0.003430 0.000149 0.009596 0.000000 0.000000 0.000000
# 4 0.000000 0.000000 0.000000 0.063090 0.000000 0.000000
# 5 0.000000 0.000000 0.000000 0.000000 0.025085 0.000000
# 6 0.000000 0.000000 0.000000 0.000000 0.000000 0.042789
#
#
# Mechanical properties :
#
#
# Convention : Reuss Voigt Hill
#
# Bulk Modulus (GPa) = 22.99824 47.29945 35.14885
# Shear Modulus (GPa) = 22.17934 29.77643 25.97789
#
# Velocity S-wave (km/s) = 3.33493 3.86411 3.60923
# Velocity P-wave (km/s) = 5.13434 6.60504 5.91557
#
# Compressibility (1/GPa) = 0.04348159
#
# Stress axis : x y z
#
# Youngs Moduli (GPa) = 105.80207 23.42911 104.21413
#
# Poissons Ratio (x) = 0.13689 0.35741
# Poissons Ratio (y) = 0.61818 -0.01548
# Poissons Ratio (z) = 0.36286 -0.00348
#
# Static dielectric constant tensor:
#      x y z
#    x 3.928940 0.000000 0.000000 
#    y 0.000000 3.424180 0.000000 
#    z 0.000000 0.000000 3.658990 
# 
# 
# High freq. dielectric constant tensor:
#      x y z
#    x 1.796160 0.000000 0.000000 
#    y 0.000000 1.763280 0.000000 
#    z 0.000000 0.000000 1.782100 
# 
# From -- ./inp_files/19493.got.cif
#   From: 2010.03.12/outbox.cif.g09.slc.cpg/sg51_10_cif.got.tgz:19493.got - 2010.04.16 13:43:02.
