data_PCOD8214438
_publ_section_title
;
Structure prediction by ZEFSAII (Michael W. Deem and Ramdas Pophale) SiO2 
 PCOD8214438
Probable space group: P M M A
;
_chemical_formula_sum "Si O2"
_cell_formula_units_Z 56
_cell_length_a 18.222715
_cell_length_b 14.197257
_cell_length_c 12.624752
_cell_angle_alpha 90.000000
_cell_angle_beta 90.000000
_cell_angle_gamma 90.000000
_cell_volume 3266.182011
_symmetry_space_group_name_H-M "P M M A"
_symmetry_group_IT_number 51
_symmetry_cell_setting 'orthorhombic'
loop_
_space_group_symop_operation_xyz
x,y,z
1/2-x,-y,z
1/2+x,-y,-z
-x,y,-z
-x,-y,-z
1/2+x,y,-z
1/2-x,y,z
x,-y,z
loop_
_atom_site_type_symbol
_atom_site_label
_atom_site_fract_x
_atom_site_fract_y
_atom_site_fract_z
Si Si1 0.578860 0.392092 0.630067
Si Si2 0.090930 0.106882 0.112880
Si Si3 0.837199 0.605713 0.012672
Si Si4 0.410119 0.392221 0.614086
Si Si5 0.163754 0.725037 0.787472
Si Si6 0.078473 0.893099 0.869239
Si Si7 0.663723 0.715601 0.806266
O O1 0.599433 0.500000 0.655983
O O2 0.493180 0.374527 0.651695
O O3 0.598395 0.368344 0.509211
O O4 0.625917 0.322873 0.701468
O O5 0.143722 0.174919 0.179285
O O6 0.006994 0.132807 0.137446
O O7 0.108048 0.000000 0.147765
O O8 0.107508 0.119378 0.988668
O O9 0.750000 0.603097 0.012965
O O10 0.869551 0.500000 0.015136
O O11 0.866107 0.657406 0.907385
O O12 0.865804 0.660971 0.115717
O O13 0.387585 0.500000 0.635660
O O14 0.355227 0.325241 0.677547
O O15 0.250000 0.742121 0.794827
O O16 0.123881 0.825754 0.791649
O O17 0.091325 0.000000 0.831227
O O18 0.750000 0.704366 0.792629
#
# Coordination Sequence:
#
# PCOD8214438 Si02
#       7
#     8   8   8   8   8   8   8
#     4   9  19  36  55  74  99 134 176 217 253 295
#     4   9  18  33  52  73 100 135 173 211 250 299
#     4   9  18  30  42  65 104 140 163 191 240 299
#     4   9  19  36  55  74  99 134 176 217 253 295
#     4  11  20  31  50  76 106 137 167 207 256 304
#     4   9  18  33  52  73 100 135 173 211 250 299
#     4  11  20  31  50  76 106 137 167 207 256 304
#
# _framework density 17.145399999999999
#
# number of rings (size 3 to 8) (size 9 to 14) (size 15 to 20)
#    0.000    2.429    1.429    3.429    0.000    2.857 
#    0.000    2.857    0.000    4.286    0.000    6.000 
#    0.000    0.000    0.000    0.000    0.000    0.000 
#
# Total GULP energy -694518.374562 kJ/mol
# GULP energy per Si atom -12402.113831 kJ/mol
# Density = 1.710638 g / cm^3
# Si number density = 17.145400 Si / 1000 Ang^3
#
#
#
# Elastic Constant Matrix: (Units=GPa)
#
#
# Indices 1 2 3 4 5 6 
#
# 1 24.1138 15.9231 14.5376 0.0000 0.0000 0.0000
# 2 15.9231 86.5915 29.4519 0.0000 0.0000 0.0000
# 3 14.5376 29.4519 63.0883 0.0000 0.0000 0.0000
# 4 0.0000 0.0000 0.0000 21.3613 0.0000 0.0000
# 5 0.0000 0.0000 0.0000 0.0000 26.8837 0.0000
# 6 0.0000 0.0000 0.0000 0.0000 0.0000 26.8278
#
#
#
# Elastic Compliance Matrix: (Units=1/GPa)
#
#
# Indices 1 2 3 4 5 6 
#
# 1 0.050974 -0.006394 -0.008761 0.000000 0.000000 0.000000
# 2 -0.006394 0.014530 -0.005310 0.000000 0.000000 0.000000
# 3 -0.008761 -0.005310 0.020349 0.000000 0.000000 0.000000
# 4 0.000000 0.000000 0.000000 0.046814 0.000000 0.000000
# 5 0.000000 0.000000 0.000000 0.000000 0.037197 0.000000
# 6 0.000000 0.000000 0.000000 0.000000 0.000000 0.037275
#
#
# Mechanical properties :
#
#
# Convention : Reuss Voigt Hill
#
# Bulk Modulus (GPa) = 22.26025 32.62429 27.44227
# Shear Modulus (GPa) = 19.00836 22.60663 20.80750
#
# Velocity S-wave (km/s) = 3.33326 3.63509 3.48744
# Velocity P-wave (km/s) = 5.27500 6.05705 5.67950
#
# Compressibility (1/GPa) = 0.04492314
#
# Stress axis : x y z
#
# Youngs Moduli (GPa) = 19.61789 68.82215 49.14358
#
# Poissons Ratio (x) = 0.44002 0.43056
# Poissons Ratio (y) = 0.12543 0.26095
# Poissons Ratio (z) = 0.17188 0.36544
#
# Static dielectric constant tensor:
#      x y z
#    x 2.988160 0.000000 0.000000 
#    y 0.000000 3.213870 0.000000 
#    z 0.000000 0.000000 3.017850 
# 
# 
# High freq. dielectric constant tensor:
#      x y z
#    x 1.651140 0.000000 0.000000 
#    y 0.000000 1.663890 0.000000 
#    z 0.000000 0.000000 1.643890 
# 
# From -- ./inp_files/18261.got.cif
#   From: 2010.03.12/outbox.cif.g09.slc.cpg/sg51_10_cif.got.tgz:18261.got - 2010.04.16 13:43:02.
