data_PCOD8214640
_publ_section_title
;
Structure prediction by ZEFSAII (Michael W. Deem and Ramdas Pophale) SiO2 
 PCOD8214640
Probable space group: P M M A
;
_chemical_formula_sum "Si O2"
_cell_formula_units_Z 32
_cell_length_a 18.917101
_cell_length_b 7.433983
_cell_length_c 12.118602
_cell_angle_alpha 90.000000
_cell_angle_beta 90.000000
_cell_angle_gamma 90.000000
_cell_volume 1704.231816
_symmetry_space_group_name_H-M "P M M A"
_symmetry_group_IT_number 51
_symmetry_cell_setting 'orthorhombic'
loop_
_space_group_symop_operation_xyz
x,y,z
1/2-x,-y,z
1/2+x,-y,-z
-x,y,-z
-x,-y,-z
1/2+x,y,-z
1/2-x,y,z
x,-y,z
loop_
_atom_site_type_symbol
_atom_site_label
_atom_site_fract_x
_atom_site_fract_y
_atom_site_fract_z
Si Si1 0.166133 0.000000 0.746290
Si Si2 0.666708 0.000000 0.500532
Si Si3 0.086281 0.287137 0.881565
Si Si4 0.667487 0.707834 0.671962
Si Si5 0.073345 0.288189 0.128044
O O1 0.134357 0.000000 0.621986
O O2 0.140635 0.818537 0.805156
O O3 0.250000 0.000000 0.746722
O O4 0.642414 0.178981 0.565839
O O5 0.750000 0.000000 0.489853
O O6 0.099147 0.500000 0.866706
O O7 0.006944 0.229475 0.846772
O O8 0.098555 0.221848 0.007695
O O9 0.750000 0.736195 0.697215
O O10 0.649512 0.500000 0.647965
O O11 0.625423 0.785344 0.777689
O O12 0.076288 0.500000 0.124583
#
# Coordination Sequence:
#
# PCOD8214640 Si02
#       5
#     4   4   8   8   8
#     4  11  24  37  51  75 101 134 183 216 242 302
#     4   9  20  36  49  68 100 135 174 213 252 303
#     4   9  19  36  55  76 107 140 164 201 257 308
#     4   9  17  31  53  77 100 129 167 214 259 296
#     4   8  16  33  56  81 106 133 167 202 250 317
#
# _framework density 18.776789000000001
#
# number of rings (size 3 to 8) (size 9 to 14) (size 15 to 20)
#    0.000    3.000    0.000    1.500    0.000    6.500 
#    0.000    8.750    0.000    4.500    0.000    0.000 
#    0.000    0.000    0.000    0.000    0.000    0.000 
#
# Total GULP energy -396670.234968 kJ/mol
# GULP energy per Si atom -12395.944843 kJ/mol
# Density = 1.873405 g / cm^3
# Si number density = 18.776789 Si / 1000 Ang^3
#
#
#
# Elastic Constant Matrix: (Units=GPa)
#
#
# Indices 1 2 3 4 5 6 
#
# 1 73.9147 37.5328 69.2200 0.0000 0.0000 0.0000
# 2 37.5328 94.7158 63.8858 0.0000 0.0000 0.0000
# 3 69.2200 63.8858 164.8244 0.0000 0.0000 0.0000
# 4 0.0000 0.0000 0.0000 34.3664 0.0000 0.0000
# 5 0.0000 0.0000 0.0000 0.0000 14.8191 0.0000
# 6 0.0000 0.0000 0.0000 0.0000 0.0000 22.5867
#
#
#
# Elastic Compliance Matrix: (Units=1/GPa)
#
#
# Indices 1 2 3 4 5 6 
#
# 1 0.023144 -0.003541 -0.008347 0.000000 0.000000 0.000000
# 2 -0.003541 0.014837 -0.004264 0.000000 0.000000 0.000000
# 3 -0.008347 -0.004264 0.011225 0.000000 0.000000 0.000000
# 4 0.000000 0.000000 0.000000 0.029098 0.000000 0.000000
# 5 0.000000 0.000000 0.000000 0.000000 0.067481 0.000000
# 6 0.000000 0.000000 0.000000 0.000000 0.000000 0.044274
#
#
# Mechanical properties :
#
#
# Convention : Reuss Voigt Hill
#
# Bulk Modulus (GPa) = 59.16306 74.97022 67.06664
# Shear Modulus (GPa) = 21.93013 25.20887 23.56950
#
# Velocity S-wave (km/s) = 3.42122 3.66806 3.54679
# Velocity P-wave (km/s) = 6.86901 7.61271 7.25040
#
# Compressibility (1/GPa) = 0.01690244
#
# Stress axis : x y z
#
# Youngs Moduli (GPa) = 43.20728 67.39913 89.08579
#
# Poissons Ratio (x) = 0.23867 0.74361
# Poissons Ratio (y) = 0.15300 0.37983
# Poissons Ratio (z) = 0.36066 0.28737
#
# Static dielectric constant tensor:
#      x y z
#    x 3.551760 0.000000 0.000000 
#    y 0.000000 3.347800 0.000000 
#    z 0.000000 0.000000 3.936610 
# 
# 
# High freq. dielectric constant tensor:
#      x y z
#    x 1.709880 0.000000 0.000000 
#    y 0.000000 1.732250 0.000000 
#    z 0.000000 0.000000 1.728170 
# 
# From -- ./inp_files/17014.got.cif
#   From: 2010.03.12/outbox.cif.g09.slc.cpg/sg51_9_cif.got.tgz:17014.got - 2010.04.16 13:43:02.
