data_PCOD8214221
_publ_section_title
;
Structure prediction by ZEFSAII (Michael W. Deem and Ramdas Pophale) SiO2 
 PCOD8214221
Probable space group: P M M A
;
_chemical_formula_sum "Si O2"
_cell_formula_units_Z 40
_cell_length_a 18.907806
_cell_length_b 7.497290
_cell_length_c 12.891290
_cell_angle_alpha 90.000000
_cell_angle_beta 90.000000
_cell_angle_gamma 90.000000
_cell_volume 1827.434526
_symmetry_space_group_name_H-M "P M M A"
_symmetry_group_IT_number 51
_symmetry_cell_setting 'orthorhombic'
loop_
_space_group_symop_operation_xyz
x,y,z
1/2-x,-y,z
1/2+x,-y,-z
-x,y,-z
-x,-y,-z
1/2+x,y,-z
1/2-x,y,z
x,-y,z
loop_
_atom_site_type_symbol
_atom_site_label
_atom_site_fract_x
_atom_site_fract_y
_atom_site_fract_z
Si Si1 0.832435 0.298389 0.826457
Si Si2 0.595709 0.293374 0.621588
Si Si3 0.960736 0.000000 0.110900
Si Si4 0.831085 0.000000 0.987611
Si Si5 0.669901 0.288083 0.418059
Si Si6 0.454780 0.293395 0.724265
O O1 0.750000 0.293051 0.802911
O O2 0.858375 0.500000 0.850589
O O3 0.870007 0.214041 0.725979
O O4 0.851740 0.176504 0.923856
O O5 0.615200 0.500000 0.617594
O O6 0.631435 0.204921 0.520008
O O7 0.510990 0.263987 0.629851
O O8 0.978465 0.176745 0.177022
O O9 0.876676 0.000000 0.091593
O O10 0.000000 0.000000 0.000000
O O11 0.750000 0.000000 0.021340
O O12 0.750000 0.212378 0.406618
O O13 0.671683 0.500000 0.425831
O O14 0.622181 0.233627 0.318709
O O15 0.455244 0.500000 0.759253
#
# Coordination Sequence:
#
# PCOD8214221 Si02
#       6
#     8   8   4   4   8   8
#     4   9  17  31  53  81 111 142 179 227 280 330
#     4   9  16  30  55  85 116 149 183 220 267 326
#     4  12  26  42  60  81 107 144 192 243 289 330
#     4  10  22  38  55  77 106 140 183 237 290 336
#     4   9  17  32  57  88 120 153 185 217 263 329
#     4  10  22  39  59  83 113 148 185 229 278 328
#
# _framework density 21.888608999999999
#
# number of rings (size 3 to 8) (size 9 to 14) (size 15 to 20)
#    0.000    2.400    0.000    2.400    0.000    6.800 
#    0.000    3.000    0.000    0.000    0.000    0.000 
#    0.000    0.000    0.000    0.000    0.000    0.000 
#
# Total GULP energy -495804.265329 kJ/mol
# GULP energy per Si atom -12395.106633 kJ/mol
# Density = 2.183879 g / cm^3
# Si number density = 21.888609 Si / 1000 Ang^3
#
#
#
# Elastic Constant Matrix: (Units=GPa)
#
#
# Indices 1 2 3 4 5 6 
#
# 1 111.0349 23.6896 49.6805 0.0000 0.0000 0.0000
# 2 23.6896 85.0365 38.1217 0.0000 0.0000 0.0000
# 3 49.6805 38.1217 96.6469 0.0000 0.0000 0.0000
# 4 0.0000 0.0000 0.0000 29.3895 0.0000 0.0000
# 5 0.0000 0.0000 0.0000 0.0000 42.9591 0.0000
# 6 0.0000 0.0000 0.0000 0.0000 0.0000 12.2350
#
#
#
# Elastic Compliance Matrix: (Units=1/GPa)
#
#
# Indices 1 2 3 4 5 6 
#
# 1 0.011729 -0.000686 -0.005759 0.000000 0.000000 0.000000
# 2 -0.000686 0.014326 -0.005298 0.000000 0.000000 0.000000
# 3 -0.005759 -0.005298 0.015397 0.000000 0.000000 0.000000
# 4 0.000000 0.000000 0.000000 0.034026 0.000000 0.000000
# 5 0.000000 0.000000 0.000000 0.000000 0.023278 0.000000
# 6 0.000000 0.000000 0.000000 0.000000 0.000000 0.081733
#
#
# Mechanical properties :
#
#
# Convention : Reuss Voigt Hill
#
# Bulk Modulus (GPa) = 55.65929 57.30021 56.47975
# Shear Modulus (GPa) = 23.81375 28.99849 26.40612
#
# Velocity S-wave (km/s) = 3.30199 3.64376 3.47708
# Velocity P-wave (km/s) = 6.32623 6.62854 6.47915
#
# Compressibility (1/GPa) = 0.01796645
#
# Stress axis : x y z
#
# Youngs Moduli (GPa) = 85.25770 69.80371 64.94778
#
# Poissons Ratio (x) = 0.04788 0.37402
# Poissons Ratio (y) = 0.05848 0.34410
# Poissons Ratio (z) = 0.49097 0.36983
#
# Static dielectric constant tensor:
#      x y z
#    x 4.204990 0.000000 0.000000 
#    y 0.000000 3.192040 0.000000 
#    z 0.000000 0.000000 3.775630 
# 
# 
# High freq. dielectric constant tensor:
#      x y z
#    x 1.874410 0.000000 0.000000 
#    y 0.000000 1.840420 0.000000 
#    z 0.000000 0.000000 1.840100 
# 
# From -- ./inp_files/17920.got.cif
#   From: 2010.03.12/outbox.cif.g09.slc.cpg/sg51_9_cif.got.tgz:17920.got - 2010.04.16 13:43:02.
