data_PCOD8214707
_publ_section_title
;
Structure prediction by ZEFSAII (Michael W. Deem and Ramdas Pophale) SiO2 
 PCOD8214707
Probable space group: P M M A
;
_chemical_formula_sum "Si O2"
_cell_formula_units_Z 48
_cell_length_a 9.433200
_cell_length_b 9.462857
_cell_length_c 31.050800
_cell_angle_alpha 90.000000
_cell_angle_beta 90.000000
_cell_angle_gamma 90.000000
_cell_volume 2771.750365
_symmetry_space_group_name_H-M "P M M A"
_symmetry_group_IT_number 51
_symmetry_cell_setting 'orthorhombic'
loop_
_space_group_symop_operation_xyz
x,y,z
1/2-x,-y,z
1/2+x,-y,-z
-x,y,-z
-x,-y,-z
1/2+x,y,-z
1/2-x,y,z
x,-y,z
loop_
_atom_site_type_symbol
_atom_site_label
_atom_site_fract_x
_atom_site_fract_y
_atom_site_fract_z
Si Si1 0.585896 0.335452 0.124378
Si Si2 0.590880 0.331952 0.380413
Si Si3 0.590379 0.668397 0.793769
Si Si4 0.585587 0.163321 0.041398
Si Si5 0.589875 0.331393 0.540512
Si Si6 0.590932 0.331893 0.284936
O O1 0.750000 0.304783 0.134711
O O2 0.558867 0.500000 0.115799
O O3 0.494959 0.278712 0.164509
O O4 0.533889 0.251970 0.082406
O O5 0.750000 0.277206 0.390402
O O6 0.590976 0.500000 0.382293
O O7 0.482542 0.271436 0.415931
O O8 0.542861 0.281460 0.332676
O O9 0.750000 0.727620 0.795747
O O10 0.589557 0.500000 0.792324
O O11 0.515489 0.730407 0.750869
O O12 0.750000 0.190146 0.031906
O O13 0.552893 0.000000 0.050958
O O14 0.500000 0.217522 0.000000
O O15 0.500000 0.274849 0.500000
O O16 0.750000 0.272722 0.537652
O O17 0.590966 0.500000 0.540730
O O18 0.750000 0.277450 0.275197
O O19 0.589758 0.500000 0.282957
#
# Coordination Sequence:
#
# PCOD8214707 Si02
#       6
#     8   8   8   8   8   8
#     4   9  17  29  44  61  82 108 135 161 193 235
#     4   8  13  20  28  37  49  67  94 127 164 210
#     4   9  16  24  35  53  75  96 119 150 186 222
#     4   9  18  32  48  65  85 109 136 165 197 233
#     4   9  15  20  25  32  43  61  87 123 168 215
#     4   8  13  21  32  44  60  84 110 136 172 221
#
# _framework density 17.317577
#
# number of rings (size 3 to 8) (size 9 to 14) (size 15 to 20)
#    0.000    3.333    0.000    2.000    0.000    5.667 
#    0.000    3.333    0.000    0.000    0.000    0.000 
#    0.000    0.000    0.000    0.000    0.000    0.000 
#
# Total GULP energy -594978.687206 kJ/mol
# GULP energy per Si atom -12395.389317 kJ/mol
# Density = 1.727816 g / cm^3
# Si number density = 17.317577 Si / 1000 Ang^3
#
#
#
# Elastic Constant Matrix: (Units=GPa)
#
#
# Indices 1 2 3 4 5 6 
#
# 1 129.2104 15.9320 107.3861 0.0000 0.0000 0.0000
# 2 15.9320 11.5469 24.6807 0.0000 0.0000 0.0000
# 3 107.3861 24.6807 192.2664 0.0000 0.0000 0.0000
# 4 0.0000 0.0000 0.0000 -0.0573 0.0000 0.0000
# 5 0.0000 0.0000 0.0000 0.0000 39.6522 0.0000
# 6 0.0000 0.0000 0.0000 0.0000 0.0000 6.9870
#
#
#
# Elastic Compliance Matrix: (Units=1/GPa)
#
#
# Indices 1 2 3 4 5 6 
#
# 1 0.014560 -0.003731 -0.007653 0.000000 0.000000 0.000000
# 2 -0.003731 0.120306 -0.013359 0.000000 0.000000 0.000000
# 3 -0.007653 -0.013359 0.011191 0.000000 0.000000 0.000000
# 4 0.000000 0.000000 0.000000-17.452062 0.000000 0.000000
# 5 0.000000 0.000000 0.000000 0.000000 0.025219 0.000000
# 6 0.000000 0.000000 0.000000 0.000000 0.000000 0.143123
#
#
# Mechanical properties :
#
#
# Convention : Reuss Voigt Hill
#
# Bulk Modulus (GPa) = 10.35529 69.89127 40.12328
# Shear Modulus (GPa) = -0.29315 21.65137 10.67911
#
# Velocity S-wave (km/s) = -0.41188 3.53973 2.48596
# Velocity P-wave (km/s) = 2.40134 7.55992 5.60887
#
# Compressibility (1/GPa) = 0.09656903
#
# Stress axis : x y z
#
# Youngs Moduli (GPa) = 68.68205 8.31214 89.36134
#
# Poissons Ratio (x) = 0.03101 0.68389
# Poissons Ratio (y) = 0.25626 1.19382
# Poissons Ratio (z) = 0.52563 0.11105
#
# Static dielectric constant tensor:
#      x y z
#    x 3.394900 0.000000 0.000000 
#    y 0.000000 2.474100 0.000000 
#    z 0.000000 0.000000 3.559150 
# 
# 
# High freq. dielectric constant tensor:
#      x y z
#    x 1.672070 0.000000 0.000000 
#    y 0.000000 1.580350 0.000000 
#    z 0.000000 0.000000 1.686740 
# 
# From -- ./inp_files/37301.got.cif
#   From: 2010.03.12/outbox.cif.g09.slc.cpg/sg51_19_cif.got.tgz:37301.got - 2010.04.16 13:43:02.
