data_PCOD8214992
_publ_section_title
;
Structure prediction by ZEFSAII (Michael W. Deem and Ramdas Pophale) SiO2 
 PCOD8214992
Probable space group: P N N A
;
_chemical_formula_sum "Si O2"
_cell_formula_units_Z 48
_cell_length_a 17.103326
_cell_length_b 29.685398
_cell_length_c 4.892611
_cell_angle_alpha 90.000000
_cell_angle_beta 90.000000
_cell_angle_gamma 90.000000
_cell_volume 2484.071757
_symmetry_space_group_name_H-M "P N N A"
_symmetry_group_IT_number 52
_symmetry_cell_setting 'orthorhombic'
loop_
_space_group_symop_operation_xyz
x,y,z
1/2-x,-y,z
x,1/2-y,1/2-z
1/2-x,1/2+y,1/2-z
-x,-y,-z
1/2+x,y,-z
-x,1/2+y,1/2+z
1/2+x,1/2-y,1/2+z
loop_
_atom_site_type_symbol
_atom_site_label
_atom_site_fract_x
_atom_site_fract_y
_atom_site_fract_z
Si Si1 0.644658 0.393253 0.238135
Si Si2 0.247710 0.295644 0.167888
Si Si3 0.083419 0.014600 0.890241
Si Si4 0.142725 0.296035 0.668064
Si Si5 0.247102 0.607838 0.262572
Si Si6 0.169206 0.979466 0.393518
O O1 0.582987 0.433103 0.297079
O O2 0.601010 0.344485 0.275113
O O3 0.721207 0.397572 0.430554
O O4 0.677089 0.398156 0.931840
O O5 0.296425 0.250000 0.250000
O O6 0.168312 0.294701 0.352958
O O7 0.292576 0.342536 0.226768
O O8 0.221817 0.294650 0.853017
O O9 0.104774 0.983090 0.631597
O O10 0.146345 0.008672 0.129728
O O11 0.000000 0.000000 0.000000
O O12 0.094017 0.250000 0.750000
O O13 0.179012 0.572350 0.195873
O O14 0.250000 0.000000 0.508850
#
# Coordination Sequence:
#
# PCOD8214992 Si02
#       6
#     8   8   8   8   8   8
#     4  10  17  30  46  69  97 128 162 204 255 297
#     4   8  14  24  38  64  97 120 145 195 255 293
#     4  12  24  36  50  74 106 140 171 218 265 309
#     4   8  14  23  39  62  91 120 151 194 244 294
#     4  10  18  28  50  72  93 128 169 207 245 299
#     4  12  21  36  55  74 100 135 182 213 254 309
#
# _framework density 19.323115000000001
#
# number of rings (size 3 to 8) (size 9 to 14) (size 15 to 20)
#    0.000    2.000    3.333    2.000    0.000    0.000 
#    0.000    0.000    0.000    0.000    0.000    1.167 
#    0.000    2.667    0.000    0.000    0.000    0.000 
#
# Total GULP energy -594699.931330 kJ/mol
# GULP energy per Si atom -12389.581903 kJ/mol
# Density = 1.927913 g / cm^3
# Si number density = 19.323115 Si / 1000 Ang^3
#
#
#
# Elastic Constant Matrix: (Units=GPa)
#
#
# Indices 1 2 3 4 5 6 
#
# 1 30.6658 38.8915 3.7010 0.0000 0.0000 0.0000
# 2 38.8915 186.8589 13.3679 0.0000 0.0000 0.0000
# 3 3.7010 13.3679 74.4836 0.0000 0.0000 0.0000
# 4 0.0000 0.0000 0.0000 30.9878 0.0000 0.0000
# 5 0.0000 0.0000 0.0000 0.0000 15.9482 0.0000
# 6 0.0000 0.0000 0.0000 0.0000 0.0000 12.7910
#
#
#
# Elastic Compliance Matrix: (Units=1/GPa)
#
#
# Indices 1 2 3 4 5 6 
#
# 1 0.044327 -0.009186 -0.000554 0.000000 0.000000 0.000000
# 2 -0.009186 0.007325 -0.000858 0.000000 0.000000 0.000000
# 3 -0.000554 -0.000858 0.013607 0.000000 0.000000 0.000000
# 4 0.000000 0.000000 0.000000 0.032271 0.000000 0.000000
# 5 0.000000 0.000000 0.000000 0.000000 0.062703 0.000000
# 6 0.000000 0.000000 0.000000 0.000000 0.000000 0.078180
#
#
# Mechanical properties :
#
#
# Convention : Reuss Voigt Hill
#
# Bulk Modulus (GPa) = 22.69504 44.88101 33.78802
# Shear Modulus (GPa) = 18.22841 27.68191 22.95516
#
# Velocity S-wave (km/s) = 3.07473 3.78905 3.45042
# Velocity P-wave (km/s) = 4.93718 6.51303 5.77907
#
# Compressibility (1/GPa) = 0.04406250
#
# Stress axis : x y z
#
# Youngs Moduli (GPa) = 22.55973 136.51903 73.48988
#
# Poissons Ratio (x) = 1.25410 0.04070
# Poissons Ratio (y) = 0.20724 0.06307
# Poissons Ratio (z) = 0.01249 0.11716
#
# Static dielectric constant tensor:
#      x y z
#    x 2.627530 0.000000 0.000000 
#    y 0.000000 4.402920 0.000000 
#    z 0.000000 0.000000 3.736860 
# 
# 
# High freq. dielectric constant tensor:
#      x y z
#    x 1.632160 0.000000 0.000000 
#    y 0.000000 1.791890 0.000000 
#    z 0.000000 0.000000 1.781990 
# 
# From -- ./inp_files/2571.got.cif
#   From: 2010.06.25/outbox.cif.g09.slc.cpg/sg52_2_cif.got.tgz:2571.got - 2010.06.26 19:32:48.
