data_PCOD8214776
_publ_section_title
;
Structure prediction by ZEFSAII (Michael W. Deem and Ramdas Pophale) SiO2 
 PCOD8214776
Probable space group: P M M A
;
_chemical_formula_sum "Si O2"
_cell_formula_units_Z 40
_cell_length_a 9.540691
_cell_length_b 25.263540
_cell_length_c 10.044656
_cell_angle_alpha 90.000000
_cell_angle_beta 90.000000
_cell_angle_gamma 90.000000
_cell_volume 2421.079795
_symmetry_space_group_name_H-M "P M M A"
_symmetry_group_IT_number 51
_symmetry_cell_setting 'orthorhombic'
loop_
_space_group_symop_operation_xyz
x,y,z
1/2-x,-y,z
1/2+x,-y,-z
-x,y,-z
-x,-y,-z
1/2+x,y,-z
1/2-x,y,z
x,-y,z
loop_
_atom_site_type_symbol
_atom_site_label
_atom_site_fract_x
_atom_site_fract_y
_atom_site_fract_z
Si Si1 0.587215 0.746269 0.628339
Si Si2 0.087844 0.131570 0.373106
Si Si3 0.910086 0.555865 0.869295
Si Si4 0.587714 0.939077 0.872700
Si Si5 0.913908 0.328947 0.864282
O O1 0.500000 0.727950 0.500000
O O2 0.750000 0.735336 0.598299
O O3 0.558398 0.807426 0.661840
O O4 0.534431 0.713109 0.755351
O O5 0.250000 0.121425 0.405573
O O6 0.036815 0.096476 0.249796
O O7 0.000000 0.112975 0.500000
O O8 0.750000 0.556911 0.915690
O O9 0.938365 0.500000 0.787302
O O10 0.942443 0.612279 0.798725
O O11 0.000000 0.553596 0.000000
O O12 0.750000 0.929213 0.905290
O O13 0.557858 0.000000 0.836396
O O14 0.500000 0.920842 0.000000
O O15 0.750000 0.320637 0.897136
O O16 0.000000 0.320403 0.000000
#
# Coordination Sequence:
#
# PCOD8214776 Si02
#       5
#     8   8   8   8   8
#     4   9  18  32  47  63  86 116 147 178 214 256
#     4   9  18  32  48  66  88 114 146 182 216 252
#     4   8  13  22  37  57  81 108 136 168 208 251
#     4   9  18  32  48  67  92 119 145 175 213 256
#     4   9  17  28  43  65  89 111 140 178 216 255
#
# _framework density 16.521553999999998
#
# number of rings (size 3 to 8) (size 9 to 14) (size 15 to 20)
#    0.000    3.200    0.000    0.000    0.000    2.800 
#    0.000    0.000    0.000    0.600    0.000    0.000 
#    0.000    0.000    0.000    0.000    0.000    0.000 
#
# Total GULP energy -495583.460324 kJ/mol
# GULP energy per Si atom -12389.586508 kJ/mol
# Density = 1.648395 g / cm^3
# Si number density = 16.521554 Si / 1000 Ang^3
#
#
#
# Elastic Constant Matrix: (Units=GPa)
#
#
# Indices 1 2 3 4 5 6 
#
# 1 47.1164 41.3755 53.1880 0.0000 0.0000 0.0000
# 2 41.3755 103.1710 85.7800 0.0000 0.0000 0.0000
# 3 53.1880 85.7800 128.2411 0.0000 0.0000 0.0000
# 4 0.0000 0.0000 0.0000 8.7381 0.0000 0.0000
# 5 0.0000 0.0000 0.0000 0.0000 29.1962 0.0000
# 6 0.0000 0.0000 0.0000 0.0000 0.0000 17.0502
#
#
#
# Elastic Compliance Matrix: (Units=1/GPa)
#
#
# Indices 1 2 3 4 5 6 
#
# 1 0.041114 -0.005206 -0.013570 0.000000 0.000000 0.000000
# 2 -0.005206 0.022496 -0.012889 0.000000 0.000000 0.000000
# 3 -0.013570 -0.012889 0.022047 0.000000 0.000000 0.000000
# 4 0.000000 0.000000 0.000000 0.114441 0.000000 0.000000
# 5 0.000000 0.000000 0.000000 0.000000 0.034251 0.000000
# 6 0.000000 0.000000 0.000000 0.000000 0.000000 0.058650
#
#
# Mechanical properties :
#
#
# Convention : Reuss Voigt Hill
#
# Bulk Modulus (GPa) = 44.78503 71.02393 57.90448
# Shear Modulus (GPa) = 13.74487 17.54258 15.64373
#
# Velocity S-wave (km/s) = 2.88746 3.26206 3.08046
# Velocity P-wave (km/s) = 6.18728 7.56770 6.91204
#
# Compressibility (1/GPa) = 0.02232889
#
# Stress axis : x y z
#
# Youngs Moduli (GPa) = 24.32247 44.45137 45.35727
#
# Poissons Ratio (x) = 0.23141 0.61550
# Poissons Ratio (y) = 0.12662 0.58460
# Poissons Ratio (z) = 0.33006 0.57292
#
# Static dielectric constant tensor:
#      x y z
#    x 3.100490 0.000000 0.000000 
#    y 0.000000 3.624110 0.000000 
#    z 0.000000 0.000000 2.979310 
# 
# 
# High freq. dielectric constant tensor:
#      x y z
#    x 1.636700 0.000000 0.000000 
#    y 0.000000 1.654270 0.000000 
#    z 0.000000 0.000000 1.600420 
# 
# From -- ./inp_files/881.got.cif
#   From: 2010.03.12/outbox.cif.g09.slc.cpg/sg51_1_cif.got.tgz:881.got - 2010.04.16 13:43:02.
