data_PCOD8214632
_publ_section_title
;
Structure prediction by ZEFSAII (Michael W. Deem and Ramdas Pophale) SiO2 
 PCOD8214632
Probable space group: P M M A
;
_chemical_formula_sum "Si O2"
_cell_formula_units_Z 48
_cell_length_a 15.648889
_cell_length_b 8.890701
_cell_length_c 16.715705
_cell_angle_alpha 90.000000
_cell_angle_beta 90.000000
_cell_angle_gamma 90.000000
_cell_volume 2325.649235
_symmetry_space_group_name_H-M "P M M A"
_symmetry_group_IT_number 51
_symmetry_cell_setting 'orthorhombic'
loop_
_space_group_symop_operation_xyz
x,y,z
1/2-x,-y,z
1/2+x,-y,-z
-x,y,-z
-x,-y,-z
1/2+x,y,-z
1/2-x,y,z
x,-y,z
loop_
_atom_site_type_symbol
_atom_site_label
_atom_site_fract_x
_atom_site_fract_y
_atom_site_fract_z
Si Si1 0.417553 0.827618 0.841759
Si Si2 0.151666 0.327756 0.992973
Si Si3 0.151421 0.672684 0.690427
Si Si4 0.750000 0.327479 0.735327
Si Si5 0.114673 0.826924 0.159713
Si Si6 0.750000 0.672198 0.546464
Si Si7 0.090617 0.822693 0.537073
O O1 0.405729 0.762211 0.930225
O O2 0.360481 0.736676 0.779142
O O3 0.515946 0.810779 0.817952
O O4 0.387772 0.000000 0.841379
O O5 0.250000 0.314271 0.967133
O O6 0.121351 0.500000 0.994131
O O7 0.138481 0.259292 0.079646
O O8 0.250000 0.689933 0.664991
O O9 0.122574 0.500000 0.689920
O O10 0.093530 0.764138 0.628065
O O11 0.750000 0.500000 0.764309
O O12 0.665601 0.245731 0.767213
O O13 0.750000 0.314244 0.640946
O O14 0.141246 0.000000 0.148938
O O15 0.750000 0.500000 0.517044
O O16 0.834969 0.749912 0.514755
O O17 0.000000 0.775329 0.500000
O O18 0.103407 0.000000 0.537192
#
# Coordination Sequence:
#
# PCOD8214632 Si02
#       7
#     8   8   8   4   8   4   8
#     4  11  25  41  62  94 128 166 214 262 313 375
#     4  11  23  40  63  92 126 166 213 261 314 375
#     4  11  24  43  67  96 130 169 214 264 320 381
#     4  11  25  43  65  94 125 162 209 259 317 379
#     4  11  24  42  64  91 125 166 211 261 316 375
#     4  11  25  45  69 100 133 172 219 269 327 391
#     4  11  25  44  69 100 133 173 219 269 328 392
#
# _framework density 20.639398
#
# number of rings (size 3 to 8) (size 9 to 14) (size 15 to 20)
#    0.000    1.000    1.667    4.000    2.333   11.333 
#    0.000    0.000    0.000    0.000    0.000    0.000 
#    0.000    0.000    0.000    0.000    0.000    0.000 
#
# Total GULP energy -595597.737770 kJ/mol
# GULP energy per Si atom -12408.286204 kJ/mol
# Density = 2.059242 g / cm^3
# Si number density = 20.639398 Si / 1000 Ang^3
#
#
#
# Elastic Constant Matrix: (Units=GPa)
#
#
# Indices 1 2 3 4 5 6 
#
# 1 90.4264 64.1407 26.1500 0.0000 0.0000 0.0000
# 2 64.1407 137.5402 39.2485 0.0000 0.0000 0.0000
# 3 26.1500 39.2485 83.8841 0.0000 0.0000 0.0000
# 4 0.0000 0.0000 0.0000 36.2121 0.0000 0.0000
# 5 0.0000 0.0000 0.0000 0.0000 26.0858 0.0000
# 6 0.0000 0.0000 0.0000 0.0000 0.0000-1489.4376
#
#
#
# Elastic Compliance Matrix: (Units=1/GPa)
#
#
# Indices 1 2 3 4 5 6 
#
# 1 0.016759 -0.007299 -0.001809 0.000000 0.000000 0.000000
# 2 -0.007299 0.011570 -0.003138 0.000000 0.000000 0.000000
# 3 -0.001809 -0.003138 0.013953 0.000000 0.000000 0.000000
# 4 0.000000 0.000000 0.000000 0.027615 0.000000 0.000000
# 5 0.000000 0.000000 0.000000 0.000000 0.038335 0.000000
# 6 0.000000 0.000000 0.000000 0.000000 0.000000 -0.000671
#
#
# Mechanical properties :
#
#
# Convention : Reuss Voigt Hill
#
# Bulk Modulus (GPa) = 56.21231 63.43656 59.82443
# Shear Modulus (GPa) = 36.23585 -273.27383 -118.51899
#
# Velocity S-wave (km/s) = 4.19461 -11.51918 -7.58606
# Velocity P-wave (km/s) = 7.12420 12.08799 6.90526
#
# Compressibility (1/GPa) = 0.01778970
#
# Stress axis : x y z
#
# Youngs Moduli (GPa) = 59.66785 86.43013 71.66663
#
# Poissons Ratio (x) = 0.63088 0.12967
# Poissons Ratio (y) = 0.43553 0.22489
# Poissons Ratio (z) = 0.10796 0.27122
#
# Static dielectric constant tensor:
#      x y z
#    x 3.819760 0.000000 0.000000 
#    y 0.000000 3.992410 0.000000 
#    z 0.000000 0.000000 3.674600 
# 
# 
# High freq. dielectric constant tensor:
#      x y z
#    x 1.815120 0.000000 0.000000 
#    y 0.000000 1.826080 0.000000 
#    z 0.000000 0.000000 1.817660 
# 
# From -- ./inp_files/29550.got.cif
#   From: 2010.03.12/outbox.cif.g09.slc.cpg/sg51_15_cif.got.tgz:29550.got - 2010.04.16 13:43:02.
