data_PCOD8214343
_publ_section_title
;
Structure prediction by ZEFSAII (Michael W. Deem and Ramdas Pophale) SiO2 
 PCOD8214343
Probable space group: P M M A
;
_chemical_formula_sum "Si O2"
_cell_formula_units_Z 48
_cell_length_a 30.787107
_cell_length_b 8.336737
_cell_length_c 8.857366
_cell_angle_alpha 90.000000
_cell_angle_beta 90.000000
_cell_angle_gamma 90.000000
_cell_volume 2273.367111
_symmetry_space_group_name_H-M "P M M A"
_symmetry_group_IT_number 51
_symmetry_cell_setting 'orthorhombic'
loop_
_space_group_symop_operation_xyz
x,y,z
1/2-x,-y,z
1/2+x,-y,-z
-x,y,-z
-x,-y,-z
1/2+x,y,-z
1/2-x,y,z
x,-y,z
loop_
_atom_site_type_symbol
_atom_site_label
_atom_site_fract_x
_atom_site_fract_y
_atom_site_fract_z
Si Si1 0.912567 0.182200 0.175934
Si Si2 0.333615 0.314428 0.652727
Si Si3 0.250000 0.691041 0.175926
Si Si4 0.416689 0.684617 0.150067
Si Si5 0.750000 0.690007 0.165995
Si Si6 0.663071 0.814841 0.675059
Si Si7 0.002932 0.687695 0.673438
O O1 0.876761 0.298768 0.247429
O O2 0.959202 0.214358 0.247516
O O3 0.898934 0.000000 0.208574
O O4 0.914829 0.207190 0.997471
O O5 0.327021 0.500000 0.608437
O O6 0.292749 0.247961 0.747890
O O7 0.337853 0.208992 0.503806
O O8 0.250000 0.500000 0.183534
O O9 0.291277 0.759259 0.260952
O O10 0.250000 0.756536 0.004485
O O11 0.420054 0.500000 0.100399
O O12 0.374148 0.707968 0.250400
O O13 0.458056 0.736452 0.248030
O O14 0.750000 0.500000 0.159134
O O15 0.654744 0.000000 0.712933
O O16 0.012963 0.500000 0.689700
O O17 0.000000 0.739863 0.500000
#
# Coordination Sequence:
#
# PCOD8214343 Si02
#       7
#     8   8   4   8   4   8   8
#     4  12  25  40  61  92 128 163 203 258 318 369
#     4  11  22  41  66  91 122 163 210 255 306 373
#     4  11  22  41  66  92 124 167 214 255 304 368
#     4  11  23  41  65  91 122 165 213 256 305 373
#     4   9  21  39  64  92 116 153 208 259 296 348
#     4  12  25  41  62  94 130 162 204 261 318 365
#     4  10  22  41  65  91 120 160 211 260 307 368
#
# _framework density 21.114056999999999
#
# number of rings (size 3 to 8) (size 9 to 14) (size 15 to 20)
#    0.000    1.000    0.000    7.250    0.000    7.000 
#    0.000    3.750    0.000    0.000    0.000    0.000 
#    0.000    0.000    0.000    0.000    0.000    0.000 
#
# Total GULP energy -595611.945807 kJ/mol
# GULP energy per Si atom -12408.582204 kJ/mol
# Density = 2.106600 g / cm^3
# Si number density = 21.114057 Si / 1000 Ang^3
#
#
#
# Elastic Constant Matrix: (Units=GPa)
#
#
# Indices 1 2 3 4 5 6 
#
# 1 159.1300 15.3715 58.1468 0.0000 0.0000 0.0000
# 2 15.3715 59.6068 13.7676 0.0000 0.0000 0.0000
# 3 58.1468 13.7676 150.0144 0.0000 0.0000 0.0000
# 4 0.0000 0.0000 0.0000 66.1640 0.0000 0.0000
# 5 0.0000 0.0000 0.0000 0.0000 48.3538 0.0000
# 6 0.0000 0.0000 0.0000 0.0000 0.0000 31.9168
#
#
#
# Elastic Compliance Matrix: (Units=1/GPa)
#
#
# Indices 1 2 3 4 5 6 
#
# 1 0.007415 -0.001275 -0.002757 0.000000 0.000000 0.000000
# 2 -0.001275 0.017359 -0.001099 0.000000 0.000000 0.000000
# 3 -0.002757 -0.001099 0.007835 0.000000 0.000000 0.000000
# 4 0.000000 0.000000 0.000000 0.015114 0.000000 0.000000
# 5 0.000000 0.000000 0.000000 0.000000 0.020681 0.000000
# 6 0.000000 0.000000 0.000000 0.000000 0.000000 0.031332
#
#
# Mechanical properties :
#
#
# Convention : Reuss Voigt Hill
#
# Bulk Modulus (GPa) = 44.74818 60.36923 52.55871
# Shear Modulus (GPa) = 42.57228 48.05127 45.31178
#
# Velocity S-wave (km/s) = 4.49519 4.77570 4.63757
# Velocity P-wave (km/s) = 6.94132 7.68530 7.32276
#
# Compressibility (1/GPa) = 0.02234728
#
# Stress axis : x y z
#
# Youngs Moduli (GPa) = 134.86586 57.60606 127.62433
#
# Poissons Ratio (x) = 0.07347 0.35186
# Poissons Ratio (y) = 0.17200 0.14024
# Poissons Ratio (z) = 0.37182 0.06330
#
# Static dielectric constant tensor:
#      x y z
#    x 3.912180 0.000000 0.000000 
#    y 0.000000 3.627820 0.000000 
#    z 0.000000 0.000000 4.097380 
# 
# 
# High freq. dielectric constant tensor:
#      x y z
#    x 1.844920 0.000000 0.000000 
#    y 0.000000 1.820800 0.000000 
#    z 0.000000 0.000000 1.844240 
# 
# From -- ./inp_files/12907.got.cif
#   From: 2010.03.12/outbox.cif.g09.slc.cpg/sg51_7_cif.got.tgz:12907.got - 2010.04.16 13:43:02.
