data_PCOD8214743
_publ_section_title
;
Structure prediction by ZEFSAII (Michael W. Deem and Ramdas Pophale) SiO2 
 PCOD8214743
Probable space group: P M M A
;
_chemical_formula_sum "Si O2"
_cell_formula_units_Z 56
_cell_length_a 18.763075
_cell_length_b 9.739671
_cell_length_c 18.965349
_cell_angle_alpha 90.000000
_cell_angle_beta 90.000000
_cell_angle_gamma 90.000000
_cell_volume 3465.845034
_symmetry_space_group_name_H-M "P M M A"
_symmetry_group_IT_number 51
_symmetry_cell_setting 'orthorhombic'
loop_
_space_group_symop_operation_xyz
x,y,z
1/2-x,-y,z
1/2+x,-y,-z
-x,y,-z
-x,-y,-z
1/2+x,y,-z
1/2-x,y,z
x,-y,z
loop_
_atom_site_type_symbol
_atom_site_label
_atom_site_fract_x
_atom_site_fract_y
_atom_site_fract_z
Si Si1 0.169380 0.337341 0.536253
Si Si2 0.174110 0.163040 0.125513
Si Si3 0.026727 0.163883 0.074049
Si Si4 0.405830 0.659970 0.394315
Si Si5 0.063692 0.339565 0.656154
Si Si6 0.529168 0.152366 0.220749
Si Si7 0.869328 0.151685 0.725859
O O1 0.250000 0.276130 0.534563
O O2 0.173259 0.500000 0.535153
O O3 0.121981 0.287831 0.470016
O O4 0.128528 0.289184 0.606755
O O5 0.250000 0.211189 0.092011
O O6 0.106574 0.225760 0.084222
O O7 0.174832 0.207889 0.207480
O O8 0.166892 0.000000 0.123171
O O9 0.975383 0.207034 0.139499
O O10 0.029055 0.000000 0.071477
O O11 0.000000 0.225867 0.000000
O O12 0.390170 0.500000 0.383293
O O13 0.489831 0.691713 0.385118
O O14 0.359067 0.741989 0.337439
O O15 0.068887 0.500000 0.674315
O O16 0.072356 0.257787 0.729825
O O17 0.450449 0.141536 0.250398
O O18 0.564630 0.000000 0.223155
O O19 0.843164 0.000000 0.701936
#
# Coordination Sequence:
#
# PCOD8214743 Si02
#       7
#     8   8   8   8   8   8   8
#     4   9  17  28  41  57  77 102 133 168 203 235
#     4   8  13  21  34  53  77 104 132 160 189 226
#     4   8  13  22  38  59  80 103 131 160 192 232
#     4   9  16  26  41  60  79  99 128 166 201 231
#     4   9  16  27  44  61  76  99 133 167 195 229
#     4   8  14  25  41  60  80 101 126 158 195 232
#     4   8  14  24  37  55  79 104 128 154 189 235
#
# _framework density 16.157675000000001
#
# number of rings (size 3 to 8) (size 9 to 14) (size 15 to 20)
#    0.000    3.571    0.000    2.143    0.000    2.286 
#    0.000    0.714    0.000    6.000    0.000    2.000 
#    0.000    0.000    0.000    0.000    0.000    0.000 
#
# Total GULP energy -693751.716770 kJ/mol
# GULP energy per Si atom -12388.423514 kJ/mol
# Density = 1.612090 g / cm^3
# Si number density = 16.157675 Si / 1000 Ang^3
#
#
#
# Elastic Constant Matrix: (Units=GPa)
#
#
# Indices 1 2 3 4 5 6 
#
# 1 75.9714 19.9406 55.4075 0.0000 0.0000 0.0000
# 2 19.9406 32.3050 37.3197 0.0000 0.0000 0.0000
# 3 55.4075 37.3197 139.9346 0.0000 0.0000 0.0000
# 4 0.0000 0.0000 0.0000 14.7121 0.0000 0.0000
# 5 0.0000 0.0000 0.0000 0.0000 14.1433 0.0000
# 6 0.0000 0.0000 0.0000 0.0000 0.0000 8.7582
#
#
#
# Elastic Compliance Matrix: (Units=1/GPa)
#
#
# Indices 1 2 3 4 5 6 
#
# 1 0.018925 -0.004372 -0.006327 0.000000 0.000000 0.000000
# 2 -0.004372 0.045749 -0.010470 0.000000 0.000000 0.000000
# 3 -0.006327 -0.010470 0.012444 0.000000 0.000000 0.000000
# 4 0.000000 0.000000 0.000000 0.067971 0.000000 0.000000
# 5 0.000000 0.000000 0.000000 0.000000 0.070705 0.000000
# 6 0.000000 0.000000 0.000000 0.000000 0.000000 0.114179
#
#
# Mechanical properties :
#
#
# Convention : Reuss Voigt Hill
#
# Bulk Modulus (GPa) = 28.75300 52.61630 40.68465
# Shear Modulus (GPa) = 13.02408 16.55893 14.79150
#
# Velocity S-wave (km/s) = 2.84220 3.20477 3.02892
# Velocity P-wave (km/s) = 5.34834 6.80655 6.12102
#
# Compressibility (1/GPa) = 0.03477898
#
# Stress axis : x y z
#
# Youngs Moduli (GPa) = 52.83969 21.85857 80.36139
#
# Poissons Ratio (x) = 0.09557 0.50848
# Poissons Ratio (y) = 0.23102 0.84136
# Poissons Ratio (z) = 0.33434 0.22885
#
# Static dielectric constant tensor:
#      x y z
#    x 3.130180 0.000000 0.000000 
#    y 0.000000 2.832300 0.000000 
#    z 0.000000 0.000000 3.298950 
# 
# 
# High freq. dielectric constant tensor:
#      x y z
#    x 1.603230 0.000000 0.000000 
#    y 0.000000 1.573860 0.000000 
#    z 0.000000 0.000000 1.615840 
# 
# From -- ./inp_files/30242.got.cif
#   From: 2010.03.12/outbox.cif.g09.slc.cpg/sg51_16_cif.got.tgz:30242.got - 2010.04.16 13:43:02.
