data_PCOD8214976
_publ_section_title
;
Structure prediction by ZEFSAII (Michael W. Deem and Ramdas Pophale) SiO2 
 PCOD8214976
Probable space group: P N N A
;
_chemical_formula_sum "Si O2"
_cell_formula_units_Z 56
_cell_length_a 8.469998
_cell_length_b 24.466684
_cell_length_c 15.125515
_cell_angle_alpha 90.000000
_cell_angle_beta 90.000000
_cell_angle_gamma 90.000000
_cell_volume 3134.502289
_symmetry_space_group_name_H-M "P N N A"
_symmetry_group_IT_number 52
_symmetry_cell_setting 'orthorhombic'
loop_
_space_group_symop_operation_xyz
x,y,z
1/2-x,-y,z
x,1/2-y,1/2-z
1/2-x,1/2+y,1/2-z
-x,-y,-z
1/2+x,y,-z
-x,1/2+y,1/2+z
1/2+x,1/2-y,1/2+z
loop_
_atom_site_type_symbol
_atom_site_label
_atom_site_fract_x
_atom_site_fract_y
_atom_site_fract_z
Si Si1 0.077232 0.436389 0.321041
Si Si2 0.341863 0.851961 0.833077
Si Si3 0.444810 0.220379 0.061832
Si Si4 0.071794 0.943799 0.157016
Si Si5 0.610197 0.606212 0.474463
Si Si6 0.397113 0.749406 0.111443
Si Si7 0.528860 0.832112 0.250207
O O1 0.995646 0.496549 0.322640
O O2 0.259346 0.441184 0.297081
O O3 0.009710 0.396573 0.245009
O O4 0.043717 0.406618 0.415085
O O5 0.424605 0.795795 0.865113
O O6 0.470287 0.895411 0.797552
O O7 0.263138 0.889778 0.910632
O O8 0.219598 0.830386 0.759208
O O9 0.294218 0.251321 0.104919
O O10 0.387948 0.164561 0.019749
O O11 0.527694 0.256252 0.985823
O O12 0.109383 0.938805 0.051858
O O13 0.453655 0.803921 0.162517
O O14 0.462113 0.696643 0.163112
#
# Coordination Sequence:
#
# PCOD8214976 Si02
#       7
#     8   8   8   8   8   8   8
#     4  10  19  32  42  69 108 138 176 210 248 302
#     4  10  19  31  50  75 106 134 177 210 259 308
#     4  11  18  33  53  75  96 137 176 221 254 315
#     4  10  19  27  47  70  99 142 179 205 248 305
#     4  10  17  27  45  71 103 138 170 212 241 298
#     4  11  20  35  53  71 100 139 179 216 275 303
#     4  10  21  35  48  70 105 141 172 221 261 314
#
# _framework density 17.865675
#
# number of rings (size 3 to 8) (size 9 to 14) (size 15 to 20)
#    0.000    1.714    4.286    3.857    0.000    3.429 
#    0.000   10.000    0.000    0.000    0.000    0.000 
#    0.000   13.714    0.000    0.000    0.000    0.000 
#
# Total GULP energy -693753.035108 kJ/mol
# GULP energy per Si atom -12388.447056 kJ/mol
# Density = 1.782501 g / cm^3
# Si number density = 17.865675 Si / 1000 Ang^3
#
#
#
# Elastic Constant Matrix: (Units=GPa)
#
#
# Indices 1 2 3 4 5 6 
#
# 1 111.6476 42.7575 37.6638 0.0000 0.0000 0.0000
# 2 42.7575 93.6041 49.3790 0.0000 0.0000 0.0000
# 3 37.6638 49.3790 46.5244 0.0000 0.0000 0.0000
# 4 0.0000 0.0000 0.0000 24.9787 0.0000 0.0000
# 5 0.0000 0.0000 0.0000 0.0000 16.3209 0.0000
# 6 0.0000 0.0000 0.0000 0.0000 0.0000 26.1659
#
#
#
# Elastic Compliance Matrix: (Units=1/GPa)
#
#
# Indices 1 2 3 4 5 6 
#
# 1 0.012350 -0.000834 -0.009113 0.000000 0.000000 0.000000
# 2 -0.000834 0.024331 -0.025148 0.000000 0.000000 0.000000
# 3 -0.009113 -0.025148 0.055563 0.000000 0.000000 0.000000
# 4 0.000000 0.000000 0.000000 0.040034 0.000000 0.000000
# 5 0.000000 0.000000 0.000000 0.000000 0.061271 0.000000
# 6 0.000000 0.000000 0.000000 0.000000 0.000000 0.038218
#
#
# Mechanical properties :
#
#
# Convention : Reuss Voigt Hill
#
# Bulk Modulus (GPa) = 45.34498 56.81964 51.08231
# Shear Modulus (GPa) = 16.16506 21.62483 18.89495
#
# Velocity S-wave (km/s) = 3.01127 3.48287 3.25562
# Velocity P-wave (km/s) = 6.12589 6.93157 6.54115
#
# Compressibility (1/GPa) = 0.02205316
#
# Stress axis : x y z
#
# Youngs Moduli (GPa) = 80.96890 41.09994 17.99763
#
# Poissons Ratio (x) = 0.03429 0.16401
# Poissons Ratio (y) = 0.06755 0.45261
# Poissons Ratio (z) = 0.73786 1.03360
#
# Static dielectric constant tensor:
#      x y z
#    x 3.566130 0.000000 0.000000 
#    y 0.000000 3.317530 0.000000 
#    z 0.000000 0.000000 2.892190 
# 
# 
# High freq. dielectric constant tensor:
#      x y z
#    x 1.709170 0.000000 0.000000 
#    y 0.000000 1.676230 0.000000 
#    z 0.000000 0.000000 1.624490 
# 
# From -- ./inp_files/31629.got.cif
#   From: 2010.06.25/outbox.cif.g09.slc.cpg/sg52_16_cif.got.tgz:31629.got - 2010.06.26 19:32:48.
