data_PCOD8214661
_publ_section_title
;
Structure prediction by ZEFSAII (Michael W. Deem and Ramdas Pophale) SiO2 
 PCOD8214661
Probable space group: P M M A
;
_chemical_formula_sum "Si O2"
_cell_formula_units_Z 40
_cell_length_a 14.051465
_cell_length_b 14.090698
_cell_length_c 10.122868
_cell_angle_alpha 90.000000
_cell_angle_beta 90.000000
_cell_angle_gamma 90.000000
_cell_volume 2004.276741
_symmetry_space_group_name_H-M "P M M A"
_symmetry_group_IT_number 51
_symmetry_cell_setting 'orthorhombic'
loop_
_space_group_symop_operation_xyz
x,y,z
1/2-x,-y,z
1/2+x,-y,-z
-x,y,-z
-x,-y,-z
1/2+x,y,-z
1/2-x,y,z
x,-y,z
loop_
_atom_site_type_symbol
_atom_site_label
_atom_site_fract_x
_atom_site_fract_y
_atom_site_fract_z
Si Si1 0.860103 0.893191 0.778382
Si Si2 0.750000 0.387349 0.782737
Si Si3 0.564493 0.294620 0.381338
Si Si4 0.359830 0.106061 0.529083
Si Si5 0.443049 0.293038 0.131583
Si Si6 0.750000 0.388091 0.478747
O O1 0.750000 0.882118 0.817455
O O2 0.872887 0.868516 0.624347
O O3 0.921695 0.819634 0.863514
O O4 0.894916 0.000000 0.809132
O O5 0.750000 0.500000 0.788473
O O6 0.656234 0.349514 0.857275
O O7 0.750000 0.349920 0.630437
O O8 0.500000 0.330881 0.500000
O O9 0.579867 0.180319 0.385288
O O10 0.513838 0.324655 0.247261
O O11 0.662396 0.349685 0.395143
O O12 0.250000 0.113879 0.569024
O O13 0.397825 0.000000 0.559541
O O14 0.500000 0.319097 0.000000
O O15 0.750000 0.500000 0.479145
#
# Coordination Sequence:
#
# PCOD8214661 Si02
#       6
#     8   4   8   8   8   4
#     4   9  17  34  62  90 123 169 214 256 309 376
#     4  11  24  47  72  92 125 166 209 268 327 378
#     4  12  22  38  67  95 124 163 213 261 312 379
#     4   9  17  32  59  93 128 165 209 261 314 367
#     4  12  26  42  65  96 131 172 215 255 312 386
#     4  11  24  43  70 100 129 156 205 276 329 368
#
# _framework density 19.957325000000001
#
# number of rings (size 3 to 8) (size 9 to 14) (size 15 to 20)
#    0.000    1.400    6.000    1.200    0.000    4.000 
#    0.000    1.000    0.000    2.400    0.000    0.000 
#    0.000    0.000    0.000    0.000    0.000    0.000 
#
# Total GULP energy -496042.189178 kJ/mol
# GULP energy per Si atom -12401.054729 kJ/mol
# Density = 1.991190 g / cm^3
# Si number density = 19.957325 Si / 1000 Ang^3
#
#
#
# Elastic Constant Matrix: (Units=GPa)
#
#
# Indices 1 2 3 4 5 6 
#
# 1 144.2362 44.5687 66.2295 0.0000 0.0000 0.0000
# 2 44.5687 91.6368 32.5154 0.0000 0.0000 0.0000
# 3 66.2295 32.5154 114.8859 0.0000 0.0000 0.0000
# 4 0.0000 0.0000 0.0000 7.7280 0.0000 0.0000
# 5 0.0000 0.0000 0.0000 0.0000 29.9340 0.0000
# 6 0.0000 0.0000 0.0000 0.0000 0.0000 -31.4851
#
#
#
# Elastic Compliance Matrix: (Units=1/GPa)
#
#
# Indices 1 2 3 4 5 6 
#
# 1 0.010208 -0.003198 -0.004979 0.000000 0.000000 0.000000
# 2 -0.003198 0.013133 -0.001873 0.000000 0.000000 0.000000
# 3 -0.004979 -0.001873 0.012105 0.000000 0.000000 0.000000
# 4 0.000000 0.000000 0.000000 0.129399 0.000000 0.000000
# 5 0.000000 0.000000 0.000000 0.000000 0.033407 0.000000
# 6 0.000000 0.000000 0.000000 0.000000 0.000000 -0.031761
#
#
# Mechanical properties :
#
#
# Convention : Reuss Voigt Hill
#
# Bulk Modulus (GPa) = 65.17157 70.82068 67.99612
# Shear Modulus (GPa) = 26.08160 15.06508 20.57334
#
# Velocity S-wave (km/s) = 3.61899 2.75046 3.21419
# Velocity P-wave (km/s) = 7.08443 6.75646 6.92239
#
# Compressibility (1/GPa) = 0.01534411
#
# Stress axis : x y z
#
# Youngs Moduli (GPa) = 97.96621 76.14614 82.61001
#
# Poissons Ratio (x) = 0.24350 0.41135
# Poissons Ratio (y) = 0.31327 0.15476
# Poissons Ratio (z) = 0.48782 0.14265
#
# Static dielectric constant tensor:
#      x y z
#    x 3.766470 0.000000 0.000000 
#    y 0.000000 3.713200 0.000000 
#    z 0.000000 0.000000 3.354770 
# 
# 
# High freq. dielectric constant tensor:
#      x y z
#    x 1.798150 0.000000 0.000000 
#    y 0.000000 1.783770 0.000000 
#    z 0.000000 0.000000 1.730260 
# 
# From -- ./inp_files/8009.got.cif
#   From: 2010.03.12/outbox.cif.g09.slc.cpg/sg51_5_cif.got.tgz:8009.got - 2010.04.16 13:43:02.
