data_PCOD8214552
_publ_section_title
;
Structure prediction by ZEFSAII (Michael W. Deem and Ramdas Pophale) SiO2 
 PCOD8214552
Probable space group: P M M A
;
_chemical_formula_sum "Si O2"
_cell_formula_units_Z 64
_cell_length_a 8.960736
_cell_length_b 20.011653
_cell_length_c 19.943744
_cell_angle_alpha 90.000000
_cell_angle_beta 90.000000
_cell_angle_gamma 90.000000
_cell_volume 3576.295012
_symmetry_space_group_name_H-M "P M M A"
_symmetry_group_IT_number 51
_symmetry_cell_setting 'orthorhombic'
loop_
_space_group_symop_operation_xyz
x,y,z
1/2-x,-y,z
1/2+x,-y,-z
-x,y,-z
-x,-y,-z
1/2+x,y,-z
1/2-x,y,z
x,-y,z
loop_
_atom_site_type_symbol
_atom_site_label
_atom_site_fract_x
_atom_site_fract_y
_atom_site_fract_z
Si Si1 0.579076 0.575267 0.622896
Si Si2 0.572911 0.811596 0.331285
Si Si3 0.925984 0.700036 0.432654
Si Si4 0.079150 0.426375 0.901540
Si Si5 0.925889 0.291581 0.933271
Si Si6 0.926030 0.076005 0.430571
Si Si7 0.579740 0.246991 0.197742
Si Si8 0.415846 0.395129 0.752934
O O1 0.750000 0.597435 0.614471
O O2 0.554463 0.500000 0.596613
O O3 0.475472 0.624030 0.579925
O O4 0.537589 0.578758 0.701187
O O5 0.750000 0.810890 0.330160
O O6 0.516628 0.747015 0.372411
O O7 0.515186 0.878629 0.368581
O O8 0.519463 0.807123 0.253035
O O9 0.750000 0.702650 0.441019
O O10 0.000000 0.727933 0.500000
O O11 0.250000 0.404711 0.917240
O O12 0.043333 0.500000 0.932195
O O13 0.056039 0.432906 0.822239
O O14 0.970324 0.370016 0.930625
O O15 0.750000 0.285594 0.938091
O O16 0.980254 0.248799 0.869198
O O17 0.000000 0.260202 0.000000
O O18 0.750000 0.084120 0.439770
O O19 0.000000 0.099814 0.500000
O O20 0.971706 0.000000 0.413802
O O21 0.750000 0.232079 0.175773
O O22 0.569176 0.316407 0.236604
O O23 0.250000 0.411227 0.725008
#
# Coordination Sequence:
#
# PCOD8214552 Si02
#       8
#     8   8   8   8   8   8   8   8
#     4  11  23  35  47  65  89 117 153 202 257 309
#     4   9  17  32  54  77 103 135 171 206 245 291
#     4  11  22  37  53  70  91 122 161 205 253 301
#     4   9  18  32  49  68  91 121 157 196 244 305
#     4  11  22  35  50  70  96 127 160 201 252 306
#     4   9  17  30  50  78 113 150 182 210 243 288
#     4   9  17  33  53  72  96 127 163 204 247 294
#     4   9  16  30  50  69  89 118 153 195 247 302
#
# _framework density 17.895616
#
# number of rings (size 3 to 8) (size 9 to 14) (size 15 to 20)
#    0.000    2.250    1.250    3.375    0.000    4.250 
#    0.000    1.250    0.000    0.000    0.000    0.000 
#    0.000    0.500    0.000    0.875    0.000    1.250 
#
# Total GULP energy -793339.436986 kJ/mol
# GULP energy per Si atom -12395.928703 kJ/mol
# Density = 1.785488 g / cm^3
# Si number density = 17.895616 Si / 1000 Ang^3
#
#
#
# Elastic Constant Matrix: (Units=GPa)
#
#
# Indices 1 2 3 4 5 6 
#
# 1 78.4443 24.7714 46.1457 0.0000 0.0000 0.0000
# 2 24.7714 70.5903 46.4526 0.0000 0.0000 0.0000
# 3 46.1457 46.4526 125.3262 0.0000 0.0000 0.0000
# 4 0.0000 0.0000 0.0000 93.7534 0.0000 0.0000
# 5 0.0000 0.0000 0.0000 0.0000 29.9625 0.0000
# 6 0.0000 0.0000 0.0000 0.0000 0.0000 13.3449
#
#
#
# Elastic Compliance Matrix: (Units=1/GPa)
#
#
# Indices 1 2 3 4 5 6 
#
# 1 0.016570 -0.002380 -0.005219 0.000000 0.000000 0.000000
# 2 -0.002380 0.019078 -0.006195 0.000000 0.000000 0.000000
# 3 -0.005219 -0.006195 0.012197 0.000000 0.000000 0.000000
# 4 0.000000 0.000000 0.000000 0.010666 0.000000 0.000000
# 5 0.000000 0.000000 0.000000 0.000000 0.033375 0.000000
# 6 0.000000 0.000000 0.000000 0.000000 0.000000 0.074935
#
#
# Mechanical properties :
#
#
# Convention : Reuss Voigt Hill
#
# Bulk Modulus (GPa) = 49.36646 56.56668 52.96657
# Shear Modulus (GPa) = 24.85567 37.87822 31.36694
#
# Velocity S-wave (km/s) = 3.73087 4.60567 4.19115
# Velocity P-wave (km/s) = 6.79742 7.74343 7.28579
#
# Compressibility (1/GPa) = 0.02025667
#
# Stress axis : x y z
#
# Youngs Moduli (GPa) = 60.35182 52.41588 81.98795
#
# Poissons Ratio (x) = 0.12477 0.42787
# Poissons Ratio (y) = 0.14366 0.50791
# Poissons Ratio (z) = 0.31496 0.32471
#
# Static dielectric constant tensor:
#      x y z
#    x 3.152950 0.000000 0.000000 
#    y 0.000000 3.223960 0.000000 
#    z 0.000000 0.000000 3.501490 
# 
# 
# High freq. dielectric constant tensor:
#      x y z
#    x 1.678640 0.000000 0.000000 
#    y 0.000000 1.653750 0.000000 
#    z 0.000000 0.000000 1.696340 
# 
# From -- ./inp_files/32342.got.cif
#   From: 2010.03.12/outbox.cif.g09.slc.cpg/sg51_17_cif.got.tgz:32342.got - 2010.04.16 13:43:02.
