data_PCOD8214274
_publ_section_title
;
Structure prediction by ZEFSAII (Michael W. Deem and Ramdas Pophale) SiO2 
 PCOD8214274
Probable space group: P M M A
;
_chemical_formula_sum "Si O2"
_cell_formula_units_Z 48
_cell_length_a 9.611467
_cell_length_b 8.954278
_cell_length_c 28.740428
_cell_angle_alpha 90.000000
_cell_angle_beta 90.000000
_cell_angle_gamma 90.000000
_cell_volume 2473.508939
_symmetry_space_group_name_H-M "P M M A"
_symmetry_group_IT_number 51
_symmetry_cell_setting 'orthorhombic'
loop_
_space_group_symop_operation_xyz
x,y,z
1/2-x,-y,z
1/2+x,-y,-z
-x,y,-z
-x,-y,-z
1/2+x,y,-z
1/2-x,y,z
x,-y,z
loop_
_atom_site_type_symbol
_atom_site_label
_atom_site_fract_x
_atom_site_fract_y
_atom_site_fract_z
Si Si1 0.406559 0.170167 0.197414
Si Si2 0.957958 0.327843 0.898797
Si Si3 0.090215 0.174323 0.629987
Si Si4 0.750000 0.176037 0.965055
Si Si5 0.087393 0.328382 0.725695
Si Si6 0.750000 0.668058 0.060859
Si Si7 0.908696 0.177546 0.542829
O O1 0.250000 0.178950 0.217185
O O2 0.411800 0.258896 0.149551
O O3 0.509040 0.239584 0.234645
O O4 0.451273 0.000000 0.188038
O O5 0.912406 0.500000 0.899584
O O6 0.886663 0.243858 0.941623
O O7 0.121499 0.306899 0.904936
O O8 0.250000 0.208016 0.615355
O O9 0.046127 0.264146 0.675613
O O10 0.986721 0.229505 0.589602
O O11 0.070596 0.000000 0.640474
O O12 0.750000 0.000000 0.958304
O O13 0.750000 0.213991 0.019377
O O14 0.250000 0.307791 0.734962
O O15 0.041901 0.500000 0.727627
O O16 0.750000 0.500000 0.039678
O O17 0.750000 0.240425 0.541505
O O18 0.000000 0.241258 0.500000
O O19 0.904269 0.000000 0.540004
#
# Coordination Sequence:
#
# PCOD8214274 Si02
#       7
#     8   8   8   4   8   4   8
#     4  11  24  41  61  87 117 148 187 236 289 345
#     4  11  23  41  64  88 118 155 193 237 288 345
#     4   9  17  31  51  76 108 144 183 230 284 336
#     4  12  24  40  62  90 122 156 196 238 285 340
#     4  10  22  39  60  85 114 150 192 235 284 346
#     4  10  24  42  62  90 118 152 196 238 285 344
#     4   9  16  26  44  73 108 145 185 231 284 340
#
# _framework density 19.405631
#
# number of rings (size 3 to 8) (size 9 to 14) (size 15 to 20)
#    0.000    1.833    0.833    3.250    1.167    8.000 
#    0.000    1.667    0.000    0.500    0.000    0.000 
#    0.000    0.000    0.000    0.000    0.000    0.000 
#
# Total GULP energy -595342.830272 kJ/mol
# GULP energy per Si atom -12402.975631 kJ/mol
# Density = 1.936146 g / cm^3
# Si number density = 19.405631 Si / 1000 Ang^3
#
#
#
# Elastic Constant Matrix: (Units=GPa)
#
#
# Indices 1 2 3 4 5 6 
#
# 1 95.2467 34.7451 45.1418 0.0000 0.0000 0.0000
# 2 34.7451 109.6095 45.4405 0.0000 0.0000 0.0000
# 3 45.1418 45.4405 103.7602 0.0000 0.0000 0.0000
# 4 0.0000 0.0000 0.0000 77.1369 0.0000 0.0000
# 5 0.0000 0.0000 0.0000 0.0000 35.5595 0.0000
# 6 0.0000 0.0000 0.0000 0.0000 0.0000 16.7650
#
#
#
# Elastic Compliance Matrix: (Units=1/GPa)
#
#
# Indices 1 2 3 4 5 6 
#
# 1 0.013679 -0.002283 -0.004951 0.000000 0.000000 0.000000
# 2 -0.002283 0.011528 -0.004055 0.000000 0.000000 0.000000
# 3 -0.004951 -0.004055 0.013568 0.000000 0.000000 0.000000
# 4 0.000000 0.000000 0.000000 0.012964 0.000000 0.000000
# 5 0.000000 0.000000 0.000000 0.000000 0.028122 0.000000
# 6 0.000000 0.000000 0.000000 0.000000 0.000000 0.059648
#
#
# Mechanical properties :
#
#
# Convention : Reuss Voigt Hill
#
# Bulk Modulus (GPa) = 61.74732 62.14124 61.94428
# Shear Modulus (GPa) = 29.85325 38.11156 33.98241
#
# Velocity S-wave (km/s) = 3.92648 4.43645 4.18923
# Velocity P-wave (km/s) = 7.24187 7.63771 7.44242
#
# Compressibility (1/GPa) = 0.01619503
#
# Stress axis : x y z
#
# Youngs Moduli (GPa) = 73.10738 86.74309 73.70551
#
# Poissons Ratio (x) = 0.19807 0.36491
# Poissons Ratio (y) = 0.16694 0.29889
# Poissons Ratio (z) = 0.36195 0.35176
#
# Static dielectric constant tensor:
#      x y z
#    x 3.582110 0.000000 0.000000 
#    y 0.000000 3.472500 0.000000 
#    z 0.000000 0.000000 3.642360 
# 
# 
# High freq. dielectric constant tensor:
#      x y z
#    x 1.767060 0.000000 0.000000 
#    y 0.000000 1.742660 0.000000 
#    z 0.000000 0.000000 1.759470 
# 
# From -- ./inp_files/37188.got.cif
#   From: 2010.03.12/outbox.cif.g09.slc.cpg/sg51_19_cif.got.tgz:37188.got - 2010.04.16 13:43:02.
