data_PCOD8214261
_publ_section_title
;
Structure prediction by ZEFSAII (Michael W. Deem and Ramdas Pophale) SiO2 
 PCOD8214261
Probable space group: P M M A
;
_chemical_formula_sum "Si O2"
_cell_formula_units_Z 48
_cell_length_a 18.980246
_cell_length_b 13.731773
_cell_length_c 9.946051
_cell_angle_alpha 90.000000
_cell_angle_beta 90.000000
_cell_angle_gamma 90.000000
_cell_volume 2592.263437
_symmetry_space_group_name_H-M "P M M A"
_symmetry_group_IT_number 51
_symmetry_cell_setting 'orthorhombic'
loop_
_space_group_symop_operation_xyz
x,y,z
1/2-x,-y,z
1/2+x,-y,-z
-x,y,-z
-x,-y,-z
1/2+x,y,-z
1/2-x,y,z
x,-y,z
loop_
_atom_site_type_symbol
_atom_site_label
_atom_site_fract_x
_atom_site_fract_y
_atom_site_fract_z
Si Si1 0.055978 0.610029 0.691015
Si Si2 0.828748 0.203837 0.706033
Si Si3 0.896709 0.389963 0.601114
Si Si4 0.034376 0.113078 0.364853
Si Si5 0.829268 0.112051 0.991241
Si Si6 0.952338 0.216292 0.129189
O O1 0.068868 0.500000 0.741266
O O2 0.103044 0.630457 0.558898
O O3 0.077747 0.682617 0.810963
O O4 0.974415 0.626850 0.657792
O O5 0.750000 0.178288 0.657370
O O6 0.844084 0.317411 0.677595
O O7 0.882578 0.135723 0.624100
O O8 0.837110 0.182154 0.863529
O O9 0.871193 0.500000 0.629662
O O10 0.000000 0.156030 0.500000
O O11 0.002057 0.164655 0.236403
O O12 0.019604 0.000000 0.351269
O O13 0.750000 0.120197 0.050724
O O14 0.845528 0.000000 0.950231
O O15 0.885671 0.146981 0.100875
O O16 0.000000 0.237755 0.000000
#
# Coordination Sequence:
#
# PCOD8214261 Si02
#       6
#     8   8   8   8   8   8
#     4   9  18  33  57  84 114 148 187 238 289 335
#     4  11  21  35  57  84 114 150 191 237 287 343
#     4   9  17  34  57  82 113 150 189 232 284 344
#     4  11  23  38  57  84 116 149 193 247 292 340
#     4  10  22  39  57  81 116 156 196 239 289 342
#     4  12  21  34  60  87 114 150 197 244 280 343
#
# _framework density 18.516635999999998
#
# number of rings (size 3 to 8) (size 9 to 14) (size 15 to 20)
#    0.000    1.667    3.333    3.000    0.000    2.333 
#    0.000    4.167    0.000    3.500    0.000    0.000 
#    0.000    0.000    0.000    0.000    0.000    0.000 
#
# Total GULP energy -595204.783664 kJ/mol
# GULP energy per Si atom -12400.099660 kJ/mol
# Density = 1.847449 g / cm^3
# Si number density = 18.516636 Si / 1000 Ang^3
#
#
#
# Elastic Constant Matrix: (Units=GPa)
#
#
# Indices 1 2 3 4 5 6 
#
# 1 99.6091 42.7665 42.5315 0.0000 0.0000 0.0000
# 2 42.7665 119.1000 62.7521 0.0000 0.0000 0.0000
# 3 42.5315 62.7521 95.9111 0.0000 0.0000 0.0000
# 4 0.0000 0.0000 0.0000 35.2482 0.0000 0.0000
# 5 0.0000 0.0000 0.0000 0.0000 22.4572 0.0000
# 6 0.0000 0.0000 0.0000 0.0000 0.0000 29.3567
#
#
#
# Elastic Compliance Matrix: (Units=1/GPa)
#
#
# Indices 1 2 3 4 5 6 
#
# 1 0.012839 -0.002458 -0.004085 0.000000 0.000000 0.000000
# 2 -0.002458 0.013284 -0.007601 0.000000 0.000000 0.000000
# 3 -0.004085 -0.007601 0.017211 0.000000 0.000000 0.000000
# 4 0.000000 0.000000 0.000000 0.028370 0.000000 0.000000
# 5 0.000000 0.000000 0.000000 0.000000 0.044529 0.000000
# 6 0.000000 0.000000 0.000000 0.000000 0.000000 0.034064
#
#
# Mechanical properties :
#
#
# Convention : Reuss Voigt Hill
#
# Bulk Modulus (GPa) = 66.46655 67.85781 67.16218
# Shear Modulus (GPa) = 27.23291 28.51708 27.87499
#
# Velocity S-wave (km/s) = 3.83917 3.92864 3.88416
# Velocity P-wave (km/s) = 7.45827 7.57004 7.51436
#
# Compressibility (1/GPa) = 0.01504516
#
# Stress axis : x y z
#
# Youngs Moduli (GPa) = 77.88889 75.27901 58.10099
#
# Poissons Ratio (x) = 0.18501 0.23736
# Poissons Ratio (y) = 0.19142 0.44165
# Poissons Ratio (z) = 0.31820 0.57223
#
# Static dielectric constant tensor:
#      x y z
#    x 3.410380 0.000000 0.000000 
#    y 0.000000 3.648980 0.000000 
#    z 0.000000 0.000000 3.365730 
# 
# 
# High freq. dielectric constant tensor:
#      x y z
#    x 1.704280 0.000000 0.000000 
#    y 0.000000 1.733030 0.000000 
#    z 0.000000 0.000000 1.703900 
# 
# From -- ./inp_files/10818.got.cif
#   From: 2010.03.12/outbox.cif.g09.slc.cpg/sg51_6_cif.got.tgz:10818.got - 2010.04.16 13:43:02.
