data_PCOD8214938
_publ_section_title
;
Structure prediction by ZEFSAII (Michael W. Deem and Ramdas Pophale) SiO2 
 PCOD8214938
Probable space group: P N N A
;
_chemical_formula_sum "Si O2"
_cell_formula_units_Z 32
_cell_length_a 5.217747
_cell_length_b 37.899725
_cell_length_c 8.427625
_cell_angle_alpha 90.000000
_cell_angle_beta 90.000000
_cell_angle_gamma 90.000000
_cell_volume 1666.572758
_symmetry_space_group_name_H-M "P N N A"
_symmetry_group_IT_number 52
_symmetry_cell_setting 'orthorhombic'
loop_
_space_group_symop_operation_xyz
x,y,z
1/2-x,-y,z
x,1/2-y,1/2-z
1/2-x,1/2+y,1/2-z
-x,-y,-z
1/2+x,y,-z
-x,1/2+y,1/2+z
1/2+x,1/2-y,1/2+z
loop_
_atom_site_type_symbol
_atom_site_label
_atom_site_fract_x
_atom_site_fract_y
_atom_site_fract_z
Si Si1 0.995836 0.354956 0.900800
Si Si2 0.500050 0.015398 0.177503
Si Si3 0.483426 0.404262 0.397005
Si Si4 0.483797 0.726965 0.903179
O O1 0.021745 0.375505 0.737545
O O2 0.001008 0.313906 0.855789
O O3 0.731613 0.365353 0.986084
O O4 0.503382 0.057375 0.181234
O O5 0.250000 0.000000 0.266979
O O6 0.750000 0.000000 0.267019
O O7 0.500000 0.000000 0.000000
O O8 0.705518 0.399044 0.525944
O O9 0.535989 0.750000 0.750000
O O10 0.205261 0.736487 0.971410
#
# Coordination Sequence:
#
# PCOD8214938 Si02
#       4
#     8   8   8   8
#     4  10  23  41  55  79 122 157 174 217 297 344
#     4  10  16  30  49  78 105 133 173 236 287 311
#     4  12  21  33  59  88 103 142 196 240 265 324
#     4  10  21  38  61  84 113 151 186 227 276 328
#
# _framework density 19.201083000000001
#
# number of rings (size 3 to 8) (size 9 to 14) (size 15 to 20)
#    0.000    1.500    5.000    2.250    0.000    2.000 
#    0.000    0.000    0.000    4.500    0.000    0.000 
#    0.000    0.000    0.000    0.000    0.000    0.000 
#
# Total GULP energy -396830.002074 kJ/mol
# GULP energy per Si atom -12400.937565 kJ/mol
# Density = 1.915738 g / cm^3
# Si number density = 19.201083 Si / 1000 Ang^3
#
#
#
# Elastic Constant Matrix: (Units=GPa)
#
#
# Indices 1 2 3 4 5 6 
#
# 1 136.7744 32.5138 14.4296 0.0000 0.0000 0.0000
# 2 32.5138 85.3349 52.9148 0.0000 0.0000 0.0000
# 3 14.4296 52.9148 55.4529 0.0000 0.0000 0.0000
# 4 0.0000 0.0000 0.0000 21.1859 0.0000 0.0000
# 5 0.0000 0.0000 0.0000 0.0000 8.5910 0.0000
# 6 0.0000 0.0000 0.0000 0.0000 0.0000 22.1607
#
#
#
# Elastic Compliance Matrix: (Units=1/GPa)
#
#
# Indices 1 2 3 4 5 6 
#
# 1 0.008134 -0.004376 0.002059 0.000000 0.000000 0.000000
# 2 -0.004376 0.031055 -0.028495 0.000000 0.000000 0.000000
# 3 0.002059 -0.028495 0.044688 0.000000 0.000000 0.000000
# 4 0.000000 0.000000 0.000000 0.047201 0.000000 0.000000
# 5 0.000000 0.000000 0.000000 0.000000 0.116401 0.000000
# 6 0.000000 0.000000 0.000000 0.000000 0.000000 0.045125
#
#
# Mechanical properties :
#
#
# Convention : Reuss Voigt Hill
#
# Bulk Modulus (GPa) = 44.93605 53.03096 48.98350
# Shear Modulus (GPa) = 13.82561 22.23444 18.03003
#
# Velocity S-wave (km/s) = 2.68627 3.40660 3.06765
# Velocity P-wave (km/s) = 5.75110 6.56901 6.17361
#
# Compressibility (1/GPa) = 0.02225385
#
# Stress axis : x y z
#
# Youngs Moduli (GPa) = 122.93509 32.20055 22.37712
#
# Poissons Ratio (x) = 0.14092 -0.04608
# Poissons Ratio (y) = 0.53799 0.63764
# Poissons Ratio (z) = -0.25316 0.91756
#
# Static dielectric constant tensor:
#      x y z
#    x 2.569670 0.000000 0.000000 
#    y 0.000000 3.549250 0.000000 
#    z 0.000000 0.000000 3.015740 
# 
# 
# High freq. dielectric constant tensor:
#      x y z
#    x 1.782390 0.000000 0.000000 
#    y 0.000000 1.752190 0.000000 
#    z 0.000000 0.000000 1.707500 
# 
# From -- ./inp_files/6700.got.cif
#   From: 2010.06.25/outbox.cif.g09.slc.cpg/sg52_4_cif.got.tgz:6700.got - 2010.06.26 19:32:48.
