data_PCOD8214829
_publ_section_title
;
Structure prediction by ZEFSAII (Michael W. Deem and Ramdas Pophale) SiO2 
 PCOD8214829
Probable space group: P M M A
;
_chemical_formula_sum "Si O2"
_cell_formula_units_Z 36
_cell_length_a 9.593727
_cell_length_b 22.394994
_cell_length_c 10.028324
_cell_angle_alpha 90.000000
_cell_angle_beta 90.000000
_cell_angle_gamma 90.000000
_cell_volume 2154.600039
_symmetry_space_group_name_H-M "P M M A"
_symmetry_group_IT_number 51
_symmetry_cell_setting 'orthorhombic'
loop_
_space_group_symop_operation_xyz
x,y,z
1/2-x,-y,z
1/2+x,-y,-z
-x,y,-z
-x,-y,-z
1/2+x,y,-z
1/2-x,y,z
x,-y,z
loop_
_atom_site_type_symbol
_atom_site_label
_atom_site_fract_x
_atom_site_fract_y
_atom_site_fract_z
Si Si1 0.411024 0.148089 0.373857
Si Si2 0.088826 0.931230 0.126550
Si Si3 0.588199 0.713995 0.627739
Si Si4 0.093467 0.500000 0.126467
Si Si5 0.412096 0.629770 0.134995
O O1 0.500000 0.127168 0.500000
O O2 0.250000 0.136439 0.407696
O O3 0.460905 0.108689 0.249804
O O4 0.439375 0.216951 0.338762
O O5 0.250000 0.919929 0.092626
O O6 0.059957 0.000000 0.162972
O O7 0.000000 0.910684 0.000000
O O8 0.500000 0.693437 0.500000
O O9 0.750000 0.701314 0.597031
O O10 0.535758 0.676782 0.755298
O O11 0.250000 0.500000 0.072572
O O12 0.065805 0.436832 0.201487
O O13 0.000000 0.500000 0.000000
O O14 0.250000 0.640762 0.099865
O O15 0.500000 0.638393 0.000000
#
# Coordination Sequence:
#
# PCOD8214829 Si02
#       5
#     8   8   8   4   8
#     4   9  18  32  48  66  89 117 149 183 218 258
#     4   9  18  32  48  67  92 119 146 179 219 261
#     4   9  18  32  47  64  89 119 148 180 219 261
#     4   8  14  26  43  62  86 114 142 176 217 258
#     4   9  17  29  46  67  89 114 146 182 219 260
#
# _framework density 16.708437
#
# number of rings (size 3 to 8) (size 9 to 14) (size 15 to 20)
#    0.000    3.111    0.000    0.000    0.000    3.111 
#    0.000    0.556    0.000    0.000    0.000    0.000 
#    0.000    0.000    0.000    0.000    0.000    0.000 
#
# Total GULP energy -446207.895450 kJ/mol
# GULP energy per Si atom -12394.663762 kJ/mol
# Density = 1.667041 g / cm^3
# Si number density = 16.708437 Si / 1000 Ang^3
#
#
#
# Elastic Constant Matrix: (Units=GPa)
#
#
# Indices 1 2 3 4 5 6 
#
# 1 55.8620 44.3662 63.9552 0.0000 0.0000 0.0000
# 2 44.3662 92.3778 87.3351 0.0000 0.0000 0.0000
# 3 63.9552 87.3351 146.4537 0.0000 0.0000 0.0000
# 4 0.0000 0.0000 0.0000 17.9665 0.0000 0.0000
# 5 0.0000 0.0000 0.0000 0.0000 33.1675 0.0000
# 6 0.0000 0.0000 0.0000 0.0000 0.0000 19.3883
#
#
#
# Elastic Compliance Matrix: (Units=1/GPa)
#
#
# Indices 1 2 3 4 5 6 
#
# 1 0.037077 -0.005730 -0.012774 0.000000 0.000000 0.000000
# 2 -0.005730 0.025701 -0.012824 0.000000 0.000000 0.000000
# 3 -0.012774 -0.012824 0.020054 0.000000 0.000000 0.000000
# 4 0.000000 0.000000 0.000000 0.055659 0.000000 0.000000
# 5 0.000000 0.000000 0.000000 0.000000 0.030150 0.000000
# 6 0.000000 0.000000 0.000000 0.000000 0.000000 0.051578
#
#
# Mechanical properties :
#
#
# Convention : Reuss Voigt Hill
#
# Bulk Modulus (GPa) = 49.56551 76.22292 62.89421
# Shear Modulus (GPa) = 17.26513 20.70694 18.98603
#
# Velocity S-wave (km/s) = 3.21801 3.52420 3.37458
# Velocity P-wave (km/s) = 6.59825 7.89167 7.27376
#
# Compressibility (1/GPa) = 0.02017532
#
# Stress axis : x y z
#
# Youngs Moduli (GPa) = 26.97083 38.90862 49.86528
#
# Poissons Ratio (x) = 0.22295 0.63699
# Poissons Ratio (y) = 0.15454 0.63948
# Poissons Ratio (z) = 0.34453 0.49897
#
# Static dielectric constant tensor:
#      x y z
#    x 3.141240 0.000000 0.000000 
#    y 0.000000 3.582660 0.000000 
#    z 0.000000 0.000000 2.838810 
# 
# 
# High freq. dielectric constant tensor:
#      x y z
#    x 1.644120 0.000000 0.000000 
#    y 0.000000 1.653930 0.000000 
#    z 0.000000 0.000000 1.623120 
# 
# From -- ./inp_files/6874.got.cif
#   From: 2010.03.12/outbox.cif.g09.slc.cpg/sg51_4_cif.got.tgz:6874.got - 2010.04.16 13:43:02.
