data_PCOD8214665
_publ_section_title
;
Structure prediction by ZEFSAII (Michael W. Deem and Ramdas Pophale) SiO2 
 PCOD8214665
Probable space group: P M M A
;
_chemical_formula_sum "Si O2"
_cell_formula_units_Z 56
_cell_length_a 15.472466
_cell_length_b 18.097908
_cell_length_c 10.077154
_cell_angle_alpha 90.000000
_cell_angle_beta 90.000000
_cell_angle_gamma 90.000000
_cell_volume 2821.797268
_symmetry_space_group_name_H-M "P M M A"
_symmetry_group_IT_number 51
_symmetry_cell_setting 'orthorhombic'
loop_
_space_group_symop_operation_xyz
x,y,z
1/2-x,-y,z
1/2+x,-y,-z
-x,y,-z
-x,-y,-z
1/2+x,y,-z
1/2-x,y,z
x,-y,z
loop_
_atom_site_type_symbol
_atom_site_label
_atom_site_fract_x
_atom_site_fract_y
_atom_site_fract_z
Si Si1 0.102138 0.082269 0.351564
Si Si2 0.595363 0.683146 0.469429
Si Si3 0.250000 0.585951 0.617323
Si Si4 0.347640 0.764540 0.271629
Si Si5 0.398253 0.918459 0.652700
Si Si6 0.903653 0.686501 0.982605
Si Si7 0.151279 0.772480 0.770914
Si Si8 0.250000 0.586409 0.930764
O O1 0.143804 0.146384 0.261373
O O2 0.135061 0.092414 0.502444
O O3 0.000222 0.091804 0.344355
O O4 0.129061 0.000000 0.300687
O O5 0.500000 0.650224 0.500000
O O6 0.663901 0.617332 0.452475
O O7 0.623104 0.739167 0.583749
O O8 0.590998 0.731249 0.335561
O O9 0.250000 0.500000 0.588325
O O10 0.250000 0.603152 0.773997
O O11 0.250000 0.741475 0.243942
O O12 0.403323 0.721759 0.162918
O O13 0.353625 0.860342 0.750972
O O14 0.372326 0.000000 0.703430
O O15 0.882541 0.753037 0.083421
O O16 0.835803 0.620229 0.002640
O O17 0.000000 0.653925 0.000000
O O18 0.250000 0.745368 0.752683
O O19 0.250000 0.500000 0.961574
#
# Coordination Sequence:
#
# PCOD8214665 Si02
#       8
#     8   8   4   8   8   8   8   4
#     4   9  18  33  53  84 125 164 207 258 314 367
#     4  12  22  39  65  93 125 163 205 249 303 366
#     4  11  24  45  69  97 128 161 201 248 310 373
#     4  12  23  37  60  94 126 162 208 262 308 359
#     4   9  18  32  54  86 121 163 213 262 306 357
#     4  12  24  43  67  93 124 165 210 252 307 371
#     4  12  21  39  62  89 126 165 215 262 303 362
#     4  11  24  47  71  95 126 161 203 248 304 381
#
# _framework density 19.845507000000001
#
# number of rings (size 3 to 8) (size 9 to 14) (size 15 to 20)
#    0.000    1.000    5.714    3.429    0.000    1.143 
#    0.000    3.571    0.000    4.286    0.000    0.000 
#    0.000    0.000    0.000    0.000    0.000    0.000 
#
# Total GULP energy -694488.038909 kJ/mol
# GULP energy per Si atom -12401.572123 kJ/mol
# Density = 1.980034 g / cm^3
# Si number density = 19.845507 Si / 1000 Ang^3
#
#
#
# Elastic Constant Matrix: (Units=GPa)
#
#
# Indices 1 2 3 4 5 6 
#
# 1 112.3994 43.7061 14.2974 0.0000 0.0000 0.0000
# 2 43.7061 140.4194 34.3821 0.0000 0.0000 0.0000
# 3 14.2974 34.3821 64.4415 0.0000 0.0000 0.0000
# 4 0.0000 0.0000 0.0000 25.3752 0.0000 0.0000
# 5 0.0000 0.0000 0.0000 0.0000 25.0365 0.0000
# 6 0.0000 0.0000 0.0000 0.0000 0.0000 23.8510
#
#
#
# Elastic Compliance Matrix: (Units=1/GPa)
#
#
# Indices 1 2 3 4 5 6 
#
# 1 0.010146 -0.002998 -0.000651 0.000000 0.000000 0.000000
# 2 -0.002998 0.009078 -0.004178 0.000000 0.000000 0.000000
# 3 -0.000651 -0.004178 0.017892 0.000000 0.000000 0.000000
# 4 0.000000 0.000000 0.000000 0.039409 0.000000 0.000000
# 5 0.000000 0.000000 0.000000 0.000000 0.039942 0.000000
# 6 0.000000 0.000000 0.000000 0.000000 0.000000 0.041927
#
#
# Mechanical properties :
#
#
# Convention : Reuss Voigt Hill
#
# Bulk Modulus (GPa) = 46.59926 55.78128 51.19027
# Shear Modulus (GPa) = 27.59367 29.84418 28.71892
#
# Velocity S-wave (km/s) = 3.73288 3.88213 3.80824
# Velocity P-wave (km/s) = 6.48932 6.94718 6.72215
#
# Compressibility (1/GPa) = 0.02145957
#
# Stress axis : x y z
#
# Youngs Moduli (GPa) = 98.56491 110.15864 55.89212
#
# Poissons Ratio (x) = 0.33030 0.03640
# Poissons Ratio (y) = 0.29554 0.23352
# Poissons Ratio (z) = 0.06418 0.46026
#
# Static dielectric constant tensor:
#      x y z
#    x 3.676700 0.000000 0.000000 
#    y 0.000000 3.651510 0.000000 
#    z 0.000000 0.000000 3.424940 
# 
# 
# High freq. dielectric constant tensor:
#      x y z
#    x 1.782040 0.000000 0.000000 
#    y 0.000000 1.770390 0.000000 
#    z 0.000000 0.000000 1.752330 
# 
# From -- ./inp_files/8602.got.cif
#   From: 2010.03.12/outbox.cif.g09.slc.cpg/sg51_5_cif.got.tgz:8602.got - 2010.04.16 13:43:02.
