data_PCOD8214345
_publ_section_title
;
Structure prediction by ZEFSAII (Michael W. Deem and Ramdas Pophale) SiO2 
 PCOD8214345
Probable space group: P M M A
;
_chemical_formula_sum "Si O2"
_cell_formula_units_Z 48
_cell_length_a 16.835957
_cell_length_b 13.963606
_cell_length_c 9.306794
_cell_angle_alpha 90.000000
_cell_angle_beta 90.000000
_cell_angle_gamma 90.000000
_cell_volume 2187.940439
_symmetry_space_group_name_H-M "P M M A"
_symmetry_group_IT_number 51
_symmetry_cell_setting 'orthorhombic'
loop_
_space_group_symop_operation_xyz
x,y,z
1/2-x,-y,z
1/2+x,-y,-z
-x,y,-z
-x,-y,-z
1/2+x,y,-z
1/2-x,y,z
x,-y,z
loop_
_atom_site_type_symbol
_atom_site_label
_atom_site_fract_x
_atom_site_fract_y
_atom_site_fract_z
Si Si1 0.342599 0.273813 0.118580
Si Si2 0.594435 0.893037 0.678145
Si Si3 0.906637 0.105965 0.354491
Si Si4 0.835216 0.388641 0.444239
Si Si5 0.058494 0.611333 0.304354
Si Si6 0.096982 0.710351 0.804732
O O1 0.250000 0.268241 0.082916
O O2 0.369595 0.179626 0.205859
O O3 0.362548 0.369749 0.209096
O O4 0.393202 0.287647 0.973946
O O5 0.622403 0.868521 0.515889
O O6 0.500208 0.891238 0.670439
O O7 0.623083 0.000000 0.721548
O O8 0.871980 0.186595 0.250525
O O9 0.874785 0.000000 0.312968
O O10 0.750000 0.343245 0.493189
O O11 0.829058 0.500000 0.469418
O O12 0.913489 0.355434 0.535026
O O13 0.848418 0.367486 0.275897
O O14 0.031380 0.500000 0.297541
O O15 0.993186 0.683896 0.241102
#
# Coordination Sequence:
#
# PCOD8214345 Si02
#       6
#     8   8   8   8   8   8
#     4  12  26  41  59  89 130 173 207 251 320 380
#     4   9  19  39  65  94 123 158 204 253 307 372
#     4   9  19  37  66  96 121 153 202 261 312 359
#     4  10  22  41  65  93 125 163 208 261 321 376
#     4  11  24  42  64  90 120 163 218 267 308 367
#     4  12  23  38  64  96 127 164 209 261 310 376
#
# _framework density 21.93844
#
# number of rings (size 3 to 8) (size 9 to 14) (size 15 to 20)
#    0.000    1.500    1.667    4.500    2.333    5.333 
#    0.000    2.500    0.000    3.500    0.000    0.000 
#    0.000    0.000    0.000    0.000    0.000    0.000 
#
# Total GULP energy -594682.643546 kJ/mol
# GULP energy per Si atom -12389.221741 kJ/mol
# Density = 2.188851 g / cm^3
# Si number density = 21.938440 Si / 1000 Ang^3
#
#
#
# Elastic Constant Matrix: (Units=GPa)
#
#
# Indices 1 2 3 4 5 6 
#
# 1 83.2956 16.1133 16.3147 0.0000 0.0000 0.0000
# 2 16.1133 82.3508 38.1983 0.0000 0.0000 0.0000
# 3 16.3147 38.1983 107.1525 0.0000 0.0000 0.0000
# 4 0.0000 0.0000 0.0000 22.2331 0.0000 0.0000
# 5 0.0000 0.0000 0.0000 0.0000 19.8467 0.0000
# 6 0.0000 0.0000 0.0000 0.0000 0.0000 21.1206
#
#
#
# Elastic Compliance Matrix: (Units=1/GPa)
#
#
# Indices 1 2 3 4 5 6 
#
# 1 0.012615 -0.001890 -0.001247 0.000000 0.000000 0.000000
# 2 -0.001890 0.014832 -0.005000 0.000000 0.000000 0.000000
# 3 -0.001247 -0.005000 0.011305 0.000000 0.000000 0.000000
# 4 0.000000 0.000000 0.000000 0.044978 0.000000 0.000000
# 5 0.000000 0.000000 0.000000 0.000000 0.050386 0.000000
# 6 0.000000 0.000000 0.000000 0.000000 0.000000 0.047347
#
#
# Mechanical properties :
#
#
# Convention : Reuss Voigt Hill
#
# Bulk Modulus (GPa) = 44.48648 46.00573 45.24610
# Shear Modulus (GPa) = 24.36297 26.11825 25.24061
#
# Velocity S-wave (km/s) = 3.33605 3.45414 3.39561
# Velocity P-wave (km/s) = 5.92966 6.07651 6.00354
#
# Compressibility (1/GPa) = 0.02247874
#
# Stress axis : x y z
#
# Youngs Moduli (GPa) = 79.26885 67.42151 88.45907
#
# Poissons Ratio (x) = 0.12742 0.11031
# Poissons Ratio (y) = 0.14982 0.44226
# Poissons Ratio (z) = 0.09885 0.33708
#
# Static dielectric constant tensor:
#      x y z
#    x 4.200890 0.000000 0.000000 
#    y 0.000000 4.359260 0.000000 
#    z 0.000000 0.000000 3.945540 
# 
# 
# High freq. dielectric constant tensor:
#      x y z
#    x 1.850470 0.000000 0.000000 
#    y 0.000000 1.869980 0.000000 
#    z 0.000000 0.000000 1.854810 
# 
# From -- ./inp_files/9632.got.cif
#   From: 2010.03.12/outbox.cif.g09.slc.cpg/sg51_5_cif.got.tgz:9632.got - 2010.04.16 13:43:02.
