data_PCOD8214115
_publ_section_title
;
Structure prediction by ZEFSAII (Michael W. Deem and Ramdas Pophale) SiO2 
 PCOD8214115
Probable space group: P M M A
;
_chemical_formula_sum "Si O2"
_cell_formula_units_Z 48
_cell_length_a 8.697490
_cell_length_b 31.003644
_cell_length_c 9.173357
_cell_angle_alpha 90.000000
_cell_angle_beta 90.000000
_cell_angle_gamma 90.000000
_cell_volume 2473.631341
_symmetry_space_group_name_H-M "P M M A"
_symmetry_group_IT_number 51
_symmetry_cell_setting 'orthorhombic'
loop_
_space_group_symop_operation_xyz
x,y,z
1/2-x,-y,z
1/2+x,-y,-z
-x,y,-z
-x,-y,-z
1/2+x,y,-z
1/2-x,y,z
x,-y,z
loop_
_atom_site_type_symbol
_atom_site_label
_atom_site_fract_x
_atom_site_fract_y
_atom_site_fract_z
Si Si1 0.932039 0.801858 0.658584
Si Si2 0.569132 0.281381 0.842233
Si Si3 0.432095 0.878696 0.841923
Si Si4 0.432162 0.361372 0.340011
Si Si5 0.929342 0.949770 0.653594
Si Si6 0.569137 0.454481 0.658659
O O1 0.750000 0.808488 0.651736
O O2 0.980084 0.759929 0.749410
O O3 0.000000 0.795176 0.500000
O O4 0.008606 0.843352 0.729646
O O5 0.750000 0.284832 0.857317
O O6 0.501686 0.324413 0.765624
O O7 0.500000 0.276177 0.000000
O O8 0.250000 0.877602 0.851726
O O9 0.487823 0.925224 0.785538
O O10 0.500000 0.868943 0.000000
O O11 0.500000 0.354929 0.500000
O O12 0.250000 0.357010 0.354085
O O13 0.480677 0.408487 0.270289
O O14 0.750000 0.938511 0.652548
O O15 0.000000 0.934600 0.500000
O O16 0.960528 0.000000 0.680117
O O17 0.500000 0.455506 0.500000
O O18 0.750000 0.454082 0.641530
O O19 0.519248 0.500000 0.739965
#
# Coordination Sequence:
#
# PCOD8214115 Si02
#       6
#     8   8   8   8   8   8
#     4  11  23  40  61  85 111 141 180 223 271 325
#     4  10  22  37  54  76 104 138 175 217 264 317
#     4  12  25  41  61  86 118 153 189 230 277 328
#     4   9  17  30  48  73 101 130 169 213 259 312
#     4  10  21  39  63  90 120 155 195 237 280 326
#     4   8  13  22  39  64  94 126 160 203 254 305
#
# _framework density 19.404669999999999
#
# number of rings (size 3 to 8) (size 9 to 14) (size 15 to 20)
#    0.000    2.000    0.000    4.000    0.000    4.667 
#    0.000    0.000    0.000    0.500    0.000    0.000 
#    0.000    0.000    0.000    0.000    0.000    0.000 
#
# Total GULP energy -594922.413878 kJ/mol
# GULP energy per Si atom -12394.216956 kJ/mol
# Density = 1.936050 g / cm^3
# Si number density = 19.404670 Si / 1000 Ang^3
#
#
#
# Elastic Constant Matrix: (Units=GPa)
#
#
# Indices 1 2 3 4 5 6 
#
# 1 73.6269 47.8857 41.3064 0.0000 0.0000 0.0000
# 2 47.8857 139.9678 63.7765 0.0000 0.0000 0.0000
# 3 41.3064 63.7765 120.9063 0.0000 0.0000 0.0000
# 4 0.0000 0.0000 0.0000 15.8960 0.0000 0.0000
# 5 0.0000 0.0000 0.0000 0.0000 31.7165 0.0000
# 6 0.0000 0.0000 0.0000 0.0000 0.0000 4.3223
#
#
#
# Elastic Compliance Matrix: (Units=1/GPa)
#
#
# Indices 1 2 3 4 5 6 
#
# 1 0.018829 -0.004621 -0.003995 0.000000 0.000000 0.000000
# 2 -0.004621 0.010539 -0.003980 0.000000 0.000000 0.000000
# 3 -0.003995 -0.003980 0.011735 0.000000 0.000000 0.000000
# 4 0.000000 0.000000 0.000000 0.062909 0.000000 0.000000
# 5 0.000000 0.000000 0.000000 0.000000 0.031529 0.000000
# 6 0.000000 0.000000 0.000000 0.000000 0.000000 0.231359
#
#
# Mechanical properties :
#
#
# Convention : Reuss Voigt Hill
#
# Bulk Modulus (GPa) = 62.85417 71.15981 67.00699
# Shear Modulus (GPa) = 12.58185 22.48912 17.53548
#
# Velocity S-wave (km/s) = 2.54912 3.40803 3.00938
# Velocity P-wave (km/s) = 6.41292 7.22754 6.83238
#
# Compressibility (1/GPa) = 0.01590984
#
# Stress axis : x y z
#
# Youngs Moduli (GPa) = 53.10966 94.88309 85.21257
#
# Poissons Ratio (x) = 0.43850 0.34042
# Poissons Ratio (y) = 0.24544 0.33919
# Poissons Ratio (z) = 0.21217 0.37768
#
# Static dielectric constant tensor:
#      x y z
#    x 3.563430 0.000000 0.000000 
#    y 0.000000 4.273300 0.000000 
#    z 0.000000 0.000000 3.311420 
# 
# 
# High freq. dielectric constant tensor:
#      x y z
#    x 1.756840 0.000000 0.000000 
#    y 0.000000 1.786530 0.000000 
#    z 0.000000 0.000000 1.730490 
# 
# From -- ./inp_files/5966.got.cif
#   From: 2010.03.12/outbox.cif.g09.slc.cpg/sg51_3_cif.got.tgz:5966.got - 2010.04.16 13:43:02.
