data_PCOD8214331
_publ_section_title
;
Structure prediction by ZEFSAII (Michael W. Deem and Ramdas Pophale) SiO2 
 PCOD8214331
Probable space group: P M M A
;
_chemical_formula_sum "Si O2"
_cell_formula_units_Z 48
_cell_length_a 18.023658
_cell_length_b 8.808205
_cell_length_c 16.081709
_cell_angle_alpha 90.000000
_cell_angle_beta 90.000000
_cell_angle_gamma 90.000000
_cell_volume 2553.068992
_symmetry_space_group_name_H-M "P M M A"
_symmetry_group_IT_number 51
_symmetry_cell_setting 'orthorhombic'
loop_
_space_group_symop_operation_xyz
x,y,z
1/2-x,-y,z
1/2+x,-y,-z
-x,y,-z
-x,-y,-z
1/2+x,y,-z
1/2-x,y,z
x,-y,z
loop_
_atom_site_type_symbol
_atom_site_label
_atom_site_fract_x
_atom_site_fract_y
_atom_site_fract_z
Si Si1 0.532146 0.678658 0.135567
Si Si2 0.537440 0.823679 0.313788
Si Si3 0.604900 0.679377 0.971328
Si Si4 0.750000 0.681849 0.889294
Si Si5 0.335768 0.176446 0.559986
Si Si6 0.606872 0.320221 0.604482
Si Si7 0.750000 0.680561 0.702998
O O1 0.528291 0.500000 0.155671
O O2 0.545710 0.766757 0.220150
O O3 0.458457 0.740887 0.090257
O O4 0.596509 0.719432 0.068899
O O5 0.617024 0.791512 0.356746
O O6 0.470701 0.742848 0.362290
O O7 0.518395 0.000000 0.313976
O O8 0.602264 0.500000 0.962007
O O9 0.680731 0.750052 0.938617
O O10 0.750000 0.500000 0.889112
O O11 0.750000 0.744772 0.796033
O O12 0.250000 0.230037 0.572284
O O13 0.377728 0.270626 0.489331
O O14 0.338063 0.000000 0.535637
O O15 0.602048 0.500000 0.609029
O O16 0.675771 0.257527 0.658925
O O17 0.750000 0.500000 0.701097
#
# Coordination Sequence:
#
# PCOD8214331 Si02
#       7
#     8   8   8   4   8   8   4
#     4   9  17  33  53  76 104 139 178 221 270 320
#     4  11  23  37  55  81 108 144 190 226 267 328
#     4   8  15  28  50  75 105 139 173 215 273 330
#     4   9  14  24  44  74 105 134 166 207 261 325
#     4  10  22  41  59  75 106 150 188 224 270 326
#     4  11  21  36  58  85 113 140 178 228 280 326
#     4   9  18  30  51  84 115 138 168 217 273 327
#
# _framework density 18.800902000000001
#
# number of rings (size 3 to 8) (size 9 to 14) (size 15 to 20)
#    0.000    2.333    0.833    3.500    0.000    6.000 
#    1.500    1.667    0.000    0.000    0.000    1.167 
#    0.000    0.000    0.000    0.000    0.000    0.000 
#
# Total GULP energy -594997.096203 kJ/mol
# GULP energy per Si atom -12395.772838 kJ/mol
# Density = 1.875811 g / cm^3
# Si number density = 18.800902 Si / 1000 Ang^3
#
#
#
# Elastic Constant Matrix: (Units=GPa)
#
#
# Indices 1 2 3 4 5 6 
#
# 1 101.3086 27.2748 75.0184 0.0000 0.0000 0.0000
# 2 27.2748 47.2970 41.6204 0.0000 0.0000 0.0000
# 3 75.0184 41.6204 156.7997 0.0000 0.0000 0.0000
# 4 0.0000 0.0000 0.0000 16.2544 0.0000 0.0000
# 5 0.0000 0.0000 0.0000 0.0000 31.8946 0.0000
# 6 0.0000 0.0000 0.0000 0.0000 0.0000 20.4945
#
#
#
# Elastic Compliance Matrix: (Units=1/GPa)
#
#
# Indices 1 2 3 4 5 6 
#
# 1 0.015644 -0.003177 -0.006641 0.000000 0.000000 0.000000
# 2 -0.003177 0.028232 -0.005974 0.000000 0.000000 0.000000
# 3 -0.006641 -0.005974 0.011141 0.000000 0.000000 0.000000
# 4 0.000000 0.000000 0.000000 0.061522 0.000000 0.000000
# 5 0.000000 0.000000 0.000000 0.000000 0.031353 0.000000
# 6 0.000000 0.000000 0.000000 0.000000 0.000000 0.048794
#
#
# Mechanical properties :
#
#
# Convention : Reuss Voigt Hill
#
# Bulk Modulus (GPa) = 42.67642 65.91473 54.29557
# Shear Modulus (GPa) = 21.17923 24.49482 22.83702
#
# Velocity S-wave (km/s) = 3.35998 3.61342 3.48900
# Velocity P-wave (km/s) = 6.14825 7.24876 6.72107
#
# Compressibility (1/GPa) = 0.02343214
#
# Stress axis : x y z
#
# Youngs Moduli (GPa) = 63.92197 35.42088 89.76149
#
# Poissons Ratio (x) = 0.11254 0.59613
# Poissons Ratio (y) = 0.20310 0.53621
# Poissons Ratio (z) = 0.42453 0.21159
#
# Static dielectric constant tensor:
#      x y z
#    x 3.879590 0.000000 0.000000 
#    y 0.000000 3.102800 0.000000 
#    z 0.000000 0.000000 3.549800 
# 
# 
# High freq. dielectric constant tensor:
#      x y z
#    x 1.738370 0.000000 0.000000 
#    y 0.000000 1.695050 0.000000 
#    z 0.000000 0.000000 1.739940 
# 
# From -- ./inp_files/24889.got.cif
#   From: 2010.03.12/outbox.cif.g09.slc.cpg/sg51_13_cif.got.tgz:24889.got - 2010.04.16 13:43:02.
