data_PCOD8214685
_publ_section_title
;
Structure prediction by ZEFSAII (Michael W. Deem and Ramdas Pophale) SiO2 
 PCOD8214685
Probable space group: P M M A
;
_chemical_formula_sum "Si O2"
_cell_formula_units_Z 64
_cell_length_a 17.842451
_cell_length_b 9.037282
_cell_length_c 23.156752
_cell_angle_alpha 90.000000
_cell_angle_beta 90.000000
_cell_angle_gamma 90.000000
_cell_volume 3733.962840
_symmetry_space_group_name_H-M "P M M A"
_symmetry_group_IT_number 51
_symmetry_cell_setting 'orthorhombic'
loop_
_space_group_symop_operation_xyz
x,y,z
1/2-x,-y,z
1/2+x,-y,-z
-x,y,-z
-x,-y,-z
1/2+x,y,-z
1/2-x,y,z
x,-y,z
loop_
_atom_site_type_symbol
_atom_site_label
_atom_site_fract_x
_atom_site_fract_y
_atom_site_fract_z
Si Si1 0.528633 0.674720 0.371309
Si Si2 0.114277 0.674515 0.080104
Si Si3 0.043407 0.325165 0.873710
Si Si4 0.429741 0.834105 0.458114
Si Si5 0.668566 0.676166 0.798454
Si Si6 0.164258 0.673728 0.548327
Si Si7 0.333462 0.676313 0.958013
Si Si8 0.512880 0.323795 0.753691
O O1 0.518505 0.500000 0.375832
O O2 0.455961 0.745687 0.401664
O O3 0.608350 0.722752 0.399606
O O4 0.526292 0.731741 0.305164
O O5 0.125146 0.500000 0.077146
O O6 0.159298 0.735338 0.135796
O O7 0.027560 0.717422 0.087187
O O8 0.144107 0.744521 0.020351
O O9 0.050729 0.500000 0.868583
O O10 0.115219 0.257798 0.906559
O O11 0.034470 0.261622 0.808437
O O12 0.500000 0.836234 0.500000
O O13 0.359745 0.754436 0.489159
O O14 0.405212 0.000000 0.441120
O O15 0.750000 0.730984 0.774850
O O16 0.665616 0.500000 0.799576
O O17 0.599506 0.733519 0.758725
O O18 0.250000 0.717462 0.564275
O O19 0.157175 0.500000 0.537083
O O20 0.250000 0.726254 0.942837
O O21 0.341993 0.500000 0.960425
O O22 0.513311 0.500000 0.755161
#
# Coordination Sequence:
#
# PCOD8214685 Si02
#       8
#     8   8   8   8   8   8   8   8
#     4   9  16  28  45  62  83 112 143 172 201 239
#     4   8  12  17  25  35  49  74 109 148 191 237
#     4   8  13  20  27  36  53  79 113 152 190 229
#     4   9  17  29  46  67  88 109 133 164 206 251
#     4   8  12  18  28  42  60  82 113 156 199 236
#     4   9  17  29  45  65  87 111 140 171 201 236
#     4   9  14  17  22  34  52  75 108 152 196 233
#     4   8  14  23  34  47  65  94 129 160 192 230
#
# _framework density 17.139966999999999
#
# number of rings (size 3 to 8) (size 9 to 14) (size 15 to 20)
#    0.000    3.500    0.000    2.625    0.000    4.750 
#    0.000    1.250    0.000    6.000    0.000    0.000 
#    0.000    0.000    0.000    0.000    0.000   10.000 
#
# Total GULP energy -792871.814951 kJ/mol
# GULP energy per Si atom -12388.622109 kJ/mol
# Density = 1.710096 g / cm^3
# Si number density = 17.139967 Si / 1000 Ang^3
#
#
#
# Elastic Constant Matrix: (Units=GPa)
#
#
# Indices 1 2 3 4 5 6 
#
# 1 114.3722 17.1403 60.0580 0.0000 0.0000 0.0000
# 2 17.1403 16.9086 16.3733 0.0000 0.0000 0.0000
# 3 60.0580 16.3733 108.4892 0.0000 0.0000 0.0000
# 4 0.0000 0.0000 0.0000 2.1481 0.0000 0.0000
# 5 0.0000 0.0000 0.0000 0.0000 21.4386 0.0000
# 6 0.0000 0.0000 0.0000 0.0000 0.0000 6.1286
#
#
#
# Elastic Compliance Matrix: (Units=1/GPa)
#
#
# Indices 1 2 3 4 5 6 
#
# 1 0.013054 -0.007302 -0.006124 0.000000 0.000000 0.000000
# 2 -0.007302 0.073349 -0.007027 0.000000 0.000000 0.000000
# 3 -0.006124 -0.007027 0.013668 0.000000 0.000000 0.000000
# 4 0.000000 0.000000 0.000000 0.465530 0.000000 0.000000
# 5 0.000000 0.000000 0.000000 0.000000 0.046645 0.000000
# 6 0.000000 0.000000 0.000000 0.000000 0.000000 0.163171
#
#
# Mechanical properties :
#
#
# Convention : Reuss Voigt Hill
#
# Bulk Modulus (GPa) = 16.90248 47.43479 32.16864
# Shear Modulus (GPa) = 5.98054 15.68962 10.83508
#
# Velocity S-wave (km/s) = 1.86998 3.02881 2.51699
# Velocity P-wave (km/s) = 3.81383 6.32192 5.22072
#
# Compressibility (1/GPa) = 0.05916290
#
# Stress axis : x y z
#
# Youngs Moduli (GPa) = 76.60717 13.63352 73.16156
#
# Poissons Ratio (x) = 0.09955 0.44806
# Poissons Ratio (y) = 0.55940 0.51414
# Poissons Ratio (z) = 0.46916 0.09581
#
# Static dielectric constant tensor:
#      x y z
#    x 3.410120 0.000000 0.000000 
#    y 0.000000 2.594840 0.000000 
#    z 0.000000 0.000000 3.543030 
# 
# 
# High freq. dielectric constant tensor:
#      x y z
#    x 1.660240 0.000000 0.000000 
#    y 0.000000 1.587950 0.000000 
#    z 0.000000 0.000000 1.656450 
# 
# From -- ./inp_files/35924.got.cif
#   From: 2010.03.12/outbox.cif.g09.slc.cpg/sg51_18_cif.got.tgz:35924.got - 2010.04.16 13:43:02.
