data_PCOD8214917
_publ_section_title
;
Structure prediction by ZEFSAII (Michael W. Deem and Ramdas Pophale) SiO2 
 PCOD8214917
Probable space group: P N N A
;
_chemical_formula_sum "Si O2"
_cell_formula_units_Z 36
_cell_length_a 12.477155
_cell_length_b 10.519393
_cell_length_c 18.450627
_cell_angle_alpha 90.000000
_cell_angle_beta 90.000000
_cell_angle_gamma 90.000000
_cell_volume 2421.683484
_symmetry_space_group_name_H-M "P N N A"
_symmetry_group_IT_number 52
_symmetry_cell_setting 'orthorhombic'
loop_
_space_group_symop_operation_xyz
x,y,z
1/2-x,-y,z
x,1/2-y,1/2-z
1/2-x,1/2+y,1/2-z
-x,-y,-z
1/2+x,y,-z
-x,1/2+y,1/2+z
1/2+x,1/2-y,1/2+z
loop_
_atom_site_type_symbol
_atom_site_label
_atom_site_fract_x
_atom_site_fract_y
_atom_site_fract_z
Si Si1 0.750000 0.000000 0.668966
Si Si2 0.099225 0.120587 0.218925
Si Si3 0.658406 0.408445 0.486117
Si Si4 0.233098 0.766080 0.107323
Si Si5 0.466065 0.435129 0.394877
O O1 0.853342 0.964265 0.716479
O O2 0.721796 0.883726 0.616506
O O3 0.042337 0.250000 0.250000
O O4 0.197057 0.165567 0.168636
O O5 0.018040 0.028842 0.174785
O O6 0.750000 0.500000 0.454678
O O7 0.716018 0.290687 0.527278
O O8 0.580372 0.373412 0.418843
O O9 0.584673 0.479151 0.543333
O O10 0.114206 0.819892 0.119579
#
# Coordination Sequence:
#
# PCOD8214917 Si02
#       5
#     4   8   8   8   8
#     4  10  16  24  38  60  90 108 128 174 230 256
#     4   9  15  23  38  62  83 101 130 171 216 260
#     4   8  15  26  41  59  79 104 140 171 199 246
#     4   9  16  25  38  61  86 107 135 172 213 255
#     4   9  14  25  41  59  81 106 133 171 208 248
#
# _framework density 14.865691999999999
#
# number of rings (size 3 to 8) (size 9 to 14) (size 15 to 20)
#    0.000    3.111    2.222    1.333    0.000    0.000 
#    0.000    1.111    0.000    0.000    5.778    0.000 
#    0.000    0.000    0.000    0.000    0.000    0.000 
#
# Total GULP energy -445970.912271 kJ/mol
# GULP energy per Si atom -12388.080896 kJ/mol
# Density = 1.483186 g / cm^3
# Si number density = 14.865692 Si / 1000 Ang^3
#
#
#
# Elastic Constant Matrix: (Units=GPa)
#
#
# Indices 1 2 3 4 5 6 
#
# 1 55.9034 35.1611 38.6468 0.0000 0.0000 0.0000
# 2 35.1611 108.8642 46.7507 0.0000 0.0000 0.0000
# 3 38.6468 46.7507 53.9495 0.0000 0.0000 0.0000
# 4 0.0000 0.0000 0.0000 17.6271 0.0000 0.0000
# 5 0.0000 0.0000 0.0000 0.0000 -12.4700 0.0000
# 6 0.0000 0.0000 0.0000 0.0000 0.0000 9.4209
#
#
#
# Elastic Compliance Matrix: (Units=1/GPa)
#
#
# Indices 1 2 3 4 5 6 
#
# 1 0.035489 -0.000868 -0.024671 0.000000 0.000000 0.000000
# 2 -0.000868 0.014651 -0.012075 0.000000 0.000000 0.000000
# 3 -0.024671 -0.012075 0.046672 0.000000 0.000000 0.000000
# 4 0.000000 0.000000 0.000000 0.056731 0.000000 0.000000
# 5 0.000000 0.000000 0.000000 0.000000 -0.080193 0.000000
# 6 0.000000 0.000000 0.000000 0.000000 0.000000 0.106148
#
#
# Mechanical properties :
#
#
# Convention : Reuss Voigt Hill
#
# Bulk Modulus (GPa) = 46.32556 51.09270 48.70913
# Shear Modulus (GPa) = 19.08980 9.45950 14.27465
#
# Velocity S-wave (km/s) = 3.58739 2.52530 3.10214
# Velocity P-wave (km/s) = 6.95626 6.55339 6.75783
#
# Compressibility (1/GPa) = 0.02158635
#
# Stress axis : x y z
#
# Youngs Moduli (GPa) = 28.17779 68.25272 21.42598
#
# Poissons Ratio (x) = 0.05922 0.52859
# Poissons Ratio (y) = 0.02445 0.25872
# Poissons Ratio (z) = 0.69516 0.82414
#
# Static dielectric constant tensor:
#      x y z
#    x 3.053680 0.000000 0.000000 
#    y 0.000000 2.891620 0.000000 
#    z 0.000000 0.000000 3.034270 
# 
# 
# High freq. dielectric constant tensor:
#      x y z
#    x 1.533290 0.000000 0.000000 
#    y 0.000000 1.558700 0.000000 
#    z 0.000000 0.000000 1.551810 
# 
# From -- ./inp_files/25753.got.cif
#   From: 2010.06.25/outbox.cif.g09.slc.cpg/sg52_13_cif.got.tgz:25753.got - 2010.06.26 19:32:48.
