data_PCOD8214248
_publ_section_title
;
Structure prediction by ZEFSAII (Michael W. Deem and Ramdas Pophale) SiO2 
 PCOD8214248
Probable space group: P M M A
;
_chemical_formula_sum "Si O2"
_cell_formula_units_Z 56
_cell_length_a 19.370965
_cell_length_b 14.334776
_cell_length_c 10.014169
_cell_angle_alpha 90.000000
_cell_angle_beta 90.000000
_cell_angle_gamma 90.000000
_cell_volume 2780.718868
_symmetry_space_group_name_H-M "P M M A"
_symmetry_group_IT_number 51
_symmetry_cell_setting 'orthorhombic'
loop_
_space_group_symop_operation_xyz
x,y,z
1/2-x,-y,z
1/2+x,-y,-z
-x,y,-z
-x,-y,-z
1/2+x,y,-z
1/2-x,y,z
x,-y,z
loop_
_atom_site_type_symbol
_atom_site_label
_atom_site_fract_x
_atom_site_fract_y
_atom_site_fract_z
Si Si1 0.329681 0.108260 0.735804
Si Si2 0.437109 0.390754 0.903488
Si Si3 0.670571 0.757868 0.024447
Si Si4 0.170794 0.786771 0.275715
Si Si5 0.327736 0.603507 0.424610
Si Si6 0.051306 0.391757 0.607954
Si Si7 0.079280 0.889916 0.486065
O O1 0.250000 0.125828 0.695420
O O2 0.350870 0.164642 0.867631
O O3 0.378202 0.143715 0.615692
O O4 0.343048 0.000000 0.766944
O O5 0.418680 0.500000 0.898913
O O6 0.370615 0.337460 0.956847
O O7 0.456813 0.350855 0.756495
O O8 0.500000 0.368280 0.000000
O O9 0.750000 0.729532 0.037685
O O10 0.655530 0.802631 0.879904
O O11 0.250000 0.815828 0.311217
O O12 0.159123 0.677009 0.306866
O O13 0.115758 0.847387 0.356353
O O14 0.250000 0.606866 0.476741
O O15 0.347136 0.500000 0.368922
O O16 0.371500 0.627362 0.556425
O O17 0.032414 0.500000 0.616464
O O18 0.000000 0.343338 0.500000
O O19 0.000000 0.855977 0.500000
O O20 0.082849 0.000000 0.469389
#
# Coordination Sequence:
#
# PCOD8214248 Si02
#       7
#     8   8   8   8   8   8   8
#     4   9  19  39  65  89 116 151 188 234 296 357
#     4  10  23  40  57  82 120 162 201 242 292 350
#     4  10  23  40  59  88 120 153 198 243 290 350
#     4  10  22  38  58  87 118 153 196 240 290 346
#     4   9  19  35  56  84 116 149 192 244 290 334
#     4   9  19  35  56  80 106 146 199 246 288 338
#     4  10  22  40  63  91 119 150 192 240 292 351
#
# _framework density 20.138677999999999
#
# number of rings (size 3 to 8) (size 9 to 14) (size 15 to 20)
#    0.000    2.429    0.000    0.429    4.000    4.571 
#    0.000    4.286    0.000    3.000    0.000    0.000 
#    0.000    0.000    0.000    0.000    0.000    0.000 
#
# Total GULP energy -694383.413731 kJ/mol
# GULP energy per Si atom -12399.703817 kJ/mol
# Density = 2.009284 g / cm^3
# Si number density = 20.138678 Si / 1000 Ang^3
#
#
#
# Elastic Constant Matrix: (Units=GPa)
#
#
# Indices 1 2 3 4 5 6 
#
# 1 125.9768 47.9575 81.5255 0.0000 0.0000 0.0000
# 2 47.9575 59.3146 47.4779 0.0000 0.0000 0.0000
# 3 81.5255 47.4779 159.3284 0.0000 0.0000 0.0000
# 4 0.0000 0.0000 0.0000 27.9863 0.0000 0.0000
# 5 0.0000 0.0000 0.0000 0.0000 30.7648 0.0000
# 6 0.0000 0.0000 0.0000 0.0000 0.0000 25.0864
#
#
#
# Elastic Compliance Matrix: (Units=1/GPa)
#
#
# Indices 1 2 3 4 5 6 
#
# 1 0.013915 -0.007291 -0.004948 0.000000 0.000000 0.000000
# 2 -0.007291 0.025960 -0.004005 0.000000 0.000000 0.000000
# 3 -0.004948 -0.004005 0.010002 0.000000 0.000000 0.000000
# 4 0.000000 0.000000 0.000000 0.035732 0.000000 0.000000
# 5 0.000000 0.000000 0.000000 0.000000 0.032505 0.000000
# 6 0.000000 0.000000 0.000000 0.000000 0.000000 0.039862
#
#
# Mechanical properties :
#
#
# Convention : Reuss Voigt Hill
#
# Bulk Modulus (GPa) = 57.50561 77.61574 67.56067
# Shear Modulus (GPa) = 25.47656 27.94477 26.71066
#
# Velocity S-wave (km/s) = 3.56062 3.72911 3.64584
# Velocity P-wave (km/s) = 6.74691 7.56082 7.16543
#
# Compressibility (1/GPa) = 0.01738961
#
# Stress axis : x y z
#
# Youngs Moduli (GPa) = 71.86362 38.52100 99.98484
#
# Poissons Ratio (x) = 0.28084 0.49469
# Poissons Ratio (y) = 0.52392 0.40047
# Poissons Ratio (z) = 0.35556 0.15429
#
# Static dielectric constant tensor:
#      x y z
#    x 3.752940 0.000000 0.000000 
#    y 0.000000 3.551820 0.000000 
#    z 0.000000 0.000000 3.771730 
# 
# 
# High freq. dielectric constant tensor:
#      x y z
#    x 1.790760 0.000000 0.000000 
#    y 0.000000 1.777660 0.000000 
#    z 0.000000 0.000000 1.786950 
# 
# From -- ./inp_files/10956.got.cif
#   From: 2010.03.12/outbox.cif.g09.slc.cpg/sg51_6_cif.got.tgz:10956.got - 2010.04.16 13:43:02.
