data_PCOD8214594
_publ_section_title
;
Structure prediction by ZEFSAII (Michael W. Deem and Ramdas Pophale) SiO2 
 PCOD8214594
Probable space group: P M M A
;
_chemical_formula_sum "Si O2"
_cell_formula_units_Z 48
_cell_length_a 8.766183
_cell_length_b 18.603959
_cell_length_c 14.720525
_cell_angle_alpha 90.000000
_cell_angle_beta 90.000000
_cell_angle_gamma 90.000000
_cell_volume 2400.707258
_symmetry_space_group_name_H-M "P M M A"
_symmetry_group_IT_number 51
_symmetry_cell_setting 'orthorhombic'
loop_
_space_group_symop_operation_xyz
x,y,z
1/2-x,-y,z
1/2+x,-y,-z
-x,y,-z
-x,-y,-z
1/2+x,y,-z
1/2-x,y,z
x,-y,z
loop_
_atom_site_type_symbol
_atom_site_label
_atom_site_fract_x
_atom_site_fract_y
_atom_site_fract_z
Si Si1 0.069971 0.226537 0.904877
Si Si2 0.574803 0.213348 0.412044
Si Si3 0.425094 0.919890 0.156528
Si Si4 0.570754 0.700140 0.737105
Si Si5 0.079264 0.920160 0.370410
Si Si6 0.070237 0.581603 0.404421
O O1 0.250000 0.231761 0.907979
O O2 0.025784 0.143681 0.885788
O O3 0.011115 0.286234 0.832774
O O4 0.000000 0.251308 0.000000
O O5 0.500000 0.251777 0.500000
O O6 0.750000 0.235824 0.401894
O O7 0.474932 0.232634 0.324627
O O8 0.550670 0.127580 0.419427
O O9 0.250000 0.904185 0.130173
O O10 0.447434 0.919629 0.263403
O O11 0.472807 0.000000 0.120088
O O12 0.750000 0.697715 0.754644
O O13 0.513030 0.629397 0.681417
O O14 0.250000 0.891036 0.393052
O O15 0.058923 0.000000 0.408629
O O16 0.250000 0.589001 0.414423
O O17 0.019122 0.500000 0.383959
O O18 0.000000 0.608201 0.500000
#
# Coordination Sequence:
#
# PCOD8214594 Si02
#       6
#     8   8   8   8   8   8
#     4  12  25  40  60  86 115 151 196 244 294 352
#     4  12  24  36  53  79 110 148 192 235 281 340
#     4   9  18  35  59  83 110 145 187 240 301 357
#     4  11  22  39  61  85 119 154 187 235 287 339
#     4   9  18  34  55  76 103 141 184 233 288 343
#     4   9  19  36  61  94 128 161 194 229 274 330
#
# _framework density 19.994107
#
# number of rings (size 3 to 8) (size 9 to 14) (size 15 to 20)
#    0.000    1.667    1.667    5.000    0.000    4.000 
#    0.000    1.667    0.000    0.500    0.000    0.000 
#    0.000    0.000    0.000    0.000    0.000    0.000 
#
# Total GULP energy -594973.135451 kJ/mol
# GULP energy per Si atom -12395.273655 kJ/mol
# Density = 1.994860 g / cm^3
# Si number density = 19.994107 Si / 1000 Ang^3
#
#
#
# Elastic Constant Matrix: (Units=GPa)
#
#
# Indices 1 2 3 4 5 6 
#
# 1 104.2382 41.1819 51.5121 0.0000 0.0000 0.0000
# 2 41.1819 106.3939 49.6121 0.0000 0.0000 0.0000
# 3 51.5121 49.6121 126.1290 0.0000 0.0000 0.0000
# 4 0.0000 0.0000 0.0000 10.3730 0.0000 0.0000
# 5 0.0000 0.0000 0.0000 0.0000 32.3464 0.0000
# 6 0.0000 0.0000 0.0000 0.0000 0.0000 21.5945
#
#
#
# Elastic Compliance Matrix: (Units=1/GPa)
#
#
# Indices 1 2 3 4 5 6 
#
# 1 0.012794 -0.003081 -0.004013 0.000000 0.000000 0.000000
# 2 -0.003081 0.012252 -0.003561 0.000000 0.000000 0.000000
# 3 -0.004013 -0.003561 0.010968 0.000000 0.000000 0.000000
# 4 0.000000 0.000000 0.000000 0.096404 0.000000 0.000000
# 5 0.000000 0.000000 0.000000 0.000000 0.030915 0.000000
# 6 0.000000 0.000000 0.000000 0.000000 0.000000 0.046308
#
#
# Mechanical properties :
#
#
# Convention : Reuss Voigt Hill
#
# Bulk Modulus (GPa) = 68.00938 69.04149 68.52544
# Shear Modulus (GPa) = 21.19968 25.82646 23.51307
#
# Velocity S-wave (km/s) = 3.25975 3.59793 3.43301
# Velocity P-wave (km/s) = 6.94669 7.20180 7.07540
#
# Compressibility (1/GPa) = 0.01470385
#
# Stress axis : x y z
#
# Youngs Moduli (GPa) = 78.16291 81.61919 91.17263
#
# Poissons Ratio (x) = 0.25144 0.36591
# Poissons Ratio (y) = 0.24079 0.32467
# Poissons Ratio (z) = 0.31369 0.29065
#
# Static dielectric constant tensor:
#      x y z
#    x 3.496700 0.000000 0.000000 
#    y 0.000000 3.813180 0.000000 
#    z 0.000000 0.000000 3.666830 
# 
# 
# High freq. dielectric constant tensor:
#      x y z
#    x 1.774400 0.000000 0.000000 
#    y 0.000000 1.768930 0.000000 
#    z 0.000000 0.000000 1.775530 
# 
# From -- ./inp_files/21125.got.cif
#   From: 2010.03.12/outbox.cif.g09.slc.cpg/sg51_11_cif.got.tgz:21125.got - 2010.04.16 13:43:02.
