data_PCOD8214911
_publ_section_title
;
Structure prediction by ZEFSAII (Michael W. Deem and Ramdas Pophale) SiO2 
 PCOD8214911
Probable space group: P N N A
;
_chemical_formula_sum "Si O2"
_cell_formula_units_Z 56
_cell_length_a 5.224394
_cell_length_b 33.292553
_cell_length_c 17.048701
_cell_angle_alpha 90.000000
_cell_angle_beta 90.000000
_cell_angle_gamma 90.000000
_cell_volume 2965.338772
_symmetry_space_group_name_H-M "P N N A"
_symmetry_group_IT_number 52
_symmetry_cell_setting 'orthorhombic'
loop_
_space_group_symop_operation_xyz
x,y,z
1/2-x,-y,z
x,1/2-y,1/2-z
1/2-x,1/2+y,1/2-z
-x,-y,-z
1/2+x,y,-z
-x,1/2+y,1/2+z
1/2+x,1/2-y,1/2+z
loop_
_atom_site_type_symbol
_atom_site_label
_atom_site_fract_x
_atom_site_fract_y
_atom_site_fract_z
Si Si1 0.759278 0.596132 0.048010
Si Si2 0.768350 0.689775 0.081172
Si Si3 0.241101 0.453281 0.795077
Si Si4 0.731201 0.276116 0.907021
Si Si5 0.795541 0.191112 0.950867
Si Si6 0.734853 0.102650 0.948841
Si Si7 0.258986 0.546712 0.301736
O O1 0.743374 0.643004 0.065938
O O2 0.722424 0.571740 0.126820
O O3 0.529380 0.584210 0.989986
O O4 0.525952 0.705635 0.131594
O O5 0.025032 0.700577 0.129856
O O6 0.785653 0.714307 0.999941
O O7 0.250000 0.500000 0.817337
O O8 0.471207 0.441669 0.736902
O O9 0.971518 0.441647 0.756256
O O10 0.748654 0.228207 0.891328
O O11 0.755822 0.147481 0.911052
O O12 0.587431 0.194827 0.020263
O O13 0.776116 0.070503 0.881633
O O14 0.455832 0.096412 0.986590
O O15 0.250000 0.500000 0.323548
#
# Coordination Sequence:
#
# PCOD8214911 Si02
#       7
#     8   8   8   8   8   8   8
#     4  12  21  33  53  83 113 131 178 241 273 297
#     4  10  16  25  42  69 102 130 170 210 265 301
#     4  10  23  40  58  77 103 150 187 207 266 337
#     4  10  14  25  41  64 104 135 166 198 267 308
#     4  10  16  25  42  70 108 133 161 208 257 302
#     4  10  21  33  54  89 114 129 175 226 277 303
#     4  10  21  41  60  76 107 147 183 212 257 342
#
# _framework density 18.884857
#
# number of rings (size 3 to 8) (size 9 to 14) (size 15 to 20)
#    0.000    1.714    5.714    1.714    0.000    1.143 
#    0.000    0.000    0.000    0.000    0.000    6.000 
#    0.000    0.000    0.000    0.000    0.000    0.000 
#
# Total GULP energy -694151.264923 kJ/mol
# GULP energy per Si atom -12395.558302 kJ/mol
# Density = 1.884187 g / cm^3
# Si number density = 18.884857 Si / 1000 Ang^3
#
#
#
# Elastic Constant Matrix: (Units=GPa)
#
#
# Indices 1 2 3 4 5 6 
#
# 1 115.7982 18.2295 2.2548 0.0000 0.0000 0.0000
# 2 18.2295 79.4436 42.9852 0.0000 0.0000 0.0000
# 3 2.2548 42.9852 41.3174 0.0000 0.0000 0.0000
# 4 0.0000 0.0000 0.0000 -0.6919 0.0000 0.0000
# 5 0.0000 0.0000 0.0000 0.0000 16.2008 0.0000
# 6 0.0000 0.0000 0.0000 0.0000 0.0000 22.7155
#
#
#
# Elastic Compliance Matrix: (Units=1/GPa)
#
#
# Indices 1 2 3 4 5 6 
#
# 1 0.009224 -0.004220 0.003886 0.000000 0.000000 0.000000
# 2 -0.004220 0.030729 -0.031739 0.000000 0.000000 0.000000
# 3 0.003886 -0.031739 0.057011 0.000000 0.000000 0.000000
# 4 0.000000 0.000000 0.000000 -1.445214 0.000000 0.000000
# 5 0.000000 0.000000 0.000000 0.000000 0.061725 0.000000
# 6 0.000000 0.000000 0.000000 0.000000 0.000000 0.044023
#
#
# Mechanical properties :
#
#
# Convention : Reuss Voigt Hill
#
# Bulk Modulus (GPa) = 30.46924 40.38868 35.42896
# Shear Modulus (GPa) = -4.28296 19.18419 7.45061
#
# Velocity S-wave (km/s) = -1.50760 3.19070 1.98843
# Velocity P-wave (km/s) = 3.62474 5.91670 4.90643
#
# Compressibility (1/GPa) = 0.03281998
#
# Stress axis : x y z
#
# Youngs Moduli (GPa) = 108.40944 32.54235 17.54040
#
# Poissons Ratio (x) = 0.13731 -0.06817
# Poissons Ratio (y) = 0.45743 0.55672
# Poissons Ratio (z) = -0.42133 1.03287
#
# Static dielectric constant tensor:
#      x y z
#    x 5.451510 0.000000 0.000000 
#    y 0.000000 3.702350 0.000000 
#    z 0.000000 0.000000 2.778550 
# 
# 
# High freq. dielectric constant tensor:
#      x y z
#    x 1.772430 0.000000 0.000000 
#    y 0.000000 1.746670 0.000000 
#    z 0.000000 0.000000 1.658640 
# 
# From -- ./inp_files/23773.got.cif
#   From: 2010.06.25/outbox.cif.g09.slc.cpg/sg52_12_cif.got.tgz:23773.got - 2010.06.26 19:32:48.
