data_PCOD8214903
_publ_section_title
;
Structure prediction by ZEFSAII (Michael W. Deem and Ramdas Pophale) SiO2 
 PCOD8214903
Probable space group: P M M A
;
_chemical_formula_sum "Si O2"
_cell_formula_units_Z 64
_cell_length_a 18.000000
_cell_length_b 15.000000
_cell_length_c 12.000000
_cell_angle_alpha 90.000000
_cell_angle_beta 90.000000
_cell_angle_gamma 90.000000
_cell_volume 3240.000000
_symmetry_space_group_name_H-M "P M M A"
_symmetry_group_IT_number 51
_symmetry_cell_setting 'orthorhombic'
loop_
_space_group_symop_operation_xyz
x,y,z
1/2-x,-y,z
1/2+x,-y,-z
-x,y,-z
-x,-y,-z
1/2+x,y,-z
1/2-x,y,z
x,-y,z
loop_
_atom_site_type_symbol
_atom_site_label
_atom_site_fract_x
_atom_site_fract_y
_atom_site_fract_z
Si Si1 0.832414 0.728673 0.863085
Si Si2 0.411718 0.292046 0.508925
Si Si3 0.914803 0.602916 0.707874
Si Si4 0.909191 0.602606 0.277720
Si Si5 0.550585 0.101418 0.105872
Si Si6 0.408049 0.098323 0.227165
Si Si7 0.587233 0.096819 0.515889
Si Si8 0.165985 0.257152 0.880774
O O1 0.750000 0.726246 0.811920
O O2 0.879105 0.646117 0.816560
O O3 0.865473 0.826405 0.840809
O O4 0.830902 0.711507 0.993239
O O5 0.500000 0.288122 0.500000
O O6 0.384314 0.336627 0.394046
O O7 0.381863 0.356163 0.605487
O O8 0.381259 0.190481 0.534148
O O9 0.890193 0.500000 0.691715
O O10 0.002411 0.608639 0.725604
O O11 0.882434 0.500000 0.267924
O O12 0.873637 0.661190 0.180987
O O13 0.497032 0.109932 0.213163
O O14 0.620031 0.165365 0.128991
O O15 0.579962 0.000000 0.090555
O O16 0.500000 0.130412 0.000000
O O17 0.390027 0.105226 0.355978
O O18 0.384704 0.000000 0.180572
O O19 0.500000 0.093312 0.500000
O O20 0.619372 0.000000 0.470184
O O21 0.250000 0.241259 0.835291
#
# Coordination Sequence:
#
# PCOD8214903 Si02
#       8
#     8   8   8   8   8   8   8   8
#     4  11  23  38  54  79 117 156 192 240 297 356
#     4   9  17  32  58  87 118 148 183 243 298 348
#     4  10  20  36  60  88 112 142 190 251 307 351
#     4  10  22  39  62  87 113 152 202 249 296 356
#     4  10  20  35  60  89 116 148 193 243 285 337
#     4  10  19  34  57  87 117 150 193 239 284 341
#     4   9  17  28  50  88 122 148 180 226 291 352
#     4  11  25  40  58  83 120 164 199 241 299 357
#
# _framework density 19.753086
#
# number of rings (size 3 to 8) (size 9 to 14) (size 15 to 20)
#    0.000    2.000    2.500    1.125    3.500    3.000 
#    0.000    4.375    0.000    1.500    0.000    0.000 
#    0.000    0.000    0.000    0.000    0.000    0.000 
#
# Total GULP energy -793094.318672 kJ/mol
# GULP energy per Si atom -12392.098729 kJ/mol
# Density = 1.970813 g / cm^3
# Si number density = 19.753086 Si / 1000 Ang^3
#
#
#
# Elastic Constant Matrix: (Units=GPa)
#
#
# Indices 1 2 3 4 5 6 
#
# 1 54.0670 54.9893 23.8603 0.0000 0.0000 0.0000
# 2 54.9893 203.1004 45.3098 0.0000 0.0000 0.0000
# 3 23.8603 45.3098 56.5244 0.0000 0.0000 0.0000
# 4 0.0000 0.0000 0.0000 34.9868 0.0000 0.0000
# 5 0.0000 0.0000 0.0000 0.0000 7.3698 0.0000
# 6 0.0000 0.0000 0.0000 0.0000 0.0000 15.3830
#
#
#
# Elastic Compliance Matrix: (Units=1/GPa)
#
#
# Indices 1 2 3 4 5 6 
#
# 1 0.027561 -0.005926 -0.006883 0.000000 0.000000 0.000000
# 2 -0.005926 0.007270 -0.003326 0.000000 0.000000 0.000000
# 3 -0.006883 -0.003326 0.023263 0.000000 0.000000 0.000000
# 4 0.000000 0.000000 0.000000 0.028582 0.000000 0.000000
# 5 0.000000 0.000000 0.000000 0.000000 0.135690 0.000000
# 6 0.000000 0.000000 0.000000 0.000000 0.000000 0.065007
#
#
# Mechanical properties :
#
#
# Convention : Reuss Voigt Hill
#
# Bulk Modulus (GPa) = 38.72606 62.44562 50.58584
# Shear Modulus (GPa) = 15.23217 24.18340 19.70779
#
# Velocity S-wave (km/s) = 2.77993 3.50277 3.16208
# Velocity P-wave (km/s) = 5.47281 6.93116 6.24470
#
# Compressibility (1/GPa) = 0.02582241
#
# Stress axis : x y z
#
# Youngs Moduli (GPa) = 36.28336 137.54606 42.98605
#
# Poissons Ratio (x) = 0.81516 0.29589
# Poissons Ratio (y) = 0.21503 0.14298
# Poissons Ratio (z) = 0.24975 0.45750
#
# Static dielectric constant tensor:
#      x y z
#    x 3.332080 0.000000 0.000000 
#    y 0.000000 4.080200 0.000000 
#    z 0.000000 0.000000 3.663730 
# 
# 
# High freq. dielectric constant tensor:
#      x y z
#    x 1.727780 0.000000 0.000000 
#    y 0.000000 1.797370 0.000000 
#    z 0.000000 0.000000 1.765960 
# 
# From -- ./inp_files/17595.got.cif
#   From: 2010.03.12/outbox.ucp.g09.slc.cvg/sg51_9_cif.got.tgz:17595.got - 2010.05.04 19:16:16.
