data_PCOD8214572
_publ_section_title
;
Structure prediction by ZEFSAII (Michael W. Deem and Ramdas Pophale) SiO2 
 PCOD8214572
Probable space group: P M M A
;
_chemical_formula_sum "Si O2"
_cell_formula_units_Z 56
_cell_length_a 14.935700
_cell_length_b 8.928076
_cell_length_c 21.690504
_cell_angle_alpha 90.000000
_cell_angle_beta 90.000000
_cell_angle_gamma 90.000000
_cell_volume 2892.365041
_symmetry_space_group_name_H-M "P M M A"
_symmetry_group_IT_number 51
_symmetry_cell_setting 'orthorhombic'
loop_
_space_group_symop_operation_xyz
x,y,z
1/2-x,-y,z
1/2+x,-y,-z
-x,y,-z
-x,-y,-z
1/2+x,y,-z
1/2-x,y,z
x,-y,z
loop_
_atom_site_type_symbol
_atom_site_label
_atom_site_fract_x
_atom_site_fract_y
_atom_site_fract_z
Si Si1 0.486783 0.323102 0.225968
Si Si2 0.890303 0.328261 0.566271
Si Si3 0.147995 0.822620 0.990617
Si Si4 0.650099 0.168234 0.687098
Si Si5 0.988546 0.822552 0.905353
Si Si6 0.152160 0.322944 0.697567
Si Si7 0.100780 0.329742 0.567995
O O1 0.488830 0.500000 0.218147
O O2 0.406817 0.279679 0.271167
O O3 0.472627 0.250710 0.160073
O O4 0.578908 0.258894 0.255250
O O5 0.857149 0.500000 0.572679
O O6 0.843666 0.225677 0.616936
O O7 0.868239 0.260467 0.497859
O O8 0.995445 0.320929 0.577000
O O9 0.250000 0.754731 0.987172
O O10 0.084950 0.770363 0.933400
O O11 0.155359 0.000000 0.990142
O O12 0.095314 0.770760 0.052184
O O13 0.750000 0.167130 0.714331
O O14 0.609782 0.000000 0.688593
O O15 0.987872 0.000000 0.898672
O O16 0.250000 0.283367 0.724242
O O17 0.136753 0.500000 0.691340
O O18 0.143483 0.251542 0.628616
O O19 0.133105 0.500000 0.564864
#
# Coordination Sequence:
#
# PCOD8214572 Si02
#       7
#     8   8   8   8   8   8   8
#     4  11  22  37  56  78 109 146 182 223 267 316
#     4   9  16  30  54  80 102 129 172 224 276 329
#     4   8  15  31  56  83 110 142 178 213 252 305
#     4  11  24  39  54  74 103 141 183 227 277 329
#     4   9  18  33  55  82 109 140 179 218 256 304
#     4   9  17  30  50  76 104 137 178 220 264 318
#     4   8  14  27  50  79 105 130 168 219 271 324
#
# _framework density 19.361319000000002
#
# number of rings (size 3 to 8) (size 9 to 14) (size 15 to 20)
#    0.000    2.714    1.429    2.571    0.000    2.857 
#    0.000    5.714    0.000    2.143    0.000    0.000 
#    0.000    0.000    0.000    0.000    0.000    0.000 
#
# Total GULP energy -693898.306885 kJ/mol
# GULP energy per Si atom -12391.041194 kJ/mol
# Density = 1.931725 g / cm^3
# Si number density = 19.361319 Si / 1000 Ang^3
#
#
#
# Elastic Constant Matrix: (Units=GPa)
#
#
# Indices 1 2 3 4 5 6 
#
# 1 104.9605 11.8560 28.5547 0.0000 0.0000 0.0000
# 2 11.8560 28.1982 15.8736 0.0000 0.0000 0.0000
# 3 28.5547 15.8736 102.0798 0.0000 0.0000 0.0000
# 4 0.0000 0.0000 0.0000 20.7102 0.0000 0.0000
# 5 0.0000 0.0000 0.0000 0.0000 4.3211 0.0000
# 6 0.0000 0.0000 0.0000 0.0000 0.0000 14.7366
#
#
#
# Elastic Compliance Matrix: (Units=1/GPa)
#
#
# Indices 1 2 3 4 5 6 
#
# 1 0.010545 -0.003039 -0.002477 0.000000 0.000000 0.000000
# 2 -0.003039 0.039741 -0.005330 0.000000 0.000000 0.000000
# 3 -0.002477 -0.005330 0.011318 0.000000 0.000000 0.000000
# 4 0.000000 0.000000 0.000000 0.048285 0.000000 0.000000
# 5 0.000000 0.000000 0.000000 0.000000 0.231422 0.000000
# 6 0.000000 0.000000 0.000000 0.000000 0.000000 0.067858
#
#
# Mechanical properties :
#
#
# Convention : Reuss Voigt Hill
#
# Bulk Modulus (GPa) = 25.05503 38.64523 31.85013
# Shear Modulus (GPa) = 11.25708 19.88387 15.57048
#
# Velocity S-wave (km/s) = 2.41388 3.20814 2.83893
# Velocity P-wave (km/s) = 4.55390 5.80743 5.21844
#
# Compressibility (1/GPa) = 0.03991214
#
# Stress axis : x y z
#
# Youngs Moduli (GPa) = 94.83557 25.16268 88.35527
#
# Poissons Ratio (x) = 0.07647 0.21886
# Poissons Ratio (y) = 0.28821 0.47091
# Poissons Ratio (z) = 0.23491 0.13411
#
# Static dielectric constant tensor:
#      x y z
#    x 3.697310 0.000000 0.000000 
#    y 0.000000 3.050580 0.000000 
#    z 0.000000 0.000000 3.677140 
# 
# 
# High freq. dielectric constant tensor:
#      x y z
#    x 1.760370 0.000000 0.000000 
#    y 0.000000 1.697750 0.000000 
#    z 0.000000 0.000000 1.758050 
# 
# From -- ./inp_files/33285.got.cif
#   From: 2010.03.12/outbox.cif.g09.slc.cpg/sg51_17_cif.got.tgz:33285.got - 2010.04.16 13:43:02.
