data_PCOD8214058
_publ_section_title
;
Structure prediction by ZEFSAII (Michael W. Deem and Ramdas Pophale) SiO2 
 PCOD8214058
Probable space group: P M M A
;
_chemical_formula_sum "Si O2"
_cell_formula_units_Z 48
_cell_length_a 15.397551
_cell_length_b 8.970055
_cell_length_c 17.089133
_cell_angle_alpha 90.000000
_cell_angle_beta 90.000000
_cell_angle_gamma 90.000000
_cell_volume 2360.297721
_symmetry_space_group_name_H-M "P M M A"
_symmetry_group_IT_number 51
_symmetry_cell_setting 'orthorhombic'
loop_
_space_group_symop_operation_xyz
x,y,z
1/2-x,-y,z
1/2+x,-y,-z
-x,y,-z
-x,-y,-z
1/2+x,y,-z
1/2-x,y,z
x,-y,z
loop_
_atom_site_type_symbol
_atom_site_label
_atom_site_fract_x
_atom_site_fract_y
_atom_site_fract_z
Si Si1 0.903621 0.324703 0.839532
Si Si2 0.396706 0.835051 0.007113
Si Si3 0.347444 0.170863 0.673067
Si Si4 0.847419 0.828997 0.687840
Si Si5 0.585720 0.827876 0.160449
Si Si6 0.495969 0.674463 0.409615
O O1 0.895407 0.500000 0.832285
O O2 0.865956 0.275666 0.924385
O O3 0.847113 0.250611 0.771704
O O4 0.002768 0.276541 0.827335
O O5 0.362255 0.000000 0.028363
O O6 0.500000 0.833455 0.000000
O O7 0.363216 0.785859 0.920386
O O8 0.250000 0.210457 0.645493
O O9 0.350946 0.195873 0.766523
O O10 0.414001 0.277661 0.629539
O O11 0.370485 0.000000 0.652561
O O12 0.750000 0.816192 0.653154
O O13 0.913721 0.755461 0.627644
O O14 0.875455 0.000000 0.699356
O O15 0.553751 0.000000 0.154298
O O16 0.500000 0.718579 0.500000
O O17 0.483317 0.500000 0.396570
#
# Coordination Sequence:
#
# PCOD8214058 Si02
#       6
#     8   8   8   8   8   8
#     4  11  20  31  53  84 119 158 200 247 303 357
#     4   8  15  28  48  76 112 157 206 248 290 343
#     4  10  21  38  63  93 123 159 203 247 292 348
#     4  11  24  42  65  91 119 156 203 251 299 355
#     4   9  17  32  54  80 116 160 205 250 295 345
#     4  11  25  44  66  93 124 157 191 236 301 367
#
# _framework density 20.336417000000001
#
# number of rings (size 3 to 8) (size 9 to 14) (size 15 to 20)
#    0.000    2.000    1.667    3.500    0.000    6.667 
#    0.000    4.167    0.000    3.000    0.000    0.000 
#    0.000    0.000    0.000    0.000    0.000    0.000 
#
# Total GULP energy -595114.571798 kJ/mol
# GULP energy per Si atom -12398.220246 kJ/mol
# Density = 2.029013 g / cm^3
# Si number density = 20.336417 Si / 1000 Ang^3
#
#
#
# Elastic Constant Matrix: (Units=GPa)
#
#
# Indices 1 2 3 4 5 6 
#
# 1 89.3370 44.2442 50.8418 0.0000 0.0000 0.0000
# 2 44.2442 122.4610 71.5314 0.0000 0.0000 0.0000
# 3 50.8418 71.5314 144.2523 0.0000 0.0000 0.0000
# 4 0.0000 0.0000 0.0000 32.3053 0.0000 0.0000
# 5 0.0000 0.0000 0.0000 0.0000 2.6533 0.0000
# 6 0.0000 0.0000 0.0000 0.0000 0.0000 8.7228
#
#
#
# Elastic Compliance Matrix: (Units=1/GPa)
#
#
# Indices 1 2 3 4 5 6 
#
# 1 0.014869 -0.003253 -0.003627 0.000000 0.000000 0.000000
# 2 -0.003253 0.012207 -0.004907 0.000000 0.000000 0.000000
# 3 -0.003627 -0.004907 0.010644 0.000000 0.000000 0.000000
# 4 0.000000 0.000000 0.000000 0.030955 0.000000 0.000000
# 5 0.000000 0.000000 0.000000 0.000000 0.376885 0.000000
# 6 0.000000 0.000000 0.000000 0.000000 0.000000 0.114641
#
#
# Mechanical properties :
#
#
# Convention : Reuss Voigt Hill
#
# Bulk Modulus (GPa) = 70.69353 76.58726 73.64040
# Shear Modulus (GPa) = 8.49630 21.36517 14.93073
#
# Velocity S-wave (km/s) = 2.04620 3.24479 2.71253
# Velocity P-wave (km/s) = 6.35768 7.19584 6.78971
#
# Compressibility (1/GPa) = 0.01414557
#
# Stress axis : x y z
#
# Youngs Moduli (GPa) = 67.25354 81.91793 93.95047
#
# Poissons Ratio (x) = 0.26650 0.34080
# Poissons Ratio (y) = 0.21879 0.46099
# Poissons Ratio (z) = 0.24396 0.40195
#
# Static dielectric constant tensor:
#      x y z
#    x 3.393760 0.000000 0.000000 
#    y 0.000000 3.602740 0.000000 
#    z 0.000000 0.000000 4.038890 
# 
# 
# High freq. dielectric constant tensor:
#      x y z
#    x 1.774910 0.000000 0.000000 
#    y 0.000000 1.786250 0.000000 
#    z 0.000000 0.000000 1.804850 
# 
# From -- ./inp_files/29433.got.cif
#   From: 2010.03.12/outbox.cif.g09.slc.cpg/sg51_15_cif.got.tgz:29433.got - 2010.04.16 13:43:02.
