data_PCOD8214262
_publ_section_title
;
Structure prediction by ZEFSAII (Michael W. Deem and Ramdas Pophale) SiO2 
 PCOD8214262
Probable space group: P M M A
;
_chemical_formula_sum "Si O2"
_cell_formula_units_Z 56
_cell_length_a 20.519432
_cell_length_b 14.919442
_cell_length_c 9.349836
_cell_angle_alpha 90.000000
_cell_angle_beta 90.000000
_cell_angle_gamma 90.000000
_cell_volume 2862.344540
_symmetry_space_group_name_H-M "P M M A"
_symmetry_group_IT_number 51
_symmetry_cell_setting 'orthorhombic'
loop_
_space_group_symop_operation_xyz
x,y,z
1/2-x,-y,z
1/2+x,-y,-z
-x,y,-z
-x,-y,-z
1/2+x,y,-z
1/2-x,y,z
x,-y,z
loop_
_atom_site_type_symbol
_atom_site_label
_atom_site_fract_x
_atom_site_fract_y
_atom_site_fract_z
Si Si1 0.375954 0.288338 0.720756
Si Si2 0.896904 0.719067 0.744905
Si Si3 0.487241 0.599461 0.834317
Si Si4 0.674414 0.194070 0.006927
Si Si5 0.175858 0.401513 0.470471
Si Si6 0.170412 0.000000 0.589019
Si Si7 0.073970 0.151853 0.501241
Si Si8 0.326823 0.000000 0.917508
O O1 0.415924 0.361053 0.810069
O O2 0.333053 0.230854 0.831610
O O3 0.330199 0.343232 0.613892
O O4 0.423579 0.224813 0.628140
O O5 0.848380 0.651954 0.667006
O O6 0.911940 0.806546 0.653036
O O7 0.963328 0.665788 0.759611
O O8 0.868096 0.748538 0.897306
O O9 0.492174 0.500000 0.766356
O O10 0.500000 0.593617 0.000000
O O11 0.750000 0.199309 0.962728
O O12 0.648673 0.090589 0.004003
O O13 0.250000 0.419063 0.439933
O O14 0.141431 0.500000 0.484546
O O15 0.134539 0.915422 0.519143
O O16 0.250000 0.000000 0.562726
O O17 0.150246 0.000000 0.754139
O O18 0.000000 0.110324 0.500000
O O19 0.250000 0.000000 0.917240
#
# Coordination Sequence:
#
# PCOD8214262 Si02
#       8
#     8   8   8   8   8   4   8   4
#     4  11  21  38  64  89 118 162 212 251 306 370
#     4  11  23  39  62  90 123 162 204 254 323 373
#     4  11  22  38  62  90 122 159 207 260 308 367
#     4  11  22  39  63  91 125 160 206 261 310 378
#     4  10  22  39  57  85 125 162 201 252 311 377
#     4  11  23  40  65  93 126 169 215 257 310 377
#     4  11  23  40  64  93 129 167 205 262 313 372
#     4   9  20  38  61  89 118 157 203 255 306 361
#
# _framework density 19.56438
#
# number of rings (size 3 to 8) (size 9 to 14) (size 15 to 20)
#    0.000    1.286    4.286    1.929    0.000    3.429 
#    0.000    2.857    0.000    5.143    0.000    0.000 
#    0.000    0.000    0.000    0.000    0.000    0.000 
#
# Total GULP energy -694203.963686 kJ/mol
# GULP energy per Si atom -12396.499352 kJ/mol
# Density = 1.951985 g / cm^3
# Si number density = 19.564380 Si / 1000 Ang^3
#
#
#
# Elastic Constant Matrix: (Units=GPa)
#
#
# Indices 1 2 3 4 5 6 
#
# 1 85.1998 31.1339 11.4505 0.0000 0.0000 0.0000
# 2 31.1339 121.9890 33.3118 0.0000 0.0000 0.0000
# 3 11.4505 33.3118 77.9933 0.0000 0.0000 0.0000
# 4 0.0000 0.0000 0.0000 28.6390 0.0000 0.0000
# 5 0.0000 0.0000 0.0000 0.0000 22.3541 0.0000
# 6 0.0000 0.0000 0.0000 0.0000 0.0000 30.9990
#
#
#
# Elastic Compliance Matrix: (Units=1/GPa)
#
#
# Indices 1 2 3 4 5 6 
#
# 1 0.012966 -0.003158 -0.000555 0.000000 0.000000 0.000000
# 2 -0.003158 0.010049 -0.003828 0.000000 0.000000 0.000000
# 3 -0.000555 -0.003828 0.014538 0.000000 0.000000 0.000000
# 4 0.000000 0.000000 0.000000 0.034917 0.000000 0.000000
# 5 0.000000 0.000000 0.000000 0.000000 0.044735 0.000000
# 6 0.000000 0.000000 0.000000 0.000000 0.000000 0.032259
#
#
# Mechanical properties :
#
#
# Convention : Reuss Voigt Hill
#
# Bulk Modulus (GPa) = 44.50201 48.55274 46.52737
# Shear Modulus (GPa) = 29.06377 30.35079 29.70728
#
# Velocity S-wave (km/s) = 3.85846 3.94296 3.90094
# Velocity P-wave (km/s) = 6.53040 6.75278 6.64252
#
# Compressibility (1/GPa) = 0.02247090
#
# Stress axis : x y z
#
# Youngs Moduli (GPa) = 77.12762 99.51494 68.78421
#
# Poissons Ratio (x) = 0.31422 0.03817
# Poissons Ratio (y) = 0.24353 0.26333
# Poissons Ratio (z) = 0.04280 0.38098
#
# Static dielectric constant tensor:
#      x y z
#    x 3.289450 0.000000 0.000000 
#    y 0.000000 4.047260 0.000000 
#    z 0.000000 0.000000 3.498260 
# 
# 
# High freq. dielectric constant tensor:
#      x y z
#    x 1.756020 0.000000 0.000000 
#    y 0.000000 1.776800 0.000000 
#    z 0.000000 0.000000 1.761620 
# 
# From -- ./inp_files/11070.got.cif
#   From: 2010.03.12/outbox.cif.g09.slc.cpg/sg51_6_cif.got.tgz:11070.got - 2010.04.16 13:43:02.
