data_PCOD8214507
_publ_section_title
;
Structure prediction by ZEFSAII (Michael W. Deem and Ramdas Pophale) SiO2 
 PCOD8214507
Probable space group: P M M A
;
_chemical_formula_sum "Si O2"
_cell_formula_units_Z 40
_cell_length_a 15.001187
_cell_length_b 13.107118
_cell_length_c 10.159597
_cell_angle_alpha 90.000000
_cell_angle_beta 90.000000
_cell_angle_gamma 90.000000
_cell_volume 1997.603615
_symmetry_space_group_name_H-M "P M M A"
_symmetry_group_IT_number 51
_symmetry_cell_setting 'orthorhombic'
loop_
_space_group_symop_operation_xyz
x,y,z
1/2-x,-y,z
1/2+x,-y,-z
-x,y,-z
-x,-y,-z
1/2+x,y,-z
1/2-x,y,z
x,-y,z
loop_
_atom_site_type_symbol
_atom_site_label
_atom_site_fract_x
_atom_site_fract_y
_atom_site_fract_z
Si Si1 0.396846 0.382231 0.499435
Si Si2 0.649993 0.253383 0.258414
Si Si3 0.644271 0.385467 0.013284
Si Si4 0.851492 0.272093 0.754184
Si Si5 0.995230 0.117961 0.655507
O O1 0.500000 0.349446 0.500000
O O2 0.383670 0.500000 0.531937
O O3 0.345351 0.319505 0.609647
O O4 0.354748 0.357799 0.358521
O O5 0.750000 0.213742 0.226971
O O6 0.611937 0.324513 0.141922
O O7 0.585845 0.156647 0.276116
O O8 0.750000 0.393097 0.009728
O O9 0.603470 0.500000 0.015581
O O10 0.609553 0.324389 0.885737
O O11 0.750000 0.234737 0.774627
O O12 0.909897 0.174597 0.715472
O O13 0.000000 0.137430 0.500000
O O14 0.984170 0.000000 0.689836
#
# Coordination Sequence:
#
# PCOD8214507 Si02
#       5
#     8   8   8   8   8
#     4  11  21  35  57  87 123 156 195 242 288 350
#     4  11  21  39  62  87 119 156 199 241 293 352
#     4   9  20  37  59  90 127 161 192 232 286 354
#     4  11  21  39  62  87 119 156 199 241 293 352
#     4  11  24  43  62  87 119 149 199 261 308 349
#
# _framework density 20.023992
#
# number of rings (size 3 to 8) (size 9 to 14) (size 15 to 20)
#    0.000    1.400    4.000    1.800    0.000    4.800 
#    0.000    5.000    0.000    3.600    0.000    0.000 
#    0.000    0.000    0.000    0.000    0.000    0.000 
#
# Total GULP energy -496147.319802 kJ/mol
# GULP energy per Si atom -12403.682995 kJ/mol
# Density = 1.997842 g / cm^3
# Si number density = 20.023992 Si / 1000 Ang^3
#
#
#
# Elastic Constant Matrix: (Units=GPa)
#
#
# Indices 1 2 3 4 5 6 
#
# 1 98.4177 46.1095 15.3548 0.0000 0.0000 0.0000
# 2 46.1095 131.8219 42.4363 0.0000 0.0000 0.0000
# 3 15.3548 42.4363 122.6414 0.0000 0.0000 0.0000
# 4 0.0000 0.0000 0.0000 31.8379 0.0000 0.0000
# 5 0.0000 0.0000 0.0000 0.0000 9.1674 0.0000
# 6 0.0000 0.0000 0.0000 0.0000 0.0000 -1.0030
#
#
#
# Elastic Compliance Matrix: (Units=1/GPa)
#
#
# Indices 1 2 3 4 5 6 
#
# 1 0.012153 -0.004232 -0.000057 0.000000 0.000000 0.000000
# 2 -0.004232 0.010011 -0.002934 0.000000 0.000000 0.000000
# 3 -0.000057 -0.002934 0.009176 0.000000 0.000000 0.000000
# 4 0.000000 0.000000 0.000000 0.031409 0.000000 0.000000
# 5 0.000000 0.000000 0.000000 0.000000 0.109082 0.000000
# 6 0.000000 0.000000 0.000000 0.000000 0.000000 -0.997015
#
#
# Mechanical properties :
#
#
# Convention : Reuss Voigt Hill
#
# Bulk Modulus (GPa) = 59.19705 62.29802 60.74753
# Shear Modulus (GPa) = -6.21036 24.59915 9.19439
#
# Velocity S-wave (km/s) = -1.76301 3.50878 2.14515
# Velocity P-wave (km/s) = 5.04807 6.89888 6.04473
#
# Compressibility (1/GPa) = 0.01689273
#
# Stress axis : x y z
#
# Youngs Moduli (GPa) = 82.28685 99.89013 108.97709
#
# Poissons Ratio (x) = 0.42278 0.00621
# Poissons Ratio (y) = 0.34828 0.31975
# Poissons Ratio (z) = 0.00469 0.29309
#
# Static dielectric constant tensor:
#      x y z
#    x 3.607660 0.000000 0.000000 
#    y 0.000000 3.512660 0.000000 
#    z 0.000000 0.000000 3.766680 
# 
# 
# High freq. dielectric constant tensor:
#      x y z
#    x 1.784060 0.000000 0.000000 
#    y 0.000000 1.767900 0.000000 
#    z 0.000000 0.000000 1.787780 
# 
# From -- ./inp_files/7901.got.cif
#   From: 2010.03.12/outbox.cif.g09.slc.cpg/sg51_4_cif.got.tgz:7901.got - 2010.04.16 13:43:02.
