data_PCOD8214750
_publ_section_title
;
Structure prediction by ZEFSAII (Michael W. Deem and Ramdas Pophale) SiO2 
 PCOD8214750
Probable space group: P M M A
;
_chemical_formula_sum "Si O2"
_cell_formula_units_Z 48
_cell_length_a 18.408166
_cell_length_b 9.468911
_cell_length_c 16.530974
_cell_angle_alpha 90.000000
_cell_angle_beta 90.000000
_cell_angle_gamma 90.000000
_cell_volume 2881.436143
_symmetry_space_group_name_H-M "P M M A"
_symmetry_group_IT_number 51
_symmetry_cell_setting 'orthorhombic'
loop_
_space_group_symop_operation_xyz
x,y,z
1/2-x,-y,z
1/2+x,-y,-z
-x,y,-z
-x,-y,-z
1/2+x,y,-z
1/2-x,y,z
x,-y,z
loop_
_atom_site_type_symbol
_atom_site_label
_atom_site_fract_x
_atom_site_fract_y
_atom_site_fract_z
Si Si1 0.393625 0.163345 0.814050
Si Si2 0.542693 0.163756 0.730302
Si Si3 0.831175 0.662984 0.327591
Si Si4 0.977654 0.665169 0.410963
Si Si5 0.668625 0.832707 0.021260
Si Si6 0.168287 0.168049 0.156386
O O1 0.477311 0.186574 0.792942
O O2 0.341789 0.247621 0.753422
O O3 0.382676 0.220700 0.905720
O O4 0.370694 0.000000 0.807161
O O5 0.530414 0.252451 0.649540
O O6 0.614160 0.225121 0.774690
O O7 0.550650 0.000000 0.705985
O O8 0.750000 0.693278 0.362637
O O9 0.839630 0.500000 0.303409
O O10 0.892727 0.703181 0.394106
O O11 0.992359 0.500000 0.399450
O O12 0.000000 0.715823 0.500000
O O13 0.750000 0.780532 0.040172
O O14 0.666326 0.000000 0.016790
O O15 0.644446 0.774588 0.932780
O O16 0.250000 0.218965 0.176758
O O17 0.164221 0.000000 0.155757
#
# Coordination Sequence:
#
# PCOD8214750 Si02
#       6
#     8   8   8   8   8   8
#     4   9  16  25  40  64  90 113 140 176 213 246
#     4   9  17  28  44  66  87 109 140 177 215 252
#     4   9  17  29  45  64  86 112 140 169 205 253
#     4   9  18  33  50  65  84 111 139 169 210 258
#     4   8  13  21  35  57  85 116 146 174 205 241
#     4   8  14  25  40  59  86 118 148 177 209 245
#
# _framework density 16.658359000000001
#
# number of rings (size 3 to 8) (size 9 to 14) (size 15 to 20)
#    0.000    3.333    0.000    1.500    0.000    2.000 
#    0.000    4.167    0.000    2.500    0.000    7.000 
#    0.000    0.000    0.000    0.000    0.000    0.000 
#
# Total GULP energy -594850.314819 kJ/mol
# GULP energy per Si atom -12392.714892 kJ/mol
# Density = 1.662044 g / cm^3
# Si number density = 16.658359 Si / 1000 Ang^3
#
#
#
# Elastic Constant Matrix: (Units=GPa)
#
#
# Indices 1 2 3 4 5 6 
#
# 1 106.9939 29.2080 87.3741 0.0000 0.0000 0.0000
# 2 29.2080 27.4100 38.4878 0.0000 0.0000 0.0000
# 3 87.3741 38.4878 154.0795 0.0000 0.0000 0.0000
# 4 0.0000 0.0000 0.0000 9.8417 0.0000 0.0000
# 5 0.0000 0.0000 0.0000 0.0000 24.2157 0.0000
# 6 0.0000 0.0000 0.0000 0.0000 0.0000 14.3994
#
#
#
# Elastic Compliance Matrix: (Units=1/GPa)
#
#
# Indices 1 2 3 4 5 6 
#
# 1 0.018388 -0.007628 -0.008522 0.000000 0.000000 0.000000
# 2 -0.007628 0.059357 -0.010501 0.000000 0.000000 0.000000
# 3 -0.008522 -0.010501 0.013946 0.000000 0.000000 0.000000
# 4 0.000000 0.000000 0.000000 0.101609 0.000000 0.000000
# 5 0.000000 0.000000 0.000000 0.000000 0.041296 0.000000
# 6 0.000000 0.000000 0.000000 0.000000 0.000000 0.069447
#
#
# Mechanical properties :
#
#
# Convention : Reuss Voigt Hill
#
# Bulk Modulus (GPa) = 26.04963 66.51368 46.28166
# Shear Modulus (GPa) = 13.50840 18.58559 16.04699
#
# Velocity S-wave (km/s) = 2.85073 3.34382 3.10707
# Velocity P-wave (km/s) = 5.14850 7.41100 6.38083
#
# Compressibility (1/GPa) = 0.03838826
#
# Stress axis : x y z
#
# Youngs Moduli (GPa) = 54.38382 16.84724 71.70668
#
# Poissons Ratio (x) = 0.12851 0.61107
# Poissons Ratio (y) = 0.41485 0.75300
# Poissons Ratio (z) = 0.46345 0.17692
#
# Static dielectric constant tensor:
#      x y z
#    x 3.289150 0.000000 0.000000 
#    y 0.000000 2.812160 0.000000 
#    z 0.000000 0.000000 3.264130 
# 
# 
# High freq. dielectric constant tensor:
#      x y z
#    x 1.641860 0.000000 0.000000 
#    y 0.000000 1.601750 0.000000 
#    z 0.000000 0.000000 1.635860 
# 
# From -- ./inp_files/30040.got.cif
#   From: 2010.03.12/outbox.cif.g09.slc.cpg/sg51_16_cif.got.tgz:30040.got - 2010.04.16 13:43:02.
