data_PCOD8214001
_publ_section_title
;
Structure prediction by ZEFSAII (Michael W. Deem and Ramdas Pophale) SiO2 
 PCOD8214001
Probable space group: P M M A
;
_chemical_formula_sum "Si O2"
_cell_formula_units_Z 48
_cell_length_a 8.743967
_cell_length_b 31.172012
_cell_length_c 9.200678
_cell_angle_alpha 90.000000
_cell_angle_beta 90.000000
_cell_angle_gamma 90.000000
_cell_volume 2507.801608
_symmetry_space_group_name_H-M "P M M A"
_symmetry_group_IT_number 51
_symmetry_cell_setting 'orthorhombic'
loop_
_space_group_symop_operation_xyz
x,y,z
1/2-x,-y,z
1/2+x,-y,-z
-x,y,-z
-x,-y,-z
1/2+x,y,-z
1/2-x,y,z
x,-y,z
loop_
_atom_site_type_symbol
_atom_site_label
_atom_site_fract_x
_atom_site_fract_y
_atom_site_fract_z
Si Si1 0.430911 0.277517 0.839838
Si Si2 0.072769 0.881400 0.153045
Si Si3 0.070932 0.049445 0.651160
Si Si4 0.070644 0.545376 0.157811
Si Si5 0.431139 0.637008 0.160000
Si Si6 0.571520 0.798211 0.656987
O O1 0.250000 0.277871 0.852110
O O2 0.489266 0.322029 0.763893
O O3 0.483869 0.239190 0.739200
O O4 0.500000 0.271657 0.000000
O O5 0.250000 0.890611 0.130401
O O6 0.041832 0.842407 0.260874
O O7 0.996527 0.924264 0.215000
O O8 0.000000 0.869036 0.000000
O O9 0.250000 0.057116 0.642011
O O10 0.000000 0.065888 0.500000
O O11 0.028267 0.000000 0.678430
O O12 0.250000 0.546109 0.134420
O O13 0.023208 0.500000 0.238831
O O14 0.026691 0.590735 0.237396
O O15 0.000000 0.544807 0.000000
O O16 0.250000 0.644781 0.154789
O O17 0.500000 0.635050 0.000000
O O18 0.500000 0.803654 0.500000
O O19 0.750000 0.786857 0.647170
#
# Coordination Sequence:
#
# PCOD8214001 Si02
#       6
#     8   8   8   8   8   8
#     4  11  21  34  53  76 104 138 176 219 266 317
#     4  11  24  40  61  87 116 149 185 227 272 321
#     4  10  21  38  61  88 119 155 193 232 274 321
#     4   8  13  20  31  50  79 117 159 201 247 300
#     4   9  15  24  39  60  89 125 165 209 256 308
#     4  11  24  41  60  83 109 139 176 218 268 323
#
# _framework density 19.140270000000001
#
# number of rings (size 3 to 8) (size 9 to 14) (size 15 to 20)
#    0.000    2.000    0.000    5.500    0.000    7.333 
#    0.000    0.000    0.000    0.000    0.000    0.000 
#    0.000    0.667    0.000    1.833    0.000    8.500 
#
# Total GULP energy -594767.010977 kJ/mol
# GULP energy per Si atom -12390.979395 kJ/mol
# Density = 1.909671 g / cm^3
# Si number density = 19.140270 Si / 1000 Ang^3
#
#
#
# Elastic Constant Matrix: (Units=GPa)
#
#
# Indices 1 2 3 4 5 6 
#
# 1 118.0339 69.1572 45.7874 0.0000 0.0000 0.0000
# 2 69.1572 129.3140 42.2453 0.0000 0.0000 0.0000
# 3 45.7874 42.2453 77.2801 0.0000 0.0000 0.0000
# 4 0.0000 0.0000 0.0000 -11.9902 0.0000 0.0000
# 5 0.0000 0.0000 0.0000 0.0000 26.3576 0.0000
# 6 0.0000 0.0000 0.0000 0.0000 0.0000 -2.4602
#
#
#
# Elastic Compliance Matrix: (Units=1/GPa)
#
#
# Indices 1 2 3 4 5 6 
#
# 1 0.013779 -0.005724 -0.005035 0.000000 0.000000 0.000000
# 2 -0.005724 0.011792 -0.003055 0.000000 0.000000 0.000000
# 3 -0.005035 -0.003055 0.017593 0.000000 0.000000 0.000000
# 4 0.000000 0.000000 0.000000 -0.083402 0.000000 0.000000
# 5 0.000000 0.000000 0.000000 0.000000 0.037940 0.000000
# 6 0.000000 0.000000 0.000000 0.000000 0.000000 -0.406479
#
#
# Mechanical properties :
#
#
# Convention : Reuss Voigt Hill
#
# Bulk Modulus (GPa) = 64.36345 71.00085 67.68215
# Shear Modulus (GPa) = -13.29895 13.54401 0.12253
#
# Velocity S-wave (km/s) = -2.63879 2.66300 0.25329
# Velocity P-wave (km/s) = 4.94125 6.82868 5.96015
#
# Compressibility (1/GPa) = 0.01553677
#
# Stress axis : x y z
#
# Youngs Moduli (GPa) = 72.57357 84.80015 56.84126
#
# Poissons Ratio (x) = 0.48542 0.28618
# Poissons Ratio (y) = 0.41543 0.17364
# Poissons Ratio (z) = 0.36539 0.25905
#
# Static dielectric constant tensor:
#      x y z
#    x 3.772890 0.000000 0.000000 
#    y 0.000000 4.478260 0.000000 
#    z 0.000000 0.000000 3.068380 
# 
# 
# High freq. dielectric constant tensor:
#      x y z
#    x 1.760060 0.000000 0.000000 
#    y 0.000000 1.779050 0.000000 
#    z 0.000000 0.000000 1.690030 
# 
# From -- ./inp_files/6083.got.cif
#   From: 2010.03.12/outbox.cif.g09.slc.cpg/sg51_4_cif.got.tgz:6083.got - 2010.04.16 13:43:02.
