data_PCOD8214349
_publ_section_title
;
Structure prediction by ZEFSAII (Michael W. Deem and Ramdas Pophale) SiO2 
 PCOD8214349
Probable space group: P M M A
;
_chemical_formula_sum "Si O2"
_cell_formula_units_Z 32
_cell_length_a 9.625314
_cell_length_b 8.731963
_cell_length_c 18.289299
_cell_angle_alpha 90.000000
_cell_angle_beta 90.000000
_cell_angle_gamma 90.000000
_cell_volume 1537.176912
_symmetry_space_group_name_H-M "P M M A"
_symmetry_group_IT_number 51
_symmetry_cell_setting 'orthorhombic'
loop_
_space_group_symop_operation_xyz
x,y,z
1/2-x,-y,z
1/2+x,-y,-z
-x,y,-z
-x,-y,-z
1/2+x,y,-z
1/2-x,y,z
x,-y,z
loop_
_atom_site_type_symbol
_atom_site_label
_atom_site_fract_x
_atom_site_fract_y
_atom_site_fract_z
Si Si1 0.250000 0.180915 0.553659
Si Si2 0.911157 0.680055 0.929964
Si Si3 0.403805 0.176107 0.808032
Si Si4 0.968844 0.319271 0.341969
Si Si5 0.750000 0.180918 0.614982
O O1 0.387237 0.248636 0.589891
O O2 0.250000 0.230107 0.469431
O O3 0.250000 0.000000 0.563594
O O4 0.750000 0.728058 0.939956
O O5 0.925030 0.500000 0.916949
O O6 0.975302 0.764449 0.860522
O O7 0.000000 0.732428 0.000000
O O8 0.250000 0.194302 0.844242
O O9 0.399129 0.273093 0.734013
O O10 0.434695 0.000000 0.788978
O O11 0.968699 0.500000 0.350135
O O12 0.121943 0.252548 0.342556
O O13 0.750000 0.000000 0.624040
#
# Coordination Sequence:
#
# PCOD8214349 Si02
#       5
#     4   8   8   8   4
#     4  11  23  43  67  93 126 169 216 263 327 395
#     4  10  22  41  67  98 132 169 211 261 318 379
#     4  11  24  42  65  91 126 171 217 265 320 384
#     4  12  25  41  65  95 128 168 217 272 325 383
#     4  11  25  43  65  91 128 171 212 267 329 393
#
# _framework density 20.817383
#
# number of rings (size 3 to 8) (size 9 to 14) (size 15 to 20)
#    0.000    1.000    1.250    5.250    1.750    8.500 
#    0.000    0.000    0.000    0.000    0.000    0.000 
#    0.000    0.000    0.000    0.000    0.000    0.000 
#
# Total GULP energy -396982.237212 kJ/mol
# GULP energy per Si atom -12405.694913 kJ/mol
# Density = 2.077000 g / cm^3
# Si number density = 20.817383 Si / 1000 Ang^3
#
#
#
# Elastic Constant Matrix: (Units=GPa)
#
#
# Indices 1 2 3 4 5 6 
#
# 1 151.2962 36.7633 33.9549 0.0000 0.0000 0.0000
# 2 36.7633 94.4223 37.5454 0.0000 0.0000 0.0000
# 3 33.9549 37.5454 84.6921 0.0000 0.0000 0.0000
# 4 0.0000 0.0000 0.0000 36.5945 0.0000 0.0000
# 5 0.0000 0.0000 0.0000 0.0000 42.1889 0.0000
# 6 0.0000 0.0000 0.0000 0.0000 0.0000 37.7261
#
#
#
# Elastic Compliance Matrix: (Units=1/GPa)
#
#
# Indices 1 2 3 4 5 6 
#
# 1 0.007597 -0.002121 -0.002106 0.000000 0.000000 0.000000
# 2 -0.002121 0.013449 -0.005112 0.000000 0.000000 0.000000
# 3 -0.002106 -0.005112 0.014918 0.000000 0.000000 0.000000
# 4 0.000000 0.000000 0.000000 0.027327 0.000000 0.000000
# 5 0.000000 0.000000 0.000000 0.000000 0.023703 0.000000
# 6 0.000000 0.000000 0.000000 0.000000 0.000000 0.026507
#
#
# Mechanical properties :
#
#
# Convention : Reuss Voigt Hill
#
# Bulk Modulus (GPa) = 57.84526 60.77084 59.30805
# Shear Modulus (GPa) = 36.24754 38.11169 37.17961
#
# Velocity S-wave (km/s) = 4.17731 4.28338 4.23068
# Velocity P-wave (km/s) = 7.14940 7.32932 7.23992
#
# Compressibility (1/GPa) = 0.01728750
#
# Stress axis : x y z
#
# Youngs Moduli (GPa) = 131.62272 74.35437 67.03324
#
# Poissons Ratio (x) = 0.15769 0.14116
# Poissons Ratio (y) = 0.27914 0.34267
# Poissons Ratio (z) = 0.27718 0.38010
#
# Static dielectric constant tensor:
#      x y z
#    x 3.975410 0.000000 0.000000 
#    y 0.000000 3.772170 0.000000 
#    z 0.000000 0.000000 3.718780 
# 
# 
# High freq. dielectric constant tensor:
#      x y z
#    x 1.835360 0.000000 0.000000 
#    y 0.000000 1.821180 0.000000 
#    z 0.000000 0.000000 1.815380 
# 
# From -- ./inp_files/31069.got.cif
#   From: 2010.03.12/outbox.cif.g09.slc.cpg/sg51_16_cif.got.tgz:31069.got - 2010.04.16 13:43:02.
