data_PCOD8214680
_publ_section_title
;
Structure prediction by ZEFSAII (Michael W. Deem and Ramdas Pophale) SiO2 
 PCOD8214680
Probable space group: P M M A
;
_chemical_formula_sum "Si O2"
_cell_formula_units_Z 44
_cell_length_a 9.294720
_cell_length_b 7.574516
_cell_length_c 30.223299
_cell_angle_alpha 90.000000
_cell_angle_beta 90.000000
_cell_angle_gamma 90.000000
_cell_volume 2127.811081
_symmetry_space_group_name_H-M "P M M A"
_symmetry_group_IT_number 51
_symmetry_cell_setting 'orthorhombic'
loop_
_space_group_symop_operation_xyz
x,y,z
1/2-x,-y,z
1/2+x,-y,-z
-x,y,-z
-x,-y,-z
1/2+x,y,-z
1/2-x,y,z
x,-y,z
loop_
_atom_site_type_symbol
_atom_site_label
_atom_site_fract_x
_atom_site_fract_y
_atom_site_fract_z
Si Si1 0.589686 0.206683 0.635554
Si Si2 0.410657 0.788984 0.717521
Si Si3 0.908309 0.791316 0.798911
Si Si4 0.076153 0.500000 0.953033
Si Si5 0.090550 0.706990 0.459880
Si Si6 0.081476 0.206051 0.101260
O O1 0.750000 0.290537 0.637868
O O2 0.493335 0.288161 0.674682
O O3 0.518986 0.250111 0.587761
O O4 0.599226 0.000000 0.642827
O O5 0.250000 0.713768 0.715997
O O6 0.483470 0.714120 0.762281
O O7 0.410946 0.000000 0.717341
O O8 0.750000 0.711536 0.789903
O O9 0.958615 0.742361 0.848325
O O10 0.899653 0.000000 0.794535
O O11 0.250000 0.500000 0.956724
O O12 0.022646 0.322938 0.928783
O O13 0.000000 0.500000 0.000000
O O14 0.250000 0.791708 0.461031
O O15 0.099621 0.500000 0.467207
O O16 0.000000 0.793213 0.500000
O O17 0.250000 0.246930 0.092016
O O18 0.049678 0.000000 0.091834
#
# Coordination Sequence:
#
# PCOD8214680 Si02
#       6
#     8   8   8   4   8   8
#     4   9  17  29  45  65  90 120 154 193 237 289
#     4   9  16  25  41  69 102 132 163 202 248 299
#     4   8  14  27  50  78 106 139 177 215 259 315
#     4  12  26  42  62  88 122 162 200 246 299 352
#     4   9  18  32  48  64  83 111 148 189 235 291
#     4   9  19  38  64  91 119 154 199 248 295 348
#
# _framework density 20.678526999999999
#
# number of rings (size 3 to 8) (size 9 to 14) (size 15 to 20)
#    0.000    2.909    0.000    2.455    0.000    4.727 
#    0.000    1.818    2.000    0.000    0.000    0.000 
#    0.000    0.000    0.000    0.000    0.000    0.000 
#
# Total GULP energy -545348.997069 kJ/mol
# GULP energy per Si atom -12394.295388 kJ/mol
# Density = 2.063146 g / cm^3
# Si number density = 20.678527 Si / 1000 Ang^3
#
#
#
# Elastic Constant Matrix: (Units=GPa)
#
#
# Indices 1 2 3 4 5 6 
#
# 1 144.3975 29.6885 108.9457 0.0000 0.0000 0.0000
# 2 29.6885 45.4344 29.9062 0.0000 0.0000 0.0000
# 3 108.9457 29.9062 200.4239 0.0000 0.0000 0.0000
# 4 0.0000 0.0000 0.0000 63.0130 0.0000 0.0000
# 5 0.0000 0.0000 0.0000 0.0000 37.4940 0.0000
# 6 0.0000 0.0000 0.0000 0.0000 0.0000 15.3039
#
#
#
# Elastic Compliance Matrix: (Units=1/GPa)
#
#
# Indices 1 2 3 4 5 6 
#
# 1 0.012380 -0.004059 -0.006124 0.000000 0.000000 0.000000
# 2 -0.004059 0.025738 -0.001634 0.000000 0.000000 0.000000
# 3 -0.006124 -0.001634 0.008562 0.000000 0.000000 0.000000
# 4 0.000000 0.000000 0.000000 0.015870 0.000000 0.000000
# 5 0.000000 0.000000 0.000000 0.000000 0.026671 0.000000
# 6 0.000000 0.000000 0.000000 0.000000 0.000000 0.065343
#
#
# Mechanical properties :
#
#
# Convention : Reuss Voigt Hill
#
# Bulk Modulus (GPa) = 43.39124 80.81517 62.10321
# Shear Modulus (GPa) = 26.89914 37.94320 32.42117
#
# Velocity S-wave (km/s) = 3.61061 4.28823 3.96393
# Velocity P-wave (km/s) = 6.19768 7.98029 7.14480
#
# Compressibility (1/GPa) = 0.02304613
#
# Stress axis : x y z
#
# Youngs Moduli (GPa) = 80.77356 38.85369 116.79324
#
# Poissons Ratio (x) = 0.15770 0.71524
# Poissons Ratio (y) = 0.32784 0.19086
# Poissons Ratio (z) = 0.49466 0.06349
#
# Static dielectric constant tensor:
#      x y z
#    x 3.964490 0.000000 0.000000 
#    y 0.000000 3.293160 0.000000 
#    z 0.000000 0.000000 3.994340 
# 
# 
# High freq. dielectric constant tensor:
#      x y z
#    x 1.794030 0.000000 0.000000 
#    y 0.000000 1.783550 0.000000 
#    z 0.000000 0.000000 1.819080 
# 
# From -- ./inp_files/36822.got.cif
#   From: 2010.03.12/outbox.cif.g09.slc.cpg/sg51_19_cif.got.tgz:36822.got - 2010.04.16 13:43:02.
