data_PCOD8214472
_publ_section_title
;
Structure prediction by ZEFSAII (Michael W. Deem and Ramdas Pophale) SiO2 
 PCOD8214472
Probable space group: P M M A
;
_chemical_formula_sum "Si O2"
_cell_formula_units_Z 64
_cell_length_a 9.098453
_cell_length_b 14.064874
_cell_length_c 30.939535
_cell_angle_alpha 90.000000
_cell_angle_beta 90.000000
_cell_angle_gamma 90.000000
_cell_volume 3959.288825
_symmetry_space_group_name_H-M "P M M A"
_symmetry_group_IT_number 51
_symmetry_cell_setting 'orthorhombic'
loop_
_space_group_symop_operation_xyz
x,y,z
1/2-x,-y,z
1/2+x,-y,-z
-x,y,-z
-x,-y,-z
1/2+x,y,-z
1/2-x,y,z
x,-y,z
loop_
_atom_site_type_symbol
_atom_site_label
_atom_site_fract_x
_atom_site_fract_y
_atom_site_fract_z
Si Si1 0.081285 0.392086 0.842393
Si Si2 0.418767 0.607974 0.741598
Si Si3 0.920050 0.112133 0.207761
Si Si4 0.920637 0.108819 0.626433
Si Si5 0.415583 0.886737 0.541668
Si Si6 0.922646 0.213654 0.713972
Si Si7 0.578087 0.891607 0.957167
Si Si8 0.423521 0.214009 0.129230
O O1 0.250000 0.375983 0.855908
O O2 0.033390 0.500000 0.852333
O O3 0.060807 0.368735 0.792008
O O4 0.976460 0.323136 0.869681
O O5 0.250000 0.624015 0.728093
O O6 0.466656 0.500000 0.731669
O O7 0.523691 0.677279 0.714504
O O8 0.750000 0.142786 0.207076
O O9 0.993051 0.152490 0.250670
O O10 0.997699 0.153139 0.165750
O O11 0.940327 0.000000 0.207695
O O12 0.750000 0.116417 0.614965
O O13 0.963260 0.171722 0.667472
O O14 0.008462 0.149946 0.585469
O O15 0.964649 0.000000 0.636550
O O16 0.500000 0.845134 0.500000
O O17 0.250000 0.848142 0.540478
O O18 0.420654 0.000000 0.540602
O O19 0.750000 0.208243 0.723492
O O20 0.750000 0.884584 0.965169
O O21 0.528852 0.828099 0.916804
O O22 0.529173 0.000000 0.947927
O O23 0.500000 0.851628 0.000000
O O24 0.250000 0.208195 0.136668
#
# Coordination Sequence:
#
# PCOD8214472 Si02
#       8
#     8   8   8   8   8   8   8   8
#     4   9  18  33  52  73  98 127 159 196 238 284
#     4   9  18  33  51  69  93 125 160 200 242 284
#     4  11  23  35  47  66  95 132 168 197 228 276
#     4   9  18  31  44  61  91 129 163 195 236 284
#     4   9  16  26  42  63  86 116 157 202 243 281
#     4  11  21  32  48  70  96 127 161 201 244 284
#     4   9  19  35  53  74 100 128 157 191 233 280
#     4  11  21  33  52  77 101 124 155 199 243 282
#
# _framework density 16.164518999999999
#
# number of rings (size 3 to 8) (size 9 to 14) (size 15 to 20)
#    0.000    2.250    1.250    3.000    0.000    6.000 
#    0.000    3.750    0.000    0.375    0.000    0.000 
#    0.000    0.500    0.000    1.625    0.000    2.375 
#
# Total GULP energy -793716.323217 kJ/mol
# GULP energy per Si atom -12401.817550 kJ/mol
# Density = 1.612773 g / cm^3
# Si number density = 16.164519 Si / 1000 Ang^3
#
#
#
# Elastic Constant Matrix: (Units=GPa)
#
#
# Indices 1 2 3 4 5 6 
#
# 1 93.6552 49.1672 72.3918 0.0000 0.0000 0.0000
# 2 49.1672 85.5365 59.5661 0.0000 0.0000 0.0000
# 3 72.3918 59.5661 132.1028 0.0000 0.0000 0.0000
# 4 0.0000 0.0000 0.0000 10.5731 0.0000 0.0000
# 5 0.0000 0.0000 0.0000 0.0000 29.8800 0.0000
# 6 0.0000 0.0000 0.0000 0.0000 0.0000 26.2357
#
#
#
# Elastic Compliance Matrix: (Units=1/GPa)
#
#
# Indices 1 2 3 4 5 6 
#
# 1 0.020271 -0.005709 -0.008534 0.000000 0.000000 0.000000
# 2 -0.005709 0.018650 -0.005281 0.000000 0.000000 0.000000
# 3 -0.008534 -0.005281 0.014628 0.000000 0.000000 0.000000
# 4 0.000000 0.000000 0.000000 0.094579 0.000000 0.000000
# 5 0.000000 0.000000 0.000000 0.000000 0.033467 0.000000
# 6 0.000000 0.000000 0.000000 0.000000 0.000000 0.038116
#
#
# Mechanical properties :
#
#
# Convention : Reuss Voigt Hill
#
# Bulk Modulus (GPa) = 68.96239 74.83830 71.90035
# Shear Modulus (GPa) = 18.96857 22.01573 20.49215
#
# Velocity S-wave (km/s) = 3.42931 3.69450 3.56437
# Velocity P-wave (km/s) = 7.64432 8.03726 7.84325
#
# Compressibility (1/GPa) = 0.01450066
#
# Stress axis : x y z
#
# Youngs Moduli (GPa) = 49.33095 53.61917 68.36260
#
# Poissons Ratio (x) = 0.30611 0.58343
# Poissons Ratio (y) = 0.28163 0.36102
# Poissons Ratio (z) = 0.42101 0.28316
#
# Static dielectric constant tensor:
#      x y z
#    x 3.124180 0.000000 0.000000 
#    y 0.000000 3.007330 0.000000 
#    z 0.000000 0.000000 3.034220 
# 
# 
# High freq. dielectric constant tensor:
#      x y z
#    x 1.630700 0.000000 0.000000 
#    y 0.000000 1.603550 0.000000 
#    z 0.000000 0.000000 1.610350 
# 
# From -- ./inp_files/37630.got.cif
#   From: 2010.03.12/outbox.cif.g09.slc.cpg/sg51_19_cif.got.tgz:37630.got - 2010.04.16 13:43:02.
