data_PCOD8214773
_publ_section_title
;
Structure prediction by ZEFSAII (Michael W. Deem and Ramdas Pophale) SiO2 
 PCOD8214773
Probable space group: P M M A
;
_chemical_formula_sum "Si O2"
_cell_formula_units_Z 32
_cell_length_a 9.731159
_cell_length_b 7.657176
_cell_length_c 24.380985
_cell_angle_alpha 90.000000
_cell_angle_beta 90.000000
_cell_angle_gamma 90.000000
_cell_volume 1816.705142
_symmetry_space_group_name_H-M "P M M A"
_symmetry_group_IT_number 51
_symmetry_cell_setting 'orthorhombic'
loop_
_space_group_symop_operation_xyz
x,y,z
1/2-x,-y,z
1/2+x,-y,-z
-x,y,-z
-x,-y,-z
1/2+x,y,-z
1/2-x,y,z
x,-y,z
loop_
_atom_site_type_symbol
_atom_site_label
_atom_site_fract_x
_atom_site_fract_y
_atom_site_fract_z
Si Si1 0.085642 0.000000 0.255552
Si Si2 0.590664 0.699148 0.947326
Si Si3 0.913792 0.693729 0.667992
Si Si4 0.587890 0.000000 0.866841
Si Si5 0.902325 0.292687 0.546837
O O1 0.029681 0.171684 0.286746
O O2 0.250000 0.000000 0.255061
O O3 0.023588 0.000000 0.194094
O O4 0.750000 0.733193 0.962336
O O5 0.567582 0.500000 0.927888
O O6 0.540287 0.825718 0.898688
O O7 0.500000 0.743750 0.000000
O O8 0.750000 0.688474 0.668170
O O9 0.971304 0.500000 0.681830
O O10 0.961117 0.755304 0.607225
O O11 0.750000 0.000000 0.861017
O O12 0.750000 0.213205 0.538789
O O13 0.895028 0.500000 0.541541
O O14 0.000000 0.211445 0.500000
#
# Coordination Sequence:
#
# PCOD8214773 Si02
#       5
#     4   8   8   4   8
#     4   9  16  25  38  57  81 109 138 167 204 246
#     4   9  17  29  45  66  91 115 139 170 207 246
#     4   8  14  24  37  54  78 106 134 166 204 246
#     4   9  17  27  40  61  87 113 142 175 208 242
#     4   8  13  22  37  57  79 102 130 165 205 248
#
# _framework density 17.614305999999999
#
# number of rings (size 3 to 8) (size 9 to 14) (size 15 to 20)
#    0.000    3.500    0.000    1.875    0.000    1.000 
#    0.000    5.625    0.000    0.000    0.000    3.500 
#    0.000    8.000    0.000    0.000    0.000    0.000 
#
# Total GULP energy -396579.235249 kJ/mol
# GULP energy per Si atom -12393.101102 kJ/mol
# Density = 1.757422 g / cm^3
# Si number density = 17.614306 Si / 1000 Ang^3
#
#
#
# Elastic Constant Matrix: (Units=GPa)
#
#
# Indices 1 2 3 4 5 6 
#
# 1 31.2360 21.3168 38.3333 0.0000 0.0000 0.0000
# 2 21.3168 109.4835 90.3828 0.0000 0.0000 0.0000
# 3 38.3333 90.3828 180.3793 0.0000 0.0000 0.0000
# 4 0.0000 0.0000 0.0000 22.0566 0.0000 0.0000
# 5 0.0000 0.0000 0.0000 0.0000 19.6520 0.0000
# 6 0.0000 0.0000 0.0000 0.0000 0.0000 8.4106
#
#
#
# Elastic Compliance Matrix: (Units=1/GPa)
#
#
# Indices 1 2 3 4 5 6 
#
# 1 0.043440 -0.001427 -0.008516 0.000000 0.000000 0.000000
# 2 -0.001427 0.015624 -0.007526 0.000000 0.000000 0.000000
# 3 -0.008516 -0.007526 0.011125 0.000000 0.000000 0.000000
# 4 0.000000 0.000000 0.000000 0.045338 0.000000 0.000000
# 5 0.000000 0.000000 0.000000 0.000000 0.050885 0.000000
# 6 0.000000 0.000000 0.000000 0.000000 0.000000 0.118898
#
#
# Mechanical properties :
#
#
# Convention : Reuss Voigt Hill
#
# Bulk Modulus (GPa) = 28.36863 69.01830 48.69346
# Shear Modulus (GPa) = 15.06029 21.42823 18.24426
#
# Velocity S-wave (km/s) = 2.92722 3.49165 3.22182
# Velocity P-wave (km/s) = 5.25026 7.45142 6.44550
#
# Compressibility (1/GPa) = 0.03525021
#
# Stress axis : x y z
#
# Youngs Moduli (GPa) = 23.02036 64.00264 89.89082
#
# Poissons Ratio (x) = 0.09135 0.76555
# Poissons Ratio (y) = 0.03285 0.67648
# Poissons Ratio (z) = 0.19605 0.48166
#
# Static dielectric constant tensor:
#      x y z
#    x 2.910470 0.000000 0.000000 
#    y 0.000000 3.382870 0.000000 
#    z 0.000000 0.000000 3.520580 
# 
# 
# High freq. dielectric constant tensor:
#      x y z
#    x 1.614570 0.000000 0.000000 
#    y 0.000000 1.683280 0.000000 
#    z 0.000000 0.000000 1.681220 
# 
# From -- ./inp_files/28743.got.cif
#   From: 2010.03.12/outbox.cif.g09.slc.cpg/sg51_15_cif.got.tgz:28743.got - 2010.04.16 13:43:02.
