data_PCOD8214299
_publ_section_title
;
Structure prediction by ZEFSAII (Michael W. Deem and Ramdas Pophale) SiO2 
 PCOD8214299
Probable space group: P M M A
;
_chemical_formula_sum "Si O2"
_cell_formula_units_Z 48
_cell_length_a 14.616691
_cell_length_b 8.894454
_cell_length_c 19.593970
_cell_angle_alpha 90.000000
_cell_angle_beta 90.000000
_cell_angle_gamma 90.000000
_cell_volume 2547.362775
_symmetry_space_group_name_H-M "P M M A"
_symmetry_group_IT_number 51
_symmetry_cell_setting 'orthorhombic'
loop_
_space_group_symop_operation_xyz
x,y,z
1/2-x,-y,z
1/2+x,-y,-z
-x,y,-z
-x,-y,-z
1/2+x,y,-z
1/2-x,y,z
x,-y,z
loop_
_atom_site_type_symbol
_atom_site_label
_atom_site_fract_x
_atom_site_fract_y
_atom_site_fract_z
Si Si1 0.443091 0.677932 0.680457
Si Si2 0.561283 0.821976 0.564659
Si Si3 0.750000 0.320604 0.527894
Si Si4 0.250000 0.677590 0.626598
Si Si5 0.351814 0.822463 0.090211
Si Si6 0.487652 0.324599 0.834064
Si Si7 0.642304 0.829556 0.062996
O O1 0.453382 0.500000 0.667348
O O2 0.512870 0.767242 0.633169
O O3 0.340367 0.735607 0.665015
O O4 0.463500 0.724132 0.757715
O O5 0.500000 0.771143 0.500000
O O6 0.659817 0.743312 0.563781
O O7 0.574663 0.000000 0.565978
O O8 0.750000 0.500000 0.533211
O O9 0.750000 0.260979 0.450331
O O10 0.250000 0.500000 0.625568
O O11 0.250000 0.759853 0.103981
O O12 0.417845 0.752933 0.146044
O O13 0.352218 0.000000 0.097361
O O14 0.383772 0.778303 0.013715
O O15 0.502146 0.500000 0.840007
O O16 0.405644 0.278718 0.883592
O O17 0.750000 0.817728 0.074053
O O18 0.608328 0.000000 0.075394
#
# Coordination Sequence:
#
# PCOD8214299 Si02
#       7
#     8   8   4   4   8   8   8
#     4  10  22  40  59  83 116 156 196 228 274 347
#     4  11  23  39  60  89 122 149 186 243 293 333
#     4  11  21  37  67  91 109 150 199 236 279 345
#     4   9  18  35  61  85 109 148 193 228 267 335
#     4   9  19  38  61  80 105 149 199 240 281 337
#     4  11  23  35  55  86 119 150 184 234 288 337
#     4   9  19  36  58  83 111 148 194 236 278 340
#
# _framework density 18.843017
#
# number of rings (size 3 to 8) (size 9 to 14) (size 15 to 20)
#    0.000    2.000    1.667    2.750    1.167    5.333 
#    1.500    2.083    0.000    0.000    0.000    0.000 
#    0.000    0.000    0.000    0.000    0.000    0.000 
#
# Total GULP energy -595323.073964 kJ/mol
# GULP energy per Si atom -12402.564041 kJ/mol
# Density = 1.880013 g / cm^3
# Si number density = 18.843017 Si / 1000 Ang^3
#
#
#
# Elastic Constant Matrix: (Units=GPa)
#
#
# Indices 1 2 3 4 5 6 
#
# 1 139.0860 39.7222 75.2969 0.0000 0.0000 0.0000
# 2 39.7222 46.8776 40.0767 0.0000 0.0000 0.0000
# 3 75.2969 40.0767 127.0191 0.0000 0.0000 0.0000
# 4 0.0000 0.0000 0.0000 29.5964 0.0000 0.0000
# 5 0.0000 0.0000 0.0000 0.0000 12.7902 0.0000
# 6 0.0000 0.0000 0.0000 0.0000 0.0000 24.9642
#
#
#
# Elastic Compliance Matrix: (Units=1/GPa)
#
#
# Indices 1 2 3 4 5 6 
#
# 1 0.011494 -0.005360 -0.005122 0.000000 0.000000 0.000000
# 2 -0.005360 0.031712 -0.006828 0.000000 0.000000 0.000000
# 3 -0.005122 -0.006828 0.013064 0.000000 0.000000 0.000000
# 4 0.000000 0.000000 0.000000 0.033788 0.000000 0.000000
# 5 0.000000 0.000000 0.000000 0.000000 0.078185 0.000000
# 6 0.000000 0.000000 0.000000 0.000000 0.000000 0.040057
#
#
# Mechanical properties :
#
#
# Convention : Reuss Voigt Hill
#
# Bulk Modulus (GPa) = 46.19358 69.24161 57.71759
# Shear Modulus (GPa) = 19.98915 23.99596 21.99256
#
# Velocity S-wave (km/s) = 3.26057 3.57244 3.42006
# Velocity P-wave (km/s) = 6.22441 7.33776 6.80390
#
# Compressibility (1/GPa) = 0.02164803
#
# Stress axis : x y z
#
# Youngs Moduli (GPa) = 87.00469 31.53423 76.54838
#
# Poissons Ratio (x) = 0.16903 0.39210
# Poissons Ratio (y) = 0.46636 0.52268
# Poissons Ratio (z) = 0.44566 0.21532
#
# Static dielectric constant tensor:
#      x y z
#    x 3.853230 0.000000 0.000000 
#    y 0.000000 3.301090 0.000000 
#    z 0.000000 0.000000 3.583780 
# 
# 
# High freq. dielectric constant tensor:
#      x y z
#    x 1.747880 0.000000 0.000000 
#    y 0.000000 1.721090 0.000000 
#    z 0.000000 0.000000 1.729570 
# 
# From -- ./inp_files/29540.got.cif
#   From: 2010.03.12/outbox.cif.g09.slc.cpg/sg51_15_cif.got.tgz:29540.got - 2010.04.16 13:43:02.
