data_PCOD8214415
_publ_section_title
;
Structure prediction by ZEFSAII (Michael W. Deem and Ramdas Pophale) SiO2 
 PCOD8214415
Probable space group: P M M A
;
_chemical_formula_sum "Si O2"
_cell_formula_units_Z 48
_cell_length_a 18.040708
_cell_length_b 16.969896
_cell_length_c 8.698557
_cell_angle_alpha 90.000000
_cell_angle_beta 90.000000
_cell_angle_gamma 90.000000
_cell_volume 2663.053992
_symmetry_space_group_name_H-M "P M M A"
_symmetry_group_IT_number 51
_symmetry_cell_setting 'orthorhombic'
loop_
_space_group_symop_operation_xyz
x,y,z
1/2-x,-y,z
1/2+x,-y,-z
-x,y,-z
-x,-y,-z
1/2+x,y,-z
1/2-x,y,z
x,-y,z
loop_
_atom_site_type_symbol
_atom_site_label
_atom_site_fract_x
_atom_site_fract_y
_atom_site_fract_z
Si Si1 0.961909 0.705120 0.653525
Si Si2 0.837976 0.722012 0.141042
Si Si3 0.665400 0.088356 0.676475
Si Si4 0.930523 0.174900 0.909898
Si Si5 0.665715 0.238607 0.484821
Si Si6 0.047353 0.410592 0.846570
O O1 0.970537 0.763233 0.796840
O O2 0.875877 0.700261 0.600198
O O3 0.000000 0.740519 0.500000
O O4 0.998137 0.622409 0.703992
O O5 0.750000 0.713120 0.116532
O O6 0.859457 0.755469 0.308622
O O7 0.876296 0.636606 0.127605
O O8 0.870476 0.781523 0.016027
O O9 0.750000 0.096328 0.733590
O O10 0.612295 0.106456 0.820234
O O11 0.650123 0.148632 0.537149
O O12 0.648886 0.000000 0.617039
O O13 0.000000 0.136721 0.000000
O O14 0.750000 0.263685 0.502752
O O15 0.068468 0.500000 0.806250
O O16 0.000000 0.404561 0.000000
#
# Coordination Sequence:
#
# PCOD8214415 Si02
#       6
#     8   8   8   8   8   8
#     4  11  18  34  57  80 105 142 182 225 269 317
#     4  11  20  36  57  81 108 144 186 225 270 322
#     4   9  19  35  53  78 111 144 178 225 282 330
#     4  11  19  33  56  82 106 141 189 224 266 321
#     4   9  19  33  55  80 106 142 185 227 272 329
#     4  11  22  38  56  80 110 144 181 222 275 327
#
# _framework density 18.024419000000002
#
# number of rings (size 3 to 8) (size 9 to 14) (size 15 to 20)
#    0.000    1.667    5.000    0.500    0.000    1.667 
#    0.000    0.833    0.000   20.500    0.000    0.000 
#    0.000    0.000    0.000    0.000    0.000    0.000 
#
# Total GULP energy -595016.054427 kJ/mol
# GULP energy per Si atom -12396.167801 kJ/mol
# Density = 1.798339 g / cm^3
# Si number density = 18.024419 Si / 1000 Ang^3
#
#
#
# Elastic Constant Matrix: (Units=GPa)
#
#
# Indices 1 2 3 4 5 6 
#
# 1 76.3263 42.1708 30.7670 0.0000 0.0000 0.0000
# 2 42.1708 87.5044 22.4805 0.0000 0.0000 0.0000
# 3 30.7670 22.4805 77.2568 0.0000 0.0000 0.0000
# 4 0.0000 0.0000 0.0000 18.0765 0.0000 0.0000
# 5 0.0000 0.0000 0.0000 0.0000 36.4775 0.0000
# 6 0.0000 0.0000 0.0000 0.0000 0.0000 24.3719
#
#
#
# Elastic Compliance Matrix: (Units=1/GPa)
#
#
# Indices 1 2 3 4 5 6 
#
# 1 0.019824 -0.008133 -0.005528 0.000000 0.000000 0.000000
# 2 -0.008133 0.015688 -0.001326 0.000000 0.000000 0.000000
# 3 -0.005528 -0.001326 0.015531 0.000000 0.000000 0.000000
# 4 0.000000 0.000000 0.000000 0.055321 0.000000 0.000000
# 5 0.000000 0.000000 0.000000 0.000000 0.027414 0.000000
# 6 0.000000 0.000000 0.000000 0.000000 0.000000 0.041031
#
#
# Mechanical properties :
#
#
# Convention : Reuss Voigt Hill
#
# Bulk Modulus (GPa) = 47.46423 47.99158 47.72790
# Shear Modulus (GPa) = 23.60647 25.49648 24.55148
#
# Velocity S-wave (km/s) = 3.62290 3.76513 3.69470
# Velocity P-wave (km/s) = 6.62503 6.75169 6.68866
#
# Compressibility (1/GPa) = 0.02106850
#
# Stress axis : x y z
#
# Youngs Moduli (GPa) = 50.44456 63.74141 64.38675
#
# Poissons Ratio (x) = 0.51844 0.35593
# Poissons Ratio (y) = 0.41029 0.08538
# Poissons Ratio (z) = 0.27886 0.08452
#
# Static dielectric constant tensor:
#      x y z
#    x 3.556780 0.000000 0.000000 
#    y 0.000000 3.165360 0.000000 
#    z 0.000000 0.000000 3.527730 
# 
# 
# High freq. dielectric constant tensor:
#      x y z
#    x 1.714690 0.000000 0.000000 
#    y 0.000000 1.666630 0.000000 
#    z 0.000000 0.000000 1.707630 
# 
# From -- ./inp_files/9626.got.cif
#   From: 2010.03.12/outbox.cif.g09.slc.cpg/sg51_5_cif.got.tgz:9626.got - 2010.04.16 13:43:02.
