data_PCOD8214395
_publ_section_title
;
Structure prediction by ZEFSAII (Michael W. Deem and Ramdas Pophale) SiO2 
 PCOD8214395
Probable space group: P M M A
;
_chemical_formula_sum "Si O2"
_cell_formula_units_Z 64
_cell_length_a 14.376924
_cell_length_b 8.820860
_cell_length_c 24.719440
_cell_angle_alpha 90.000000
_cell_angle_beta 90.000000
_cell_angle_gamma 90.000000
_cell_volume 3134.841115
_symmetry_space_group_name_H-M "P M M A"
_symmetry_group_IT_number 51
_symmetry_cell_setting 'orthorhombic'
loop_
_space_group_symop_operation_xyz
x,y,z
1/2-x,-y,z
1/2+x,-y,-z
-x,y,-z
-x,-y,-z
1/2+x,y,-z
1/2-x,y,z
x,-y,z
loop_
_atom_site_type_symbol
_atom_site_label
_atom_site_fract_x
_atom_site_fract_y
_atom_site_fract_z
Si Si1 0.476575 0.321713 0.176729
Si Si2 0.356372 0.673685 0.468452
Si Si3 0.645585 0.677083 0.406126
Si Si4 0.144236 0.679905 0.277647
Si Si5 0.607069 0.671677 0.014156
Si Si6 0.536904 0.822995 0.624158
Si Si7 0.144468 0.824712 0.871936
Si Si8 0.147637 0.171148 0.090975
O O1 0.492809 0.500000 0.179797
O O2 0.418006 0.260280 0.227763
O O3 0.576704 0.239664 0.174943
O O4 0.420725 0.283575 0.122229
O O5 0.250000 0.697911 0.450134
O O6 0.386444 0.500000 0.458157
O O7 0.368318 0.715981 0.530968
O O8 0.423481 0.782877 0.434902
O O9 0.750000 0.724653 0.388120
O O10 0.630409 0.500000 0.395726
O O11 0.570252 0.769026 0.371116
O O12 0.250000 0.739932 0.271243
O O13 0.143639 0.500000 0.279285
O O14 0.101139 0.740139 0.332678
O O15 0.644495 0.500000 0.011382
O O16 0.626958 0.734383 0.073272
O O17 0.500000 0.679984 0.000000
O O18 0.659739 0.774876 0.970685
O O19 0.541479 0.000000 0.634728
O O20 0.250000 0.800773 0.851898
O O21 0.122270 0.000000 0.882295
O O22 0.250000 0.176670 0.117786
O O23 0.107659 0.000000 0.092831
#
# Coordination Sequence:
#
# PCOD8214395 Si02
#       8
#     8   8   8   8   8   8   8   8
#     4  11  23  41  65  90 113 144 191 244 294 340
#     4   9  18  34  57  84 116 157 203 246 288 342
#     4   9  19  37  60  84 113 156 206 247 286 340
#     4  10  23  44  67  88 113 149 194 242 289 342
#     4  11  22  36  57  87 119 155 196 240 285 331
#     4  12  24  35  54  87 123 157 193 239 298 356
#     4  11  24  41  62  88 120 158 195 234 287 350
#     4  11  23  37  57  86 119 155 189 226 283 350
#
# _framework density 20.415707999999999
#
# number of rings (size 3 to 8) (size 9 to 14) (size 15 to 20)
#    0.000    1.500    1.250    4.875    0.000    9.750 
#    0.000    1.875    0.000    0.750    0.000    0.000 
#    0.000    0.000    0.000    0.000    0.000    0.000 
#
# Total GULP energy -793777.198183 kJ/mol
# GULP energy per Si atom -12402.768722 kJ/mol
# Density = 2.036924 g / cm^3
# Si number density = 20.415708 Si / 1000 Ang^3
#
#
#
# Elastic Constant Matrix: (Units=GPa)
#
#
# Indices 1 2 3 4 5 6 
#
# 1 144.8913 34.8295 42.8621 0.0000 0.0000 0.0000
# 2 34.8295 47.1398 17.7878 0.0000 0.0000 0.0000
# 3 42.8621 17.7878 61.2054 0.0000 0.0000 0.0000
# 4 0.0000 0.0000 0.0000 -8.2433 0.0000 0.0000
# 5 0.0000 0.0000 0.0000 0.0000 31.4357 0.0000
# 6 0.0000 0.0000 0.0000 0.0000 0.0000 26.8352
#
#
#
# Elastic Compliance Matrix: (Units=1/GPa)
#
#
# Indices 1 2 3 4 5 6 
#
# 1 0.009714 -0.005178 -0.005298 0.000000 0.000000 0.000000
# 2 -0.005178 0.026587 -0.004101 0.000000 0.000000 0.000000
# 3 -0.005298 -0.004101 0.021240 0.000000 0.000000 0.000000
# 4 0.000000 0.000000 0.000000 -0.121311 0.000000 0.000000
# 5 0.000000 0.000000 0.000000 0.000000 0.031811 0.000000
# 6 0.000000 0.000000 0.000000 0.000000 0.000000 0.037265
#
#
# Mechanical properties :
#
#
# Convention : Reuss Voigt Hill
#
# Bulk Modulus (GPa) = 35.22621 49.35502 42.29062
# Shear Modulus (GPa) = 113.84541 20.52266 67.18404
#
# Velocity S-wave (km/s) = 7.47561 3.17399 5.74277
# Velocity P-wave (km/s) = 9.58148 6.13676 8.04564
#
# Compressibility (1/GPa) = 0.02838795
#
# Stress axis : x y z
#
# Youngs Moduli (GPa) = 102.94903 37.61298 47.08092
#
# Poissons Ratio (x) = 0.19476 0.24941
# Poissons Ratio (y) = 0.53306 0.19306
# Poissons Ratio (z) = 0.54538 0.15424
#
# Static dielectric constant tensor:
#      x y z
#    x 3.886540 0.000000 0.000000 
#    y 0.000000 3.618920 0.000000 
#    z 0.000000 0.000000 3.532150 
# 
# 
# High freq. dielectric constant tensor:
#      x y z
#    x 1.818270 0.000000 0.000000 
#    y 0.000000 1.792150 0.000000 
#    z 0.000000 0.000000 1.774140 
# 
# From -- ./inp_files/35690.got.cif
#   From: 2010.03.12/outbox.cif.g09.slc.cpg/sg51_18_cif.got.tgz:35690.got - 2010.04.16 13:43:02.
