data_PCOD8214613
_publ_section_title
;
Structure prediction by ZEFSAII (Michael W. Deem and Ramdas Pophale) SiO2 
 PCOD8214613
Probable space group: P M M A
;
_chemical_formula_sum "Si O2"
_cell_formula_units_Z 56
_cell_length_a 24.100299
_cell_length_b 8.777416
_cell_length_c 14.647058
_cell_angle_alpha 90.000000
_cell_angle_beta 90.000000
_cell_angle_gamma 90.000000
_cell_volume 3098.414482
_symmetry_space_group_name_H-M "P M M A"
_symmetry_group_IT_number 51
_symmetry_cell_setting 'orthorhombic'
loop_
_space_group_symop_operation_xyz
x,y,z
1/2-x,-y,z
1/2+x,-y,-z
-x,y,-z
-x,-y,-z
1/2+x,y,-z
1/2-x,y,z
x,-y,z
loop_
_atom_site_type_symbol
_atom_site_label
_atom_site_fract_x
_atom_site_fract_y
_atom_site_fract_z
Si Si1 0.364561 0.677026 0.970612
Si Si2 0.750000 0.178984 0.786524
Si Si3 0.360593 0.321335 0.288929
Si Si4 0.581377 0.175958 0.556854
Si Si5 0.961322 0.175941 0.365520
Si Si6 0.068325 0.819935 0.135846
Si Si7 0.750000 0.179096 0.999393
Si Si8 0.455889 0.675403 0.824535
O O1 0.358825 0.500000 0.995081
O O2 0.399071 0.704311 0.878591
O O3 0.394927 0.758589 0.053839
O O4 0.304176 0.748512 0.954132
O O5 0.697182 0.250952 0.739562
O O6 0.750000 0.220101 0.892782
O O7 0.750000 0.000000 0.770339
O O8 0.359071 0.500000 0.273227
O O9 0.372273 0.280616 0.394838
O O10 0.410188 0.247730 0.230846
O O11 0.522116 0.218494 0.599439
O O12 0.581491 0.209086 0.448294
O O13 0.595300 0.000000 0.575294
O O14 0.944729 0.278055 0.279618
O O15 0.958884 0.000000 0.335674
O O16 0.004112 0.772879 0.126407
O O17 0.073970 0.000000 0.138070
O O18 0.750000 0.000000 0.016977
O O19 0.474076 0.500000 0.829212
#
# Coordination Sequence:
#
# PCOD8214613 Si02
#       8
#     8   4   8   8   8   8   4   8
#     4  11  24  40  58  80 113 150 186 234 287 334
#     4  11  23  39  59  82 110 147 188 232 279 333
#     4  12  23  35  56  85 115 149 185 229 281 336
#     4   9  18  34  55  82 113 147 183 224 274 328
#     4   9  18  33  56  82 112 148 185 224 271 328
#     4  12  23  36  55  81 114 152 190 229 275 334
#     4  11  23  39  61  84 106 143 194 236 275 331
#     4  11  23  37  55  84 117 150 188 232 285 337
#
# _framework density 18.07376
#
# number of rings (size 3 to 8) (size 9 to 14) (size 15 to 20)
#    0.000    1.286    2.857    5.143    0.000    5.143 
#    0.000    1.429    0.000    0.857    0.000    4.000 
#    0.000    0.000    0.000    0.000    0.000    0.000 
#
# Total GULP energy -694618.427087 kJ/mol
# GULP energy per Si atom -12403.900484 kJ/mol
# Density = 1.803262 g / cm^3
# Si number density = 18.073760 Si / 1000 Ang^3
#
#
#
# Elastic Constant Matrix: (Units=GPa)
#
#
# Indices 1 2 3 4 5 6 
#
# 1 109.8195 54.4012 42.0281 0.0000 0.0000 0.0000
# 2 54.4012 98.5643 37.8781 0.0000 0.0000 0.0000
# 3 42.0281 37.8781 78.8007 0.0000 0.0000 0.0000
# 4 0.0000 0.0000 0.0000 31.5275 0.0000 0.0000
# 5 0.0000 0.0000 0.0000 0.0000 10.8159 0.0000
# 6 0.0000 0.0000 0.0000 0.0000 0.0000 -31.0090
#
#
#
# Elastic Compliance Matrix: (Units=1/GPa)
#
#
# Indices 1 2 3 4 5 6 
#
# 1 0.013727 -0.005842 -0.004513 0.000000 0.000000 0.000000
# 2 -0.005842 0.014931 -0.004061 0.000000 0.000000 0.000000
# 3 -0.004513 -0.004061 0.017049 0.000000 0.000000 0.000000
# 4 0.000000 0.000000 0.000000 0.031718 0.000000 0.000000
# 5 0.000000 0.000000 0.000000 0.000000 0.092457 0.000000
# 6 0.000000 0.000000 0.000000 0.000000 0.000000 -0.032249
#
#
# Mechanical properties :
#
#
# Convention : Reuss Voigt Hill
#
# Bulk Modulus (GPa) = 59.26046 61.75548 60.50797
# Shear Modulus (GPa) = 29.05444 12.45870 20.75657
#
# Velocity S-wave (km/s) = 4.01377 2.62835 3.39254
# Velocity P-wave (km/s) = 7.37155 6.59194 6.99262
#
# Compressibility (1/GPa) = 0.01687466
#
# Stress axis : x y z
#
# Youngs Moduli (GPa) = 72.84924 66.97571 58.65314
#
# Poissons Ratio (x) = 0.39128 0.26471
# Poissons Ratio (y) = 0.42559 0.23820
# Poissons Ratio (z) = 0.32877 0.27200
#
# Static dielectric constant tensor:
#      x y z
#    x 3.285750 0.000000 0.000000 
#    y 0.000000 3.426470 0.000000 
#    z 0.000000 0.000000 3.452730 
# 
# 
# High freq. dielectric constant tensor:
#      x y z
#    x 1.685420 0.000000 0.000000 
#    y 0.000000 1.711520 0.000000 
#    z 0.000000 0.000000 1.696690 
# 
# From -- ./inp_files/25819.got.cif
#   From: 2010.03.12/outbox.cif.g09.slc.cpg/sg51_13_cif.got.tgz:25819.got - 2010.04.16 13:43:02.
