data_PCOD8214644
_publ_section_title
;
Structure prediction by ZEFSAII (Michael W. Deem and Ramdas Pophale) SiO2 
 PCOD8214644
Probable space group: P M M A
;
_chemical_formula_sum "Si O2"
_cell_formula_units_Z 56
_cell_length_a 14.681842
_cell_length_b 9.047311
_cell_length_c 21.116613
_cell_angle_alpha 90.000000
_cell_angle_beta 90.000000
_cell_angle_gamma 90.000000
_cell_volume 2804.944847
_symmetry_space_group_name_H-M "P M M A"
_symmetry_group_IT_number 51
_symmetry_cell_setting 'orthorhombic'
loop_
_space_group_symop_operation_xyz
x,y,z
1/2-x,-y,z
1/2+x,-y,-z
-x,y,-z
-x,-y,-z
1/2+x,y,-z
1/2-x,y,z
x,-y,z
loop_
_atom_site_type_symbol
_atom_site_label
_atom_site_fract_x
_atom_site_fract_y
_atom_site_fract_z
Si Si1 0.516158 0.824540 0.719901
Si Si2 0.145244 0.674609 0.655505
Si Si3 0.855609 0.168180 0.945059
Si Si4 0.017969 0.674124 0.151252
Si Si5 0.853594 0.826120 0.607480
Si Si6 0.858019 0.336717 0.484815
Si Si7 0.145804 0.170366 0.908357
O O1 0.415296 0.764763 0.705078
O O2 0.551275 0.754093 0.785013
O O3 0.586014 0.770142 0.665905
O O4 0.513927 0.000000 0.726261
O O5 0.250000 0.717115 0.668349
O O6 0.130566 0.500000 0.664237
O O7 0.114428 0.723953 0.584576
O O8 0.750000 0.193136 0.929707
O O9 0.913665 0.282285 0.904581
O O10 0.884033 0.000000 0.928477
O O11 0.876002 0.200368 0.018293
O O12 0.019503 0.500000 0.161355
O O13 0.915889 0.724951 0.134618
O O14 0.750000 0.770394 0.618209
O O15 0.895522 0.764215 0.541733
O O16 0.856825 0.000000 0.601865
O O17 0.750000 0.343104 0.486803
O O18 0.898722 0.500000 0.494985
O O19 0.250000 0.209767 0.893143
O O20 0.125300 0.000000 0.891826
#
# Coordination Sequence:
#
# PCOD8214644 Si02
#       7
#     8   8   8   8   8   8   8
#     4  11  24  39  55  77 106 146 193 231 270 325
#     4   9  19  37  58  80 109 142 177 222 276 332
#     4   9  19  38  64  90 115 146 184 226 272 323
#     4  12  25  38  55  82 117 153 187 228 278 329
#     4   9  19  36  56  78 105 137 177 227 276 321
#     4   8  15  30  54  81 106 136 173 215 272 336
#     4   9  19  38  64  90 114 145 186 227 270 325
#
# _framework density 19.964742000000001
#
# number of rings (size 3 to 8) (size 9 to 14) (size 15 to 20)
#    0.000    2.429    0.000    3.857    0.000    6.571 
#    0.000    7.143    0.000    0.000    0.000    0.000 
#    0.000    0.000    0.000    0.000    0.000    0.000 
#
# Total GULP energy -694444.005846 kJ/mol
# GULP energy per Si atom -12400.785819 kJ/mol
# Density = 1.991930 g / cm^3
# Si number density = 19.964742 Si / 1000 Ang^3
#
#
#
# Elastic Constant Matrix: (Units=GPa)
#
#
# Indices 1 2 3 4 5 6 
#
# 1 46.7455 19.6398 10.4369 0.0000 0.0000 0.0000
# 2 19.6398 66.5593 24.9129 0.0000 0.0000 0.0000
# 3 10.4369 24.9129 61.6343 0.0000 0.0000 0.0000
# 4 0.0000 0.0000 0.0000 156.7692 0.0000 0.0000
# 5 0.0000 0.0000 0.0000 0.0000 25.0338 0.0000
# 6 0.0000 0.0000 0.0000 0.0000 0.0000 21.9284
#
#
#
# Elastic Compliance Matrix: (Units=1/GPa)
#
#
# Indices 1 2 3 4 5 6 
#
# 1 0.024529 -0.006696 -0.001447 0.000000 0.000000 0.000000
# 2 -0.006696 0.019530 -0.006760 0.000000 0.000000 0.000000
# 3 -0.001447 -0.006760 0.019202 0.000000 0.000000 0.000000
# 4 0.000000 0.000000 0.000000 0.006379 0.000000 0.000000
# 5 0.000000 0.000000 0.000000 0.000000 0.039946 0.000000
# 6 0.000000 0.000000 0.000000 0.000000 0.000000 0.045603
#
#
# Mechanical properties :
#
#
# Convention : Reuss Voigt Hill
#
# Bulk Modulus (GPa) = 29.89133 31.65758 30.77446
# Shear Modulus (GPa) = 25.49095 48.74291 37.11693
#
# Velocity S-wave (km/s) = 3.57711 4.94646 4.31643
# Velocity P-wave (km/s) = 5.66264 6.96524 6.34744
#
# Compressibility (1/GPa) = 0.03345452
#
# Stress axis : x y z
#
# Youngs Moduli (GPa) = 40.76836 51.20209 52.07694
#
# Poissons Ratio (x) = 0.34286 0.07535
# Poissons Ratio (y) = 0.27299 0.35206
# Poissons Ratio (z) = 0.05899 0.34615
#
# Static dielectric constant tensor:
#      x y z
#    x 3.612530 0.000000 0.000000 
#    y 0.000000 3.466300 0.000000 
#    z 0.000000 0.000000 3.716350 
# 
# 
# High freq. dielectric constant tensor:
#      x y z
#    x 1.779540 0.000000 0.000000 
#    y 0.000000 1.764670 0.000000 
#    z 0.000000 0.000000 1.782410 
# 
# From -- ./inp_files/33310.got.cif
#   From: 2010.03.12/outbox.cif.g09.slc.cpg/sg51_17_cif.got.tgz:33310.got - 2010.04.16 13:43:02.
