data_PCOD8214112
_publ_section_title
;
Structure prediction by ZEFSAII (Michael W. Deem and Ramdas Pophale) SiO2 
 PCOD8214112
Probable space group: P M M A
;
_chemical_formula_sum "Si O2"
_cell_formula_units_Z 40
_cell_length_a 8.626132
_cell_length_b 25.882668
_cell_length_c 9.286846
_cell_angle_alpha 90.000000
_cell_angle_beta 90.000000
_cell_angle_gamma 90.000000
_cell_volume 2073.449131
_symmetry_space_group_name_H-M "P M M A"
_symmetry_group_IT_number 51
_symmetry_cell_setting 'orthorhombic'
loop_
_space_group_symop_operation_xyz
x,y,z
1/2-x,-y,z
1/2+x,-y,-z
-x,y,-z
-x,-y,-z
1/2+x,y,-z
1/2-x,y,z
x,-y,z
loop_
_atom_site_type_symbol
_atom_site_label
_atom_site_fract_x
_atom_site_fract_y
_atom_site_fract_z
Si Si1 0.069176 0.439812 0.347636
Si Si2 0.065845 0.737865 0.341603
Si Si3 0.433360 0.165992 0.158291
Si Si4 0.433301 0.645149 0.842194
Si Si5 0.932790 0.945487 0.842265
O O1 0.250000 0.426342 0.346117
O O2 0.037228 0.500000 0.322308
O O3 0.000000 0.421487 0.500000
O O4 0.983636 0.410491 0.218531
O O5 0.250000 0.735091 0.345201
O O6 0.003919 0.789530 0.262903
O O7 0.000000 0.738597 0.500000
O O8 0.001425 0.688378 0.261041
O O9 0.250000 0.169531 0.144995
O O10 0.485413 0.109676 0.226088
O O11 0.500000 0.174895 0.000000
O O12 0.250000 0.649266 0.848109
O O13 0.500000 0.653319 0.000000
O O14 0.750000 0.945045 0.854860
O O15 0.984704 0.000000 0.762786
O O16 0.000000 0.946813 0.000000
#
# Coordination Sequence:
#
# PCOD8214112 Si02
#       5
#     8   8   8   8   8
#     4  10  21  39  63  90 120 154 190 226 267 317
#     4  11  23  39  57  78 106 141 183 226 273 328
#     4   9  18  31  50  76 104 135 172 217 267 319
#     4  12  25  41  61  85 114 146 183 227 275 324
#     4   8  13  23  41  67  98 130 165 207 257 312
#
# _framework density 19.291528
#
# number of rings (size 3 to 8) (size 9 to 14) (size 15 to 20)
#    0.000    2.000    0.000    4.200    0.000    4.800 
#    0.000    0.000    0.000    0.600    0.000    0.000 
#    0.000    0.000    0.000    0.000    0.000    0.200 
#
# Total GULP energy -495674.692642 kJ/mol
# GULP energy per Si atom -12391.867316 kJ/mol
# Density = 1.924762 g / cm^3
# Si number density = 19.291528 Si / 1000 Ang^3
#
#
#
# Elastic Constant Matrix: (Units=GPa)
#
#
# Indices 1 2 3 4 5 6 
#
# 1 74.9471 41.5837 38.9674 0.0000 0.0000 0.0000
# 2 41.5837 139.0901 68.5029 0.0000 0.0000 0.0000
# 3 38.9674 68.5029 118.6109 0.0000 0.0000 0.0000
# 4 0.0000 0.0000 0.0000 14.9589 0.0000 0.0000
# 5 0.0000 0.0000 0.0000 0.0000 31.2118 0.0000
# 6 0.0000 0.0000 0.0000 0.0000 0.0000 33.5977
#
#
#
# Elastic Compliance Matrix: (Units=1/GPa)
#
#
# Indices 1 2 3 4 5 6 
#
# 1 0.017098 -0.003277 -0.003724 0.000000 0.000000 0.000000
# 2 -0.003277 0.010676 -0.005089 0.000000 0.000000 0.000000
# 3 -0.003724 -0.005089 0.012594 0.000000 0.000000 0.000000
# 4 0.000000 0.000000 0.000000 0.066850 0.000000 0.000000
# 5 0.000000 0.000000 0.000000 0.000000 0.032039 0.000000
# 6 0.000000 0.000000 0.000000 0.000000 0.000000 0.029764
#
#
# Mechanical properties :
#
#
# Convention : Reuss Voigt Hill
#
# Bulk Modulus (GPa) = 61.78327 70.08400 65.93363
# Shear Modulus (GPa) = 25.17669 28.19329 26.68499
#
# Velocity S-wave (km/s) = 3.61649 3.82702 3.72324
# Velocity P-wave (km/s) = 7.03806 7.47903 7.26189
#
# Compressibility (1/GPa) = 0.01618561
#
# Stress axis : x y z
#
# Youngs Moduli (GPa) = 58.48794 93.66979 79.40565
#
# Poissons Ratio (x) = 0.30700 0.29572
# Poissons Ratio (y) = 0.19169 0.40409
# Poissons Ratio (z) = 0.21782 0.47668
#
# Static dielectric constant tensor:
#      x y z
#    x 3.600740 0.000000 0.000000 
#    y 0.000000 4.377660 0.000000 
#    z 0.000000 0.000000 -9.290960 
# 
# 
# High freq. dielectric constant tensor:
#      x y z
#    x 1.755980 0.000000 0.000000 
#    y 0.000000 1.783950 0.000000 
#    z 0.000000 0.000000 1.718960 
# 
# From -- ./inp_files/5226.got.cif
#   From: 2010.03.12/outbox.cif.g09.slc.cpg/sg51_3_cif.got.tgz:5226.got - 2010.04.16 13:43:02.
