data_PCOD8214101
_publ_section_title
;
Structure prediction by ZEFSAII (Michael W. Deem and Ramdas Pophale) SiO2 
 PCOD8214101
Probable space group: P M M A
;
_chemical_formula_sum "Si O2"
_cell_formula_units_Z 56
_cell_length_a 14.062067
_cell_length_b 14.601406
_cell_length_c 12.796034
_cell_angle_alpha 90.000000
_cell_angle_beta 90.000000
_cell_angle_gamma 90.000000
_cell_volume 2627.357830
_symmetry_space_group_name_H-M "P M M A"
_symmetry_group_IT_number 51
_symmetry_cell_setting 'orthorhombic'
loop_
_space_group_symop_operation_xyz
x,y,z
1/2-x,-y,z
1/2+x,-y,-z
-x,y,-z
-x,-y,-z
1/2+x,y,-z
1/2-x,y,z
x,-y,z
loop_
_atom_site_type_symbol
_atom_site_label
_atom_site_fract_x
_atom_site_fract_y
_atom_site_fract_z
Si Si1 0.975599 0.646748 0.764157
Si Si2 0.361534 0.282204 0.418825
Si Si3 0.645690 0.105111 0.242823
Si Si4 0.934550 0.230055 0.086866
Si Si5 0.359010 0.397223 0.617770
Si Si6 0.357431 0.600108 0.042512
Si Si7 0.529311 0.099832 0.615476
O O1 0.903640 0.650914 0.668044
O O2 0.925454 0.589981 0.856536
O O3 0.998047 0.745617 0.814601
O O4 0.075564 0.606357 0.721291
O O5 0.250000 0.288736 0.411794
O O6 0.394660 0.321416 0.532383
O O7 0.391407 0.178510 0.390668
O O8 0.750000 0.123669 0.293422
O O9 0.642142 0.159712 0.132464
O O10 0.564275 0.135850 0.323407
O O11 0.633325 0.000000 0.212889
O O12 0.890591 0.323292 0.039676
O O13 0.000000 0.180286 0.000000
O O14 0.250000 0.375649 0.651147
O O15 0.365373 0.500000 0.569714
O O16 0.250000 0.624007 0.078361
O O17 0.361005 0.500000 0.987289
O O18 0.500000 0.077866 0.500000
O O19 0.565711 0.000000 0.661297
#
# Coordination Sequence:
#
# PCOD8214101 Si02
#       7
#     8   8   8   8   8   8   8
#     4  11  21  38  60  86 118 161 204 247 301 358
#     4  11  23  39  60  88 123 161 204 249 300 359
#     4  10  21  39  66  97 125 158 201 246 298 363
#     4  10  22  38  61  88 121 159 200 255 309 359
#     4  10  23  40  59  88 124 161 204 251 299 355
#     4  10  22  39  60  89 122 158 203 253 305 360
#     4  10  21  39  62  91 125 159 197 244 298 356
#
# _framework density 21.314187
#
# number of rings (size 3 to 8) (size 9 to 14) (size 15 to 20)
#    0.000    1.714    1.429    2.571    0.000    7.143 
#    0.000    4.286    0.000    0.000    0.000    0.000 
#    0.000    0.000    0.000    0.000    0.000    0.000 
#
# Total GULP energy -693764.374827 kJ/mol
# GULP energy per Si atom -12388.649550 kJ/mol
# Density = 2.126568 g / cm^3
# Si number density = 21.314187 Si / 1000 Ang^3
#
#
#
# Elastic Constant Matrix: (Units=GPa)
#
#
# Indices 1 2 3 4 5 6 
#
# 1 109.1857 30.4173 52.9256 0.0000 0.0000 0.0000
# 2 30.4173 74.7626 36.7656 0.0000 0.0000 0.0000
# 3 52.9256 36.7656 102.8254 0.0000 0.0000 0.0000
# 4 0.0000 0.0000 0.0000 25.8993 0.0000 0.0000
# 5 0.0000 0.0000 0.0000 0.0000 31.8857 0.0000
# 6 0.0000 0.0000 0.0000 0.0000 0.0000 27.9414
#
#
#
# Elastic Compliance Matrix: (Units=1/GPa)
#
#
# Indices 1 2 3 4 5 6 
#
# 1 0.012531 -0.002337 -0.005614 0.000000 0.000000 0.000000
# 2 -0.002337 0.016665 -0.004756 0.000000 0.000000 0.000000
# 3 -0.005614 -0.004756 0.014315 0.000000 0.000000 0.000000
# 4 0.000000 0.000000 0.000000 0.038611 0.000000 0.000000
# 5 0.000000 0.000000 0.000000 0.000000 0.031362 0.000000
# 6 0.000000 0.000000 0.000000 0.000000 0.000000 0.035789
#
#
# Mechanical properties :
#
#
# Convention : Reuss Voigt Hill
#
# Bulk Modulus (GPa) = 55.25699 58.55452 56.90575
# Shear Modulus (GPa) = 27.66692 28.25631 27.96161
#
# Velocity S-wave (km/s) = 3.60676 3.64497 3.62591
# Velocity P-wave (km/s) = 6.58226 6.72653 6.65479
#
# Compressibility (1/GPa) = 0.01809726
#
# Stress axis : x y z
#
# Youngs Moduli (GPa) = 79.80024 60.00485 69.85519
#
# Poissons Ratio (x) = 0.14026 0.39218
# Poissons Ratio (y) = 0.18653 0.33220
# Poissons Ratio (z) = 0.44802 0.28536
#
# Static dielectric constant tensor:
#      x y z
#    x 3.976630 0.000000 0.000000 
#    y 0.000000 4.059310 0.000000 
#    z 0.000000 0.000000 3.823580 
# 
# 
# High freq. dielectric constant tensor:
#      x y z
#    x 1.838590 0.000000 0.000000 
#    y 0.000000 1.837680 0.000000 
#    z 0.000000 0.000000 1.827090 
# 
# From -- ./inp_files/16601.got.cif
#   From: 2010.03.12/outbox.cif.g09.slc.cpg/sg51_9_cif.got.tgz:16601.got - 2010.04.16 13:43:02.
