data_PCOD8214926
_publ_section_title
;
Structure prediction by ZEFSAII (Michael W. Deem and Ramdas Pophale) SiO2 
 PCOD8214926
Probable space group: P N N A
;
_chemical_formula_sum "Si O2"
_cell_formula_units_Z 32
_cell_length_a 8.910598
_cell_length_b 5.377472
_cell_length_c 34.844061
_cell_angle_alpha 90.000000
_cell_angle_beta 90.000000
_cell_angle_gamma 90.000000
_cell_volume 1669.605144
_symmetry_space_group_name_H-M "P N N A"
_symmetry_group_IT_number 52
_symmetry_cell_setting 'orthorhombic'
loop_
_space_group_symop_operation_xyz
x,y,z
1/2-x,-y,z
x,1/2-y,1/2-z
1/2-x,1/2+y,1/2-z
-x,-y,-z
1/2+x,y,-z
-x,1/2+y,1/2+z
1/2+x,1/2-y,1/2+z
loop_
_atom_site_type_symbol
_atom_site_label
_atom_site_fract_x
_atom_site_fract_y
_atom_site_fract_z
Si Si1 0.500486 0.187098 0.465847
Si Si2 0.250000 0.000000 0.225501
Si Si3 0.071167 0.985236 0.383254
Si Si4 0.084332 0.013577 0.151922
Si Si5 0.250000 0.000000 0.997745
O O1 0.360861 0.369791 0.472035
O O2 0.659684 0.326685 0.468036
O O3 0.500000 0.000000 0.500000
O O4 0.482945 0.033320 0.426892
O O5 0.265836 0.250000 0.250000
O O6 0.398156 0.973511 0.198391
O O7 0.002115 0.238724 0.364546
O O8 0.250000 0.000000 0.378868
O O9 0.003803 0.743970 0.360722
O O10 0.250000 0.000000 0.132736
#
# Coordination Sequence:
#
# PCOD8214926 Si02
#       5
#     8   4   8   8   4
#     4  11  23  37  55  75 104 144 194 248 292 333
#     4  10  16  27  46  68 106 144 176 218 254 334
#     4  10  18  31  50  68 102 138 182 233 261 334
#     4   8  18  28  42  72  97 133 187 205 265 328
#     4  10  24  37  52  78 102 132 204 240 300 340
#
# _framework density 19.166208000000001
#
# number of rings (size 3 to 8) (size 9 to 14) (size 15 to 20)
#    0.750    1.500    0.000    3.750   12.250    0.000 
#    0.000    0.000    0.000    0.000    0.000    0.000 
#    0.000    0.000    0.000    6.750    4.000    3.250 
#
# Total GULP energy -396446.042890 kJ/mol
# GULP energy per Si atom -12388.938840 kJ/mol
# Density = 1.912258 g / cm^3
# Si number density = 19.166208 Si / 1000 Ang^3
#
#
#
# Elastic Constant Matrix: (Units=GPa)
#
#
# Indices 1 2 3 4 5 6 
#
# 1 43.2579 19.2905 9.0173 0.0000 0.0000 0.0000
# 2 19.2905 191.3871 86.1997 0.0000 0.0000 0.0000
# 3 9.0173 86.1997 148.7163 0.0000 0.0000 0.0000
# 4 0.0000 0.0000 0.0000 46.9295 0.0000 0.0000
# 5 0.0000 0.0000 0.0000 0.0000 19.2455 0.0000
# 6 0.0000 0.0000 0.0000 0.0000 0.0000 2.7173
#
#
#
# Elastic Compliance Matrix: (Units=1/GPa)
#
#
# Indices 1 2 3 4 5 6 
#
# 1 0.024206 -0.002407 -0.000072 0.000000 0.000000 0.000000
# 2 -0.002407 0.007310 -0.004091 0.000000 0.000000 0.000000
# 3 -0.000072 -0.004091 0.009100 0.000000 0.000000 0.000000
# 4 0.000000 0.000000 0.000000 0.021309 0.000000 0.000000
# 5 0.000000 0.000000 0.000000 0.000000 0.051960 0.000000
# 6 0.000000 0.000000 0.000000 0.000000 0.000000 0.368017
#
#
# Mechanical properties :
#
#
# Convention : Reuss Voigt Hill
#
# Bulk Modulus (GPa) = 36.39766 68.04180 52.21973
# Shear Modulus (GPa) = 9.91668 31.70205 20.80936
#
# Velocity S-wave (km/s) = 2.27712 4.07143 3.29862
# Velocity P-wave (km/s) = 5.09367 7.59473 6.46628
#
# Compressibility (1/GPa) = 0.02747429
#
# Stress axis : x y z
#
# Youngs Moduli (GPa) = 41.31257 136.79275 109.88987
#
# Poissons Ratio (x) = 0.32928 0.00796
# Poissons Ratio (y) = 0.09944 0.44959
# Poissons Ratio (z) = 0.00299 0.55966
#
# Static dielectric constant tensor:
#      x y z
#    x 2.996870 0.000000 0.000000 
#    y 0.000000 4.026440 0.000000 
#    z 0.000000 0.000000 3.214230 
# 
# 
# High freq. dielectric constant tensor:
#      x y z
#    x 1.674740 0.000000 0.000000 
#    y 0.000000 1.777780 0.000000 
#    z 0.000000 0.000000 1.734160 
# 
# From -- ./inp_files/44045.got.cif
#   From: 2010.06.25/outbox.cif.g09.slc.cpg/sg52_23_cif.got.tgz:44045.got - 2010.06.26 19:32:48.
