data_PCOD8214313
_publ_section_title
;
Structure prediction by ZEFSAII (Michael W. Deem and Ramdas Pophale) SiO2 
 PCOD8214313
Probable space group: P M M A
;
_chemical_formula_sum "Si O2"
_cell_formula_units_Z 48
_cell_length_a 16.735259
_cell_length_b 19.161576
_cell_length_c 7.436826
_cell_angle_alpha 90.000000
_cell_angle_beta 90.000000
_cell_angle_gamma 90.000000
_cell_volume 2384.796274
_symmetry_space_group_name_H-M "P M M A"
_symmetry_group_IT_number 51
_symmetry_cell_setting 'orthorhombic'
loop_
_space_group_symop_operation_xyz
x,y,z
1/2-x,-y,z
1/2+x,-y,-z
-x,y,-z
-x,-y,-z
1/2+x,y,-z
1/2-x,y,z
x,-y,z
loop_
_atom_site_type_symbol
_atom_site_label
_atom_site_fract_x
_atom_site_fract_y
_atom_site_fract_z
Si Si1 0.344064 0.079369 0.255266
Si Si2 0.090609 0.319043 0.957687
Si Si3 0.657339 0.173586 0.074573
Si Si4 0.844064 0.579369 0.755266
Si Si5 0.842661 0.326414 0.425427
Si Si6 0.090609 0.180957 0.542313
O O1 0.250000 0.084130 0.282163
O O2 0.384677 0.114682 0.426023
O O3 0.374008 0.000000 0.243943
O O4 0.370144 0.117703 0.072709
O O5 0.144279 0.251370 0.004459
O O6 0.102181 0.338873 0.748602
O O7 0.115323 0.385318 0.073977
O O8 0.000000 0.298969 0.000000
O O9 0.750000 0.164298 0.127470
O O10 0.602181 0.161127 0.248602
O O11 0.750000 0.584130 0.782163
O O12 0.874009 0.500000 0.743943
O O13 0.870144 0.617703 0.572709
O O14 0.750000 0.335702 0.372530
O O15 0.855721 0.248630 0.504459
O O16 0.000000 0.201031 0.500000
#
# Coordination Sequence:
#
# PCOD8214313 Si02
#       6
#     8   8   8   8   8   8
#     4  10  22  40  62  87 119 161 203 244 294 357
#     4  11  23  36  62  89 122 153 198 250 306 350
#     4  10  22  40  62  88 118 159 206 249 292 352
#     4  10  22  40  62  87 119 161 203 244 294 357
#     4  10  22  40  62  88 118 159 206 249 292 352
#     4  11  23  36  62  89 122 153 198 250 306 350
#
# _framework density 20.127506
#
# number of rings (size 3 to 8) (size 9 to 14) (size 15 to 20)
#    0.000    1.667    0.000    5.000    9.333    4.667 
#    0.000    5.000    0.000    0.000    0.000    0.000 
#    0.000    0.000    0.000    0.000    0.000    0.000 
#
# Total GULP energy -595422.806322 kJ/mol
# GULP energy per Si atom -12404.641798 kJ/mol
# Density = 2.008169 g / cm^3
# Si number density = 20.127506 Si / 1000 Ang^3
#
#
#
# Elastic Constant Matrix: (Units=GPa)
#
#
# Indices 1 2 3 4 5 6 
#
# 1 47.2373 22.0074 43.0365 0.0000 0.0000 0.0000
# 2 22.0074 154.0749 81.7972 0.0000 0.0000 0.0000
# 3 43.0365 81.7972 121.1411 0.0000 0.0000 0.0000
# 4 0.0000 0.0000 0.0000 28.8564 0.0000 0.0000
# 5 0.0000 0.0000 0.0000 0.0000 24.8679 0.0000
# 6 0.0000 0.0000 0.0000 0.0000 0.0000 6.7135
#
#
#
# Elastic Compliance Matrix: (Units=1/GPa)
#
#
# Indices 1 2 3 4 5 6 
#
# 1 0.031801 0.002269 -0.012830 0.000000 0.000000 0.000000
# 2 0.002269 0.010279 -0.007747 0.000000 0.000000 0.000000
# 3 -0.012830 -0.007747 0.018043 0.000000 0.000000 0.000000
# 4 0.000000 0.000000 0.000000 0.034654 0.000000 0.000000
# 5 0.000000 0.000000 0.000000 0.000000 0.040213 0.000000
# 6 0.000000 0.000000 0.000000 0.000000 0.000000 0.148953
#
#
# Mechanical properties :
#
#
# Convention : Reuss Voigt Hill
#
# Bulk Modulus (GPa) = 42.53727 68.45950 55.49838
# Shear Modulus (GPa) = 15.22558 23.79505 19.51031
#
# Velocity S-wave (km/s) = 2.75336 3.44207 3.11679
# Velocity P-wave (km/s) = 5.59355 7.06285 6.37070
#
# Compressibility (1/GPa) = 0.02350880
#
# Stress axis : x y z
#
# Youngs Moduli (GPa) = 31.44510 97.28708 55.42212
#
# Poissons Ratio (x) = -0.22073 0.71105
# Poissons Ratio (y) = -0.07134 0.42933
# Poissons Ratio (z) = 0.40343 0.75364
#
# Static dielectric constant tensor:
#      x y z
#    x 3.545890 0.000000 0.000000 
#    y 0.000000 3.761570 0.000000 
#    z 0.000000 0.000000 3.672280 
# 
# 
# High freq. dielectric constant tensor:
#      x y z
#    x 1.780260 0.000000 0.000000 
#    y 0.000000 1.782940 0.000000 
#    z 0.000000 0.000000 1.794760 
# 
# From -- ./inp_files/8283.got.cif
#   From: 2010.03.12/outbox.cif.g09.slc.cpg/sg51_5_cif.got.tgz:8283.got - 2010.04.16 13:43:02.
