data_PCOD8214258
_publ_section_title
;
Structure prediction by ZEFSAII (Michael W. Deem and Ramdas Pophale) SiO2 
 PCOD8214258
Probable space group: P M M A
;
_chemical_formula_sum "Si O2"
_cell_formula_units_Z 64
_cell_length_a 19.684526
_cell_length_b 9.021484
_cell_length_c 19.094630
_cell_angle_alpha 90.000000
_cell_angle_beta 90.000000
_cell_angle_gamma 90.000000
_cell_volume 3390.893830
_symmetry_space_group_name_H-M "P M M A"
_symmetry_group_IT_number 51
_symmetry_cell_setting 'orthorhombic'
loop_
_space_group_symop_operation_xyz
x,y,z
1/2-x,-y,z
1/2+x,-y,-z
-x,y,-z
-x,-y,-z
1/2+x,y,-z
1/2-x,y,z
x,-y,z
loop_
_atom_site_type_symbol
_atom_site_label
_atom_site_fract_x
_atom_site_fract_y
_atom_site_fract_z
Si Si1 0.571233 0.328148 0.231596
Si Si2 0.445701 0.825320 0.293276
Si Si3 0.407945 0.324705 0.069357
Si Si4 0.053805 0.325809 0.441536
Si Si5 0.939512 0.671782 0.079412
Si Si6 0.672091 0.833340 0.327147
Si Si7 0.327593 0.825649 0.190894
Si Si8 0.672391 0.168486 0.489302
O O1 0.551965 0.500000 0.241859
O O2 0.504793 0.229305 0.242178
O O3 0.598758 0.296818 0.152666
O O4 0.630628 0.286786 0.284347
O O5 0.459901 0.750699 0.367781
O O6 0.373874 0.778629 0.257870
O O7 0.450112 0.000000 0.303913
O O8 0.398918 0.500000 0.080349
O O9 0.483790 0.265644 0.086669
O O10 0.353299 0.247561 0.119223
O O11 0.396377 0.271573 0.987894
O O12 0.048044 0.500000 0.430630
O O13 0.128968 0.282959 0.466003
O O14 0.000000 0.270035 0.500000
O O15 0.950257 0.500000 0.064729
O O16 0.750000 0.819223 0.305089
O O17 0.662458 0.795129 0.408120
O O18 0.645850 0.000000 0.311664
O O19 0.250000 0.775471 0.205941
O O20 0.332426 0.000000 0.179806
O O21 0.750000 0.190905 0.511868
O O22 0.649558 0.000000 0.505475
#
# Coordination Sequence:
#
# PCOD8214258 Si02
#       8
#     8   8   8   8   8   8   8   8
#     4  11  20  33  55  83 113 143 179 231 280 323
#     4  11  23  38  57  80 109 148 190 228 275 338
#     4   9  16  33  57  79 104 140 184 224 268 325
#     4  11  24  39  56  83 115 143 177 231 287 332
#     4   8  16  30  53  81 109 139 175 224 273 319
#     4   9  19  36  56  79 109 145 183 220 265 331
#     4  10  22  39  56  79 114 150 186 234 285 328
#     4   9  19  37  59  79 102 139 184 224 268 329
#
# _framework density 18.874078999999998
#
# number of rings (size 3 to 8) (size 9 to 14) (size 15 to 20)
#    0.000    2.250    1.250    3.375    0.000    5.250 
#    0.000    5.625    0.000    3.750    0.000    0.000 
#    0.000    0.000    0.000    0.000    0.000    0.000 
#
# Total GULP energy -793346.385904 kJ/mol
# GULP energy per Si atom -12396.037280 kJ/mol
# Density = 1.883112 g / cm^3
# Si number density = 18.874079 Si / 1000 Ang^3
#
#
#
# Elastic Constant Matrix: (Units=GPa)
#
#
# Indices 1 2 3 4 5 6 
#
# 1 66.5857 25.9094 43.2476 0.0000 0.0000 0.0000
# 2 25.9094 50.7162 42.6283 0.0000 0.0000 0.0000
# 3 43.2476 42.6283 114.5573 0.0000 0.0000 0.0000
# 4 0.0000 0.0000 0.0000 26.5667 0.0000 0.0000
# 5 0.0000 0.0000 0.0000 0.0000 33.3857 0.0000
# 6 0.0000 0.0000 0.0000 0.0000 0.0000 26.2154
#
#
#
# Elastic Compliance Matrix: (Units=1/GPa)
#
#
# Indices 1 2 3 4 5 6 
#
# 1 0.021055 -0.005930 -0.005742 0.000000 0.000000 0.000000
# 2 -0.005930 0.030362 -0.009059 0.000000 0.000000 0.000000
# 3 -0.005742 -0.009059 0.014268 0.000000 0.000000 0.000000
# 4 0.000000 0.000000 0.000000 0.037641 0.000000 0.000000
# 5 0.000000 0.000000 0.000000 0.000000 0.029953 0.000000
# 6 0.000000 0.000000 0.000000 0.000000 0.000000 0.038146
#
#
# Mechanical properties :
#
#
# Convention : Reuss Voigt Hill
#
# Bulk Modulus (GPa) = 41.28474 50.60331 45.94403
# Shear Modulus (GPa) = 22.62840 25.23849 23.93344
#
# Velocity S-wave (km/s) = 3.46629 3.66075 3.56484
# Velocity P-wave (km/s) = 6.15967 6.68859 6.42957
#
# Compressibility (1/GPa) = 0.02422202
#
# Stress axis : x y z
#
# Youngs Moduli (GPa) = 47.49417 32.93635 70.08665
#
# Poissons Ratio (x) = 0.19532 0.40244
# Poissons Ratio (y) = 0.28165 0.63493
# Poissons Ratio (z) = 0.27271 0.29838
#
# Static dielectric constant tensor:
#      x y z
#    x 3.418540 0.000000 0.000000 
#    y 0.000000 3.294380 0.000000 
#    z 0.000000 0.000000 3.615230 
# 
# 
# High freq. dielectric constant tensor:
#      x y z
#    x 1.719920 0.000000 0.000000 
#    y 0.000000 1.718800 0.000000 
#    z 0.000000 0.000000 1.745810 
# 
# From -- ./inp_files/30510.got.cif
#   From: 2010.03.12/outbox.cif.g09.slc.cpg/sg51_16_cif.got.tgz:30510.got - 2010.04.16 13:43:02.
