data_PCOD8214199
_publ_section_title
;
Structure prediction by ZEFSAII (Michael W. Deem and Ramdas Pophale) SiO2 
 PCOD8214199
Probable space group: P M M A
;
_chemical_formula_sum "Si O2"
_cell_formula_units_Z 48
_cell_length_a 14.171764
_cell_length_b 8.030659
_cell_length_c 20.351752
_cell_angle_alpha 90.000000
_cell_angle_beta 90.000000
_cell_angle_gamma 90.000000
_cell_volume 2316.204486
_symmetry_space_group_name_H-M "P M M A"
_symmetry_group_IT_number 51
_symmetry_cell_setting 'orthorhombic'
loop_
_space_group_symop_operation_xyz
x,y,z
1/2-x,-y,z
1/2+x,-y,-z
-x,y,-z
-x,-y,-z
1/2+x,y,-z
1/2-x,y,z
x,-y,z
loop_
_atom_site_type_symbol
_atom_site_label
_atom_site_fract_x
_atom_site_fract_y
_atom_site_fract_z
Si Si1 0.362009 0.000000 0.246917
Si Si2 0.855878 0.808085 0.185978
Si Si3 0.861495 0.000000 0.606380
Si Si4 0.019785 0.687664 0.423996
Si Si5 0.512501 0.313298 0.071307
Si Si6 0.644471 0.307713 0.327166
Si Si7 0.358610 0.317164 0.171018
O O1 0.398745 0.000000 0.319787
O O2 0.402959 0.168877 0.214571
O O3 0.250000 0.000000 0.243562
O O4 0.750000 0.746202 0.169966
O O5 0.893248 0.718202 0.252310
O O6 0.917763 0.777697 0.121313
O O7 0.858277 0.000000 0.203463
O O8 0.898158 0.826063 0.577018
O O9 0.750000 0.000000 0.598496
O O10 0.049704 0.500000 0.398349
O O11 0.000000 0.668780 0.500000
O O12 0.930737 0.758504 0.381305
O O13 0.551766 0.500000 0.061286
O O14 0.407861 0.314282 0.100776
O O15 0.500000 0.224723 0.000000
O O16 0.750000 0.224846 0.335430
O O17 0.655675 0.500000 0.341335
O O18 0.250000 0.281810 0.157392
O O19 0.373617 0.500000 0.204868
#
# Coordination Sequence:
#
# PCOD8214199 Si02
#       7
#     4   8   4   8   8   8   8
#     4   9  20  37  56  81 111 149 196 241 288 339
#     4  10  22  38  57  86 120 152 191 245 304 359
#     4  11  25  41  60  91 128 167 207 249 304 365
#     4  10  23  42  64  93 127 164 208 257 308 368
#     4  10  22  37  56  82 110 149 194 237 295 357
#     4   9  19  37  62  90 118 155 203 254 312 370
#     4   9  19  36  56  80 111 147 192 242 291 350
#
# _framework density 20.723558000000001
#
# number of rings (size 3 to 8) (size 9 to 14) (size 15 to 20)
#    0.000    2.333    0.000    0.750    4.667    3.667 
#    0.000    5.000    0.000    0.000    0.000    0.000 
#    0.000    0.000    0.000    0.000    0.000    0.000 
#
# Total GULP energy -594721.692464 kJ/mol
# GULP energy per Si atom -12390.035260 kJ/mol
# Density = 2.067639 g / cm^3
# Si number density = 20.723558 Si / 1000 Ang^3
#
#
#
# Elastic Constant Matrix: (Units=GPa)
#
#
# Indices 1 2 3 4 5 6 
#
# 1 87.6031 37.4263 46.7002 0.0000 0.0000 0.0000
# 2 37.4263 110.3595 29.7683 0.0000 0.0000 0.0000
# 3 46.7002 29.7683 123.1748 0.0000 0.0000 0.0000
# 4 0.0000 0.0000 0.0000 6.2754 0.0000 0.0000
# 5 0.0000 0.0000 0.0000 0.0000 26.8299 0.0000
# 6 0.0000 0.0000 0.0000 0.0000 0.0000 14.7803
#
#
#
# Elastic Compliance Matrix: (Units=1/GPa)
#
#
# Indices 1 2 3 4 5 6 
#
# 1 0.015804 -0.004004 -0.005024 0.000000 0.000000 0.000000
# 2 -0.004004 0.010708 -0.001070 0.000000 0.000000 0.000000
# 3 -0.005024 -0.001070 0.010282 0.000000 0.000000 0.000000
# 4 0.000000 0.000000 0.000000 0.159352 0.000000 0.000000
# 5 0.000000 0.000000 0.000000 0.000000 0.037272 0.000000
# 6 0.000000 0.000000 0.000000 0.000000 0.000000 0.067658
#
#
# Mechanical properties :
#
#
# Convention : Reuss Voigt Hill
#
# Bulk Modulus (GPa) = 60.25011 60.99192 60.62101
# Shear Modulus (GPa) = 15.29964 23.39328 19.34646
#
# Velocity S-wave (km/s) = 2.72007 3.36345 3.05872
# Velocity P-wave (km/s) = 6.24511 6.67673 6.46452
#
# Compressibility (1/GPa) = 0.01659748
#
# Stress axis : x y z
#
# Youngs Moduli (GPa) = 63.27391 93.38942 97.25827
#
# Poissons Ratio (x) = 0.37398 0.48865
# Poissons Ratio (y) = 0.25338 0.10402
# Poissons Ratio (z) = 0.31790 0.09989
#
# Static dielectric constant tensor:
#      x y z
#    x 3.843120 0.000000 0.000000 
#    y 0.000000 4.122120 0.000000 
#    z 0.000000 0.000000 3.724310 
# 
# 
# High freq. dielectric constant tensor:
#      x y z
#    x 1.807080 0.000000 0.000000 
#    y 0.000000 1.814890 0.000000 
#    z 0.000000 0.000000 1.802640 
# 
# From -- ./inp_files/29623.got.cif
#   From: 2010.03.12/outbox.cif.g09.slc.cpg/sg51_15_cif.got.tgz:29623.got - 2010.04.16 13:43:02.
