data_PCOD8214371
_publ_section_title
;
Structure prediction by ZEFSAII (Michael W. Deem and Ramdas Pophale) SiO2 
 PCOD8214371
Probable space group: P M M A
;
_chemical_formula_sum "Si O2"
_cell_formula_units_Z 44
_cell_length_a 8.678944
_cell_length_b 28.715266
_cell_length_c 9.341063
_cell_angle_alpha 90.000000
_cell_angle_beta 90.000000
_cell_angle_gamma 90.000000
_cell_volume 2327.962772
_symmetry_space_group_name_H-M "P M M A"
_symmetry_group_IT_number 51
_symmetry_cell_setting 'orthorhombic'
loop_
_space_group_symop_operation_xyz
x,y,z
1/2-x,-y,z
1/2+x,-y,-z
-x,y,-z
-x,-y,-z
1/2+x,y,-z
1/2-x,y,z
x,-y,z
loop_
_atom_site_type_symbol
_atom_site_label
_atom_site_fract_x
_atom_site_fract_y
_atom_site_fract_z
Si Si1 0.932345 0.671280 0.159723
Si Si2 0.933072 0.411574 0.658061
Si Si3 0.430419 0.764850 0.155724
Si Si4 0.568570 0.948519 0.654131
Si Si5 0.431355 0.500000 0.157938
Si Si6 0.429823 0.866239 0.154864
O O1 0.750000 0.666595 0.151664
O O2 0.999622 0.633993 0.268237
O O3 0.981138 0.721404 0.228281
O O4 0.000000 0.664702 0.000000
O O5 0.750000 0.408018 0.648508
O O6 0.987427 0.455023 0.754295
O O7 0.000000 0.417693 0.500000
O O8 0.250000 0.752831 0.147812
O O9 0.460234 0.815389 0.229779
O O10 0.500000 0.770022 0.000000
O O11 0.500000 0.940851 0.500000
O O12 0.750000 0.942899 0.642160
O O13 0.496644 0.908029 0.752915
O O14 0.524677 0.000000 0.714079
O O15 0.250000 0.500000 0.140637
O O16 0.500000 0.500000 0.000000
O O17 0.250000 0.874256 0.136902
O O18 0.500000 0.868988 0.000000
#
# Coordination Sequence:
#
# PCOD8214371 Si02
#       6
#     8   8   8   8   4   8
#     4  11  21  35  56  82 109 142 182 223 264 312
#     4  11  23  40  59  84 115 148 182 221 269 317
#     4   9  16  29  49  73 102 135 171 214 261 309
#     4   9  18  33  50  69  96 130 167 207 252 305
#     4  10  23  40  62  88 114 144 183 224 263 312
#     4   9  18  31  49  74 102 131 166 211 260 308
#
# _framework density 18.900644
#
# number of rings (size 3 to 8) (size 9 to 14) (size 15 to 20)
#    0.000    2.182    0.000    4.636    0.000    4.727 
#    0.000    0.909    0.000    2.182    0.000    0.000 
#    0.000    0.000    0.000    0.000    0.000    0.000 
#
# Total GULP energy -545298.071547 kJ/mol
# GULP energy per Si atom -12393.137990 kJ/mol
# Density = 1.885763 g / cm^3
# Si number density = 18.900644 Si / 1000 Ang^3
#
#
#
# Elastic Constant Matrix: (Units=GPa)
#
#
# Indices 1 2 3 4 5 6 
#
# 1 73.6046 50.9523 38.7633 0.0000 0.0000 0.0000
# 2 50.9523 195.1437 85.8739 0.0000 0.0000 0.0000
# 3 38.7633 85.8739 102.8832 0.0000 0.0000 0.0000
# 4 0.0000 0.0000 0.0000 2.0510 0.0000 0.0000
# 5 0.0000 0.0000 0.0000 0.0000 29.2532 0.0000
# 6 0.0000 0.0000 0.0000 0.0000 0.0000 37.4388
#
#
#
# Elastic Compliance Matrix: (Units=1/GPa)
#
#
# Indices 1 2 3 4 5 6 
#
# 1 0.017794 -0.002680 -0.004467 0.000000 0.000000 0.000000
# 2 -0.002680 0.008503 -0.006087 0.000000 0.000000 0.000000
# 3 -0.004467 -0.006087 0.016484 0.000000 0.000000 0.000000
# 4 0.000000 0.000000 0.000000 0.487567 0.000000 0.000000
# 5 0.000000 0.000000 0.000000 0.000000 0.034184 0.000000
# 6 0.000000 0.000000 0.000000 0.000000 0.000000 0.026710
#
#
# Mechanical properties :
#
#
# Convention : Reuss Voigt Hill
#
# Bulk Modulus (GPa) = 61.30707 80.31230 70.80969
# Shear Modulus (GPa) = 8.02376 26.81807 17.42092
#
# Velocity S-wave (km/s) = 2.06263 3.77091 3.03926
# Velocity P-wave (km/s) = 6.17896 7.84498 7.06128
#
# Compressibility (1/GPa) = 0.01631133
#
# Stress axis : x y z
#
# Youngs Moduli (GPa) = 56.19847 117.60479 60.66542
#
# Poissons Ratio (x) = 0.31521 0.27100
# Poissons Ratio (y) = 0.15063 0.36930
# Poissons Ratio (z) = 0.25105 0.71591
#
# Static dielectric constant tensor:
#      x y z
#    x 3.498110 0.000000 0.000000 
#    y 0.000000 4.400890 0.000000 
#    z 0.000000 0.000000 3.298260 
# 
# 
# High freq. dielectric constant tensor:
#      x y z
#    x 1.738540 0.000000 0.000000 
#    y 0.000000 1.764080 0.000000 
#    z 0.000000 0.000000 1.703190 
# 
# From -- ./inp_files/5744.got.cif
#   From: 2010.03.12/outbox.cif.g09.slc.cpg/sg51_3_cif.got.tgz:5744.got - 2010.04.16 13:43:02.
