data_PCOD8214957
_publ_section_title
;
Structure prediction by ZEFSAII (Michael W. Deem and Ramdas Pophale) SiO2 
 PCOD8214957
Probable space group: P N N A
;
_chemical_formula_sum "Si O2"
_cell_formula_units_Z 32
_cell_length_a 14.690023
_cell_length_b 8.608329
_cell_length_c 13.388873
_cell_angle_alpha 90.000000
_cell_angle_beta 90.000000
_cell_angle_gamma 90.000000
_cell_volume 1693.110701
_symmetry_space_group_name_H-M "P N N A"
_symmetry_group_IT_number 52
_symmetry_cell_setting 'orthorhombic'
loop_
_space_group_symop_operation_xyz
x,y,z
1/2-x,-y,z
x,1/2-y,1/2-z
1/2-x,1/2+y,1/2-z
-x,-y,-z
1/2+x,y,-z
-x,1/2+y,1/2+z
1/2+x,1/2-y,1/2+z
loop_
_atom_site_type_symbol
_atom_site_label
_atom_site_fract_x
_atom_site_fract_y
_atom_site_fract_z
Si Si1 0.476470 0.250000 0.750000
Si Si2 0.250000 0.000000 0.327487
Si Si3 0.201744 0.781004 0.054682
Si Si4 0.631826 0.078299 0.850167
Si Si5 0.195279 0.843601 0.659067
O O1 0.533074 0.153997 0.833819
O O2 0.410257 0.126490 0.692432
O O3 0.311581 0.113720 0.394445
O O4 0.179172 0.092437 0.258339
O O5 0.307246 0.828636 0.070388
O O6 0.130605 0.900991 0.107260
O O7 0.188652 0.768476 0.936681
O O8 0.244939 0.750000 0.750000
O O9 0.250000 0.000000 0.634597
#
# Coordination Sequence:
#
# PCOD8214957 Si02
#       5
#     4   4   8   8   8
#     4  10  22  40  64  90 132 156 224 274 300 374
#     4  10  16  34  60  94 126 156 200 256 326 372
#     4  10  19  34  66  87 127 163 207 246 339 378
#     4  10  19  36  61  96 122 165 199 274 307 376
#     4  10  24  42  61  83 125 176 209 265 320 383
#
# _framework density 18.900122
#
# number of rings (size 3 to 8) (size 9 to 14) (size 15 to 20)
#    0.750    1.500    3.750    2.250    3.500    1.000 
#    0.000    7.500    0.000    0.000    0.000    0.000 
#    0.000    0.000    0.000    0.000    0.000    0.000 
#
# Total GULP energy -396432.193463 kJ/mol
# GULP energy per Si atom -12388.506046 kJ/mol
# Density = 1.885710 g / cm^3
# Si number density = 18.900122 Si / 1000 Ang^3
#
#
#
# Elastic Constant Matrix: (Units=GPa)
#
#
# Indices 1 2 3 4 5 6 
#
# 1 109.2173 39.7549 28.3464 0.0000 0.0000 0.0000
# 2 39.7549 94.4784 33.9589 0.0000 0.0000 0.0000
# 3 28.3464 33.9589 120.2912 0.0000 0.0000 0.0000
# 4 0.0000 0.0000 0.0000 30.7874 0.0000 0.0000
# 5 0.0000 0.0000 0.0000 0.0000 12.6726 0.0000
# 6 0.0000 0.0000 0.0000 0.0000 0.0000 31.6461
#
#
#
# Elastic Compliance Matrix: (Units=1/GPa)
#
#
# Indices 1 2 3 4 5 6 
#
# 1 0.011030 -0.004126 -0.001435 0.000000 0.000000 0.000000
# 2 -0.004126 0.013323 -0.002789 0.000000 0.000000 0.000000
# 3 -0.001435 -0.002789 0.009439 0.000000 0.000000 0.000000
# 4 0.000000 0.000000 0.000000 0.032481 0.000000 0.000000
# 5 0.000000 0.000000 0.000000 0.000000 0.078910 0.000000
# 6 0.000000 0.000000 0.000000 0.000000 0.000000 0.031600
#
#
# Mechanical properties :
#
#
# Convention : Reuss Voigt Hill
#
# Bulk Modulus (GPa) = 58.50244 58.67857 58.59051
# Shear Modulus (GPa) = 25.10314 29.81633 27.45974
#
# Velocity S-wave (km/s) = 3.64840 3.97618 3.81581
# Velocity P-wave (km/s) = 6.98344 7.22454 7.10502
#
# Compressibility (1/GPa) = 0.01709330
#
# Stress axis : x y z
#
# Youngs Moduli (GPa) = 90.66092 75.05891 105.94865
#
# Poissons Ratio (x) = 0.30967 0.15199
# Poissons Ratio (y) = 0.37404 0.29548
# Poissons Ratio (z) = 0.13006 0.20933
#
# Static dielectric constant tensor:
#      x y z
#    x 3.189850 0.000000 0.000000 
#    y 0.000000 3.424440 0.000000 
#    z 0.000000 0.000000 3.463350 
# 
# 
# High freq. dielectric constant tensor:
#      x y z
#    x 1.694850 0.000000 0.000000 
#    y 0.000000 1.733490 0.000000 
#    z 0.000000 0.000000 1.739660 
# 
# From -- ./inp_files/27786.got.cif
#   From: 2010.06.25/outbox.cif.g09.slc.cpg/sg52_14_cif.got.tgz:27786.got - 2010.06.26 19:32:48.
