data_PCOD8214534
_publ_section_title
;
Structure prediction by ZEFSAII (Michael W. Deem and Ramdas Pophale) SiO2 
 PCOD8214534
Probable space group: P M M A
;
_chemical_formula_sum "Si O2"
_cell_formula_units_Z 48
_cell_length_a 15.325604
_cell_length_b 9.274968
_cell_length_c 18.276548
_cell_angle_alpha 90.000000
_cell_angle_beta 90.000000
_cell_angle_gamma 90.000000
_cell_volume 2597.910534
_symmetry_space_group_name_H-M "P M M A"
_symmetry_group_IT_number 51
_symmetry_cell_setting 'orthorhombic'
loop_
_space_group_symop_operation_xyz
x,y,z
1/2-x,-y,z
1/2+x,-y,-z
-x,y,-z
-x,-y,-z
1/2+x,y,-z
1/2-x,y,z
x,-y,z
loop_
_atom_site_type_symbol
_atom_site_label
_atom_site_fract_x
_atom_site_fract_y
_atom_site_fract_z
Si Si1 0.849463 0.333520 0.097492
Si Si2 0.345107 0.836526 0.585234
Si Si3 0.984545 0.831751 0.667608
Si Si4 0.591163 0.662016 0.541648
Si Si5 0.492198 0.170075 0.164947
Si Si6 0.649980 0.334373 0.927020
O O1 0.750000 0.291838 0.117734
O O2 0.867191 0.500000 0.116428
O O3 0.914608 0.235587 0.143632
O O4 0.866475 0.305750 0.012186
O O5 0.250000 0.822431 0.623026
O O6 0.417292 0.786575 0.643774
O O7 0.341722 0.742195 0.511481
O O8 0.364735 0.000000 0.560822
O O9 0.915160 0.743147 0.619387
O O10 0.971993 0.788642 0.751530
O O11 0.967404 0.000000 0.654714
O O12 0.500000 0.665454 0.500000
O O13 0.623626 0.500000 0.556473
O O14 0.413466 0.230968 0.117205
O O15 0.497810 0.000000 0.153249
O O16 0.750000 0.298490 0.906455
O O17 0.628441 0.500000 0.907866
#
# Coordination Sequence:
#
# PCOD8214534 Si02
#       6
#     8   8   8   8   8   8
#     4   9  19  36  56  77 103 139 181 219 257 310
#     4   9  17  31  52  73  94 127 167 202 241 295
#     4   9  19  34  49  69 101 137 168 198 240 301
#     4   9  17  30  49  71  93 119 155 199 241 280
#     4  11  22  33  51  81 112 140 171 215 269 315
#     4   9  19  37  58  76  98 135 182 225 263 311
#
# _framework density 18.476386999999999
#
# number of rings (size 3 to 8) (size 9 to 14) (size 15 to 20)
#    0.000    2.667    0.000    2.500    0.000    7.667 
#    0.000    4.167    0.000    1.000    0.000    0.000 
#    0.000    0.000    0.000    0.000    0.000    0.000 
#
# Total GULP energy -595138.079337 kJ/mol
# GULP energy per Si atom -12398.709986 kJ/mol
# Density = 1.843433 g / cm^3
# Si number density = 18.476387 Si / 1000 Ang^3
#
#
#
# Elastic Constant Matrix: (Units=GPa)
#
#
# Indices 1 2 3 4 5 6 
#
# 1 49.4801 23.9800 12.9646 0.0000 0.0000 0.0000
# 2 23.9800 82.2583 42.7336 0.0000 0.0000 0.0000
# 3 12.9646 42.7336 70.1477 0.0000 0.0000 0.0000
# 4 0.0000 0.0000 0.0000 22.0275 0.0000 0.0000
# 5 0.0000 0.0000 0.0000 0.0000 15.6808 0.0000
# 6 0.0000 0.0000 0.0000 0.0000 0.0000 26.5354
#
#
#
# Elastic Compliance Matrix: (Units=1/GPa)
#
#
# Indices 1 2 3 4 5 6 
#
# 1 0.023538 -0.006733 -0.000249 0.000000 0.000000 0.000000
# 2 -0.006733 0.019711 -0.010764 0.000000 0.000000 0.000000
# 3 -0.000249 -0.010764 0.020859 0.000000 0.000000 0.000000
# 4 0.000000 0.000000 0.000000 0.045398 0.000000 0.000000
# 5 0.000000 0.000000 0.000000 0.000000 0.063772 0.000000
# 6 0.000000 0.000000 0.000000 0.000000 0.000000 0.037685
#
#
# Mechanical properties :
#
#
# Convention : Reuss Voigt Hill
#
# Bulk Modulus (GPa) = 34.94296 40.13805 37.54051
# Shear Modulus (GPa) = 19.53175 20.99595 20.26385
#
# Velocity S-wave (km/s) = 3.25486 3.37466 3.31530
# Velocity P-wave (km/s) = 5.75142 6.07911 5.91753
#
# Compressibility (1/GPa) = 0.02861807
#
# Stress axis : x y z
#
# Youngs Moduli (GPa) = 42.48403 50.73226 47.94139
#
# Poissons Ratio (x) = 0.34156 0.01193
# Poissons Ratio (y) = 0.28603 0.51603
# Poissons Ratio (z) = 0.01057 0.54607
#
# Static dielectric constant tensor:
#      x y z
#    x 3.314110 0.000000 0.000000 
#    y 0.000000 3.410990 0.000000 
#    z 0.000000 0.000000 3.299370 
# 
# 
# High freq. dielectric constant tensor:
#      x y z
#    x 1.712750 0.000000 0.000000 
#    y 0.000000 1.716520 0.000000 
#    z 0.000000 0.000000 1.705160 
# 
# From -- ./inp_files/24756.got.cif
#   From: 2010.03.12/outbox.cif.g09.slc.cpg/sg51_13_cif.got.tgz:24756.got - 2010.04.16 13:43:02.
