data_PCOD8214314
_publ_section_title
;
Structure prediction by ZEFSAII (Michael W. Deem and Ramdas Pophale) SiO2 
 PCOD8214314
Probable space group: P M M A
;
_chemical_formula_sum "Si O2"
_cell_formula_units_Z 48
_cell_length_a 8.836295
_cell_length_b 16.736348
_cell_length_c 15.725008
_cell_angle_alpha 90.000000
_cell_angle_beta 90.000000
_cell_angle_gamma 90.000000
_cell_volume 2325.529104
_symmetry_space_group_name_H-M "P M M A"
_symmetry_group_IT_number 51
_symmetry_cell_setting 'orthorhombic'
loop_
_space_group_symop_operation_xyz
x,y,z
1/2-x,-y,z
1/2+x,-y,-z
-x,y,-z
-x,-y,-z
1/2+x,y,-z
1/2-x,y,z
x,-y,z
loop_
_atom_site_type_symbol
_atom_site_label
_atom_site_fract_x
_atom_site_fract_y
_atom_site_fract_z
Si Si1 0.420941 0.154618 0.655898
Si Si2 0.074808 0.593243 0.253829
Si Si3 0.073303 0.000000 0.408587
Si Si4 0.571609 0.322226 0.412329
Si Si5 0.070281 0.000000 0.092387
Si Si6 0.570538 0.686098 0.914092
Si Si7 0.423031 0.158706 0.850018
O O1 0.250000 0.129282 0.631858
O O2 0.476220 0.229527 0.599768
O O3 0.429173 0.185203 0.752288
O O4 0.527686 0.078975 0.642542
O O5 0.250000 0.613239 0.269220
O O6 0.044780 0.500000 0.243315
O O7 0.017569 0.634398 0.166887
O O8 0.983658 0.624249 0.334572
O O9 0.000000 0.000000 0.500000
O O10 0.250000 0.000000 0.420336
O O11 0.500000 0.353954 0.500000
O O12 0.750000 0.331041 0.417823
O O13 0.012724 0.076459 0.143103
O O14 0.250000 0.000000 0.087566
O O15 0.000000 0.000000 0.000000
O O16 0.750000 0.688548 0.922214
O O17 0.505582 0.775383 0.906606
O O18 0.500000 0.647869 0.000000
O O19 0.250000 0.148476 0.881527
#
# Coordination Sequence:
#
# PCOD8214314 Si02
#       7
#     8   8   4   8   4   8   8
#     4  10  22  40  62  88 122 162 207 257 313 369
#     4  10  23  44  68  95 128 165 207 259 316 377
#     4  12  25  38  57  85 121 163 211 259 308 365
#     4  11  23  41  66  97 128 168 212 259 315 376
#     4  12  25  40  57  85 121 163 213 261 312 367
#     4  11  23  40  65  95 129 168 211 259 313 376
#     4  11  22  40  63  89 123 163 208 260 314 370
#
# _framework density 20.640463
#
# number of rings (size 3 to 8) (size 9 to 14) (size 15 to 20)
#    0.000    1.167    1.667    4.500    0.000    7.667 
#    0.000    0.000    0.000    0.000    0.000    0.000 
#    0.000    0.000    0.000    0.000    0.000    0.000 
#
# Total GULP energy -595461.735261 kJ/mol
# GULP energy per Si atom -12405.452818 kJ/mol
# Density = 2.059348 g / cm^3
# Si number density = 20.640463 Si / 1000 Ang^3
#
#
#
# Elastic Constant Matrix: (Units=GPa)
#
#
# Indices 1 2 3 4 5 6 
#
# 1 117.6328 47.5144 51.1842 0.0000 0.0000 0.0000
# 2 47.5144 100.0826 46.6858 0.0000 0.0000 0.0000
# 3 51.1842 46.6858 140.4250 0.0000 0.0000 0.0000
# 4 0.0000 0.0000 0.0000 17.4682 0.0000 0.0000
# 5 0.0000 0.0000 0.0000 0.0000 37.4839 0.0000
# 6 0.0000 0.0000 0.0000 0.0000 0.0000 29.5989
#
#
#
# Elastic Compliance Matrix: (Units=1/GPa)
#
#
# Indices 1 2 3 4 5 6 
#
# 1 0.011367 -0.004099 -0.002780 0.000000 0.000000 0.000000
# 2 -0.004099 0.013304 -0.002929 0.000000 0.000000 0.000000
# 3 -0.002780 -0.002929 0.009108 0.000000 0.000000 0.000000
# 4 0.000000 0.000000 0.000000 0.057247 0.000000 0.000000
# 5 0.000000 0.000000 0.000000 0.000000 0.026678 0.000000
# 6 0.000000 0.000000 0.000000 0.000000 0.000000 0.033785
#
#
# Mechanical properties :
#
#
# Convention : Reuss Voigt Hill
#
# Bulk Modulus (GPa) = 70.61083 72.10102 71.35593
# Shear Modulus (GPa) = 28.43706 31.09394 29.76550
#
# Velocity S-wave (km/s) = 3.71581 3.88552 3.80161
# Velocity P-wave (km/s) = 7.25905 7.42546 7.34273
#
# Compressibility (1/GPa) = 0.01416213
#
# Stress axis : x y z
#
# Youngs Moduli (GPa) = 87.97721 75.16412 109.78956
#
# Poissons Ratio (x) = 0.30813 0.30523
# Poissons Ratio (y) = 0.36066 0.32156
# Poissons Ratio (z) = 0.24459 0.22015
#
# Static dielectric constant tensor:
#      x y z
#    x 3.826430 0.000000 0.000000 
#    y 0.000000 3.721060 0.000000 
#    z 0.000000 0.000000 3.883190 
# 
# 
# High freq. dielectric constant tensor:
#      x y z
#    x 1.812230 0.000000 0.000000 
#    y 0.000000 1.803910 0.000000 
#    z 0.000000 0.000000 1.823600 
# 
# From -- ./inp_files/21199.got.cif
#   From: 2010.03.12/outbox.cif.g09.slc.cpg/sg51_11_cif.got.tgz:21199.got - 2010.04.16 13:43:02.
