data_PCOD8214383
_publ_section_title
;
Structure prediction by ZEFSAII (Michael W. Deem and Ramdas Pophale) SiO2 
 PCOD8214383
Probable space group: P M M A
;
_chemical_formula_sum "Si O2"
_cell_formula_units_Z 56
_cell_length_a 19.267878
_cell_length_b 16.398772
_cell_length_c 8.792350
_cell_angle_alpha 90.000000
_cell_angle_beta 90.000000
_cell_angle_gamma 90.000000
_cell_volume 2778.114770
_symmetry_space_group_name_H-M "P M M A"
_symmetry_group_IT_number 51
_symmetry_cell_setting 'orthorhombic'
loop_
_space_group_symop_operation_xyz
x,y,z
1/2-x,-y,z
1/2+x,-y,-z
-x,y,-z
-x,-y,-z
1/2+x,y,-z
1/2-x,y,z
x,-y,z
loop_
_atom_site_type_symbol
_atom_site_label
_atom_site_fract_x
_atom_site_fract_y
_atom_site_fract_z
Si Si1 0.943257 0.848645 0.222436
Si Si2 0.829525 0.408074 0.590979
Si Si3 0.168260 0.000000 0.277911
Si Si4 0.170387 0.681052 0.101524
Si Si5 0.075482 0.000000 0.571650
Si Si6 0.900950 0.848602 0.876726
Si Si7 0.064711 0.684027 0.608079
Si Si8 0.934575 0.594448 0.097669
O O1 0.917452 0.765651 0.299889
O O2 0.026504 0.851220 0.212906
O O3 0.914239 0.921234 0.324157
O O4 0.910456 0.857393 0.056586
O O5 0.750000 0.403177 0.539614
O O6 0.858421 0.500000 0.568226
O O7 0.837557 0.386305 0.767689
O O8 0.869436 0.342854 0.489275
O O9 0.133694 0.000000 0.443113
O O10 0.146683 0.078832 0.182209
O O11 0.250000 0.000000 0.302469
O O12 0.250000 0.696816 0.057178
O O13 0.136532 0.764146 0.162031
O O14 0.132057 0.646698 0.952502
O O15 0.000000 0.000000 0.500000
O O16 0.047358 0.612256 0.727329
O O17 0.000000 0.699393 0.500000
O O18 0.918760 0.500000 0.073629
O O19 0.000000 0.624499 0.000000
#
# Coordination Sequence:
#
# PCOD8214383 Si02
#       8
#     8   8   4   8   4   8   8   8
#     4  11  23  41  71  99 130 170 221 274 316 385
#     4  10  23  42  62  88 127 173 219 268 329 397
#     4  12  27  45  69 103 141 174 212 266 327 391
#     4  11  23  41  66  95 128 172 219 268 330 398
#     4  12  23  43  68 105 132 171 219 262 315 389
#     4  11  22  44  69  98 132 170 219 268 325 384
#     4  12  24  39  64  95 129 169 215 273 330 380
#     4  11  23  40  62  92 127 166 217 274 325 383
#
# _framework density 20.157554000000001
#
# number of rings (size 3 to 8) (size 9 to 14) (size 15 to 20)
#    0.000    0.857    2.857    4.714    2.000    4.857 
#    0.000    2.143    0.000    0.000    0.000    0.000 
#    0.000    0.000    0.000    0.000    0.000    0.000 
#
# Total GULP energy -694772.216814 kJ/mol
# GULP energy per Si atom -12406.646729 kJ/mol
# Density = 2.011167 g / cm^3
# Si number density = 20.157554 Si / 1000 Ang^3
#
#
#
# Elastic Constant Matrix: (Units=GPa)
#
#
# Indices 1 2 3 4 5 6 
#
# 1 109.9998 57.5388 50.2640 0.0000 0.0000 0.0000
# 2 57.5388 122.0887 43.3731 0.0000 0.0000 0.0000
# 3 50.2640 43.3731 104.6474 0.0000 0.0000 0.0000
# 4 0.0000 0.0000 0.0000 167.2550 0.0000 0.0000
# 5 0.0000 0.0000 0.0000 0.0000 31.3663 0.0000
# 6 0.0000 0.0000 0.0000 0.0000 0.0000 -31.4060
#
#
#
# Elastic Compliance Matrix: (Units=1/GPa)
#
#
# Indices 1 2 3 4 5 6 
#
# 1 0.013714 -0.004835 -0.004583 0.000000 0.000000 0.000000
# 2 -0.004835 0.011310 -0.002365 0.000000 0.000000 0.000000
# 3 -0.004583 -0.002365 0.012738 0.000000 0.000000 0.000000
# 4 0.000000 0.000000 0.000000 0.005979 0.000000 0.000000
# 5 0.000000 0.000000 0.000000 0.000000 0.031881 0.000000
# 6 0.000000 0.000000 0.000000 0.000000 0.000000 -0.031841
#
#
# Mechanical properties :
#
#
# Convention : Reuss Voigt Hill
#
# Bulk Modulus (GPa) = 70.44902 71.00973 70.72937
# Shear Modulus (GPa) = 69.36786 45.81374 57.59080
#
# Velocity S-wave (km/s) = 5.87261 4.77254 5.35092
# Velocity P-wave (km/s) = 9.00047 8.10391 8.56393
#
# Compressibility (1/GPa) = 0.01419466
#
# Stress axis : x y z
#
# Youngs Moduli (GPa) = 72.91601 88.41932 78.50789
#
# Poissons Ratio (x) = 0.42752 0.35982
# Poissons Ratio (y) = 0.35256 0.18568
# Poissons Ratio (z) = 0.33419 0.20912
#
# Static dielectric constant tensor:
#      x y z
#    x 3.601800 0.000000 0.000000 
#    y 0.000000 3.871630 0.000000 
#    z 0.000000 0.000000 3.734920 
# 
# 
# High freq. dielectric constant tensor:
#      x y z
#    x 1.778290 0.000000 0.000000 
#    y 0.000000 1.803550 0.000000 
#    z 0.000000 0.000000 1.797900 
# 
# From -- ./inp_files/11074.got.cif
#   From: 2010.03.12/outbox.cif.g09.slc.cpg/sg51_6_cif.got.tgz:11074.got - 2010.04.16 13:43:02.
