data_PCOD8214204
_publ_section_title
;
Structure prediction by ZEFSAII (Michael W. Deem and Ramdas Pophale) SiO2 
 PCOD8214204
Probable space group: P M M A
;
_chemical_formula_sum "Si O2"
_cell_formula_units_Z 48
_cell_length_a 10.012613
_cell_length_b 30.659382
_cell_length_c 7.641630
_cell_angle_alpha 90.000000
_cell_angle_beta 90.000000
_cell_angle_gamma 90.000000
_cell_volume 2345.831603
_symmetry_space_group_name_H-M "P M M A"
_symmetry_group_IT_number 51
_symmetry_cell_setting 'orthorhombic'
loop_
_space_group_symop_operation_xyz
x,y,z
1/2-x,-y,z
1/2+x,-y,-z
-x,y,-z
-x,-y,-z
1/2+x,y,-z
1/2-x,y,z
x,-y,z
loop_
_atom_site_type_symbol
_atom_site_label
_atom_site_fract_x
_atom_site_fract_y
_atom_site_fract_z
Si Si1 0.250000 0.657836 0.981990
Si Si2 0.485753 0.775011 0.208217
Si Si3 0.596108 0.551517 0.656368
Si Si4 0.596282 0.134826 0.842809
Si Si5 0.250000 0.712828 0.309532
Si Si6 0.500000 0.600308 0.000000
Si Si7 0.400673 0.952839 0.342465
Si Si8 0.750000 0.731686 0.304458
O O1 0.250000 0.669152 0.190443
O O2 0.380130 0.630440 0.932514
O O3 0.250000 0.701368 0.865941
O O4 0.432799 0.822616 0.277638
O O5 0.381867 0.738885 0.264162
O O6 0.624211 0.764127 0.302707
O O7 0.500000 0.773360 0.000000
O O8 0.500000 0.568670 0.500000
O O9 0.750000 0.565104 0.617711
O O10 0.583146 0.500000 0.673623
O O11 0.548315 0.570858 0.839923
O O12 0.750000 0.133750 0.902118
O O13 0.552130 0.088153 0.769133
O O14 0.500000 0.143793 0.000000
O O15 0.250000 0.702539 0.517830
O O16 0.500000 0.956007 0.500000
O O17 0.250000 0.944516 0.410735
O O18 0.406937 0.000000 0.241286
#
# Coordination Sequence:
#
# PCOD8214204 Si02
#       8
#     4   8   8   8   4   4   8   4
#     4  12  26  44  65  96 134 176 221 284 330 384
#     4  11  21  42  65  88 125 160 202 272 328 380
#     4  10  23  44  72 107 143 181 228 281 332 388
#     4  10  22  37  59  89 117 153 193 247 309 367
#     4  12  24  44  66  91 125 166 216 267 329 390
#     4  12  25  44  70  96 140 186 226 272 337 394
#     4   9  19  37  57  81 119 158 192 238 295 361
#     4  12  26  42  70  93 117 172 220 267 333 388
#
# _framework density 20.461825999999999
#
# number of rings (size 3 to 8) (size 9 to 14) (size 15 to 20)
#    0.000    1.333    3.333    1.750    4.667    3.667 
#    0.000    0.000    0.000    0.000    0.000    0.000 
#    0.000    0.000    0.000    0.000    0.000    0.000 
#
# Total GULP energy -594945.847990 kJ/mol
# GULP energy per Si atom -12394.705166 kJ/mol
# Density = 2.041525 g / cm^3
# Si number density = 20.461826 Si / 1000 Ang^3
#
#
#
# Elastic Constant Matrix: (Units=GPa)
#
#
# Indices 1 2 3 4 5 6 
#
# 1 132.5160 39.2179 28.0644 0.0000 0.0000 0.0000
# 2 39.2179 69.8427 27.3242 0.0000 0.0000 0.0000
# 3 28.0644 27.3242 89.4091 0.0000 0.0000 0.0000
# 4 0.0000 0.0000 0.0000 14.1923 0.0000 0.0000
# 5 0.0000 0.0000 0.0000 0.0000 39.9534 0.0000
# 6 0.0000 0.0000 0.0000 0.0000 0.0000 39.1005
#
#
#
# Elastic Compliance Matrix: (Units=1/GPa)
#
#
# Indices 1 2 3 4 5 6 
#
# 1 0.009222 -0.004595 -0.001490 0.000000 0.000000 0.000000
# 2 -0.004595 0.018552 -0.004227 0.000000 0.000000 0.000000
# 3 -0.001490 -0.004227 0.012944 0.000000 0.000000 0.000000
# 4 0.000000 0.000000 0.000000 0.070461 0.000000 0.000000
# 5 0.000000 0.000000 0.000000 0.000000 0.025029 0.000000
# 6 0.000000 0.000000 0.000000 0.000000 0.000000 0.025575
#
#
# Mechanical properties :
#
#
# Convention : Reuss Voigt Hill
#
# Bulk Modulus (GPa) = 49.76975 53.44232 51.60603
# Shear Modulus (GPa) = 26.44022 31.79333 29.11677
#
# Velocity S-wave (km/s) = 3.59858 3.94609 3.77633
# Velocity P-wave (km/s) = 6.45309 6.85105 6.65505
#
# Compressibility (1/GPa) = 0.02009253
#
# Stress axis : x y z
#
# Youngs Moduli (GPa) = 108.43864 53.90261 77.25457
#
# Poissons Ratio (x) = 0.24769 0.11513
# Poissons Ratio (y) = 0.49829 0.32658
# Poissons Ratio (z) = 0.16160 0.22786
#
# Static dielectric constant tensor:
#      x y z
#    x 3.981990 0.000000 0.000000 
#    y 0.000000 4.346890 0.000000 
#    z 0.000000 0.000000 3.710500 
# 
# 
# High freq. dielectric constant tensor:
#      x y z
#    x 1.821290 0.000000 0.000000 
#    y 0.000000 1.814810 0.000000 
#    z 0.000000 0.000000 1.775950 
# 
# From -- ./inp_files/6308.got.cif
#   From: 2010.03.12/outbox.cif.g09.slc.cpg/sg51_4_cif.got.tgz:6308.got - 2010.04.16 13:43:02.
