data_PCOD8214316
_publ_section_title
;
Structure prediction by ZEFSAII (Michael W. Deem and Ramdas Pophale) SiO2 
 PCOD8214316
Probable space group: P M M A
;
_chemical_formula_sum "Si O2"
_cell_formula_units_Z 64
_cell_length_a 14.928397
_cell_length_b 17.647563
_cell_length_c 12.006796
_cell_angle_alpha 90.000000
_cell_angle_beta 90.000000
_cell_angle_gamma 90.000000
_cell_volume 3163.188324
_symmetry_space_group_name_H-M "P M M A"
_symmetry_group_IT_number 51
_symmetry_cell_setting 'orthorhombic'
loop_
_space_group_symop_operation_xyz
x,y,z
1/2-x,-y,z
1/2+x,-y,-z
-x,y,-z
-x,-y,-z
1/2+x,y,-z
1/2-x,y,z
x,-y,z
loop_
_atom_site_type_symbol
_atom_site_label
_atom_site_fract_x
_atom_site_fract_y
_atom_site_fract_z
Si Si1 0.355653 0.826084 0.727975
Si Si2 0.505988 0.588185 0.872708
Si Si3 0.894620 0.587143 0.505535
Si Si4 0.649737 0.651369 0.270321
Si Si5 0.643935 0.084638 0.487780
Si Si6 0.144847 0.847705 0.279807
Si Si7 0.149556 0.672167 0.272711
Si Si8 0.994700 0.912425 0.130032
O O1 0.250000 0.838955 0.747683
O O2 0.381793 0.738107 0.724126
O O3 0.389607 0.862533 0.612439
O O4 0.409879 0.864998 0.827034
O O5 0.528599 0.500000 0.863325
O O6 0.412644 0.604042 0.811895
O O7 0.585631 0.633082 0.815551
O O8 0.500000 0.615029 0.000000
O O9 0.868437 0.500000 0.524366
O O10 0.850684 0.616375 0.392823
O O11 0.855468 0.635024 0.606360
O O12 0.000000 0.598354 0.500000
O O13 0.750000 0.645605 0.222230
O O14 0.750000 0.083347 0.488965
O O15 0.609355 0.117932 0.604134
O O16 0.605201 0.000000 0.471374
O O17 0.250000 0.864183 0.259810
O O18 0.122627 0.759294 0.283576
O O19 0.089053 0.886399 0.181701
O O20 0.250000 0.663852 0.226523
O O21 0.977823 0.000000 0.157837
O O22 0.000000 0.896919 0.000000
#
# Coordination Sequence:
#
# PCOD8214316 Si02
#       8
#     8   8   8   8   8   8   8   8
#     4  10  22  40  62  90 123 157 196 247 302 354
#     4  11  25  44  63  86 119 157 203 259 308 357
#     4  11  22  37  61  93 128 164 199 243 304 364
#     4  11  23  40  64  92 123 161 203 249 304 365
#     4   9  17  33  59  88 119 154 191 233 288 352
#     4  10  22  40  62  90 123 157 196 247 302 354
#     4  11  23  40  64  92 123 161 203 249 304 365
#     4  11  25  42  61  88 119 157 207 251 294 357
#
# _framework density 20.232749999999999
#
# number of rings (size 3 to 8) (size 9 to 14) (size 15 to 20)
#    0.000    1.500    1.250    3.375    0.000    9.500 
#    0.000    6.250    0.000    0.000    0.000    0.000 
#    0.000    0.000    0.000    0.000    0.000    0.000 
#
# Total GULP energy -793921.544691 kJ/mol
# GULP energy per Si atom -12405.024136 kJ/mol
# Density = 2.018670 g / cm^3
# Si number density = 20.232750 Si / 1000 Ang^3
#
#
#
# Elastic Constant Matrix: (Units=GPa)
#
#
# Indices 1 2 3 4 5 6 
#
# 1 67.5831 6.4186 25.5917 0.0000 0.0000 0.0000
# 2 6.4186 45.5018 22.4526 0.0000 0.0000 0.0000
# 3 25.5917 22.4526 114.5180 0.0000 0.0000 0.0000
# 4 0.0000 0.0000 0.0000 80.0873 0.0000 0.0000
# 5 0.0000 0.0000 0.0000 0.0000 4.4720 0.0000
# 6 0.0000 0.0000 0.0000 0.0000 0.0000 10.9566
#
#
#
# Elastic Compliance Matrix: (Units=1/GPa)
#
#
# Indices 1 2 3 4 5 6 
#
# 1 0.016177 -0.000551 -0.003507 0.000000 0.000000 0.000000
# 2 -0.000551 0.024350 -0.004651 0.000000 0.000000 0.000000
# 3 -0.003507 -0.004651 0.010428 0.000000 0.000000 0.000000
# 4 0.000000 0.000000 0.000000 0.012486 0.000000 0.000000
# 5 0.000000 0.000000 0.000000 0.000000 0.223612 0.000000
# 6 0.000000 0.000000 0.000000 0.000000 0.000000 0.091269
#
#
# Mechanical properties :
#
#
# Convention : Reuss Voigt Hill
#
# Bulk Modulus (GPa) = 29.81862 37.39205 33.60533
# Shear Modulus (GPa) = 12.28746 30.64585 21.46665
#
# Velocity S-wave (km/s) = 2.46703 3.89609 3.26081
# Velocity P-wave (km/s) = 4.78380 6.22579 5.55181
#
# Compressibility (1/GPa) = 0.03353609
#
# Stress axis : x y z
#
# Youngs Moduli (GPa) = 61.81625 41.06800 95.89727
#
# Poissons Ratio (x) = 0.02265 0.33631
# Poissons Ratio (y) = 0.03409 0.44600
# Poissons Ratio (z) = 0.21679 0.19100
#
# Static dielectric constant tensor:
#      x y z
#    x 3.693290 0.000000 0.000000 
#    y 0.000000 4.330250 0.000000 
#    z 0.000000 0.000000 3.714330 
# 
# 
# High freq. dielectric constant tensor:
#      x y z
#    x 1.798440 0.000000 0.000000 
#    y 0.000000 1.808280 0.000000 
#    z 0.000000 0.000000 1.786460 
# 
# From -- ./inp_files/16821.got.cif
#   From: 2010.03.12/outbox.cif.g09.slc.cpg/sg51_9_cif.got.tgz:16821.got - 2010.04.16 13:43:02.
