data_PCOD8214984
_publ_section_title
;
Structure prediction by ZEFSAII (Michael W. Deem and Ramdas Pophale) SiO2 
 PCOD8214984
Probable space group: P N N A
;
_chemical_formula_sum "Si O2"
_cell_formula_units_Z 48
_cell_length_a 12.366142
_cell_length_b 18.553746
_cell_length_c 11.390364
_cell_angle_alpha 90.000000
_cell_angle_beta 90.000000
_cell_angle_gamma 90.000000
_cell_volume 2613.385270
_symmetry_space_group_name_H-M "P N N A"
_symmetry_group_IT_number 52
_symmetry_cell_setting 'orthorhombic'
loop_
_space_group_symop_operation_xyz
x,y,z
1/2-x,-y,z
x,1/2-y,1/2-z
1/2-x,1/2+y,1/2-z
-x,-y,-z
1/2+x,y,-z
-x,1/2+y,1/2+z
1/2+x,1/2-y,1/2+z
loop_
_atom_site_type_symbol
_atom_site_label
_atom_site_fract_x
_atom_site_fract_y
_atom_site_fract_z
Si Si1 0.939720 0.825185 0.189612
Si Si2 0.126389 0.008691 0.136537
Si Si3 0.852956 0.460285 0.079439
Si Si4 0.026562 0.609044 0.521460
Si Si5 0.961461 0.437915 0.847572
Si Si6 0.275469 0.415722 0.683565
O O1 0.910744 0.750000 0.250000
O O2 0.831470 0.869970 0.166458
O O3 0.020906 0.863152 0.281001
O O4 0.996684 0.820748 0.059463
O O5 0.077088 0.087257 0.103292
O O6 0.250000 0.000000 0.093750
O O7 0.117774 0.992002 0.275535
O O8 0.046355 0.952713 0.074670
O O9 0.750000 0.500000 0.024043
O O10 0.818548 0.406055 0.183249
O O11 0.925057 0.522323 0.137825
O O12 0.912017 0.418323 0.974590
O O13 0.133860 0.618915 0.598785
O O14 0.250000 0.500000 0.655212
#
# Coordination Sequence:
#
# PCOD8214984 Si02
#       6
#     8   8   8   8   8   8
#     4  11  23  39  55  80 119 153 192 236 299 358
#     4  10  17  28  52  85 112 133 174 236 287 329
#     4  10  18  32  57  85 110 144 189 244 278 336
#     4  10  19  32  53  81 109 145 180 231 285 341
#     4  10  19  33  53  82 114 146 185 234 289 335
#     4  11  18  37  62  89 112 144 198 245 290 341
#
# _framework density 18.366980999999999
#
# number of rings (size 3 to 8) (size 9 to 14) (size 15 to 20)
#    0.000    1.667    5.000    4.000    0.000    0.000 
#    3.000    0.000    0.000    0.000    0.000    0.000 
#    0.000    0.000    0.000    0.000    0.000    0.000 
#
# Total GULP energy -594844.539394 kJ/mol
# GULP energy per Si atom -12392.594571 kJ/mol
# Density = 1.832518 g / cm^3
# Si number density = 18.366981 Si / 1000 Ang^3
#
#
#
# Elastic Constant Matrix: (Units=GPa)
#
#
# Indices 1 2 3 4 5 6 
#
# 1 103.0274 26.9946 38.7990 0.0000 0.0000 0.0000
# 2 26.9946 64.5637 31.0782 0.0000 0.0000 0.0000
# 3 38.7990 31.0782 106.1395 0.0000 0.0000 0.0000
# 4 0.0000 0.0000 0.0000 16.9564 0.0000 0.0000
# 5 0.0000 0.0000 0.0000 0.0000 29.3537 0.0000
# 6 0.0000 0.0000 0.0000 0.0000 0.0000 15.0776
#
#
#
# Elastic Compliance Matrix: (Units=1/GPa)
#
#
# Indices 1 2 3 4 5 6 
#
# 1 0.011843 -0.003338 -0.003352 0.000000 0.000000 0.000000
# 2 -0.003338 0.018971 -0.004334 0.000000 0.000000 0.000000
# 3 -0.003352 -0.004334 0.011916 0.000000 0.000000 0.000000
# 4 0.000000 0.000000 0.000000 0.058975 0.000000 0.000000
# 5 0.000000 0.000000 0.000000 0.000000 0.034067 0.000000
# 6 0.000000 0.000000 0.000000 0.000000 0.000000 0.066323
#
#
# Mechanical properties :
#
#
# Convention : Reuss Voigt Hill
#
# Bulk Modulus (GPa) = 48.35399 51.94160 50.14780
# Shear Modulus (GPa) = 21.64148 24.06812 22.85480
#
# Velocity S-wave (km/s) = 3.43633 3.62387 3.53135
# Velocity P-wave (km/s) = 6.49063 6.77135 6.63248
#
# Compressibility (1/GPa) = 0.02068082
#
# Stress axis : x y z
#
# Youngs Moduli (GPa) = 84.43760 52.71268 83.92135
#
# Poissons Ratio (x) = 0.17597 0.28128
# Poissons Ratio (y) = 0.28188 0.36375
# Poissons Ratio (z) = 0.28301 0.22848
#
# Static dielectric constant tensor:
#      x y z
#    x 3.420850 0.000000 0.000000 
#    y 0.000000 2.904980 0.000000 
#    z 0.000000 0.000000 3.691990 
# 
# 
# High freq. dielectric constant tensor:
#      x y z
#    x 1.726570 0.000000 0.000000 
#    y 0.000000 1.637110 0.000000 
#    z 0.000000 0.000000 1.732580 
# 
# From -- ./inp_files/18214.got.cif
#   From: 2010.06.25/outbox.cif.g09.slc.cpg/sg52_10_cif.got.tgz:18214.got - 2010.06.26 19:32:48.
