data_PCOD8214368
_publ_section_title
;
Structure prediction by ZEFSAII (Michael W. Deem and Ramdas Pophale) SiO2 
 PCOD8214368
Probable space group: P M M A
;
_chemical_formula_sum "Si O2"
_cell_formula_units_Z 48
_cell_length_a 15.151977
_cell_length_b 15.467602
_cell_length_c 9.989306
_cell_angle_alpha 90.000000
_cell_angle_beta 90.000000
_cell_angle_gamma 90.000000
_cell_volume 2341.141201
_symmetry_space_group_name_H-M "P M M A"
_symmetry_group_IT_number 51
_symmetry_cell_setting 'orthorhombic'
loop_
_space_group_symop_operation_xyz
x,y,z
1/2-x,-y,z
1/2+x,-y,-z
-x,y,-z
-x,-y,-z
1/2+x,y,-z
1/2-x,y,z
x,-y,z
loop_
_atom_site_type_symbol
_atom_site_label
_atom_site_fract_x
_atom_site_fract_y
_atom_site_fract_z
Si Si1 0.580588 0.000000 0.899342
Si Si2 0.850598 0.819243 0.961758
Si Si3 0.491367 0.400389 0.843601
Si Si4 0.604598 0.183992 0.503643
Si Si5 0.148218 0.263551 0.771490
Si Si6 0.148294 0.693992 0.261668
Si Si7 0.414958 0.000000 0.409549
O O1 0.552815 0.000000 0.744220
O O2 0.500000 0.000000 0.000000
O O3 0.640639 0.081018 0.930920
O O4 0.750000 0.792495 0.960911
O O5 0.889227 0.795219 0.106638
O O6 0.893174 0.762774 0.843714
O O7 0.464726 0.500000 0.831981
O O8 0.413398 0.348113 0.768130
O O9 0.583346 0.387301 0.761249
O O10 0.500000 0.373873 0.000000
O O11 0.500000 0.186303 0.500000
O O12 0.641452 0.202135 0.356895
O O13 0.641562 0.261687 0.593949
O O14 0.638415 0.089117 0.556336
O O15 0.250000 0.292627 0.790482
O O16 0.250000 0.665507 0.237373
O O17 0.500000 0.000000 0.500000
#
# Coordination Sequence:
#
# PCOD8214368 Si02
#       7
#     4   8   8   8   8   8   4
#     4  12  25  35  63  93 124 171 217 266 314 364
#     4  10  23  40  60  88 127 167 212 264 312 367
#     4  11  24  42  70 100 128 163 206 265 328 387
#     4  11  22  40  67  92 132 175 215 262 316 378
#     4  11  24  43  66  96 131 170 213 261 322 384
#     4  11  22  41  66  95 127 168 213 258 315 378
#     4  10  24  39  55  95 130 168 222 265 308 372
#
# _framework density 20.502822999999999
#
# number of rings (size 3 to 8) (size 9 to 14) (size 15 to 20)
#    0.000    1.167    5.000    0.750    7.000    0.667 
#    0.000    5.833    0.000    2.000    0.000    0.000 
#    0.000    0.000    0.000    0.000    0.000    0.000 
#
# Total GULP energy -595042.244102 kJ/mol
# GULP energy per Si atom -12396.713419 kJ/mol
# Density = 2.045616 g / cm^3
# Si number density = 20.502823 Si / 1000 Ang^3
#
#
#
# Elastic Constant Matrix: (Units=GPa)
#
#
# Indices 1 2 3 4 5 6 
#
# 1 92.9291 27.4065 15.2803 0.0000 0.0000 0.0000
# 2 27.4065 92.3191 37.8379 0.0000 0.0000 0.0000
# 3 15.2803 37.8379 136.4896 0.0000 0.0000 0.0000
# 4 0.0000 0.0000 0.0000 28.5449 0.0000 0.0000
# 5 0.0000 0.0000 0.0000 0.0000 27.8292 0.0000
# 6 0.0000 0.0000 0.0000 0.0000 0.0000 17.8195
#
#
#
# Elastic Compliance Matrix: (Units=1/GPa)
#
#
# Indices 1 2 3 4 5 6 
#
# 1 0.011812 -0.003345 -0.000395 0.000000 0.000000 0.000000
# 2 -0.003345 0.013168 -0.003276 0.000000 0.000000 0.000000
# 3 -0.000395 -0.003276 0.008279 0.000000 0.000000 0.000000
# 4 0.000000 0.000000 0.000000 0.035033 0.000000 0.000000
# 5 0.000000 0.000000 0.000000 0.000000 0.035933 0.000000
# 6 0.000000 0.000000 0.000000 0.000000 0.000000 0.056118
#
#
# Mechanical properties :
#
#
# Convention : Reuss Voigt Hill
#
# Bulk Modulus (GPa) = 52.00951 53.64302 52.82626
# Shear Modulus (GPa) = 27.65735 30.91960 29.28847
#
# Velocity S-wave (km/s) = 3.67679 3.88759 3.78366
# Velocity P-wave (km/s) = 6.59145 6.80968 6.70145
#
# Compressibility (1/GPa) = 0.01922725
#
# Stress axis : x y z
#
# Youngs Moduli (GPa) = 84.65763 75.94403 120.78810
#
# Poissons Ratio (x) = 0.25401 0.04773
# Poissons Ratio (y) = 0.28316 0.39569
# Poissons Ratio (z) = 0.03346 0.24879
#
# Static dielectric constant tensor:
#      x y z
#    x 2.981780 0.000000 0.000000 
#    y 0.000000 3.535790 0.000000 
#    z 0.000000 0.000000 3.917500 
# 
# 
# High freq. dielectric constant tensor:
#      x y z
#    x 1.797770 0.000000 0.000000 
#    y 0.000000 1.789590 0.000000 
#    z 0.000000 0.000000 1.812200 
# 
# From -- ./inp_files/8328.got.cif
#   From: 2010.03.12/outbox.cif.g09.slc.cpg/sg51_5_cif.got.tgz:8328.got - 2010.04.16 13:43:02.
