data_PCOD8214523
_publ_section_title
;
Structure prediction by ZEFSAII (Michael W. Deem and Ramdas Pophale) SiO2 
 PCOD8214523
Probable space group: P M M A
;
_chemical_formula_sum "Si O2"
_cell_formula_units_Z 40
_cell_length_a 15.029495
_cell_length_b 13.079931
_cell_length_c 9.924631
_cell_angle_alpha 90.000000
_cell_angle_beta 90.000000
_cell_angle_gamma 90.000000
_cell_volume 1951.031179
_symmetry_space_group_name_H-M "P M M A"
_symmetry_group_IT_number 51
_symmetry_cell_setting 'orthorhombic'
loop_
_space_group_symop_operation_xyz
x,y,z
1/2-x,-y,z
1/2+x,-y,-z
-x,y,-z
-x,-y,-z
1/2+x,y,-z
1/2-x,y,z
x,-y,z
loop_
_atom_site_type_symbol
_atom_site_label
_atom_site_fract_x
_atom_site_fract_y
_atom_site_fract_z
Si Si1 0.903418 0.257398 0.540990
Si Si2 0.098333 0.737855 0.966193
Si Si3 0.250000 0.879661 0.364903
Si Si4 0.852815 0.383840 0.781016
Si Si5 0.750000 0.120612 0.949777
Si Si6 0.147016 0.383668 0.713640
O O1 0.837426 0.162064 0.559992
O O2 0.913728 0.317574 0.681538
O O3 0.865592 0.337982 0.434346
O O4 0.000000 0.214156 0.500000
O O5 0.162931 0.835565 0.976019
O O6 0.095347 0.688063 0.818690
O O7 0.132358 0.650015 0.066142
O O8 0.000000 0.777614 0.000000
O O9 0.250000 0.000000 0.380133
O O10 0.250000 0.846249 0.207631
O O11 0.750000 0.369658 0.738789
O O12 0.883455 0.500000 0.769062
O O13 0.750000 0.000000 0.967399
O O14 0.250000 0.382655 0.753485
O O15 0.110253 0.500000 0.716469
#
# Coordination Sequence:
#
# PCOD8214523 Si02
#       6
#     8   8   4   8   4   8
#     4  12  23  40  65  94 127 163 208 256 311 371
#     4  12  23  40  65  94 127 163 208 256 311 371
#     4  11  24  47  70  89 119 161 215 269 316 365
#     4  11  21  39  65  91 127 174 219 250 292 370
#     4  11  24  47  70  89 119 161 215 269 316 365
#     4  11  23  39  61  93 135 172 197 242 310 370
#
# _framework density 20.501978000000001
#
# number of rings (size 3 to 8) (size 9 to 14) (size 15 to 20)
#    0.000    0.600    6.000    2.400    0.000    8.800 
#    0.000    2.000    0.000    0.000    0.000    0.000 
#    0.000    0.000    0.000    0.000    0.000    0.000 
#
# Total GULP energy -496269.096657 kJ/mol
# GULP energy per Si atom -12406.727416 kJ/mol
# Density = 2.045532 g / cm^3
# Si number density = 20.501978 Si / 1000 Ang^3
#
#
#
# Elastic Constant Matrix: (Units=GPa)
#
#
# Indices 1 2 3 4 5 6 
#
# 1 106.1639 43.6558 9.6905 0.0000 0.0000 0.0000
# 2 43.6558 122.6237 33.2994 0.0000 0.0000 0.0000
# 3 9.6905 33.2994 84.7102 0.0000 0.0000 0.0000
# 4 0.0000 0.0000 0.0000 31.7415 0.0000 0.0000
# 5 0.0000 0.0000 0.0000 0.0000 31.2081 0.0000
# 6 0.0000 0.0000 0.0000 0.0000 0.0000 9.5616
#
#
#
# Elastic Compliance Matrix: (Units=1/GPa)
#
#
# Indices 1 2 3 4 5 6 
#
# 1 0.011042 -0.004017 0.000316 0.000000 0.000000 0.000000
# 2 -0.004017 0.010591 -0.003704 0.000000 0.000000 0.000000
# 3 0.000316 -0.003704 0.013225 0.000000 0.000000 0.000000
# 4 0.000000 0.000000 0.000000 0.031505 0.000000 0.000000
# 5 0.000000 0.000000 0.000000 0.000000 0.032043 0.000000
# 6 0.000000 0.000000 0.000000 0.000000 0.000000 0.104585
#
#
# Mechanical properties :
#
#
# Convention : Reuss Voigt Hill
#
# Bulk Modulus (GPa) = 49.87953 54.08769 51.98361
# Shear Modulus (GPa) = 22.27340 29.62570 25.94955
#
# Velocity S-wave (km/s) = 3.29964 3.80546 3.56154
# Velocity P-wave (km/s) = 6.23689 6.76370 6.50563
#
# Compressibility (1/GPa) = 0.02004830
#
# Stress axis : x y z
#
# Youngs Moduli (GPa) = 90.55991 94.42044 75.61575
#
# Poissons Ratio (x) = 0.37929 -0.02389
# Poissons Ratio (y) = 0.36378 0.28006
# Poissons Ratio (z) = -0.02861 0.34971
#
# Static dielectric constant tensor:
#      x y z
#    x 3.791140 0.000000 0.000000 
#    y 0.000000 3.510600 0.000000 
#    z 0.000000 0.000000 3.712960 
# 
# 
# High freq. dielectric constant tensor:
#      x y z
#    x 1.811110 0.000000 0.000000 
#    y 0.000000 1.786240 0.000000 
#    z 0.000000 0.000000 1.808390 
# 
# From -- ./inp_files/8003.got.cif
#   From: 2010.03.12/outbox.cif.g09.slc.cpg/sg51_5_cif.got.tgz:8003.got - 2010.04.16 13:43:02.
