data_PCOD8214525
_publ_section_title
;
Structure prediction by ZEFSAII (Michael W. Deem and Ramdas Pophale) SiO2 
 PCOD8214525
Probable space group: P M M A
;
_chemical_formula_sum "Si O2"
_cell_formula_units_Z 48
_cell_length_a 10.185626
_cell_length_b 27.927710
_cell_length_c 8.603025
_cell_angle_alpha 90.000000
_cell_angle_beta 90.000000
_cell_angle_gamma 90.000000
_cell_volume 2447.226893
_symmetry_space_group_name_H-M "P M M A"
_symmetry_group_IT_number 51
_symmetry_cell_setting 'orthorhombic'
loop_
_space_group_symop_operation_xyz
x,y,z
1/2-x,-y,z
1/2+x,-y,-z
-x,y,-z
-x,-y,-z
1/2+x,y,-z
1/2-x,y,z
x,-y,z
loop_
_atom_site_type_symbol
_atom_site_label
_atom_site_fract_x
_atom_site_fract_y
_atom_site_fract_z
Si Si1 0.492112 0.053892 0.685288
Si Si2 0.750000 0.885337 0.315421
Si Si3 0.750000 0.224707 0.323358
Si Si4 0.402078 0.639017 0.357108
Si Si5 0.250000 0.895773 0.315650
Si Si6 0.101524 0.445296 0.131294
Si Si7 0.250000 0.787624 0.308599
Si Si8 0.990234 0.730557 0.816589
O O1 0.500000 0.053964 0.500000
O O2 0.377534 0.087838 0.751034
O O3 0.626439 0.075427 0.751223
O O4 0.470433 0.000000 0.746990
O O5 0.750000 0.830000 0.261031
O O6 0.750000 0.891545 0.499387
O O7 0.750000 0.222903 0.508715
O O8 0.624964 0.253902 0.264204
O O9 0.500000 0.643582 0.500000
O O10 0.250000 0.648156 0.407410
O O11 0.418230 0.586472 0.284222
O O12 0.446974 0.677378 0.230045
O O13 0.250000 0.842198 0.253746
O O14 0.250000 0.439184 0.066265
O O15 0.073501 0.500000 0.180298
O O16 0.000000 0.428348 0.000000
O O17 0.119304 0.767138 0.236198
O O18 0.000000 0.732005 0.000000
#
# Coordination Sequence:
#
# PCOD8214525 Si02
#       8
#     8   4   4   8   4   8   4   8
#     4   9  15  24  40  67 106 145 178 218 278 345
#     4   9  17  29  44  73 102 143 183 226 283 344
#     4  11  23  38  63  84 115 155 198 242 301 360
#     4  11  24  41  62  90 123 161 205 254 308 365
#     4   9  17  27  46  69 104 143 183 226 279 346
#     4   9  19  38  63  92 128 168 210 257 308 361
#     4  11  21  40  59  84 117 153 196 244 299 358
#     4  12  25  41  60  86 117 154 197 251 303 364
#
# _framework density 19.614038999999998
#
# number of rings (size 3 to 8) (size 9 to 14) (size 15 to 20)
#    0.000    1.833    0.833    4.000    1.167    5.667 
#    0.000    0.000    0.000    0.000    0.000    0.000 
#    0.000   46.667    0.000    0.000    0.000    0.000 
#
# Total GULP energy -595202.178280 kJ/mol
# GULP energy per Si atom -12400.045381 kJ/mol
# Density = 1.956940 g / cm^3
# Si number density = 19.614039 Si / 1000 Ang^3
#
#
#
# Elastic Constant Matrix: (Units=GPa)
#
#
# Indices 1 2 3 4 5 6 
#
# 1 169.0710 60.4812 44.2225 0.0000 0.0000 0.0000
# 2 60.4812 120.6260 34.2928 0.0000 0.0000 0.0000
# 3 44.2225 34.2928 84.9479 0.0000 0.0000 0.0000
# 4 0.0000 0.0000 0.0000 8.0072 0.0000 0.0000
# 5 0.0000 0.0000 0.0000 0.0000 23.9617 0.0000
# 6 0.0000 0.0000 0.0000 0.0000 0.0000 38.9678
#
#
#
# Elastic Compliance Matrix: (Units=1/GPa)
#
#
# Indices 1 2 3 4 5 6 
#
# 1 0.007750 -0.003094 -0.002786 0.000000 0.000000 0.000000
# 2 -0.003094 0.010600 -0.002668 0.000000 0.000000 0.000000
# 3 -0.002786 -0.002668 0.014299 0.000000 0.000000 0.000000
# 4 0.000000 0.000000 0.000000 0.124888 0.000000 0.000000
# 5 0.000000 0.000000 0.000000 0.000000 0.041733 0.000000
# 6 0.000000 0.000000 0.000000 0.000000 0.000000 0.025662
#
#
# Mechanical properties :
#
#
# Convention : Reuss Voigt Hill
#
# Bulk Modulus (GPa) = 64.29467 72.51531 68.40499
# Shear Modulus (GPa) = 20.22544 29.89722 25.06133
#
# Velocity S-wave (km/s) = 3.21467 3.90843 3.57840
# Velocity P-wave (km/s) = 6.82861 7.57755 7.21280
#
# Compressibility (1/GPa) = 0.01555339
#
# Stress axis : x y z
#
# Youngs Moduli (GPa) = 129.03143 94.33971 69.93355
#
# Poissons Ratio (x) = 0.29188 0.19480
# Poissons Ratio (y) = 0.39921 0.18662
# Poissons Ratio (z) = 0.35942 0.25174
#
# Static dielectric constant tensor:
#      x y z
#    x 3.792310 0.000000 0.000000 
#    y 0.000000 3.842060 0.000000 
#    z 0.000000 0.000000 3.135950 
# 
# 
# High freq. dielectric constant tensor:
#      x y z
#    x 1.785760 0.000000 0.000000 
#    y 0.000000 1.784270 0.000000 
#    z 0.000000 0.000000 1.721180 
# 
# From -- ./inp_files/6312.got.cif
#   From: 2010.03.12/outbox.cif.g09.slc.cpg/sg51_4_cif.got.tgz:6312.got - 2010.04.16 13:43:02.
