data_PCOD8214171
_publ_section_title
;
Structure prediction by ZEFSAII (Michael W. Deem and Ramdas Pophale) SiO2 
 PCOD8214171
Probable space group: P M M A
;
_chemical_formula_sum "Si O2"
_cell_formula_units_Z 64
_cell_length_a 14.126303
_cell_length_b 18.943875
_cell_length_c 12.751461
_cell_angle_alpha 90.000000
_cell_angle_beta 90.000000
_cell_angle_gamma 90.000000
_cell_volume 3412.379181
_symmetry_space_group_name_H-M "P M M A"
_symmetry_group_IT_number 51
_symmetry_cell_setting 'orthorhombic'
loop_
_space_group_symop_operation_xyz
x,y,z
1/2-x,-y,z
1/2+x,-y,-z
-x,y,-z
-x,-y,-z
1/2+x,y,-z
1/2-x,y,z
x,-y,z
loop_
_atom_site_type_symbol
_atom_site_label
_atom_site_fract_x
_atom_site_fract_y
_atom_site_fract_z
Si Si1 0.858217 0.368804 0.810752
Si Si2 0.138234 0.921248 0.582514
Si Si3 0.641743 0.420955 0.039842
Si Si4 0.854620 0.169249 0.613879
Si Si5 0.023489 0.712090 0.887394
Si Si6 0.644281 0.293099 0.458336
Si Si7 0.045888 0.197306 0.704643
Si Si8 0.862317 0.422930 0.586671
O O1 0.750000 0.342252 0.799773
O O2 0.893503 0.408774 0.706709
O O3 0.925773 0.301428 0.825151
O O4 0.870168 0.417393 0.914029
O O5 0.250000 0.922618 0.587746
O O6 0.107541 0.888075 0.471015
O O7 0.104822 0.872970 0.679451
O O8 0.095711 0.000000 0.592776
O O9 0.750000 0.407883 0.072211
O O10 0.609384 0.500000 0.074136
O O11 0.581015 0.361381 0.099527
O O12 0.750000 0.148061 0.659150
O O13 0.844886 0.244686 0.559854
O O14 0.934791 0.175536 0.702584
O O15 0.075864 0.772302 0.818915
O O16 0.000000 0.745419 0.000000
O O17 0.750000 0.301469 0.407492
O O18 0.569910 0.259825 0.377512
O O19 0.600843 0.367119 0.499987
O O20 0.750000 0.420330 0.583883
O O21 0.900802 0.500000 0.554079
#
# Coordination Sequence:
#
# PCOD8214171 Si02
#       8
#     8   8   8   8   8   8   8   8
#     4   9  17  30  49  71  94 123 163 211 261 305
#     4   9  18  33  55  85 114 135 159 191 229 282
#     4   9  18  33  51  69  91 123 167 221 275 315
#     4   9  18  31  49  74 102 130 159 195 238 287
#     4  10  22  35  49  71  98 129 171 219 260 296
#     4   9  17  29  45  67  96 128 160 194 237 293
#     4  11  20  32  52  72  99 136 169 198 242 296
#     4   9  16  26  43  68  97 127 159 198 244 298
#
# _framework density 18.755241999999999
#
# number of rings (size 3 to 8) (size 9 to 14) (size 15 to 20)
#    0.000    2.625    0.000    3.750    0.000    7.750 
#    0.000    0.625    0.000    5.625    0.000    0.000 
#    0.000    2.000    0.000    0.000    0.000    0.000 
#
# Total GULP energy -793092.596466 kJ/mol
# GULP energy per Si atom -12392.071820 kJ/mol
# Density = 1.871255 g / cm^3
# Si number density = 18.755242 Si / 1000 Ang^3
#
#
#
# Elastic Constant Matrix: (Units=GPa)
#
#
# Indices 1 2 3 4 5 6 
#
# 1 58.1417 19.6179 21.0010 0.0000 0.0000 0.0000
# 2 19.6179 133.9784 56.7279 0.0000 0.0000 0.0000
# 3 21.0010 56.7279 66.4829 0.0000 0.0000 0.0000
# 4 0.0000 0.0000 0.0000 20.2018 0.0000 0.0000
# 5 0.0000 0.0000 0.0000 0.0000 12.9423 0.0000
# 6 0.0000 0.0000 0.0000 0.0000 0.0000 15.4258
#
#
#
# Elastic Compliance Matrix: (Units=1/GPa)
#
#
# Indices 1 2 3 4 5 6 
#
# 1 0.019427 -0.000386 -0.005808 0.000000 0.000000 0.000000
# 2 -0.000386 0.011693 -0.009856 0.000000 0.000000 0.000000
# 3 -0.005808 -0.009856 0.025286 0.000000 0.000000 0.000000
# 4 0.000000 0.000000 0.000000 0.049500 0.000000 0.000000
# 5 0.000000 0.000000 0.000000 0.000000 0.077266 0.000000
# 6 0.000000 0.000000 0.000000 0.000000 0.000000 0.064827
#
#
# Mechanical properties :
#
#
# Convention : Reuss Voigt Hill
#
# Bulk Modulus (GPa) = 41.13870 50.36630 45.75250
# Shear Modulus (GPa) = 17.34902 20.46439 18.90671
#
# Velocity S-wave (km/s) = 3.04472 3.30681 3.17847
# Velocity P-wave (km/s) = 5.86025 6.44149 6.15773
#
# Compressibility (1/GPa) = 0.02430801
#
# Stress axis : x y z
#
# Youngs Moduli (GPa) = 51.47407 85.51812 39.54791
#
# Poissons Ratio (x) = 0.03297 0.22969
# Poissons Ratio (y) = 0.01985 0.38978
# Poissons Ratio (z) = 0.29895 0.84286
#
# Static dielectric constant tensor:
#      x y z
#    x 3.605430 0.000000 0.000000 
#    y 0.000000 3.615090 0.000000 
#    z 0.000000 0.000000 3.171880 
# 
# 
# High freq. dielectric constant tensor:
#      x y z
#    x 1.737200 0.000000 0.000000 
#    y 0.000000 1.709130 0.000000 
#    z 0.000000 0.000000 1.688010 
# 
# From -- ./inp_files/24455.got.cif
#   From: 2010.03.12/outbox.cif.g09.slc.cpg/sg51_13_cif.got.tgz:24455.got - 2010.04.16 13:43:02.
