data_PCOD8214428
_publ_section_title
;
Structure prediction by ZEFSAII (Michael W. Deem and Ramdas Pophale) SiO2 
 PCOD8214428
Probable space group: P M M A
;
_chemical_formula_sum "Si O2"
_cell_formula_units_Z 64
_cell_length_a 14.040743
_cell_length_b 9.242035
_cell_length_c 31.831278
_cell_angle_alpha 90.000000
_cell_angle_beta 90.000000
_cell_angle_gamma 90.000000
_cell_volume 4130.587007
_symmetry_space_group_name_H-M "P M M A"
_symmetry_group_IT_number 51
_symmetry_cell_setting 'orthorhombic'
loop_
_space_group_symop_operation_xyz
x,y,z
1/2-x,-y,z
1/2+x,-y,-z
-x,y,-z
-x,-y,-z
1/2+x,y,-z
1/2-x,y,z
x,-y,z
loop_
_atom_site_type_symbol
_atom_site_label
_atom_site_fract_x
_atom_site_fract_y
_atom_site_fract_z
Si Si1 0.027825 0.328499 0.401023
Si Si2 0.861295 0.329067 0.860054
Si Si3 0.142044 0.327434 0.321047
Si Si4 0.637641 0.837496 0.529549
Si Si5 0.540756 0.171291 0.935147
Si Si6 0.141288 0.670160 0.230964
Si Si7 0.642181 0.167499 0.433805
Si Si8 0.855595 0.828511 0.018666
O O1 0.021021 0.500000 0.401316
O O2 0.076584 0.268218 0.358547
O O3 0.088754 0.279257 0.440931
O O4 0.922481 0.261831 0.402790
O O5 0.750000 0.288884 0.866297
O O6 0.875252 0.500000 0.865144
O O7 0.927547 0.248722 0.892979
O O8 0.898796 0.272936 0.813869
O O9 0.250000 0.269373 0.327347
O O10 0.144282 0.500000 0.321886
O O11 0.097516 0.274315 0.275649
O O12 0.750000 0.820850 0.533701
O O13 0.606784 0.808307 0.481558
O O14 0.606085 0.000000 0.542660
O O15 0.432018 0.219570 0.945989
O O16 0.547511 0.000000 0.928802
O O17 0.609430 0.223723 0.972867
O O18 0.250000 0.717048 0.233182
O O19 0.131517 0.500000 0.228981
O O20 0.750000 0.221857 0.428342
O O21 0.633803 0.000000 0.421588
O O22 0.750000 0.763963 0.028145
O O23 0.851547 0.000000 0.017985
#
# Coordination Sequence:
#
# PCOD8214428 Si02
#       8
#     8   8   8   8   8   8   8   8
#     4  11  20  27  42  69  92 107 129 168 214 248
#     4   9  16  25  39  60  83 106 133 165 200 236
#     4   8  14  25  40  60  87 113 133 154 187 240
#     4   9  18  32  47  61  81 113 147 170 191 233
#     4   9  16  25  40  60  78 102 137 171 201 234
#     4   7  11  22  39  56  77 108 138 157 182 233
#     4   9  19  35  49  58  75 110 150 177 198 234
#     4   8  14  25  39  55  78 108 139 166 194 236
#
# _framework density 15.494165000000001
#
# number of rings (size 3 to 8) (size 9 to 14) (size 15 to 20)
#    0.000    3.250    0.000    4.500    0.000    3.750 
#    0.000    2.500    0.000    2.625    0.000    4.375 
#    0.000    5.000    0.000    0.000    0.000    0.000 
#
# Total GULP energy -792835.819772 kJ/mol
# GULP energy per Si atom -12388.059684 kJ/mol
# Density = 1.545890 g / cm^3
# Si number density = 15.494165 Si / 1000 Ang^3
#
#
#
# Elastic Constant Matrix: (Units=GPa)
#
#
# Indices 1 2 3 4 5 6 
#
# 1 85.9881 25.0266 67.8080 0.0000 0.0000 0.0000
# 2 25.0266 32.1868 36.6558 0.0000 0.0000 0.0000
# 3 67.8080 36.6558 130.3004 0.0000 0.0000 0.0000
# 4 0.0000 0.0000 0.0000 -4.5836 0.0000 0.0000
# 5 0.0000 0.0000 0.0000 0.0000 23.4994 0.0000
# 6 0.0000 0.0000 0.0000 0.0000 0.0000 20.8388
#
#
#
# Elastic Compliance Matrix: (Units=1/GPa)
#
#
# Indices 1 2 3 4 5 6 
#
# 1 0.020374 -0.005543 -0.009043 0.000000 0.000000 0.000000
# 2 -0.005543 0.047222 -0.010400 0.000000 0.000000 0.000000
# 3 -0.009043 -0.010400 0.015306 0.000000 0.000000 0.000000
# 4 0.000000 0.000000 0.000000 -0.218169 0.000000 0.000000
# 5 0.000000 0.000000 0.000000 0.000000 0.042554 0.000000
# 6 0.000000 0.000000 0.000000 0.000000 0.000000 0.047987
#
#
# Mechanical properties :
#
#
# Convention : Reuss Voigt Hill
#
# Bulk Modulus (GPa) = 30.36684 56.38400 43.37542
# Shear Modulus (GPa) = 308.16459 15.88325 162.02392
#
# Velocity S-wave (km/s) = 14.11816 3.20521 10.23709
# Velocity P-wave (km/s) = 16.89393 7.08289 12.95323
#
# Compressibility (1/GPa) = 0.03293066
#
# Stress axis : x y z
#
# Youngs Moduli (GPa) = 49.08204 21.17637 65.33195
#
# Poissons Ratio (x) = 0.11737 0.59082
# Poissons Ratio (y) = 0.27205 0.67946
# Poissons Ratio (z) = 0.44387 0.22024
#
# Static dielectric constant tensor:
#      x y z
#    x 3.040060 0.000000 0.000000 
#    y 0.000000 2.604440 0.000000 
#    z 0.000000 0.000000 3.238000 
# 
# 
# High freq. dielectric constant tensor:
#      x y z
#    x 1.576940 0.000000 0.000000 
#    y 0.000000 1.560420 0.000000 
#    z 0.000000 0.000000 1.592990 
# 
# From -- ./inp_files/37831.got.cif
#   From: 2010.03.12/outbox.cif.g09.slc.cpg/sg51_19_cif.got.tgz:37831.got - 2010.04.16 13:43:02.
