data_PCOD8214243
_publ_section_title
;
Structure prediction by ZEFSAII (Michael W. Deem and Ramdas Pophale) SiO2 
 PCOD8214243
Probable space group: P M M A
;
_chemical_formula_sum "Si O2"
_cell_formula_units_Z 48
_cell_length_a 15.428826
_cell_length_b 7.826749
_cell_length_c 18.899369
_cell_angle_alpha 90.000000
_cell_angle_beta 90.000000
_cell_angle_gamma 90.000000
_cell_volume 2282.241468
_symmetry_space_group_name_H-M "P M M A"
_symmetry_group_IT_number 51
_symmetry_cell_setting 'orthorhombic'
loop_
_space_group_symop_operation_xyz
x,y,z
1/2-x,-y,z
1/2+x,-y,-z
-x,y,-z
-x,-y,-z
1/2+x,y,-z
1/2-x,y,z
x,-y,z
loop_
_atom_site_type_symbol
_atom_site_label
_atom_site_fract_x
_atom_site_fract_y
_atom_site_fract_z
Si Si1 0.352320 0.000000 0.287358
Si Si2 0.848173 0.806267 0.166971
Si Si3 0.845555 0.000000 0.559860
Si Si4 0.094783 0.690214 0.530448
Si Si5 0.493696 0.305261 0.076944
Si Si6 0.651390 0.303711 0.318675
Si Si7 0.351039 0.300398 0.185131
O O1 0.380232 0.176935 0.249242
O O2 0.250000 0.000000 0.289166
O O3 0.398072 0.000000 0.365605
O O4 0.750000 0.730383 0.159256
O O5 0.915589 0.705256 0.118714
O O6 0.877493 0.800455 0.249314
O O7 0.849849 0.000000 0.141146
O O8 0.855370 0.169617 0.514060
O O9 0.750000 0.000000 0.588989
O O10 0.137627 0.500000 0.523411
O O11 0.093421 0.744901 0.613066
O O12 0.000000 0.685036 0.500000
O O13 0.471231 0.500000 0.062901
O O14 0.411526 0.233979 0.120736
O O15 0.500000 0.212308 0.000000
O O16 0.750000 0.259905 0.339827
O O17 0.639984 0.500000 0.297744
O O18 0.250000 0.275617 0.164325
O O19 0.369248 0.500000 0.205372
#
# Coordination Sequence:
#
# PCOD8214243 Si02
#       7
#     4   8   4   8   8   8   8
#     4   9  20  37  56  84 114 151 198 242 292 345
#     4  10  22  38  57  86 121 156 196 244 298 353
#     4  11  23  37  57  84 115 149 194 246 294 349
#     4  10  22  39  57  83 120 157 195 244 302 359
#     4  10  22  39  61  89 118 152 194 240 296 359
#     4   9  18  35  59  83 110 151 200 243 289 351
#     4   9  19  38  61  85 117 157 202 248 295 356
#
# _framework density 21.031955
#
# number of rings (size 3 to 8) (size 9 to 14) (size 15 to 20)
#    0.000    2.333    0.000    1.250    2.333    5.000 
#    0.000    6.667    0.000    0.000    0.000    0.000 
#    0.000    0.000    0.000    0.000    0.000    0.000 
#
# Total GULP energy -594790.171733 kJ/mol
# GULP energy per Si atom -12391.461911 kJ/mol
# Density = 2.098409 g / cm^3
# Si number density = 21.031955 Si / 1000 Ang^3
#
#
#
# Elastic Constant Matrix: (Units=GPa)
#
#
# Indices 1 2 3 4 5 6 
#
# 1 76.3784 14.2563 52.6487 0.0000 0.0000 0.0000
# 2 14.2563 84.9176 38.9021 0.0000 0.0000 0.0000
# 3 52.6487 38.9021 156.6014 0.0000 0.0000 0.0000
# 4 0.0000 0.0000 0.0000 30.0946 0.0000 0.0000
# 5 0.0000 0.0000 0.0000 0.0000 33.2195 0.0000
# 6 0.0000 0.0000 0.0000 0.0000 0.0000 17.1899
#
#
#
# Elastic Compliance Matrix: (Units=1/GPa)
#
#
# Indices 1 2 3 4 5 6 
#
# 1 0.017047 -0.000267 -0.005665 0.000000 0.000000 0.000000
# 2 -0.000267 0.013293 -0.003212 0.000000 0.000000 0.000000
# 3 -0.005665 -0.003212 0.009088 0.000000 0.000000 0.000000
# 4 0.000000 0.000000 0.000000 0.033229 0.000000 0.000000
# 5 0.000000 0.000000 0.000000 0.000000 0.030103 0.000000
# 6 0.000000 0.000000 0.000000 0.000000 0.000000 0.058174
#
#
# Mechanical properties :
#
#
# Convention : Reuss Voigt Hill
#
# Bulk Modulus (GPa) = 47.30394 58.83461 53.06928
# Shear Modulus (GPa) = 26.84302 30.24016 28.54159
#
# Velocity S-wave (km/s) = 3.57641 3.79597 3.68782
# Velocity P-wave (km/s) = 6.29242 6.87366 6.58945
#
# Compressibility (1/GPa) = 0.02113989
#
# Stress axis : x y z
#
# Youngs Moduli (GPa) = 58.65975 75.23013 110.03289
#
# Poissons Ratio (x) = 0.02007 0.62334
# Poissons Ratio (y) = 0.01565 0.35347
# Poissons Ratio (z) = 0.33231 0.24167
#
# Static dielectric constant tensor:
#      x y z
#    x 3.628460 0.000000 0.000000 
#    y 0.000000 4.288920 0.000000 
#    z 0.000000 0.000000 4.040810 
# 
# 
# High freq. dielectric constant tensor:
#      x y z
#    x 1.812400 0.000000 0.000000 
#    y 0.000000 1.821720 0.000000 
#    z 0.000000 0.000000 1.825780 
# 
# From -- ./inp_files/29622.got.cif
#   From: 2010.03.12/outbox.cif.g09.slc.cpg/sg51_15_cif.got.tgz:29622.got - 2010.04.16 13:43:02.
