data_PCOD8214662
_publ_section_title
;
Structure prediction by ZEFSAII (Michael W. Deem and Ramdas Pophale) SiO2 
 PCOD8214662
Probable space group: P M M A
;
_chemical_formula_sum "Si O2"
_cell_formula_units_Z 56
_cell_length_a 15.583240
_cell_length_b 18.012925
_cell_length_c 10.155974
_cell_angle_alpha 90.000000
_cell_angle_beta 90.000000
_cell_angle_gamma 90.000000
_cell_volume 2850.779194
_symmetry_space_group_name_H-M "P M M A"
_symmetry_group_IT_number 51
_symmetry_cell_setting 'orthorhombic'
loop_
_space_group_symop_operation_xyz
x,y,z
1/2-x,-y,z
1/2+x,-y,-z
-x,y,-z
-x,-y,-z
1/2+x,y,-z
1/2-x,y,z
x,-y,z
loop_
_atom_site_type_symbol
_atom_site_label
_atom_site_fract_x
_atom_site_fract_y
_atom_site_fract_z
Si Si1 0.148367 0.917821 0.415863
Si Si2 0.097253 0.225799 0.994392
Si Si3 0.497477 0.413970 0.844142
Si Si4 0.653755 0.310943 0.245936
Si Si5 0.154282 0.318631 0.232919
Si Si6 0.598411 0.237519 0.508045
Si Si7 0.849853 0.082924 0.883764
O O1 0.250000 0.911442 0.422604
O O2 0.107657 0.852024 0.503309
O O3 0.117049 0.908313 0.265575
O O4 0.119878 0.000000 0.467732
O O5 0.152289 0.267974 0.103743
O O6 0.098982 0.137921 0.020287
O O7 0.136047 0.242284 0.851661
O O8 0.000000 0.255498 0.000000
O O9 0.491740 0.500000 0.809387
O O10 0.413266 0.376593 0.781854
O O11 0.583874 0.383542 0.775559
O O12 0.500000 0.399921 0.000000
O O13 0.750000 0.342310 0.225175
O O14 0.647844 0.278828 0.392017
O O15 0.250000 0.353560 0.243499
O O16 0.137984 0.264912 0.355549
O O17 0.500000 0.260494 0.500000
O O18 0.750000 0.102393 0.891100
O O19 0.867570 0.000000 0.935235
#
# Coordination Sequence:
#
# PCOD8214662 Si02
#       7
#     8   8   8   8   8   8   8
#     4   9  18  34  57  86 118 158 212 263 305 358
#     4  12  21  37  61  89 125 161 209 259 305 359
#     4  11  24  44  68 100 131 158 201 254 309 370
#     4  12  24  41  62  94 130 165 202 249 316 373
#     4  12  22  41  68  94 122 164 214 252 295 363
#     4  12  23  39  63  92 127 164 212 261 307 365
#     4   9  18  33  56  86 117 158 212 263 308 358
#
# _framework density 19.643751999999999
#
# number of rings (size 3 to 8) (size 9 to 14) (size 15 to 20)
#    0.000    1.000    5.714    3.429    0.000    1.143 
#    0.000    3.571    0.000    4.286    0.000    0.000 
#    0.000    0.000    0.000    0.000    0.000    0.000 
#
# Total GULP energy -694498.219778 kJ/mol
# GULP energy per Si atom -12401.753925 kJ/mol
# Density = 1.959904 g / cm^3
# Si number density = 19.643752 Si / 1000 Ang^3
#
#
#
# Elastic Constant Matrix: (Units=GPa)
#
#
# Indices 1 2 3 4 5 6 
#
# 1 138.3005 46.1453 21.2366 0.0000 0.0000 0.0000
# 2 46.1453 135.4709 31.6436 0.0000 0.0000 0.0000
# 3 21.2366 31.6436 61.0867 0.0000 0.0000 0.0000
# 4 0.0000 0.0000 0.0000 26.2365 0.0000 0.0000
# 5 0.0000 0.0000 0.0000 0.0000 21.7545 0.0000
# 6 0.0000 0.0000 0.0000 0.0000 0.0000 21.7795
#
#
#
# Elastic Compliance Matrix: (Units=1/GPa)
#
#
# Indices 1 2 3 4 5 6 
#
# 1 0.008296 -0.002448 -0.001616 0.000000 0.000000 0.000000
# 2 -0.002448 0.009120 -0.003873 0.000000 0.000000 0.000000
# 3 -0.001616 -0.003873 0.018938 0.000000 0.000000 0.000000
# 4 0.000000 0.000000 0.000000 0.038115 0.000000 0.000000
# 5 0.000000 0.000000 0.000000 0.000000 0.045967 0.000000
# 6 0.000000 0.000000 0.000000 0.000000 0.000000 0.045915
#
#
# Mechanical properties :
#
#
# Convention : Reuss Voigt Hill
#
# Bulk Modulus (GPa) = 48.82901 59.21215 54.02058
# Shear Modulus (GPa) = 26.44767 29.67627 28.06197
#
# Velocity S-wave (km/s) = 3.67327 3.89102 3.78371
# Velocity P-wave (km/s) = 6.54994 7.09895 6.82997
#
# Compressibility (1/GPa) = 0.02047963
#
# Stress axis : x y z
#
# Youngs Moduli (GPa) = 120.54528 109.64470 52.80313
#
# Poissons Ratio (x) = 0.26845 0.08531
# Poissons Ratio (y) = 0.29514 0.20452
# Poissons Ratio (z) = 0.19476 0.42469
#
# Static dielectric constant tensor:
#      x y z
#    x 3.657260 0.000000 0.000000 
#    y 0.000000 3.613630 0.000000 
#    z 0.000000 0.000000 3.465690 
# 
# 
# High freq. dielectric constant tensor:
#      x y z
#    x 1.769620 0.000000 0.000000 
#    y 0.000000 1.761290 0.000000 
#    z 0.000000 0.000000 1.752150 
# 
# From -- ./inp_files/8542.got.cif
#   From: 2010.03.12/outbox.cif.g09.slc.cpg/sg51_5_cif.got.tgz:8542.got - 2010.04.16 13:43:02.
