data_PCOD8214187
_publ_section_title
;
Structure prediction by ZEFSAII (Michael W. Deem and Ramdas Pophale) SiO2 
 PCOD8214187
Probable space group: P M M A
;
_chemical_formula_sum "Si O2"
_cell_formula_units_Z 44
_cell_length_a 8.600282
_cell_length_b 28.817949
_cell_length_c 9.023680
_cell_angle_alpha 90.000000
_cell_angle_beta 90.000000
_cell_angle_gamma 90.000000
_cell_volume 2236.451303
_symmetry_space_group_name_H-M "P M M A"
_symmetry_group_IT_number 51
_symmetry_cell_setting 'orthorhombic'
loop_
_space_group_symop_operation_xyz
x,y,z
1/2-x,-y,z
1/2+x,-y,-z
-x,y,-z
-x,-y,-z
1/2+x,y,-z
1/2-x,y,z
x,-y,z
loop_
_atom_site_type_symbol
_atom_site_label
_atom_site_fract_x
_atom_site_fract_y
_atom_site_fract_z
Si Si1 0.434217 0.500000 0.836902
Si Si2 0.066733 0.048965 0.837433
Si Si3 0.933475 0.327873 0.163579
Si Si4 0.934082 0.586712 0.663335
Si Si5 0.065511 0.149125 0.836086
Si Si6 0.068013 0.763484 0.659911
O O1 0.250000 0.500000 0.840706
O O2 0.493224 0.454368 0.756957
O O3 0.500000 0.500000 0.000000
O O4 0.250000 0.049423 0.850219
O O5 0.014345 0.098461 0.766596
O O6 0.014429 0.000000 0.755844
O O7 0.000000 0.047805 0.000000
O O8 0.750000 0.337571 0.162933
O O9 0.975390 0.277510 0.227609
O O10 0.018628 0.364597 0.266849
O O11 0.000000 0.331880 0.000000
O O12 0.750000 0.581600 0.660285
O O13 0.000000 0.583582 0.500000
O O14 0.250000 0.153499 0.847737
O O15 0.998241 0.188761 0.727628
O O16 0.000000 0.156385 0.000000
O O17 0.250000 0.767987 0.639763
O O18 0.000000 0.752731 0.500000
#
# Coordination Sequence:
#
# PCOD8214187 Si02
#       6
#     4   8   8   8   8   8
#     4  12  25  44  67  94 126 162 202 244 287 332
#     4   8  13  22  39  64  94 126 161 205 258 313
#     4  11  23  40  61  87 115 147 186 230 280 334
#     4  12  25  43  65  92 124 159 196 237 284 335
#     4   9  17  30  48  73 101 131 170 216 265 319
#     4  10  22  37  54  76 105 140 180 223 270 325
#
# _framework density 19.674026999999999
#
# number of rings (size 3 to 8) (size 9 to 14) (size 15 to 20)
#    0.000    1.818    0.000    4.909    0.000    3.636 
#    0.000    0.000    0.000    0.545    0.000    0.000 
#    0.000    0.000    0.000    0.000    0.000    0.000 
#
# Total GULP energy -545265.768896 kJ/mol
# GULP energy per Si atom -12392.403839 kJ/mol
# Density = 1.962925 g / cm^3
# Si number density = 19.674027 Si / 1000 Ang^3
#
#
#
# Elastic Constant Matrix: (Units=GPa)
#
#
# Indices 1 2 3 4 5 6 
#
# 1 88.4000 55.3442 43.9794 0.0000 0.0000 0.0000
# 2 55.3442 155.0619 53.9489 0.0000 0.0000 0.0000
# 3 43.9794 53.9489 118.3436 0.0000 0.0000 0.0000
# 4 0.0000 0.0000 0.0000 39.7124 0.0000 0.0000
# 5 0.0000 0.0000 0.0000 0.0000 31.4568 0.0000
# 6 0.0000 0.0000 0.0000 0.0000 0.0000 47.3552
#
#
#
# Elastic Compliance Matrix: (Units=1/GPa)
#
#
# Indices 1 2 3 4 5 6 
#
# 1 0.015998 -0.004328 -0.003972 0.000000 0.000000 0.000000
# 2 -0.004328 0.008836 -0.002419 0.000000 0.000000 0.000000
# 3 -0.003972 -0.002419 0.011029 0.000000 0.000000 0.000000
# 4 0.000000 0.000000 0.000000 0.025181 0.000000 0.000000
# 5 0.000000 0.000000 0.000000 0.000000 0.031790 0.000000
# 6 0.000000 0.000000 0.000000 0.000000 0.000000 0.021117
#
#
# Mechanical properties :
#
#
# Convention : Reuss Voigt Hill
#
# Bulk Modulus (GPa) = 69.33225 74.26116 71.79670
# Shear Modulus (GPa) = 35.66399 37.60709 36.63554
#
# Velocity S-wave (km/s) = 4.26225 4.37682 4.31992
# Velocity P-wave (km/s) = 7.71618 7.96052 7.83930
#
# Compressibility (1/GPa) = 0.01442330
#
# Stress axis : x y z
#
# Youngs Moduli (GPa) = 62.50777 113.17963 90.66898
#
# Poissons Ratio (x) = 0.48983 0.36016
# Poissons Ratio (y) = 0.27053 0.21937
# Poissons Ratio (z) = 0.24830 0.27383
#
# Static dielectric constant tensor:
#      x y z
#    x 3.791930 0.000000 0.000000 
#    y 0.000000 4.623790 0.000000 
#    z 0.000000 0.000000 3.436380 
# 
# 
# High freq. dielectric constant tensor:
#      x y z
#    x 1.767620 0.000000 0.000000 
#    y 0.000000 1.802690 0.000000 
#    z 0.000000 0.000000 1.744790 
# 
# From -- ./inp_files/5808.got.cif
#   From: 2010.03.12/outbox.cif.g09.slc.cpg/sg51_3_cif.got.tgz:5808.got - 2010.04.16 13:43:02.
