data_PCOD8214842
_publ_section_title
;
Structure prediction by ZEFSAII (Michael W. Deem and Ramdas Pophale) SiO2 
 PCOD8214842
Probable space group: P M M A
;
_chemical_formula_sum "Si O2"
_cell_formula_units_Z 32
_cell_length_a 17.507031
_cell_length_b 9.014903
_cell_length_c 11.768167
_cell_angle_alpha 90.000000
_cell_angle_beta 90.000000
_cell_angle_gamma 90.000000
_cell_volume 1857.301381
_symmetry_space_group_name_H-M "P M M A"
_symmetry_group_IT_number 51
_symmetry_cell_setting 'orthorhombic'
loop_
_space_group_symop_operation_xyz
x,y,z
1/2-x,-y,z
1/2+x,-y,-z
-x,y,-z
-x,-y,-z
1/2+x,y,-z
1/2-x,y,z
x,-y,z
loop_
_atom_site_type_symbol
_atom_site_label
_atom_site_fract_x
_atom_site_fract_y
_atom_site_fract_z
Si Si1 0.063918 0.824639 0.843287
Si Si2 0.750000 0.823044 0.779401
Si Si3 0.165938 0.331914 0.661290
Si Si4 0.750000 0.823880 0.520340
Si Si5 0.602539 0.175703 0.908051
O O1 0.103185 0.743901 0.738951
O O2 0.975189 0.775754 0.844788
O O3 0.073080 0.000000 0.827387
O O4 0.102734 0.770764 0.961050
O O5 0.750000 0.768856 0.649835
O O6 0.824739 0.757159 0.842190
O O7 0.750000 0.000000 0.785038
O O8 0.250000 0.328476 0.721540
O O9 0.140454 0.500000 0.635506
O O10 0.174113 0.242240 0.541753
O O11 0.750000 0.000000 0.510211
O O12 0.606086 0.000000 0.908303
#
# Coordination Sequence:
#
# PCOD8214842 Si02
#       5
#     8   4   8   4   8
#     4   9  16  29  50  76 101 124 157 193 234 287
#     4   9  16  28  47  70  98 127 156 195 242 281
#     4   9  19  32  48  68  95 125 156 200 242 275
#     4   9  17  30  49  70  88 121 168 203 234 279
#     4   8  16  28  45  75 106 126 151 196 240 279
#
# _framework density 17.229298
#
# number of rings (size 3 to 8) (size 9 to 14) (size 15 to 20)
#    0.750    2.500    0.000    2.250    1.750    0.000 
#    0.000    3.750    0.000   13.500    0.000    0.000 
#    0.000    0.000    0.000    0.000    0.000    0.000 
#
# Total GULP energy -396491.804569 kJ/mol
# GULP energy per Si atom -12390.368893 kJ/mol
# Density = 1.719008 g / cm^3
# Si number density = 17.229298 Si / 1000 Ang^3
#
#
#
# Elastic Constant Matrix: (Units=GPa)
#
#
# Indices 1 2 3 4 5 6 
#
# 1 119.6575 30.7987 85.0402 0.0000 0.0000 0.0000
# 2 30.7987 58.2729 36.6736 0.0000 0.0000 0.0000
# 3 85.0402 36.6736 132.0336 0.0000 0.0000 0.0000
# 4 0.0000 0.0000 0.0000 0.7429 0.0000 0.0000
# 5 0.0000 0.0000 0.0000 0.0000 18.3350 0.0000
# 6 0.0000 0.0000 0.0000 0.0000 0.0000 14.0258
#
#
#
# Elastic Compliance Matrix: (Units=1/GPa)
#
#
# Indices 1 2 3 4 5 6 
#
# 1 0.015671 -0.002339 -0.009443 0.000000 0.000000 0.000000
# 2 -0.002339 0.021145 -0.004367 0.000000 0.000000 0.000000
# 3 -0.009443 -0.004367 0.014869 0.000000 0.000000 0.000000
# 4 0.000000 0.000000 0.000000 1.346159 0.000000 0.000000
# 5 0.000000 0.000000 0.000000 0.000000 0.054541 0.000000
# 6 0.000000 0.000000 0.000000 0.000000 0.000000 0.071297
#
#
# Mechanical properties :
#
#
# Convention : Reuss Voigt Hill
#
# Bulk Modulus (GPa) = 51.58291 68.33211 59.95751
# Shear Modulus (GPa) = 3.20012 17.11750 10.15881
#
# Velocity S-wave (km/s) = 1.36433 3.15542 2.43085
# Velocity P-wave (km/s) = 5.69964 7.28163 6.53865
#
# Compressibility (1/GPa) = 0.01938627
#
# Stress axis : x y z
#
# Youngs Moduli (GPa) = 63.81335 47.29237 67.25389
#
# Poissons Ratio (x) = 0.11063 0.63511
# Poissons Ratio (y) = 0.14927 0.29367
# Poissons Ratio (z) = 0.60262 0.20651
#
# Static dielectric constant tensor:
#      x y z
#    x 3.374000 0.000000 0.000000 
#    y 0.000000 2.838770 0.000000 
#    z 0.000000 0.000000 3.196060 
# 
# 
# High freq. dielectric constant tensor:
#      x y z
#    x 1.658120 0.000000 0.000000 
#    y 0.000000 1.632240 0.000000 
#    z 0.000000 0.000000 1.657210 
# 
# From -- ./inp_files/16993.got.cif
#   From: 2010.03.12/outbox.cif.g09.slc.cpg/sg51_9_cif.got.tgz:16993.got - 2010.04.16 13:43:02.
