data_PCOD8214785
_publ_section_title
;
Structure prediction by ZEFSAII (Michael W. Deem and Ramdas Pophale) SiO2 
 PCOD8214785
Probable space group: P M M A
;
_chemical_formula_sum "Si O2"
_cell_formula_units_Z 64
_cell_length_a 18.268091
_cell_length_b 9.488616
_cell_length_c 21.630874
_cell_angle_alpha 90.000000
_cell_angle_beta 90.000000
_cell_angle_gamma 90.000000
_cell_volume 3749.471917
_symmetry_space_group_name_H-M "P M M A"
_symmetry_group_IT_number 51
_symmetry_cell_setting 'orthorhombic'
loop_
_space_group_symop_operation_xyz
x,y,z
1/2-x,-y,z
1/2+x,-y,-z
-x,y,-z
-x,-y,-z
1/2+x,y,-z
1/2-x,y,z
x,-y,z
loop_
_atom_site_type_symbol
_atom_site_label
_atom_site_fract_x
_atom_site_fract_y
_atom_site_fract_z
Si Si1 0.163129 0.842899 0.900449
Si Si2 0.164303 0.161876 0.128845
Si Si3 0.889514 0.161776 0.739057
Si Si4 0.162720 0.340976 0.012841
Si Si5 0.168786 0.167859 0.764036
Si Si6 0.958523 0.836728 0.323141
Si Si7 0.478886 0.665155 0.431701
Si Si8 0.831083 0.337817 0.630882
O O1 0.250000 0.852682 0.906167
O O2 0.131067 0.737752 0.952206
O O3 0.142921 0.782551 0.832378
O O4 0.130140 0.000000 0.910595
O O5 0.250000 0.183850 0.140135
O O6 0.122544 0.210665 0.190678
O O7 0.146864 0.000000 0.111966
O O8 0.134754 0.258947 0.073450
O O9 0.974114 0.185793 0.723185
O O10 0.838396 0.250511 0.693639
O O11 0.865690 0.000000 0.731115
O O12 0.250000 0.340463 0.011189
O O13 0.132095 0.500000 0.013990
O O14 0.250000 0.226495 0.748510
O O15 0.113046 0.222471 0.711918
O O16 0.170035 0.000000 0.765118
O O17 0.968182 0.747188 0.385115
O O18 0.950084 0.000000 0.341762
O O19 0.500000 0.715981 0.500000
O O20 0.493472 0.500000 0.423249
O O21 0.393651 0.704723 0.418764
O O22 0.750000 0.309799 0.602397
O O23 0.840771 0.500000 0.649373
#
# Coordination Sequence:
#
# PCOD8214785 Si02
#       8
#     8   8   8   8   8   8   8   8
#     4   8  13  23  40  59  79 107 142 176 214 262
#     4   9  16  25  37  54  79 111 143 174 213 262
#     4   9  17  28  43  64  89 116 145 181 224 264
#     4   9  16  24  35  55  82 108 138 180 223 257
#     4   8  14  26  46  70  92 114 142 179 223 268
#     4   9  17  30  49  71  92 114 144 181 218 260
#     4   9  18  33  50  67  92 125 154 179 213 259
#     4   9  17  29  46  67  89 116 152 188 218 253
#
# _framework density 17.06907
#
# number of rings (size 3 to 8) (size 9 to 14) (size 15 to 20)
#    0.000    3.250    0.000    1.500    0.000    3.000 
#    0.000    2.500    0.000    2.625    0.000    5.250 
#    0.000    0.000    0.000    0.000    0.000    0.000 
#
# Total GULP energy -793365.850715 kJ/mol
# GULP energy per Si atom -12396.341417 kJ/mol
# Density = 1.703022 g / cm^3
# Si number density = 17.069070 Si / 1000 Ang^3
#
#
#
# Elastic Constant Matrix: (Units=GPa)
#
#
# Indices 1 2 3 4 5 6 
#
# 1 67.9047 31.5684 64.7631 0.0000 0.0000 0.0000
# 2 31.5684 66.8726 64.0559 0.0000 0.0000 0.0000
# 3 64.7631 64.0559 161.6857 0.0000 0.0000 0.0000
# 4 0.0000 0.0000 0.0000 20.4830 0.0000 0.0000
# 5 0.0000 0.0000 0.0000 0.0000 21.2437 0.0000
# 6 0.0000 0.0000 0.0000 0.0000 0.0000 13.3314
#
#
#
# Elastic Compliance Matrix: (Units=1/GPa)
#
#
# Indices 1 2 3 4 5 6 
#
# 1 0.024318 -0.003464 -0.008368 0.000000 0.000000 0.000000
# 2 -0.003464 0.024593 -0.008355 0.000000 0.000000 0.000000
# 3 -0.008368 -0.008355 0.012847 0.000000 0.000000 0.000000
# 4 0.000000 0.000000 0.000000 0.048821 0.000000 0.000000
# 5 0.000000 0.000000 0.000000 0.000000 0.047073 0.000000
# 6 0.000000 0.000000 0.000000 0.000000 0.000000 0.075011
#
#
# Mechanical properties :
#
#
# Convention : Reuss Voigt Hill
#
# Bulk Modulus (GPa) = 46.76800 68.58197 57.67499
# Shear Modulus (GPa) = 17.84666 20.08334 18.96500
#
# Velocity S-wave (km/s) = 3.23701 3.43387 3.33689
# Velocity P-wave (km/s) = 6.43659 7.48253 6.97918
#
# Compressibility (1/GPa) = 0.02138214
#
# Stress axis : x y z
#
# Youngs Moduli (GPa) = 41.12192 40.66272 77.83961
#
# Poissons Ratio (x) = 0.14086 0.65138
# Poissons Ratio (y) = 0.14245 0.65039
# Poissons Ratio (z) = 0.34412 0.33976
#
# Static dielectric constant tensor:
#      x y z
#    x 3.089520 0.000000 0.000000 
#    y 0.000000 3.162250 0.000000 
#    z 0.000000 0.000000 3.254430 
# 
# 
# High freq. dielectric constant tensor:
#      x y z
#    x 1.630380 0.000000 0.000000 
#    y 0.000000 1.643730 0.000000 
#    z 0.000000 0.000000 1.655070 
# 
# From -- ./inp_files/30608.got.cif
#   From: 2010.03.12/outbox.cif.g09.slc.cpg/sg51_16_cif.got.tgz:30608.got - 2010.04.16 13:43:02.
