data_PCOD8214761
_publ_section_title
;
Structure prediction by ZEFSAII (Michael W. Deem and Ramdas Pophale) SiO2 
 PCOD8214761
Probable space group: P M M A
;
_chemical_formula_sum "Si O2"
_cell_formula_units_Z 48
_cell_length_a 9.135751
_cell_length_b 15.605493
_cell_length_c 25.734081
_cell_angle_alpha 90.000000
_cell_angle_beta 90.000000
_cell_angle_gamma 90.000000
_cell_volume 3668.853842
_symmetry_space_group_name_H-M "P M M A"
_symmetry_group_IT_number 51
_symmetry_cell_setting 'orthorhombic'
loop_
_space_group_symop_operation_xyz
x,y,z
1/2-x,-y,z
1/2+x,-y,-z
-x,y,-z
-x,-y,-z
1/2+x,y,-z
1/2-x,y,z
x,-y,z
loop_
_atom_site_type_symbol
_atom_site_label
_atom_site_fract_x
_atom_site_fract_y
_atom_site_fract_z
Si Si1 0.415704 0.602130 0.449400
Si Si2 0.580218 0.090384 0.053945
Si Si3 0.921206 0.598939 0.144758
Si Si4 0.084891 0.398080 0.247567
Si Si5 0.078017 0.276362 0.945101
Si Si6 0.084349 0.602203 0.651883
O O1 0.500000 0.637204 0.500000
O O2 0.250000 0.637463 0.449571
O O3 0.414686 0.500000 0.449526
O O4 0.498862 0.636955 0.398535
O O5 0.750000 0.091889 0.041013
O O6 0.539710 0.181984 0.080156
O O7 0.542387 0.000000 0.084830
O O8 0.500000 0.087136 0.000000
O O9 0.750000 0.613095 0.155214
O O10 0.957245 0.500000 0.133264
O O11 0.977940 0.652962 0.095567
O O12 0.006242 0.633239 0.195198
O O13 0.250000 0.362131 0.248958
O O14 0.084995 0.500000 0.249759
O O15 0.996777 0.361653 0.297049
O O16 0.250000 0.287006 0.954809
O O17 0.000000 0.291398 0.000000
O O18 0.250000 0.637381 0.650894
O O19 0.084797 0.500000 0.652176
#
# Coordination Sequence:
#
# PCOD8214761 Si02
#       6
#     8   8   8   8   8   8
#     4   9  15  21  28  39  56  76  97 122 154 193
#     4   8  13  22  36  52  68  84 101 122 149 182
#     4   9  17  28  38  47  62  84 107 131 160 193
#     4   9  16  25  36  48  59  73  98 131 162 190
#     4   9  17  27  38  52  68  85 105 128 156 192
#     4   9  15  22  32  44  57  74  96 123 157 195
#
# _framework density 13.083105
#
# number of rings (size 3 to 8) (size 9 to 14) (size 15 to 20)
#    0.000    3.167    0.000    1.500    0.000    7.000 
#    0.000    0.000    0.000    0.000    0.000    0.000 
#    0.000    0.000    0.000    0.000    0.000    0.000 
#
# Total GULP energy -594642.086406 kJ/mol
# GULP energy per Si atom -12388.376800 kJ/mol
# Density = 1.305333 g / cm^3
# Si number density = 13.083105 Si / 1000 Ang^3
#
#
#
# Elastic Constant Matrix: (Units=GPa)
#
#
# Indices 1 2 3 4 5 6 
#
# 1 80.9170 21.5320 53.4480 0.0000 0.0000 0.0000
# 2 21.5320 44.1303 37.0387 0.0000 0.0000 0.0000
# 3 53.4480 37.0387 112.1290 0.0000 0.0000 0.0000
# 4 0.0000 0.0000 0.0000 0.5680 0.0000 0.0000
# 5 0.0000 0.0000 0.0000 0.0000 24.8340 0.0000
# 6 0.0000 0.0000 0.0000 0.0000 0.0000 6.7244
#
#
#
# Elastic Compliance Matrix: (Units=1/GPa)
#
#
# Indices 1 2 3 4 5 6 
#
# 1 0.018192 -0.002211 -0.007941 0.000000 0.000000 0.000000
# 2 -0.002211 0.031621 -0.009391 0.000000 0.000000 0.000000
# 3 -0.007941 -0.009391 0.015806 0.000000 0.000000 0.000000
# 4 0.000000 0.000000 0.000000 1.760648 0.000000 0.000000
# 5 0.000000 0.000000 0.000000 0.000000 0.040267 0.000000
# 6 0.000000 0.000000 0.000000 0.000000 0.000000 0.148711
#
#
# Mechanical properties :
#
#
# Convention : Reuss Voigt Hill
#
# Bulk Modulus (GPa) = 37.69056 51.24596 44.46826
# Shear Modulus (GPa) = 2.42345 14.76913 8.59629
#
# Velocity S-wave (km/s) = 1.36249 3.36351 2.56608
# Velocity P-wave (km/s) = 5.59877 7.37149 6.54542
#
# Compressibility (1/GPa) = 0.02653184
#
# Stress axis : x y z
#
# Youngs Moduli (GPa) = 54.96894 31.62446 63.26859
#
# Poissons Ratio (x) = 0.06993 0.50242
# Poissons Ratio (y) = 0.12155 0.59416
# Poissons Ratio (z) = 0.43651 0.29699
#
# Static dielectric constant tensor:
#      x y z
#    x 2.759900 0.000000 0.000000 
#    y 0.000000 2.557680 0.000000 
#    z 0.000000 0.000000 2.619020 
# 
# 
# High freq. dielectric constant tensor:
#      x y z
#    x 1.512330 0.000000 0.000000 
#    y 0.000000 1.435970 0.000000 
#    z 0.000000 0.000000 1.485980 
# 
# From -- ./inp_files/34637.got.cif
#   From: 2010.03.12/outbox.cif.g09.slc.cpg/sg51_18_cif.got.tgz:34637.got - 2010.04.16 13:43:02.
