data_PCOD8214062
_publ_section_title
;
Structure prediction by ZEFSAII (Michael W. Deem and Ramdas Pophale) SiO2 
 PCOD8214062
Probable space group: P M M A
;
_chemical_formula_sum "Si O2"
_cell_formula_units_Z 48
_cell_length_a 9.018075
_cell_length_b 18.304330
_cell_length_c 14.722647
_cell_angle_alpha 90.000000
_cell_angle_beta 90.000000
_cell_angle_gamma 90.000000
_cell_volume 2430.264701
_symmetry_space_group_name_H-M "P M M A"
_symmetry_group_IT_number 51
_symmetry_cell_setting 'orthorhombic'
loop_
_space_group_symop_operation_xyz
x,y,z
1/2-x,-y,z
1/2+x,-y,-z
-x,y,-z
-x,-y,-z
1/2+x,y,-z
1/2-x,y,z
x,-y,z
loop_
_atom_site_type_symbol
_atom_site_label
_atom_site_fract_x
_atom_site_fract_y
_atom_site_fract_z
Si Si1 0.071932 0.761537 0.592888
Si Si2 0.913935 0.790211 0.921116
Si Si3 0.421173 0.684604 0.239436
Si Si4 0.083834 0.918731 0.854928
Si Si5 0.074166 0.920692 0.650231
Si Si6 0.579193 0.586000 0.094300
O O1 0.250000 0.755899 0.591632
O O2 0.016379 0.846357 0.602371
O O3 0.000000 0.732219 0.500000
O O4 0.010293 0.706898 0.670268
O O5 0.750000 0.796523 0.957303
O O6 0.927338 0.755588 0.822993
O O7 0.981185 0.870786 0.918637
O O8 0.000000 0.744714 0.000000
O O9 0.250000 0.663378 0.261931
O O10 0.498907 0.619780 0.182961
O O11 0.250000 0.886220 0.854348
O O12 0.018569 0.917547 0.753297
O O13 0.082128 0.000000 0.894722
O O14 0.250000 0.921086 0.647184
O O15 0.017955 0.000000 0.608452
O O16 0.750000 0.612280 0.089705
O O17 0.568700 0.500000 0.108491
O O18 0.500000 0.608807 0.000000
#
# Coordination Sequence:
#
# PCOD8214062 Si02
#       6
#     8   8   8   8   8   8
#     4  11  22  37  59  84 115 152 194 245 297 353
#     4  11  23  35  51  76 107 142 185 231 278 336
#     4  11  23  39  59  85 117 153 193 236 285 340
#     4   9  17  32  53  73  97 135 183 232 284 340
#     4   8  15  30  53  78 104 140 186 238 298 355
#     4  10  21  38  63  96 130 162 195 230 274 331
#
# _framework density 19.750935999999999
#
# number of rings (size 3 to 8) (size 9 to 14) (size 15 to 20)
#    0.000    2.000    1.667    3.500    0.000    5.333 
#    0.000    0.000    0.000    2.000    0.000    0.000 
#    0.000    0.000    0.000    0.000    0.000    0.000 
#
# Total GULP energy -594755.232149 kJ/mol
# GULP energy per Si atom -12390.734003 kJ/mol
# Density = 1.970598 g / cm^3
# Si number density = 19.750936 Si / 1000 Ang^3
#
#
#
# Elastic Constant Matrix: (Units=GPa)
#
#
# Indices 1 2 3 4 5 6 
#
# 1 131.9675 43.9041 57.4321 0.0000 0.0000 0.0000
# 2 43.9041 73.6991 36.5256 0.0000 0.0000 0.0000
# 3 57.4321 36.5256 118.7106 0.0000 0.0000 0.0000
# 4 0.0000 0.0000 0.0000 33.9055 0.0000 0.0000
# 5 0.0000 0.0000 0.0000 0.0000 32.5076 0.0000
# 6 0.0000 0.0000 0.0000 0.0000 0.0000 0.9704
#
#
#
# Elastic Compliance Matrix: (Units=1/GPa)
#
#
# Indices 1 2 3 4 5 6 
#
# 1 0.010734 -0.004508 -0.003806 0.000000 0.000000 0.000000
# 2 -0.004508 0.017903 -0.003328 0.000000 0.000000 0.000000
# 3 -0.003806 -0.003328 0.011289 0.000000 0.000000 0.000000
# 4 0.000000 0.000000 0.000000 0.029494 0.000000 0.000000
# 5 0.000000 0.000000 0.000000 0.000000 0.030762 0.000000
# 6 0.000000 0.000000 0.000000 0.000000 0.000000 1.030473
#
#
# Mechanical properties :
#
#
# Convention : Reuss Voigt Hill
#
# Bulk Modulus (GPa) = 60.08552 66.67787 63.38170
# Shear Modulus (GPa) = 4.31226 25.91105 15.11166
#
# Velocity S-wave (km/s) = 1.47921 3.62593 2.76906
# Velocity P-wave (km/s) = 5.77971 7.16676 6.51028
#
# Compressibility (1/GPa) = 0.01664294
#
# Stress axis : x y z
#
# Youngs Moduli (GPa) = 93.16421 55.85522 88.58175
#
# Poissons Ratio (x) = 0.25180 0.33713
# Poissons Ratio (y) = 0.41999 0.29477
# Poissons Ratio (z) = 0.35457 0.18587
#
# Static dielectric constant tensor:
#      x y z
#    x 3.580510 0.000000 0.000000 
#    y 0.000000 3.583750 0.000000 
#    z 0.000000 0.000000 3.535240 
# 
# 
# High freq. dielectric constant tensor:
#      x y z
#    x 1.762980 0.000000 0.000000 
#    y 0.000000 1.758160 0.000000 
#    z 0.000000 0.000000 1.763320 
# 
# From -- ./inp_files/21104.got.cif
#   From: 2010.03.12/outbox.cif.g09.slc.cpg/sg51_11_cif.got.tgz:21104.got - 2010.04.16 13:43:02.
