data_PCOD8214676
_publ_section_title
;
Structure prediction by ZEFSAII (Michael W. Deem and Ramdas Pophale) SiO2 
 PCOD8214676
Probable space group: P M M A
;
_chemical_formula_sum "Si O2"
_cell_formula_units_Z 40
_cell_length_a 14.407592
_cell_length_b 9.067134
_cell_length_c 16.218530
_cell_angle_alpha 90.000000
_cell_angle_beta 90.000000
_cell_angle_gamma 90.000000
_cell_volume 2118.716867
_symmetry_space_group_name_H-M "P M M A"
_symmetry_group_IT_number 51
_symmetry_cell_setting 'orthorhombic'
loop_
_space_group_symop_operation_xyz
x,y,z
1/2-x,-y,z
1/2+x,-y,-z
-x,y,-z
-x,-y,-z
1/2+x,y,-z
1/2-x,y,z
x,-y,z
loop_
_atom_site_type_symbol
_atom_site_label
_atom_site_fract_x
_atom_site_fract_y
_atom_site_fract_z
Si Si1 0.855998 0.329384 0.615835
Si Si2 0.482801 0.826441 0.700585
Si Si3 0.476383 0.674556 0.870317
Si Si4 0.853667 0.674641 0.977392
Si Si5 0.858997 0.666792 0.427639
O O1 0.750000 0.282873 0.628536
O O2 0.870729 0.500000 0.638654
O O3 0.887238 0.300437 0.521874
O O4 0.915228 0.230111 0.677214
O O5 0.451502 0.756928 0.786613
O O6 0.410059 0.781497 0.630579
O O7 0.484143 0.000000 0.709273
O O8 0.473725 0.500000 0.855548
O O9 0.398097 0.724201 0.935785
O O10 0.578315 0.724658 0.903158
O O11 0.750000 0.743092 0.966745
O O12 0.847601 0.500000 0.976552
O O13 0.750000 0.686630 0.415889
O O14 0.889008 0.500000 0.404485
#
# Coordination Sequence:
#
# PCOD8214676 Si02
#       5
#     8   8   8   8   8
#     4   9  19  37  59  79 100 134 183 231 269 308
#     4  12  24  34  49  78 116 149 174 209 260 317
#     4   9  18  33  53  77 102 130 171 216 255 306
#     4   8  15  31  56  80  98 122 164 219 268 303
#     4   9  19  37  59  79 100 134 183 231 269 308
#
# _framework density 18.879351
#
# number of rings (size 3 to 8) (size 9 to 14) (size 15 to 20)
#    0.000    2.600    0.000    4.800    0.000    5.600 
#    0.000    8.000    0.000    1.200    0.000    0.000 
#    0.000    0.000    0.000    0.000    0.000    0.000 
#
# Total GULP energy -495964.581698 kJ/mol
# GULP energy per Si atom -12399.114542 kJ/mol
# Density = 1.883638 g / cm^3
# Si number density = 18.879351 Si / 1000 Ang^3
#
#
#
# Elastic Constant Matrix: (Units=GPa)
#
#
# Indices 1 2 3 4 5 6 
#
# 1 55.5719 3.5014 -5.5174 0.0000 0.0000 0.0000
# 2 3.5014 65.4767 23.0736 0.0000 0.0000 0.0000
# 3 -5.5174 23.0736 52.5676 0.0000 0.0000 0.0000
# 4 0.0000 0.0000 0.0000 -0.8120 0.0000 0.0000
# 5 0.0000 0.0000 0.0000 0.0000 14.0657 0.0000
# 6 0.0000 0.0000 0.0000 0.0000 0.0000 10.4795
#
#
#
# Elastic Compliance Matrix: (Units=1/GPa)
#
#
# Indices 1 2 3 4 5 6 
#
# 1 0.018396 -0.001969 0.002795 0.000000 0.000000 0.000000
# 2 -0.001969 0.018278 -0.008229 0.000000 0.000000 0.000000
# 3 0.002795 -0.008229 0.022929 0.000000 0.000000 0.000000
# 4 0.000000 0.000000 0.000000 -1.231559 0.000000 0.000000
# 5 0.000000 0.000000 0.000000 0.000000 0.071095 0.000000
# 6 0.000000 0.000000 0.000000 0.000000 0.000000 0.095424
#
#
# Mechanical properties :
#
#
# Convention : Reuss Voigt Hill
#
# Bulk Modulus (GPa) = 22.32314 23.97014 23.14664
# Shear Modulus (GPa) = -5.12453 14.91721 4.89634
#
# Velocity S-wave (km/s) = -1.64932 2.81398 1.61218
# Velocity P-wave (km/s) = 2.86754 4.82515 3.96893
#
# Compressibility (1/GPa) = 0.04479657
#
# Stress axis : x y z
#
# Youngs Moduli (GPa) = 54.35888 54.71095 43.61360
#
# Poissons Ratio (x) = 0.10771 -0.12190
# Poissons Ratio (y) = 0.10702 0.35891
# Poissons Ratio (z) = -0.15193 0.45024
#
# Static dielectric constant tensor:
#      x y z
#    x 3.772050 0.000000 0.000000 
#    y 0.000000 3.054790 0.000000 
#    z 0.000000 0.000000 3.418640 
# 
# 
# High freq. dielectric constant tensor:
#      x y z
#    x 1.744850 0.000000 0.000000 
#    y 0.000000 1.693760 0.000000 
#    z 0.000000 0.000000 1.734200 
# 
# From -- ./inp_files/23675.got.cif
#   From: 2010.03.12/outbox.cif.g09.slc.cpg/sg51_12_cif.got.tgz:23675.got - 2010.04.16 13:43:02.
