data_PCOD8214107
_publ_section_title
;
Structure prediction by ZEFSAII (Michael W. Deem and Ramdas Pophale) SiO2 
 PCOD8214107
Probable space group: P M M A
;
_chemical_formula_sum "Si O2"
_cell_formula_units_Z 48
_cell_length_a 14.986099
_cell_length_b 8.602569
_cell_length_c 18.987924
_cell_angle_alpha 90.000000
_cell_angle_beta 90.000000
_cell_angle_gamma 90.000000
_cell_volume 2447.903238
_symmetry_space_group_name_H-M "P M M A"
_symmetry_group_IT_number 51
_symmetry_cell_setting 'orthorhombic'
loop_
_space_group_symop_operation_xyz
x,y,z
1/2-x,-y,z
1/2+x,-y,-z
-x,y,-z
-x,-y,-z
1/2+x,y,-z
1/2-x,y,z
x,-y,z
loop_
_atom_site_type_symbol
_atom_site_label
_atom_site_fract_x
_atom_site_fract_y
_atom_site_fract_z
Si Si1 0.647402 0.680683 0.829979
Si Si2 0.993687 0.818928 0.080930
Si Si3 0.750000 0.815346 0.418680
Si Si4 0.250000 0.182680 0.423600
Si Si5 0.588027 0.182106 0.323909
Si Si6 0.898270 0.681473 0.673149
Si Si7 0.147601 0.321078 0.819806
O O1 0.750000 0.710026 0.850041
O O2 0.621468 0.500000 0.836746
O O3 0.587497 0.780450 0.882439
O O4 0.629342 0.739471 0.750746
O O5 0.912776 0.721084 0.113544
O O6 0.972675 0.000000 0.089895
O O7 0.000000 0.769685 0.000000
O O8 0.750000 0.746562 0.497465
O O9 0.837399 0.755578 0.377755
O O10 0.750000 0.000000 0.417643
O O11 0.338806 0.234234 0.384416
O O12 0.250000 0.000000 0.429427
O O13 0.500120 0.278115 0.342380
O O14 0.619899 0.212632 0.244740
O O15 0.568617 0.000000 0.332668
O O16 0.880462 0.500000 0.666190
O O17 0.250000 0.290649 0.840592
O O18 0.131175 0.500000 0.798609
#
# Coordination Sequence:
#
# PCOD8214107 Si02
#       7
#     8   8   4   4   8   8   8
#     4  10  21  39  63  88 119 158 200 248 302 360
#     4  11  25  42  61  90 126 160 200 252 304 357
#     4   9  22  41  61  89 126 161 202 255 309 358
#     4  11  23  41  63  89 122 165 208 251 303 364
#     4  11  21  38  64  92 120 159 207 254 301 360
#     4  11  22  39  61  91 126 159 200 253 307 363
#     4  11  23  39  62  92 123 159 203 250 302 366
#
# _framework density 19.608619999999998
#
# number of rings (size 3 to 8) (size 9 to 14) (size 15 to 20)
#    0.000    1.333    3.333    2.250    0.000    4.667 
#    0.000   10.000    0.000    0.000    0.000    0.000 
#    0.000    0.000    0.000    0.000    0.000    0.000 
#
# Total GULP energy -595491.346339 kJ/mol
# GULP energy per Si atom -12406.069715 kJ/mol
# Density = 1.956399 g / cm^3
# Si number density = 19.608620 Si / 1000 Ang^3
#
#
#
# Elastic Constant Matrix: (Units=GPa)
#
#
# Indices 1 2 3 4 5 6 
#
# 1 139.5890 16.0000 58.8437 0.0000 0.0000 0.0000
# 2 16.0000 38.9091 23.3051 0.0000 0.0000 0.0000
# 3 58.8437 23.3051 142.5460 0.0000 0.0000 0.0000
# 4 0.0000 0.0000 0.0000 16.6171 0.0000 0.0000
# 5 0.0000 0.0000 0.0000 0.0000 28.3208 0.0000
# 6 0.0000 0.0000 0.0000 0.0000 0.0000 34.4516
#
#
#
# Elastic Compliance Matrix: (Units=1/GPa)
#
#
# Indices 1 2 3 4 5 6 
#
# 1 0.008761 -0.001592 -0.003356 0.000000 0.000000 0.000000
# 2 -0.001592 0.028780 -0.004048 0.000000 0.000000 0.000000
# 3 -0.003356 -0.004048 0.009063 0.000000 0.000000 0.000000
# 4 0.000000 0.000000 0.000000 0.060179 0.000000 0.000000
# 5 0.000000 0.000000 0.000000 0.000000 0.035310 0.000000
# 6 0.000000 0.000000 0.000000 0.000000 0.000000 0.029026
#
#
# Mechanical properties :
#
#
# Convention : Reuss Voigt Hill
#
# Bulk Modulus (GPa) = 34.95197 57.48241 46.21719
# Shear Modulus (GPa) = 25.16994 30.73758 27.95376
#
# Velocity S-wave (km/s) = 3.58665 3.96353 3.77979
# Velocity P-wave (km/s) = 5.91739 7.09398 6.53223
#
# Compressibility (1/GPa) = 0.02861069
#
# Stress axis : x y z
#
# Youngs Moduli (GPa) = 114.13845 34.74592 110.34346
#
# Poissons Ratio (x) = 0.05533 0.37035
# Poissons Ratio (y) = 0.18176 0.44667
# Poissons Ratio (z) = 0.38309 0.14065
#
# Static dielectric constant tensor:
#      x y z
#    x 3.771620 0.000000 0.000000 
#    y 0.000000 3.496040 0.000000 
#    z 0.000000 0.000000 3.654780 
# 
# 
# High freq. dielectric constant tensor:
#      x y z
#    x 1.781070 0.000000 0.000000 
#    y 0.000000 1.761830 0.000000 
#    z 0.000000 0.000000 1.761270 
# 
# From -- ./inp_files/29630.got.cif
#   From: 2010.03.12/outbox.cif.g09.slc.cpg/sg51_15_cif.got.tgz:29630.got - 2010.04.16 13:43:02.
