data_PCOD8214671
_publ_section_title
;
Structure prediction by ZEFSAII (Michael W. Deem and Ramdas Pophale) SiO2 
 PCOD8214671
Probable space group: P M M A
;
_chemical_formula_sum "Si O2"
_cell_formula_units_Z 56
_cell_length_a 14.351128
_cell_length_b 14.177370
_cell_length_c 16.490565
_cell_angle_alpha 90.000000
_cell_angle_beta 90.000000
_cell_angle_gamma 90.000000
_cell_volume 3355.190994
_symmetry_space_group_name_H-M "P M M A"
_symmetry_group_IT_number 51
_symmetry_cell_setting 'orthorhombic'
loop_
_space_group_symop_operation_xyz
x,y,z
1/2-x,-y,z
1/2+x,-y,-z
-x,y,-z
-x,-y,-z
1/2+x,y,-z
1/2-x,y,z
x,-y,z
loop_
_atom_site_type_symbol
_atom_site_label
_atom_site_fract_x
_atom_site_fract_y
_atom_site_fract_z
Si Si1 0.859577 0.893413 0.428591
Si Si2 0.646245 0.111624 0.978469
Si Si3 0.523196 0.111574 0.128315
Si Si4 0.017215 0.203563 0.702669
Si Si5 0.644519 0.111395 0.611228
Si Si6 0.147747 0.391039 0.491499
Si Si7 0.007560 0.608706 0.631760
O O1 0.750000 0.891117 0.414130
O O2 0.907590 0.825854 0.364361
O O3 0.883639 0.857526 0.519606
O O4 0.897175 0.000000 0.416732
O O5 0.750000 0.155795 0.968109
O O6 0.578622 0.143079 0.904988
O O7 0.652369 0.000000 0.977826
O O8 0.601890 0.142853 0.064042
O O9 0.547095 0.166531 0.209978
O O10 0.526187 0.000000 0.144547
O O11 0.014302 0.318246 0.706551
O O12 0.917350 0.161933 0.678548
O O13 0.750000 0.140873 0.629827
O O14 0.631905 0.000000 0.619154
O O15 0.250000 0.340625 0.490313
O O16 0.161243 0.500000 0.473402
O O17 0.100769 0.378885 0.578885
O O18 0.080809 0.353726 0.420339
O O19 0.996944 0.500000 0.661360
#
# Coordination Sequence:
#
# PCOD8214671 Si02
#       7
#     8   8   8   8   8   8   8
#     4   9  19  33  45  61  90 128 166 196 225 270
#     4   8  15  31  52  69  93 123 142 173 225 275
#     4   9  18  30  46  73  97 116 151 182 216 281
#     4  12  21  29  47  70  94 125 155 198 241 275
#     4   9  19  33  45  61  90 128 166 196 225 270
#     4   8  15  31  50  61  77 112 158 208 252 282
#     4   9  20  33  44  66  92 118 158 203 246 285
#
# _framework density 16.690555
#
# number of rings (size 3 to 8) (size 9 to 14) (size 15 to 20)
#    0.000    2.857    0.000    4.286    4.000    3.429 
#    0.000    2.857    0.000    0.000    0.000    2.000 
#    0.000    1.143    0.000    0.000    0.000    0.000 
#
# Total GULP energy -694072.618673 kJ/mol
# GULP energy per Si atom -12394.153905 kJ/mol
# Density = 1.665257 g / cm^3
# Si number density = 16.690555 Si / 1000 Ang^3
#
#
#
# Elastic Constant Matrix: (Units=GPa)
#
#
# Indices 1 2 3 4 5 6 
#
# 1 68.6419 2.0799 -5.9307 0.0000 0.0000 0.0000
# 2 2.0799 49.5431 21.6127 0.0000 0.0000 0.0000
# 3 -5.9307 21.6127 42.4844 0.0000 0.0000 0.0000
# 4 0.0000 0.0000 0.0000 16.8141 0.0000 0.0000
# 5 0.0000 0.0000 0.0000 0.0000 10.0097 0.0000
# 6 0.0000 0.0000 0.0000 0.0000 0.0000 2.6288
#
#
#
# Elastic Compliance Matrix: (Units=1/GPa)
#
#
# Indices 1 2 3 4 5 6 
#
# 1 0.014894 -0.001969 0.003081 0.000000 0.000000 0.000000
# 2 -0.001969 0.026202 -0.013604 0.000000 0.000000 0.000000
# 3 0.003081 -0.013604 0.030889 0.000000 0.000000 0.000000
# 4 0.000000 0.000000 0.000000 0.059474 0.000000 0.000000
# 5 0.000000 0.000000 0.000000 0.000000 0.099903 0.000000
# 6 0.000000 0.000000 0.000000 0.000000 0.000000 0.380403
#
#
# Mechanical properties :
#
#
# Convention : Reuss Voigt Hill
#
# Bulk Modulus (GPa) = 21.27670 21.79924 21.53797
# Shear Modulus (GPa) = 7.66382 15.41770 11.54076
#
# Velocity S-wave (km/s) = 2.14515 3.04260 2.63241
# Velocity P-wave (km/s) = 4.34868 5.04306 4.70868
#
# Compressibility (1/GPa) = 0.04699976
#
# Stress axis : x y z
#
# Youngs Moduli (GPa) = 67.14005 38.16526 32.37402
#
# Poissons Ratio (x) = 0.07516 -0.09975
# Poissons Ratio (y) = 0.13222 0.44043
# Poissons Ratio (z) = -0.20686 0.51921
#
# Static dielectric constant tensor:
#      x y z
#    x 3.679400 0.000000 0.000000 
#    y 0.000000 2.941420 0.000000 
#    z 0.000000 0.000000 2.824850 
# 
# 
# High freq. dielectric constant tensor:
#      x y z
#    x 1.659010 0.000000 0.000000 
#    y 0.000000 1.616420 0.000000 
#    z 0.000000 0.000000 1.603440 
# 
# From -- ./inp_files/24278.got.cif
#   From: 2010.03.12/outbox.cif.g09.slc.cpg/sg51_13_cif.got.tgz:24278.got - 2010.04.16 13:43:02.
