data_PCOD8214975
_publ_section_title
;
Structure prediction by ZEFSAII (Michael W. Deem and Ramdas Pophale) SiO2 
 PCOD8214975
Probable space group: P N N A
;
_chemical_formula_sum "Si O2"
_cell_formula_units_Z 48
_cell_length_a 8.624522
_cell_length_b 9.173907
_cell_length_c 31.542822
_cell_angle_alpha 90.000000
_cell_angle_beta 90.000000
_cell_angle_gamma 90.000000
_cell_volume 2495.685827
_symmetry_space_group_name_H-M "P N N A"
_symmetry_group_IT_number 52
_symmetry_cell_setting 'orthorhombic'
loop_
_space_group_symop_operation_xyz
x,y,z
1/2-x,-y,z
x,1/2-y,1/2-z
1/2-x,1/2+y,1/2-z
-x,-y,-z
1/2+x,y,-z
-x,1/2+y,1/2+z
1/2+x,1/2-y,1/2+z
loop_
_atom_site_type_symbol
_atom_site_label
_atom_site_fract_x
_atom_site_fract_y
_atom_site_fract_z
Si Si1 0.183768 0.839434 0.871626
Si Si2 0.183909 0.162480 0.957621
Si Si3 0.683185 0.160043 0.709924
Si Si4 0.316815 0.339957 0.790076
Si Si5 0.316232 0.839434 0.128374
Si Si6 0.183909 0.662480 0.457621
O O1 0.253995 0.764366 0.914266
O O2 0.238312 0.739539 0.832809
O O3 1.000000 0.849604 0.875825
O O4 0.250000 0.000000 0.863912
O O5 0.000000 0.162659 0.958733
O O6 0.250000 0.000000 0.957173
O O7 0.250000 0.242627 0.000000
O O8 0.748262 0.250000 0.750000
O O9 0.500000 0.150134 0.711998
O O10 0.738312 0.239539 0.667191
O O11 0.750000 0.000000 0.711218
O O12 0.250000 0.500000 0.788782
O O13 0.251738 0.250000 0.750000
O O14 0.246005 0.764366 0.085734
O O15 0.250000 0.000000 0.136088
O O16 0.250000 0.500000 0.457173
#
# Coordination Sequence:
#
# PCOD8214975 Si02
#       6
#     8   8   8   8   8   8
#     4  10  19  32  51  77 107 138 175 216 259 307
#     4  10  17  27  45  71 103 137 173 213 258 303
#     4  10  22  38  56  79 106 137 174 215 259 310
#     4  10  22  38  56  79 106 137 174 215 259 310
#     4  10  19  32  51  77 107 138 175 216 259 307
#     4  10  17  27  45  71 103 137 173 213 258 303
#
# _framework density 19.233187999999998
#
# number of rings (size 3 to 8) (size 9 to 14) (size 15 to 20)
#    0.000    2.000    0.000    8.000    0.000    3.333 
#    0.000    0.000    0.000    1.000    0.000    7.000 
#    0.000    0.000    0.000    0.000    0.000    0.000 
#
# Total GULP energy -595064.805747 kJ/mol
# GULP energy per Si atom -12397.183453 kJ/mol
# Density = 1.918941 g / cm^3
# Si number density = 19.233188 Si / 1000 Ang^3
#
#
#
# Elastic Constant Matrix: (Units=GPa)
#
#
# Indices 1 2 3 4 5 6 
#
# 1 105.0285 28.3712 69.0215 0.0000 0.0000 0.0000
# 2 28.3712 92.7255 79.4532 0.0000 0.0000 0.0000
# 3 69.0215 79.4532 237.3909 0.0000 0.0000 0.0000
# 4 0.0000 0.0000 0.0000 29.2171 0.0000 0.0000
# 5 0.0000 0.0000 0.0000 0.0000 33.1422 0.0000
# 6 0.0000 0.0000 0.0000 0.0000 0.0000 22.1020
#
#
#
# Elastic Compliance Matrix: (Units=1/GPa)
#
#
# Indices 1 2 3 4 5 6 
#
# 1 0.011829 -0.000943 -0.003124 0.000000 0.000000 0.000000
# 2 -0.000943 0.015196 -0.004812 0.000000 0.000000 0.000000
# 3 -0.003124 -0.004812 0.006731 0.000000 0.000000 0.000000
# 4 0.000000 0.000000 0.000000 0.034227 0.000000 0.000000
# 5 0.000000 0.000000 0.000000 0.000000 0.030173 0.000000
# 6 0.000000 0.000000 0.000000 0.000000 0.000000 0.045245
#
#
# Mechanical properties :
#
#
# Convention : Reuss Voigt Hill
#
# Bulk Modulus (GPa) = 62.50228 87.64851 75.07540
# Shear Modulus (GPa) = 30.03180 34.11218 32.07199
#
# Velocity S-wave (km/s) = 3.95581 4.21599 4.08797
# Velocity P-wave (km/s) = 7.30974 8.32886 7.83588
#
# Compressibility (1/GPa) = 0.01599942
#
# Stress axis : x y z
#
# Youngs Moduli (GPa) = 84.54047 65.80609 148.56153
#
# Poissons Ratio (x) = 0.06203 0.46406
# Poissons Ratio (y) = 0.07969 0.71488
# Poissons Ratio (z) = 0.26408 0.31666
#
# Static dielectric constant tensor:
#      x y z
#    x 3.501130 0.000000 0.000000 
#    y 0.000000 3.082320 0.000000 
#    z 0.000000 0.000000 4.879240 
# 
# 
# High freq. dielectric constant tensor:
#      x y z
#    x 1.756550 0.000000 0.000000 
#    y 0.000000 1.694990 0.000000 
#    z 0.000000 0.000000 1.784580 
# 
# From -- ./inp_files/44340.got.cif
#   From: 2010.06.25/outbox.cif.g09.slc.cpg/sg52_23_cif.got.tgz:44340.got - 2010.06.26 19:32:48.
