data_PCOD8214633
_publ_section_title
;
Structure prediction by ZEFSAII (Michael W. Deem and Ramdas Pophale) SiO2 
 PCOD8214633
Probable space group: P M M A
;
_chemical_formula_sum "Si O2"
_cell_formula_units_Z 48
_cell_length_a 14.055129
_cell_length_b 10.124273
_cell_length_c 16.696144
_cell_angle_alpha 90.000000
_cell_angle_beta 90.000000
_cell_angle_gamma 90.000000
_cell_volume 2375.827282
_symmetry_space_group_name_H-M "P M M A"
_symmetry_group_IT_number 51
_symmetry_cell_setting 'orthorhombic'
loop_
_space_group_symop_operation_xyz
x,y,z
1/2-x,-y,z
1/2+x,-y,-z
-x,y,-z
-x,-y,-z
1/2+x,y,-z
1/2-x,y,z
x,-y,z
loop_
_atom_site_type_symbol
_atom_site_label
_atom_site_fract_x
_atom_site_fract_y
_atom_site_fract_z
Si Si1 0.136632 0.500000 0.858984
Si Si2 0.362910 0.500000 0.671802
Si Si3 0.362446 0.000000 0.828980
Si Si4 0.146981 0.353423 0.342878
Si Si5 0.967117 0.759197 0.089252
Si Si6 0.862811 0.000000 0.359071
Si Si7 0.966863 0.741396 0.410662
Si Si8 0.353016 0.353968 0.155869
O O1 0.250000 0.500000 0.866557
O O2 0.104853 0.500000 0.765300
O O3 0.094820 0.626543 0.904621
O O4 0.250000 0.500000 0.665910
O O5 0.401722 0.371492 0.627622
O O6 0.404653 0.872552 0.871521
O O7 0.388129 0.000000 0.734964
O O8 0.250000 0.000000 0.841335
O O9 0.250000 0.312836 0.380269
O O10 0.117450 0.500000 0.375083
O O11 0.158709 0.361077 0.249415
O O12 0.066671 0.246823 0.363619
O O13 0.066426 0.750846 0.135958
O O14 0.000000 0.792768 0.000000
O O15 0.908143 0.124693 0.403680
O O16 0.750000 0.000000 0.372537
O O17 0.000000 0.707726 0.500000
O O18 0.250000 0.311969 0.118920
O O19 0.381311 0.500000 0.122819
#
# Coordination Sequence:
#
# PCOD8214633 Si02
#       8
#     4   4   4   8   8   4   8   8
#     4  11  23  40  65  95 129 171 220 265 306 372
#     4  11  23  40  65  95 129 171 220 265 306 372
#     4  11  25  46  69  89 121 171 218 261 316 386
#     4   9  18  34  58  86 118 161 205 244 295 363
#     4  12  24  40  61  96 129 163 207 263 327 373
#     4  11  25  46  69  89 121 171 218 261 316 386
#     4  12  24  40  61  96 129 163 207 263 327 373
#     4   9  18  34  58  86 118 161 205 244 295 363
#
# _framework density 20.203489999999999
#
# number of rings (size 3 to 8) (size 9 to 14) (size 15 to 20)
#    0.000    1.333    1.667    6.000    0.000    5.333 
#    0.000    0.833    0.000    3.000    0.000    0.000 
#    0.000    0.000    0.000    0.000    0.000    0.000 
#
# Total GULP energy -594990.906802 kJ/mol
# GULP energy per Si atom -12395.643892 kJ/mol
# Density = 2.015751 g / cm^3
# Si number density = 20.203490 Si / 1000 Ang^3
#
#
#
# Elastic Constant Matrix: (Units=GPa)
#
#
# Indices 1 2 3 4 5 6 
#
# 1 134.7744 36.3936 26.2059 0.0000 0.0000 0.0000
# 2 36.3936 73.7752 -2.6475 0.0000 0.0000 0.0000
# 3 26.2059 -2.6475 62.3807 0.0000 0.0000 0.0000
# 4 0.0000 0.0000 0.0000 21.6784 0.0000 0.0000
# 5 0.0000 0.0000 0.0000 0.0000 7.8139 0.0000
# 6 0.0000 0.0000 0.0000 0.0000 0.0000 44.1252
#
#
#
# Elastic Compliance Matrix: (Units=1/GPa)
#
#
# Indices 1 2 3 4 5 6 
#
# 1 0.009554 -0.004864 -0.004220 0.000000 0.000000 0.000000
# 2 -0.004864 0.016052 0.002725 0.000000 0.000000 0.000000
# 3 -0.004220 0.002725 0.017919 0.000000 0.000000 0.000000
# 4 0.000000 0.000000 0.000000 0.046129 0.000000 0.000000
# 5 0.000000 0.000000 0.000000 0.000000 0.127977 0.000000
# 6 0.000000 0.000000 0.000000 0.000000 0.000000 0.022663
#
#
# Mechanical properties :
#
#
# Convention : Reuss Voigt Hill
#
# Bulk Modulus (GPa) = 32.46144 43.42603 37.94373
# Shear Modulus (GPa) = 18.99110 28.78873 23.88992
#
# Velocity S-wave (km/s) = 3.06925 3.77893 3.44243
# Velocity P-wave (km/s) = 5.35374 6.37035 5.88404
#
# Compressibility (1/GPa) = 0.03080578
#
# Stress axis : x y z
#
# Youngs Moduli (GPa) = 104.66917 62.29714 55.80650
#
# Poissons Ratio (x) = 0.30304 0.23550
# Poissons Ratio (y) = 0.50915 -0.15206
# Poissons Ratio (z) = 0.44170 -0.16975
#
# Static dielectric constant tensor:
#      x y z
#    x 52.014980 0.000000 0.000000 
#    y 0.000000 3.620310 0.000000 
#    z 0.000000 0.000000 3.449050 
# 
# 
# High freq. dielectric constant tensor:
#      x y z
#    x 1.820170 0.000000 0.000000 
#    y 0.000000 1.767970 0.000000 
#    z 0.000000 0.000000 1.784600 
# 
# From -- ./inp_files/29708.got.cif
#   From: 2010.03.12/outbox.cif.g09.slc.cpg/sg51_15_cif.got.tgz:29708.got - 2010.04.16 13:43:02.
