data_PCOD8214376
_publ_section_title
;
Structure prediction by ZEFSAII (Michael W. Deem and Ramdas Pophale) SiO2 
 PCOD8214376
Probable space group: P M M A
;
_chemical_formula_sum "Si O2"
_cell_formula_units_Z 48
_cell_length_a 30.709536
_cell_length_b 8.546572
_cell_length_c 8.905185
_cell_angle_alpha 90.000000
_cell_angle_beta 90.000000
_cell_angle_gamma 90.000000
_cell_volume 2337.266080
_symmetry_space_group_name_H-M "P M M A"
_symmetry_group_IT_number 51
_symmetry_cell_setting 'orthorhombic'
loop_
_space_group_symop_operation_xyz
x,y,z
1/2-x,-y,z
1/2+x,-y,-z
-x,y,-z
-x,-y,-z
1/2+x,y,-z
1/2-x,y,z
x,-y,z
loop_
_atom_site_type_symbol
_atom_site_label
_atom_site_fract_x
_atom_site_fract_y
_atom_site_fract_z
Si Si1 0.921053 0.317822 0.175091
Si Si2 0.332607 0.318259 0.663860
Si Si3 0.250000 0.814179 0.159444
Si Si4 0.414048 0.680207 0.173322
Si Si5 0.750000 0.817352 0.175150
Si Si6 0.665734 0.817580 0.661318
Si Si7 0.996185 0.819058 0.673149
O O1 0.931139 0.500000 0.204807
O O2 0.875877 0.265750 0.249600
O O3 0.958197 0.212297 0.247114
O O4 0.919069 0.278401 0.000372
O O5 0.323564 0.500000 0.685840
O O6 0.292298 0.227204 0.732148
O O7 0.338181 0.280405 0.489854
O O8 0.292655 0.754580 0.246786
O O9 0.250000 0.000000 0.151532
O O10 0.250000 0.740543 0.991536
O O11 0.400725 0.500000 0.196729
O O12 0.377082 0.791126 0.240274
O O13 0.459586 0.710872 0.254175
O O14 0.750000 0.000000 0.153187
O O15 0.670332 0.000000 0.622082
O O16 0.000000 0.772308 0.500000
O O17 0.983355 0.000000 0.693034
#
# Coordination Sequence:
#
# PCOD8214376 Si02
#       7
#     8   8   4   8   4   8   8
#     4  10  23  41  61  86 118 156 197 243 296 353
#     4  11  23  40  61  88 121 157 196 240 293 349
#     4   9  21  39  60  86 118 155 194 241 294 344
#     4  11  23  40  61  87 119 155 196 243 296 352
#     4  11  22  39  62  88 118 155 198 243 292 344
#     4  11  22  39  62  89 120 156 199 244 293 350
#     4  11  24  40  60  88 119 153 196 244 294 351
#
# _framework density 20.536816000000002
#
# number of rings (size 3 to 8) (size 9 to 14) (size 15 to 20)
#    0.000    1.333    0.000    5.250    0.000    9.333 
#    0.000    3.750    0.000    0.000    0.000    0.000 
#    0.000    0.000    0.000    0.000    0.000    0.000 
#
# Total GULP energy -595565.795678 kJ/mol
# GULP energy per Si atom -12407.620743 kJ/mol
# Density = 2.049007 g / cm^3
# Si number density = 20.536816 Si / 1000 Ang^3
#
#
#
# Elastic Constant Matrix: (Units=GPa)
#
#
# Indices 1 2 3 4 5 6 
#
# 1 142.6190 21.4285 61.9859 0.0000 0.0000 0.0000
# 2 21.4285 34.9584 22.3848 0.0000 0.0000 0.0000
# 3 61.9859 22.3848 149.2728 0.0000 0.0000 0.0000
# 4 0.0000 0.0000 0.0000 14.5240 0.0000 0.0000
# 5 0.0000 0.0000 0.0000 0.0000 39.5577 0.0000
# 6 0.0000 0.0000 0.0000 0.0000 0.0000 39.1965
#
#
#
# Elastic Compliance Matrix: (Units=1/GPa)
#
#
# Indices 1 2 3 4 5 6 
#
# 1 0.008911 -0.003421 -0.003187 0.000000 0.000000 0.000000
# 2 -0.003421 0.032958 -0.003522 0.000000 0.000000 0.000000
# 3 -0.003187 -0.003522 0.008551 0.000000 0.000000 0.000000
# 4 0.000000 0.000000 0.000000 0.068852 0.000000 0.000000
# 5 0.000000 0.000000 0.000000 0.000000 0.025280 0.000000
# 6 0.000000 0.000000 0.000000 0.000000 0.000000 0.025513
#
#
# Mechanical properties :
#
#
# Convention : Reuss Voigt Hill
#
# Bulk Modulus (GPa) = 33.15758 59.82762 46.49260
# Shear Modulus (GPa) = 24.95306 33.39237 29.17272
#
# Velocity S-wave (km/s) = 3.48952 4.03671 3.77305
# Velocity P-wave (km/s) = 5.69352 7.13596 6.45516
#
# Compressibility (1/GPa) = 0.03015902
#
# Stress axis : x y z
#
# Youngs Moduli (GPa) = 112.22073 30.34207 116.94881
#
# Poissons Ratio (x) = 0.10381 0.37275
# Poissons Ratio (y) = 0.38394 0.41184
# Poissons Ratio (z) = 0.35768 0.10685
#
# Static dielectric constant tensor:
#      x y z
#    x 3.791860 0.000000 0.000000 
#    y 0.000000 3.567390 0.000000 
#    z 0.000000 0.000000 3.955580 
# 
# 
# High freq. dielectric constant tensor:
#      x y z
#    x 1.818630 0.000000 0.000000 
#    y 0.000000 1.798100 0.000000 
#    z 0.000000 0.000000 1.822730 
# 
# From -- ./inp_files/12911.got.cif
#   From: 2010.03.12/outbox.cif.g09.slc.cpg/sg51_7_cif.got.tgz:12911.got - 2010.04.16 13:43:02.
