data_PCOD8214097
_publ_section_title
;
Structure prediction by ZEFSAII (Michael W. Deem and Ramdas Pophale) SiO2 
 PCOD8214097
Probable space group: P M M A
;
_chemical_formula_sum "Si O2"
_cell_formula_units_Z 48
_cell_length_a 15.866483
_cell_length_b 9.028949
_cell_length_c 16.787012
_cell_angle_alpha 90.000000
_cell_angle_beta 90.000000
_cell_angle_gamma 90.000000
_cell_volume 2404.868155
_symmetry_space_group_name_H-M "P M M A"
_symmetry_group_IT_number 51
_symmetry_cell_setting 'orthorhombic'
loop_
_space_group_symop_operation_xyz
x,y,z
1/2-x,-y,z
1/2+x,-y,-z
-x,y,-z
-x,-y,-z
1/2+x,y,-z
1/2-x,y,z
x,-y,z
loop_
_atom_site_type_symbol
_atom_site_label
_atom_site_fract_x
_atom_site_fract_y
_atom_site_fract_z
Si Si1 0.153564 0.829565 0.311754
Si Si2 0.410976 0.674398 0.461773
Si Si3 0.750000 0.828370 0.269586
Si Si4 0.847866 0.668777 0.000424
Si Si5 0.076305 0.326290 0.168488
Si Si6 0.250000 0.325089 0.562184
Si Si7 0.096082 0.826527 0.843299
O O1 0.250000 0.810886 0.338814
O O2 0.093633 0.754626 0.376988
O O3 0.142546 0.750433 0.227071
O O4 0.127593 0.000000 0.303154
O O5 0.500000 0.719471 0.500000
O O6 0.404810 0.500000 0.446889
O O7 0.334218 0.730549 0.517275
O O8 0.750000 0.736199 0.349515
O O9 0.830996 0.784796 0.218184
O O10 0.750000 0.000000 0.292011
O O11 0.750000 0.689165 0.981260
O O12 0.867960 0.500000 0.026564
O O13 0.899308 0.711752 0.921838
O O14 0.876598 0.779466 0.068661
O O15 0.077980 0.500000 0.184779
O O16 0.984414 0.262793 0.186681
O O17 0.250000 0.500000 0.567786
O O18 0.076305 0.000000 0.844253
#
# Coordination Sequence:
#
# PCOD8214097 Si02
#       7
#     8   8   4   8   8   4   8
#     4  11  24  42  64  93 126 162 204 250 307 368
#     4  10  22  41  65  94 125 161 205 252 309 372
#     4  10  24  42  60  85 122 161 198 247 308 367
#     4  10  21  39  62  88 119 160 206 250 303 366
#     4  11  24  40  62  91 123 161 207 256 305 359
#     4  10  22  40  64  93 124 159 206 257 304 363
#     4  11  23  41  61  88 123 162 204 252 311 367
#
# _framework density 19.959515
#
# number of rings (size 3 to 8) (size 9 to 14) (size 15 to 20)
#    0.000    1.500    1.667    2.500    2.333    7.333 
#    0.000    0.000    0.000    0.000    0.000    0.000 
#    0.000    0.000    0.000    0.000    0.000    0.000 
#
# Total GULP energy -595516.663160 kJ/mol
# GULP energy per Si atom -12406.597149 kJ/mol
# Density = 1.991409 g / cm^3
# Si number density = 19.959515 Si / 1000 Ang^3
#
#
#
# Elastic Constant Matrix: (Units=GPa)
#
#
# Indices 1 2 3 4 5 6 
#
# 1 103.3483 26.4840 29.1090 0.0000 0.0000 0.0000
# 2 26.4840 59.6820 38.7191 0.0000 0.0000 0.0000
# 3 29.1090 38.7191 102.3404 0.0000 0.0000 0.0000
# 4 0.0000 0.0000 0.0000 8.7707 0.0000 0.0000
# 5 0.0000 0.0000 0.0000 0.0000 42.8940 0.0000
# 6 0.0000 0.0000 0.0000 0.0000 0.0000 29.6878
#
#
#
# Elastic Compliance Matrix: (Units=1/GPa)
#
#
# Indices 1 2 3 4 5 6 
#
# 1 0.011142 -0.003828 -0.001721 0.000000 0.000000 0.000000
# 2 -0.003828 0.023521 -0.007810 0.000000 0.000000 0.000000
# 3 -0.001721 -0.007810 0.013216 0.000000 0.000000 0.000000
# 4 0.000000 0.000000 0.000000 0.114016 0.000000 0.000000
# 5 0.000000 0.000000 0.000000 0.000000 0.023313 0.000000
# 6 0.000000 0.000000 0.000000 0.000000 0.000000 0.033684
#
#
# Mechanical properties :
#
#
# Convention : Reuss Voigt Hill
#
# Bulk Modulus (GPa) = 47.25718 50.44386 48.85052
# Shear Modulus (GPa) = 19.78928 27.67441 23.73184
#
# Velocity S-wave (km/s) = 3.15218 3.72765 3.45193
# Velocity P-wave (km/s) = 6.08081 6.62232 6.35733
#
# Compressibility (1/GPa) = 0.02116080
#
# Stress axis : x y z
#
# Youngs Moduli (GPa) = 89.75371 42.51547 75.66791
#
# Poissons Ratio (x) = 0.16273 0.13022
# Poissons Ratio (y) = 0.34355 0.59097
# Poissons Ratio (z) = 0.15446 0.33205
#
# Static dielectric constant tensor:
#      x y z
#    x 3.827250 0.000000 0.000000 
#    y 0.000000 3.598820 0.000000 
#    z 0.000000 0.000000 3.557790 
# 
# 
# High freq. dielectric constant tensor:
#      x y z
#    x 1.792470 0.000000 0.000000 
#    y 0.000000 1.778600 0.000000 
#    z 0.000000 0.000000 1.785250 
# 
# From -- ./inp_files/24947.got.cif
#   From: 2010.03.12/outbox.cif.g09.slc.cpg/sg51_13_cif.got.tgz:24947.got - 2010.04.16 13:43:02.
