data_PCOD8214479
_publ_section_title
;
Structure prediction by ZEFSAII (Michael W. Deem and Ramdas Pophale) SiO2 
 PCOD8214479
Probable space group: P M M A
;
_chemical_formula_sum "Si O2"
_cell_formula_units_Z 40
_cell_length_a 35.670301
_cell_length_b 13.749424
_cell_length_c 5.101827
_cell_angle_alpha 90.000000
_cell_angle_beta 90.000000
_cell_angle_gamma 90.000000
_cell_volume 2502.171118
_symmetry_space_group_name_H-M "P M M A"
_symmetry_group_IT_number 51
_symmetry_cell_setting 'orthorhombic'
loop_
_space_group_symop_operation_xyz
x,y,z
1/2-x,-y,z
1/2+x,-y,-z
-x,y,-z
-x,-y,-z
1/2+x,y,-z
1/2-x,y,z
x,-y,z
loop_
_atom_site_type_symbol
_atom_site_label
_atom_site_fract_x
_atom_site_fract_y
_atom_site_fract_z
Si Si1 0.336124 0.615553 0.985020
Si Si2 0.974750 0.894781 0.248654
Si Si3 0.707690 0.616125 0.514074
Si Si4 0.920336 0.612550 0.930426
Si Si5 0.956667 0.696237 0.422076
O O1 0.334843 0.500000 0.982566
O O2 0.312954 0.656764 0.229903
O O3 0.379053 0.650383 0.992829
O O4 0.315933 0.657777 0.728767
O O5 0.946922 0.805134 0.313144
O O6 0.000000 0.909101 0.500000
O O7 0.954460 0.000000 0.194407
O O8 0.000000 0.864827 0.000000
O O9 0.750000 0.656655 0.503625
O O10 0.708259 0.500000 0.511836
O O11 0.920321 0.500000 0.845537
O O12 0.932682 0.674970 0.679926
O O13 0.947106 0.623856 0.183322
O O14 0.000000 0.684764 0.500000
#
# Coordination Sequence:
#
# PCOD8214479 Si02
#       5
#     8   8   8   8   8
#     4   9  17  28  39  54  78 108 141 172 207 251
#     4   9  17  31  50  68  84 101 128 177 235 280
#     4   9  15  24  40  59  76  97 133 179 214 243
#     4  11  22  33  44  59  86 123 155 183 214 249
#     4  11  21  33  47  64  83 109 152 193 222 256
#
# _framework density 15.986116000000001
#
# number of rings (size 3 to 8) (size 9 to 14) (size 15 to 20)
#    0.000    2.200    0.000    5.400    0.000    8.000 
#    0.000    0.000    0.000    0.000    0.000    0.000 
#    0.000    0.000    0.000    0.000    0.000   70.000 
#
# Total GULP energy -495750.890028 kJ/mol
# GULP energy per Si atom -12393.772251 kJ/mol
# Density = 1.594973 g / cm^3
# Si number density = 15.986116 Si / 1000 Ang^3
#
#
#
# Elastic Constant Matrix: (Units=GPa)
#
#
# Indices 1 2 3 4 5 6 
#
# 1 87.3192 31.7695 41.2009 0.0000 0.0000 0.0000
# 2 31.7695 44.7266 18.8840 0.0000 0.0000 0.0000
# 3 41.2009 18.8840 128.0641 0.0000 0.0000 0.0000
# 4 0.0000 0.0000 0.0000 18.6306 0.0000 0.0000
# 5 0.0000 0.0000 0.0000 0.0000 32.5826 0.0000
# 6 0.0000 0.0000 0.0000 0.0000 0.0000 0.9433
#
#
#
# Elastic Compliance Matrix: (Units=1/GPa)
#
#
# Indices 1 2 3 4 5 6 
#
# 1 0.017146 -0.010504 -0.003967 0.000000 0.000000 0.000000
# 2 -0.010504 0.030277 -0.001085 0.000000 0.000000 0.000000
# 3 -0.003967 -0.001085 0.009245 0.000000 0.000000 0.000000
# 4 0.000000 0.000000 0.000000 0.053675 0.000000 0.000000
# 5 0.000000 0.000000 0.000000 0.000000 0.030691 0.000000
# 6 0.000000 0.000000 0.000000 0.000000 0.000000 1.060163
#
#
# Mechanical properties :
#
#
# Convention : Reuss Voigt Hill
#
# Bulk Modulus (GPa) = 39.13090 49.31316 44.22203
# Shear Modulus (GPa) = 4.02957 21.64833 12.83895
#
# Velocity S-wave (km/s) = 1.58938 3.68393 2.83703
# Velocity P-wave (km/s) = 5.28199 7.00069 6.20117
#
# Compressibility (1/GPa) = 0.02555525
#
# Stress axis : x y z
#
# Youngs Moduli (GPa) = 58.32356 33.02829 108.16666
#
# Poissons Ratio (x) = 0.34692 0.42913
# Poissons Ratio (y) = 0.61261 0.11740
# Poissons Ratio (z) = 0.23139 0.03585
#
# Static dielectric constant tensor:
#      x y z
#    x 3.019650 0.000000 0.000000 
#    y 0.000000 3.031760 0.000000 
#    z 0.000000 0.000000 3.273180 
# 
# 
# High freq. dielectric constant tensor:
#      x y z
#    x 1.595560 0.000000 0.000000 
#    y 0.000000 1.558890 0.000000 
#    z 0.000000 0.000000 1.644660 
# 
# From -- ./inp_files/3919.got.cif
#   From: 2010.03.12/outbox.cif.g09.slc.cpg/sg51_2_cif.got.tgz:3919.got - 2010.04.16 13:43:02.
