data_PCOD8214425
_publ_section_title
;
Structure prediction by ZEFSAII (Michael W. Deem and Ramdas Pophale) SiO2 
 PCOD8214425
Probable space group: P M M A
;
_chemical_formula_sum "Si O2"
_cell_formula_units_Z 26
_cell_length_a 16.647900
_cell_length_b 7.631332
_cell_length_c 10.154872
_cell_angle_alpha 90.000000
_cell_angle_beta 90.000000
_cell_angle_gamma 90.000000
_cell_volume 1290.132334
_symmetry_space_group_name_H-M "P M M A"
_symmetry_group_IT_number 51
_symmetry_cell_setting 'orthorhombic'
loop_
_space_group_symop_operation_xyz
x,y,z
1/2-x,-y,z
1/2+x,-y,-z
-x,y,-z
-x,-y,-z
1/2+x,y,-z
1/2-x,y,z
x,-y,z
loop_
_atom_site_type_symbol
_atom_site_label
_atom_site_fract_x
_atom_site_fract_y
_atom_site_fract_z
Si Si1 0.553144 0.298268 0.803298
Si Si2 0.250000 0.688410 0.746993
Si Si3 0.078025 0.000000 0.403696
Si Si4 0.113284 0.798125 0.931623
Si Si5 0.250000 0.000000 0.546472
O O1 0.545720 0.500000 0.756551
O O2 0.472637 0.222553 0.865235
O O3 0.576279 0.178077 0.680307
O O4 0.618002 0.282863 0.921293
O O5 0.250000 0.500000 0.675709
O O6 0.173224 0.695932 0.839342
O O7 0.250000 0.829304 0.634226
O O8 0.000000 0.000000 0.500000
O O9 0.165985 0.000000 0.468940
O O10 0.138174 0.000000 0.938971
#
# Coordination Sequence:
#
# PCOD8214425 Si02
#       5
#     8   4   4   8   2
#     4  11  22  40  66  95 125 161 207 261 317 379
#     4  12  24  41  65  94 125 161 207 262 320 377
#     4  12  26  44  64  88 130 178 220 256 308 372
#     4  11  19  39  67  97 126 158 197 262 331 380
#     4  12  28  44  64  90 126 174 222 262 304 374
#
# _framework density 20.152971000000001
#
# number of rings (size 3 to 8) (size 9 to 14) (size 15 to 20)
#    0.000    0.615    4.615    6.462    0.000    3.077 
#    0.000    1.538    0.000    0.000    0.000    0.000 
#    0.000    0.000    0.000    0.000    0.000    0.000 
#
# Total GULP energy -322334.097915 kJ/mol
# GULP energy per Si atom -12397.465304 kJ/mol
# Density = 2.010710 g / cm^3
# Si number density = 20.152971 Si / 1000 Ang^3
#
#
#
# Elastic Constant Matrix: (Units=GPa)
#
#
# Indices 1 2 3 4 5 6 
#
# 1 99.5435 25.4559 65.0566 0.0000 0.0000 0.0000
# 2 25.4559 163.0404 56.8938 0.0000 0.0000 0.0000
# 3 65.0566 56.8938 138.5532 0.0000 0.0000 0.0000
# 4 0.0000 0.0000 0.0000 127.5462 0.0000 0.0000
# 5 0.0000 0.0000 0.0000 0.0000 37.1596 0.0000
# 6 0.0000 0.0000 0.0000 0.0000 0.0000 23.3814
#
#
#
# Elastic Compliance Matrix: (Units=1/GPa)
#
#
# Indices 1 2 3 4 5 6 
#
# 1 0.014496 0.000131 -0.006860 0.000000 0.000000 0.000000
# 2 0.000131 0.007160 -0.003002 0.000000 0.000000 0.000000
# 3 -0.006860 -0.003002 0.011671 0.000000 0.000000 0.000000
# 4 0.000000 0.000000 0.000000 0.007840 0.000000 0.000000
# 5 0.000000 0.000000 0.000000 0.000000 0.026911 0.000000
# 6 0.000000 0.000000 0.000000 0.000000 0.000000 0.042769
#
#
# Mechanical properties :
#
#
# Convention : Reuss Voigt Hill
#
# Bulk Modulus (GPa) = 72.12267 77.32774 74.72521
# Shear Modulus (GPa) = 37.05583 54.53283 45.79433
#
# Velocity S-wave (km/s) = 4.29269 5.20751 4.77207
# Velocity P-wave (km/s) = 7.77399 8.63778 8.21724
#
# Compressibility (1/GPa) = 0.01386527
#
# Stress axis : x y z
#
# Youngs Moduli (GPa) = 68.98529 139.65523 85.68193
#
# Poissons Ratio (x) = -0.01824 0.58778
# Poissons Ratio (y) = -0.00901 0.25718
# Poissons Ratio (z) = 0.47324 0.41919
#
# Static dielectric constant tensor:
#      x y z
#    x 4.739830 0.000000 0.000000 
#    y 0.000000 3.739660 0.000000 
#    z 0.000000 0.000000 3.847960 
# 
# 
# High freq. dielectric constant tensor:
#      x y z
#    x 1.785220 0.000000 0.000000 
#    y 0.000000 1.808860 0.000000 
#    z 0.000000 0.000000 1.783800 
# 
# From -- ./inp_files/9036.got.cif
#   From: 2010.03.12/outbox.cif.g09.slc.cpg/sg51_5_cif.got.tgz:9036.got - 2010.04.16 13:43:02.
