data_PCOD8214290
_publ_section_title
;
Structure prediction by ZEFSAII (Michael W. Deem and Ramdas Pophale) SiO2 
 PCOD8214290
Probable space group: P M M A
;
_chemical_formula_sum "Si O2"
_cell_formula_units_Z 40
_cell_length_a 16.323328
_cell_length_b 9.002091
_cell_length_c 13.197224
_cell_angle_alpha 90.000000
_cell_angle_beta 90.000000
_cell_angle_gamma 90.000000
_cell_volume 1939.253993
_symmetry_space_group_name_H-M "P M M A"
_symmetry_group_IT_number 51
_symmetry_cell_setting 'orthorhombic'
loop_
_space_group_symop_operation_xyz
x,y,z
1/2-x,-y,z
1/2+x,-y,-z
-x,y,-z
-x,-y,-z
1/2+x,y,-z
1/2-x,y,z
x,-y,z
loop_
_atom_site_type_symbol
_atom_site_label
_atom_site_fract_x
_atom_site_fract_y
_atom_site_fract_z
Si Si1 0.250000 0.836887 0.074787
Si Si2 0.343523 0.673063 0.650157
Si Si3 0.006905 0.175084 0.713664
Si Si4 0.250000 0.835164 0.312783
Si Si5 0.929603 0.177397 0.924674
Si Si6 0.610142 0.675726 0.575358
O O1 0.250000 0.854630 0.194133
O O2 0.337902 0.758138 0.046018
O O3 0.250000 0.000000 0.023959
O O4 0.250000 0.708087 0.677625
O O5 0.363551 0.500000 0.663912
O O6 0.399174 0.770457 0.726337
O O7 0.361233 0.724963 0.535390
O O8 0.954990 0.226104 0.811437
O O9 0.977084 0.257397 0.610252
O O10 0.002332 0.000000 0.698361
O O11 0.328796 0.743305 0.343257
O O12 0.250000 0.000000 0.362695
O O13 0.925343 0.000000 0.930508
O O14 0.000000 0.239010 0.000000
O O15 0.607064 0.500000 0.584557
#
# Coordination Sequence:
#
# PCOD8214290 Si02
#       6
#     4   8   8   4   8   8
#     4   9  16  31  55  80 109 144 180 229 291 335
#     4  10  22  40  56  75 111 159 198 225 272 345
#     4  11  22  36  56  86 115 142 186 243 291 330
#     4  11  19  31  55  86 115 144 186 243 287 317
#     4   9  18  34  55  82 114 146 184 233 290 349
#     4  11  21  36  57  82 112 153 195 227 273 342
#
# _framework density 20.626487999999998
#
# number of rings (size 3 to 8) (size 9 to 14) (size 15 to 20)
#    0.000    1.800    3.000    2.100    0.000    4.400 
#    1.800    0.000    0.000    2.400    0.000    0.000 
#    0.000    0.000    0.000    0.000    0.000    0.000 
#
# Total GULP energy -495709.444330 kJ/mol
# GULP energy per Si atom -12392.736108 kJ/mol
# Density = 2.057954 g / cm^3
# Si number density = 20.626488 Si / 1000 Ang^3
#
#
#
# Elastic Constant Matrix: (Units=GPa)
#
#
# Indices 1 2 3 4 5 6 
#
# 1 168.7012 32.0334 37.6441 0.0000 0.0000 0.0000
# 2 32.0334 50.8954 16.0931 0.0000 0.0000 0.0000
# 3 37.6441 16.0931 38.4135 0.0000 0.0000 0.0000
# 4 0.0000 0.0000 0.0000 7.4911 0.0000 0.0000
# 5 0.0000 0.0000 0.0000 0.0000 34.8826 0.0000
# 6 0.0000 0.0000 0.0000 0.0000 0.0000 34.3968
#
#
#
# Elastic Compliance Matrix: (Units=1/GPa)
#
#
# Indices 1 2 3 4 5 6 
#
# 1 0.007948 -0.002927 -0.006562 0.000000 0.000000 0.000000
# 2 -0.002927 0.023727 -0.007071 0.000000 0.000000 0.000000
# 3 -0.006562 -0.007071 0.035426 0.000000 0.000000 0.000000
# 4 0.000000 0.000000 0.000000 0.133492 0.000000 0.000000
# 5 0.000000 0.000000 0.000000 0.000000 0.028668 0.000000
# 6 0.000000 0.000000 0.000000 0.000000 0.000000 0.029072
#
#
# Mechanical properties :
#
#
# Convention : Reuss Voigt Hill
#
# Bulk Modulus (GPa) = 29.43056 47.72791 38.57924
# Shear Modulus (GPa) = 16.51361 26.83672 21.67517
#
# Velocity S-wave (km/s) = 2.83256 3.61096 3.24519
# Velocity P-wave (km/s) = 4.99972 6.36983 5.72590
#
# Compressibility (1/GPa) = 0.03397828
#
# Stress axis : x y z
#
# Youngs Moduli (GPa) = 125.82121 42.14681 28.22804
#
# Poissons Ratio (x) = 0.12338 0.18524
# Poissons Ratio (y) = 0.36832 0.19961
# Poissons Ratio (z) = 0.82566 0.29804
#
# Static dielectric constant tensor:
#      x y z
#    x 4.341760 0.000000 0.000000 
#    y 0.000000 3.362390 0.000000 
#    z 0.000000 0.000000 3.523500 
# 
# 
# High freq. dielectric constant tensor:
#      x y z
#    x 1.838040 0.000000 0.000000 
#    y 0.000000 1.768710 0.000000 
#    z 0.000000 0.000000 1.780140 
# 
# From -- ./inp_files/23728.got.cif
#   From: 2010.03.12/outbox.cif.g09.slc.cpg/sg51_12_cif.got.tgz:23728.got - 2010.04.16 13:43:02.
