data_PCOD8214079
_publ_section_title
;
Structure prediction by ZEFSAII (Michael W. Deem and Ramdas Pophale) SiO2 
 PCOD8214079
Probable space group: P M M A
;
_chemical_formula_sum "Si O2"
_cell_formula_units_Z 48
_cell_length_a 15.997985
_cell_length_b 8.830058
_cell_length_c 16.894583
_cell_angle_alpha 90.000000
_cell_angle_beta 90.000000
_cell_angle_gamma 90.000000
_cell_volume 2386.581766
_symmetry_space_group_name_H-M "P M M A"
_symmetry_group_IT_number 51
_symmetry_cell_setting 'orthorhombic'
loop_
_space_group_symop_operation_xyz
x,y,z
1/2-x,-y,z
1/2+x,-y,-z
-x,y,-z
-x,-y,-z
1/2+x,y,-z
1/2-x,y,z
x,-y,z
loop_
_atom_site_type_symbol
_atom_site_label
_atom_site_fract_x
_atom_site_fract_y
_atom_site_fract_z
Si Si1 0.654596 0.670838 0.807902
Si Si2 0.928936 0.177000 0.668637
Si Si3 0.401329 0.677172 0.651612
Si Si4 0.250000 0.322260 0.764187
Si Si5 0.750000 0.820963 0.065095
Si Si6 0.092550 0.322946 0.022520
Si Si7 0.843919 0.179431 0.507304
O O1 0.750000 0.688938 0.834331
O O2 0.636148 0.500000 0.778279
O O3 0.636316 0.788887 0.738202
O O4 0.599582 0.709998 0.884311
O O5 0.890621 0.235090 0.586044
O O6 0.011592 0.271385 0.689281
O O7 0.949320 0.000000 0.665513
O O8 0.398885 0.500000 0.635704
O O9 0.330090 0.725678 0.712892
O O10 0.392793 0.760077 0.568087
O O11 0.250000 0.500000 0.784466
O O12 0.250000 0.227496 0.843834
O O13 0.750000 0.000000 0.058794
O O14 0.665239 0.761721 0.024924
O O15 0.102712 0.500000 0.002986
O O16 0.000000 0.263974 0.000000
O O17 0.750000 0.245319 0.507925
O O18 0.842513 0.000000 0.503924
#
# Coordination Sequence:
#
# PCOD8214079 Si02
#       7
#     8   8   8   4   4   8   8
#     4  10  21  40  64  92 124 161 209 257 304 360
#     4  11  24  39  59  90 127 164 202 247 306 369
#     4  11  23  41  63  89 118 156 207 259 307 357
#     4  10  24  44  64  85 118 161 204 251 310 371
#     4  12  26  42  66  99 132 163 206 261 318 379
#     4  10  22  43  70  95 126 170 214 258 313 378
#     4  10  21  39  61  85 120 164 203 243 303 371
#
# _framework density 20.112447
#
# number of rings (size 3 to 8) (size 9 to 14) (size 15 to 20)
#    0.000    1.500    1.667    2.750    2.333    6.667 
#    0.000    0.000    0.000    0.000    0.000    0.000 
#    0.000    0.000    0.000    0.000    0.000    0.000 
#
# Total GULP energy -595442.481666 kJ/mol
# GULP energy per Si atom -12405.051701 kJ/mol
# Density = 2.006667 g / cm^3
# Si number density = 20.112447 Si / 1000 Ang^3
#
#
#
# Elastic Constant Matrix: (Units=GPa)
#
#
# Indices 1 2 3 4 5 6 
#
# 1 122.3995 32.7960 49.7560 0.0000 0.0000 0.0000
# 2 32.7960 44.0320 37.1130 0.0000 0.0000 0.0000
# 3 49.7560 37.1130 120.2599 0.0000 0.0000 0.0000
# 4 0.0000 0.0000 0.0000 17.3896 0.0000 0.0000
# 5 0.0000 0.0000 0.0000 0.0000 32.2970 0.0000
# 6 0.0000 0.0000 0.0000 0.0000 0.0000 29.8973
#
#
#
# Elastic Compliance Matrix: (Units=1/GPa)
#
#
# Indices 1 2 3 4 5 6 
#
# 1 0.010814 -0.005789 -0.002687 0.000000 0.000000 0.000000
# 2 -0.005789 0.033794 -0.008034 0.000000 0.000000 0.000000
# 3 -0.002687 -0.008034 0.011907 0.000000 0.000000 0.000000
# 4 0.000000 0.000000 0.000000 0.057506 0.000000 0.000000
# 5 0.000000 0.000000 0.000000 0.000000 0.030963 0.000000
# 6 0.000000 0.000000 0.000000 0.000000 0.000000 0.033448
#
#
# Mechanical properties :
#
#
# Convention : Reuss Voigt Hill
#
# Bulk Modulus (GPa) = 42.56522 58.44682 50.50602
# Shear Modulus (GPa) = 22.80168 27.05187 24.92678
#
# Velocity S-wave (km/s) = 3.37071 3.67145 3.52429
# Velocity P-wave (km/s) = 6.02980 6.86264 6.45966
#
# Compressibility (1/GPa) = 0.02349336
#
# Stress axis : x y z
#
# Youngs Moduli (GPa) = 92.47654 29.59101 83.98746
#
# Poissons Ratio (x) = 0.17130 0.22571
# Poissons Ratio (y) = 0.53535 0.67475
# Poissons Ratio (z) = 0.24853 0.23773
#
# Static dielectric constant tensor:
#      x y z
#    x 3.857310 0.000000 0.000000 
#    y 0.000000 3.498080 0.000000 
#    z 0.000000 0.000000 3.630320 
# 
# 
# High freq. dielectric constant tensor:
#      x y z
#    x 1.801350 0.000000 0.000000 
#    y 0.000000 1.774340 0.000000 
#    z 0.000000 0.000000 1.793850 
# 
# From -- ./inp_files/29529.got.cif
#   From: 2010.03.12/outbox.cif.g09.slc.cpg/sg51_15_cif.got.tgz:29529.got - 2010.04.16 13:43:02.
