data_PCOD8214057
_publ_section_title
;
Structure prediction by ZEFSAII (Michael W. Deem and Ramdas Pophale) SiO2 
 PCOD8214057
Probable space group: P M M A
;
_chemical_formula_sum "Si O2"
_cell_formula_units_Z 48
_cell_length_a 14.472055
_cell_length_b 17.212828
_cell_length_c 9.027651
_cell_angle_alpha 90.000000
_cell_angle_beta 90.000000
_cell_angle_gamma 90.000000
_cell_volume 2248.832944
_symmetry_space_group_name_H-M "P M M A"
_symmetry_group_IT_number 51
_symmetry_cell_setting 'orthorhombic'
loop_
_space_group_symop_operation_xyz
x,y,z
1/2-x,-y,z
1/2+x,-y,-z
-x,y,-z
-x,-y,-z
1/2+x,y,-z
1/2-x,y,z
x,-y,z
loop_
_atom_site_type_symbol
_atom_site_label
_atom_site_fract_x
_atom_site_fract_y
_atom_site_fract_z
Si Si1 0.857992 0.202156 0.860827
Si Si2 0.645915 0.584988 0.600633
Si Si3 0.976556 0.358134 0.841778
Si Si4 0.024970 0.087843 0.335370
Si Si5 0.146153 0.689683 0.666558
Si Si6 0.852325 0.147882 0.196490
O O1 0.750000 0.217644 0.824568
O O2 0.918432 0.278831 0.844508
O O3 0.896499 0.139637 0.742943
O O4 0.870479 0.175097 0.029281
O O5 0.750000 0.597878 0.656497
O O6 0.636293 0.500000 0.521858
O O7 0.579793 0.581816 0.742536
O O8 0.616939 0.657069 0.495205
O O9 0.079195 0.347466 0.783573
O O10 0.000000 0.394589 0.000000
O O11 0.000000 0.118695 0.500000
O O12 0.930878 0.086609 0.238423
O O13 0.063233 0.000000 0.343138
O O14 0.250000 0.660795 0.701971
O O15 0.140051 0.782568 0.682739
O O16 0.750000 0.110206 0.207717
#
# Coordination Sequence:
#
# PCOD8214057 Si02
#       6
#     8   8   8   8   8   8
#     4  11  23  41  65  93 125 166 213 260 313 371
#     4  10  24  44  64  92 129 170 214 259 313 380
#     4  12  22  37  64  95 128 165 211 264 315 372
#     4  11  25  42  62  93 130 166 207 257 315 374
#     4  10  21  38  63  92 124 161 207 262 313 371
#     4  10  21  40  64  93 124 162 215 263 312 373
#
# _framework density 21.344404000000001
#
# number of rings (size 3 to 8) (size 9 to 14) (size 15 to 20)
#    0.000    1.333    3.333    1.500    2.333    5.000 
#    0.000    3.333    0.000    2.000    0.000    0.000 
#    0.000    0.000    0.000    0.000    0.000    0.000 
#
# Total GULP energy -594944.687189 kJ/mol
# GULP energy per Si atom -12394.680983 kJ/mol
# Density = 2.129582 g / cm^3
# Si number density = 21.344404 Si / 1000 Ang^3
#
#
#
# Elastic Constant Matrix: (Units=GPa)
#
#
# Indices 1 2 3 4 5 6 
#
# 1 114.2244 10.3757 49.0581 0.0000 0.0000 0.0000
# 2 10.3757 57.2677 32.7661 0.0000 0.0000 0.0000
# 3 49.0581 32.7661 115.1867 0.0000 0.0000 0.0000
# 4 0.0000 0.0000 0.0000 14.9755 0.0000 0.0000
# 5 0.0000 0.0000 0.0000 0.0000 39.0866 0.0000
# 6 0.0000 0.0000 0.0000 0.0000 0.0000 19.9168
#
#
#
# Elastic Compliance Matrix: (Units=1/GPa)
#
#
# Indices 1 2 3 4 5 6 
#
# 1 0.010745 0.000802 -0.004805 0.000000 0.000000 0.000000
# 2 0.000802 0.020916 -0.006291 0.000000 0.000000 0.000000
# 3 -0.004805 -0.006291 0.012518 0.000000 0.000000 0.000000
# 4 0.000000 0.000000 0.000000 0.066776 0.000000 0.000000
# 5 0.000000 0.000000 0.000000 0.000000 0.025584 0.000000
# 6 0.000000 0.000000 0.000000 0.000000 0.000000 0.050209
#
#
# Mechanical properties :
#
#
# Convention : Reuss Voigt Hill
#
# Bulk Modulus (GPa) = 42.38867 52.34209 47.36538
# Shear Modulus (GPa) = 23.23425 27.76105 25.49765
#
# Velocity S-wave (km/s) = 3.30288 3.61033 3.46002
# Velocity P-wave (km/s) = 5.86923 6.47728 6.18074
#
# Compressibility (1/GPa) = 0.02359121
#
# Stress axis : x y z
#
# Youngs Moduli (GPa) = 93.06328 47.80973 79.88787
#
# Poissons Ratio (x) = -0.03835 0.38383
# Poissons Ratio (y) = -0.07465 0.50261
# Poissons Ratio (z) = 0.44714 0.30079
#
# Static dielectric constant tensor:
#      x y z
#    x 4.142880 0.000000 0.000000 
#    y 0.000000 3.633880 0.000000 
#    z 0.000000 0.000000 3.999560 
# 
# 
# High freq. dielectric constant tensor:
#      x y z
#    x 1.857580 0.000000 0.000000 
#    y 0.000000 1.815100 0.000000 
#    z 0.000000 0.000000 1.837940 
# 
# From -- ./inp_files/8221.got.cif
#   From: 2010.03.12/outbox.cif.g09.slc.cpg/sg51_5_cif.got.tgz:8221.got - 2010.04.16 13:43:02.
