data_PCOD8214327
_publ_section_title
;
Structure prediction by ZEFSAII (Michael W. Deem and Ramdas Pophale) SiO2 
 PCOD8214327
Probable space group: P M M A
;
_chemical_formula_sum "Si O2"
_cell_formula_units_Z 64
_cell_length_a 23.636891
_cell_length_b 8.613442
_cell_length_c 15.319691
_cell_angle_alpha 90.000000
_cell_angle_beta 90.000000
_cell_angle_gamma 90.000000
_cell_volume 3119.012331
_symmetry_space_group_name_H-M "P M M A"
_symmetry_group_IT_number 51
_symmetry_cell_setting 'orthorhombic'
loop_
_space_group_symop_operation_xyz
x,y,z
1/2-x,-y,z
1/2+x,-y,-z
-x,y,-z
-x,-y,-z
1/2+x,y,-z
1/2-x,y,z
x,-y,z
loop_
_atom_site_type_symbol
_atom_site_label
_atom_site_fract_x
_atom_site_fract_y
_atom_site_fract_z
Si Si1 0.392865 0.678315 0.403239
Si Si2 0.315048 0.318732 0.243624
Si Si3 0.507033 0.678155 0.853962
Si Si4 0.119404 0.179815 0.083383
Si Si5 0.612569 0.321804 0.400523
Si Si6 0.119237 0.321120 0.903459
Si Si7 0.001260 0.179166 0.667797
Si Si8 0.185351 0.180394 0.745309
O O1 0.410912 0.500000 0.388832
O O2 0.345488 0.728666 0.333639
O O3 0.367375 0.703138 0.499804
O O4 0.448199 0.784525 0.393928
O O5 0.250000 0.270869 0.252996
O O6 0.322443 0.500000 0.223676
O O7 0.342275 0.223826 0.165210
O O8 0.525878 0.500000 0.865872
O O9 0.553930 0.785353 0.897886
O O10 0.447755 0.710848 0.900940
O O11 0.501980 0.712781 0.752117
O O12 0.126560 0.000000 0.062942
O O13 0.141340 0.273290 0.998849
O O14 0.595672 0.500000 0.382831
O O15 0.558509 0.214498 0.383587
O O16 0.664027 0.276034 0.337975
O O17 0.133508 0.500000 0.884911
O O18 0.149386 0.218377 0.830812
O O19 0.000443 0.000000 0.696120
O O20 0.250000 0.226882 0.763013
O O21 0.178440 0.000000 0.724025
#
# Coordination Sequence:
#
# PCOD8214327 Si02
#       8
#     8   8   8   8   8   8   8   8
#     4  10  22  40  64  92 126 164 209 258 308 368
#     4  10  22  42  66  89 118 162 213 262 309 362
#     4  11  22  39  64  93 126 162 205 253 306 372
#     4  12  25  40  63  95 129 165 203 252 312 372
#     4  11  23  40  64  94 126 166 210 255 307 371
#     4  11  24  42  67  94 123 164 207 254 309 370
#     4  12  23  36  61  94 129 166 203 250 314 376
#     4  11  25  44  65  91 125 164 208 263 318 367
#
# _framework density 20.519317000000001
#
# number of rings (size 3 to 8) (size 9 to 14) (size 15 to 20)
#    0.000    1.000    2.500    4.500    0.000    7.750 
#    0.000    1.250    0.000    0.000    0.000    0.000 
#    0.000    0.000    0.000    0.000    0.000    0.000 
#
# Total GULP energy -794054.214736 kJ/mol
# GULP energy per Si atom -12407.097105 kJ/mol
# Density = 2.047261 g / cm^3
# Si number density = 20.519317 Si / 1000 Ang^3
#
#
#
# Elastic Constant Matrix: (Units=GPa)
#
#
# Indices 1 2 3 4 5 6 
#
# 1 90.4916 35.9081 25.3284 0.0000 0.0000 0.0000
# 2 35.9081 58.0676 21.8606 0.0000 0.0000 0.0000
# 3 25.3284 21.8606 126.6368 0.0000 0.0000 0.0000
# 4 0.0000 0.0000 0.0000 22.1234 0.0000 0.0000
# 5 0.0000 0.0000 0.0000 0.0000 11.4154 0.0000
# 6 0.0000 0.0000 0.0000 0.0000 0.0000 27.8370
#
#
#
# Elastic Compliance Matrix: (Units=1/GPa)
#
#
# Indices 1 2 3 4 5 6 
#
# 1 0.014901 -0.008655 -0.001486 0.000000 0.000000 0.000000
# 2 -0.008655 0.023445 -0.002316 0.000000 0.000000 0.000000
# 3 -0.001486 -0.002316 0.008594 0.000000 0.000000 0.000000
# 4 0.000000 0.000000 0.000000 0.045201 0.000000 0.000000
# 5 0.000000 0.000000 0.000000 0.000000 0.087601 0.000000
# 6 0.000000 0.000000 0.000000 0.000000 0.000000 0.035923
#
#
# Mechanical properties :
#
#
# Convention : Reuss Voigt Hill
#
# Bulk Modulus (GPa) = 45.40251 49.04337 47.22294
# Shear Modulus (GPa) = 20.16760 25.08176 22.62468
#
# Velocity S-wave (km/s) = 3.13846 3.50000 3.32415
# Velocity P-wave (km/s) = 5.94205 6.34715 6.14794
#
# Compressibility (1/GPa) = 0.02202521
#
# Stress axis : x y z
#
# Youngs Moduli (GPa) = 67.10862 42.65216 116.36441
#
# Poissons Ratio (x) = 0.36916 0.17295
# Poissons Ratio (y) = 0.58083 0.26952
# Poissons Ratio (z) = 0.09974 0.09879
#
# Static dielectric constant tensor:
#      x y z
#    x 3.691120 0.000000 0.000000 
#    y 0.000000 3.682150 0.000000 
#    z 0.000000 0.000000 3.820810 
# 
# 
# High freq. dielectric constant tensor:
#      x y z
#    x 1.794640 0.000000 0.000000 
#    y 0.000000 1.804480 0.000000 
#    z 0.000000 0.000000 1.816350 
# 
# From -- ./inp_files/26353.got.cif
#   From: 2010.03.12/outbox.cif.g09.slc.cpg/sg51_14_cif.got.tgz:26353.got - 2010.04.16 13:43:02.
