data_PCOD8214152
_publ_section_title
;
Structure prediction by ZEFSAII (Michael W. Deem and Ramdas Pophale) SiO2 
 PCOD8214152
Probable space group: P M M A
;
_chemical_formula_sum "Si O2"
_cell_formula_units_Z 48
_cell_length_a 15.968346
_cell_length_b 8.869430
_cell_length_c 16.849878
_cell_angle_alpha 90.000000
_cell_angle_beta 90.000000
_cell_angle_gamma 90.000000
_cell_volume 2386.450362
_symmetry_space_group_name_H-M "P M M A"
_symmetry_group_IT_number 51
_symmetry_cell_setting 'orthorhombic'
loop_
_space_group_symop_operation_xyz
x,y,z
1/2-x,-y,z
1/2+x,-y,-z
-x,y,-z
-x,-y,-z
1/2+x,y,-z
1/2-x,y,z
x,-y,z
loop_
_atom_site_type_symbol
_atom_site_label
_atom_site_fract_x
_atom_site_fract_y
_atom_site_fract_z
Si Si1 0.654340 0.671129 0.803190
Si Si2 0.933706 0.175528 0.665445
Si Si3 0.393010 0.676541 0.658886
Si Si4 0.250000 0.177444 0.760304
Si Si5 0.750000 0.822379 0.056827
Si Si6 0.091448 0.323932 0.026956
Si Si7 0.846858 0.172234 0.502083
O O1 0.750000 0.695269 0.829249
O O2 0.639050 0.500000 0.774157
O O3 0.634158 0.785305 0.732237
O O4 0.597488 0.708513 0.879280
O O5 0.898345 0.218989 0.579470
O O6 0.014224 0.275987 0.683105
O O7 0.956366 0.000000 0.669585
O O8 0.381167 0.500000 0.669071
O O9 0.331880 0.758595 0.718941
O O10 0.374442 0.719971 0.568446
O O11 0.250000 0.226115 0.851508
O O12 0.250000 0.000000 0.748541
O O13 0.750000 0.000000 0.045939
O O14 0.665221 0.760615 0.018531
O O15 0.102064 0.500000 0.008093
O O16 0.000000 0.264913 0.000000
O O17 0.750000 0.194639 0.522196
O O18 0.866080 0.000000 0.477265
#
# Coordination Sequence:
#
# PCOD8214152 Si02
#       7
#     8   8   8   4   4   8   8
#     4  10  21  40  63  92 129 166 208 261 314 367
#     4  11  24  40  62  92 126 167 210 254 308 369
#     4  12  25  41  63  93 123 161 208 257 313 368
#     4  11  25  45  65  90 125 162 203 255 316 375
#     4  11  25  43  67  98 129 164 211 265 320 379
#     4  10  22  42  68  96 129 171 213 258 319 386
#     4  10  21  40  64  88 122 167 208 251 308 370
#
# _framework density 20.113555000000002
#
# number of rings (size 3 to 8) (size 9 to 14) (size 15 to 20)
#    0.000    1.333    1.667    3.500    2.333    6.667 
#    0.000    0.000    0.000    0.000    0.000    0.000 
#    0.000    0.000    0.000    0.000    0.000    0.000 
#
# Total GULP energy -595479.614474 kJ/mol
# GULP energy per Si atom -12405.825302 kJ/mol
# Density = 2.006778 g / cm^3
# Si number density = 20.113555 Si / 1000 Ang^3
#
#
#
# Elastic Constant Matrix: (Units=GPa)
#
#
# Indices 1 2 3 4 5 6 
#
# 1 114.7747 29.7625 42.1392 0.0000 0.0000 0.0000
# 2 29.7625 63.2512 50.6334 0.0000 0.0000 0.0000
# 3 42.1392 50.6334 113.9527 0.0000 0.0000 0.0000
# 4 0.0000 0.0000 0.0000 32.6361 0.0000 0.0000
# 5 0.0000 0.0000 0.0000 0.0000 69.8713 0.0000
# 6 0.0000 0.0000 0.0000 0.0000 0.0000 31.3178
#
#
#
# Elastic Compliance Matrix: (Units=1/GPa)
#
#
# Indices 1 2 3 4 5 6 
#
# 1 0.010395 -0.002816 -0.002593 0.000000 0.000000 0.000000
# 2 -0.002816 0.025301 -0.010201 0.000000 0.000000 0.000000
# 3 -0.002593 -0.010201 0.014267 0.000000 0.000000 0.000000
# 4 0.000000 0.000000 0.000000 0.030641 0.000000 0.000000
# 5 0.000000 0.000000 0.000000 0.000000 0.014312 0.000000
# 6 0.000000 0.000000 0.000000 0.000000 0.000000 0.031931
#
#
# Mechanical properties :
#
#
# Convention : Reuss Voigt Hill
#
# Bulk Modulus (GPa) = 53.35063 59.67208 56.51135
# Shear Modulus (GPa) = 30.42977 38.06129 34.24553
#
# Velocity S-wave (km/s) = 3.89382 4.35480 4.13075
# Velocity P-wave (km/s) = 6.84091 7.41739 7.13498
#
# Compressibility (1/GPa) = 0.01874392
#
# Stress axis : x y z
#
# Youngs Moduli (GPa) = 96.20193 39.52458 70.09173
#
# Poissons Ratio (x) = 0.11128 0.18174
# Poissons Ratio (y) = 0.27086 0.71500
# Poissons Ratio (z) = 0.24944 0.40318
#
# Static dielectric constant tensor:
#      x y z
#    x 3.800670 0.000000 0.000000 
#    y 0.000000 3.606960 0.000000 
#    z 0.000000 0.000000 3.681330 
# 
# 
# High freq. dielectric constant tensor:
#      x y z
#    x 1.800810 0.000000 0.000000 
#    y 0.000000 1.782360 0.000000 
#    z 0.000000 0.000000 1.794230 
# 
# From -- ./inp_files/29530.got.cif
#   From: 2010.03.12/outbox.cif.g09.slc.cpg/sg51_15_cif.got.tgz:29530.got - 2010.04.16 13:43:02.
