data_PCOD8214136
_publ_section_title
;
Structure prediction by ZEFSAII (Michael W. Deem and Ramdas Pophale) SiO2 
 PCOD8214136
Probable space group: P M M A
;
_chemical_formula_sum "Si O2"
_cell_formula_units_Z 48
_cell_length_a 16.974393
_cell_length_b 14.123888
_cell_length_c 9.472754
_cell_angle_alpha 90.000000
_cell_angle_beta 90.000000
_cell_angle_gamma 90.000000
_cell_volume 2271.039967
_symmetry_space_group_name_H-M "P M M A"
_symmetry_group_IT_number 51
_symmetry_cell_setting 'orthorhombic'
loop_
_space_group_symop_operation_xyz
x,y,z
1/2-x,-y,z
1/2+x,-y,-z
-x,y,-z
-x,-y,-z
1/2+x,y,-z
1/2-x,y,z
x,-y,z
loop_
_atom_site_type_symbol
_atom_site_label
_atom_site_fract_x
_atom_site_fract_y
_atom_site_fract_z
Si Si1 0.947233 0.610960 0.241858
Si Si2 0.662985 0.607257 0.497839
Si Si3 0.658236 0.109294 0.570696
Si Si4 0.842990 0.104517 0.250078
Si Si5 0.605841 0.727417 0.745020
Si Si6 0.840971 0.275149 0.058398
O O1 0.970186 0.500000 0.237196
O O2 0.901657 0.638970 0.384620
O O3 0.890945 0.633762 0.109094
O O4 0.022269 0.678140 0.234110
O O5 0.750000 0.620688 0.430840
O O6 0.647254 0.500000 0.541993
O O7 0.659061 0.666062 0.640536
O O8 0.750000 0.133414 0.599259
O O9 0.635613 0.135282 0.409637
O O10 0.601211 0.168390 0.674858
O O11 0.641416 0.000000 0.601499
O O12 0.750000 0.096983 0.235674
O O13 0.875096 0.182502 0.140098
O O14 0.878886 0.000000 0.216111
O O15 0.649631 0.738386 0.892753
O O16 0.750000 0.292529 0.095823
#
# Coordination Sequence:
#
# PCOD8214136 Si02
#       6
#     8   8   8   8   8   8
#     4  11  25  44  62  82 117 165 207 246 301 366
#     4  10  21  39  64  90 114 149 202 255 299 353
#     4   9  18  35  61  91 122 158 200 246 297 355
#     4   8  16  34  60  88 118 154 196 240 288 347
#     4  12  23  37  59  92 128 156 190 246 313 364
#     4  11  23  38  60  89 119 159 208 252 297 353
#
# _framework density 21.135691000000001
#
# number of rings (size 3 to 8) (size 9 to 14) (size 15 to 20)
#    0.000    1.833    0.000    5.500    0.000    6.333 
#    0.000    2.500    0.000    6.000    0.000    0.000 
#    0.000    0.000    0.000    0.000    0.000    0.000 
#
# Total GULP energy -595174.374275 kJ/mol
# GULP energy per Si atom -12399.466131 kJ/mol
# Density = 2.108758 g / cm^3
# Si number density = 21.135691 Si / 1000 Ang^3
#
#
#
# Elastic Constant Matrix: (Units=GPa)
#
#
# Indices 1 2 3 4 5 6 
#
# 1 75.1842 43.4649 20.8124 0.0000 0.0000 0.0000
# 2 43.4649 111.8820 53.5418 0.0000 0.0000 0.0000
# 3 20.8124 53.5418 119.2627 0.0000 0.0000 0.0000
# 4 0.0000 0.0000 0.0000 16.7980 0.0000 0.0000
# 5 0.0000 0.0000 0.0000 0.0000 25.7185 0.0000
# 6 0.0000 0.0000 0.0000 0.0000 0.0000 30.9123
#
#
#
# Elastic Compliance Matrix: (Units=1/GPa)
#
#
# Indices 1 2 3 4 5 6 
#
# 1 0.017153 -0.006663 -0.000002 0.000000 0.000000 0.000000
# 2 -0.006663 0.013972 -0.005110 0.000000 0.000000 0.000000
# 3 -0.000002 -0.005110 0.010679 0.000000 0.000000 0.000000
# 4 0.000000 0.000000 0.000000 0.059531 0.000000 0.000000
# 5 0.000000 0.000000 0.000000 0.000000 0.038882 0.000000
# 6 0.000000 0.000000 0.000000 0.000000 0.000000 0.032350
#
#
# Mechanical properties :
#
#
# Convention : Reuss Voigt Hill
#
# Bulk Modulus (GPa) = 54.78061 60.21855 57.49958
# Shear Modulus (GPa) = 24.72787 27.25309 25.99048
#
# Velocity S-wave (km/s) = 3.42418 3.59477 3.51051
# Velocity P-wave (km/s) = 6.45043 6.76632 6.61026
#
# Compressibility (1/GPa) = 0.01825463
#
# Stress axis : x y z
#
# Youngs Moduli (GPa) = 58.29856 71.57340 93.63994
#
# Poissons Ratio (x) = 0.47687 0.00021
# Poissons Ratio (y) = 0.38843 0.47848
# Poissons Ratio (z) = 0.00013 0.36572
#
# Static dielectric constant tensor:
#      x y z
#    x 3.638700 0.000000 0.000000 
#    y 0.000000 4.272410 0.000000 
#    z 0.000000 0.000000 3.790650 
# 
# 
# High freq. dielectric constant tensor:
#      x y z
#    x 1.809520 0.000000 0.000000 
#    y 0.000000 1.841160 0.000000 
#    z 0.000000 0.000000 1.824200 
# 
# From -- ./inp_files/9650.got.cif
#   From: 2010.03.12/outbox.cif.g09.slc.cpg/sg51_5_cif.got.tgz:9650.got - 2010.04.16 13:43:02.
