data_PCOD8214208
_publ_section_title
;
Structure prediction by ZEFSAII (Michael W. Deem and Ramdas Pophale) SiO2 
 PCOD8214208
Probable space group: P M M A
;
_chemical_formula_sum "Si O2"
_cell_formula_units_Z 52
_cell_length_a 9.235825
_cell_length_b 23.224427
_cell_length_c 14.932135
_cell_angle_alpha 90.000000
_cell_angle_beta 90.000000
_cell_angle_gamma 90.000000
_cell_volume 3202.894331
_symmetry_space_group_name_H-M "P M M A"
_symmetry_group_IT_number 51
_symmetry_cell_setting 'orthorhombic'
loop_
_space_group_symop_operation_xyz
x,y,z
1/2-x,-y,z
1/2+x,-y,-z
-x,y,-z
-x,-y,-z
1/2+x,y,-z
1/2-x,y,z
x,-y,z
loop_
_atom_site_type_symbol
_atom_site_label
_atom_site_fract_x
_atom_site_fract_y
_atom_site_fract_z
Si Si1 0.581535 0.906764 0.261970
Si Si2 0.919493 0.685335 0.406789
Si Si3 0.580888 0.774301 0.259407
Si Si4 0.913371 0.090565 0.914534
Si Si5 0.087103 0.772617 0.084428
Si Si6 0.417485 0.560789 0.592079
Si Si7 0.581097 0.000000 0.406119
O O1 0.750000 0.915343 0.238426
O O2 0.545548 0.840392 0.283542
O O3 0.491779 0.929344 0.176587
O O4 0.537412 0.943547 0.349026
O O5 0.750000 0.692406 0.425427
O O6 0.973991 0.735045 0.340773
O O7 0.954956 0.622227 0.361109
O O8 0.000000 0.693505 0.500000
O O9 0.750000 0.765779 0.239003
O O10 0.493572 0.752359 0.173589
O O11 0.750000 0.065983 0.915256
O O12 0.911205 0.158924 0.920376
O O13 0.000000 0.065358 0.000000
O O14 0.250000 0.747954 0.083535
O O15 0.000000 0.747095 0.000000
O O16 0.500000 0.559352 0.500000
O O17 0.250000 0.561406 0.567581
O O18 0.453908 0.500000 0.645322
O O19 0.500000 0.000000 0.500000
O O20 0.750000 0.000000 0.427971
#
# Coordination Sequence:
#
# PCOD8214208 Si02
#       7
#     8   8   8   8   8   8   4
#     4   9  18  33  49  64  84 110 140 175 213 251
#     4   9  17  27  39  58  84 113 143 174 208 245
#     4   9  17  29  44  62  86 113 139 171 211 251
#     4   9  16  27  46  71  94 114 135 162 201 251
#     4   9  16  26  42  64  88 113 140 169 204 248
#     4   8  13  22  36  53  75 105 139 171 202 239
#     4  10  22  38  53  66  81 106 143 184 220 252
#
# _framework density 16.235316000000001
#
# number of rings (size 3 to 8) (size 9 to 14) (size 15 to 20)
#    0.000    3.077    0.000    0.923    0.000    5.538 
#    0.000    0.385    0.000    0.000    0.000    0.000 
#    0.000    0.615    0.000    1.077    0.000    1.846 
#
# Total GULP energy -644280.468534 kJ/mol
# GULP energy per Si atom -12390.009010 kJ/mol
# Density = 1.619836 g / cm^3
# Si number density = 16.235316 Si / 1000 Ang^3
#
#
#
# Elastic Constant Matrix: (Units=GPa)
#
#
# Indices 1 2 3 4 5 6 
#
# 1 74.6894 32.6139 60.6266 0.0000 0.0000 0.0000
# 2 32.6139 91.2873 60.7120 0.0000 0.0000 0.0000
# 3 60.6266 60.7120 131.0720 0.0000 0.0000 0.0000
# 4 0.0000 0.0000 0.0000 -0.7138 0.0000 0.0000
# 5 0.0000 0.0000 0.0000 0.0000 30.5335 0.0000
# 6 0.0000 0.0000 0.0000 0.0000 0.0000 8.8244
#
#
#
# Elastic Compliance Matrix: (Units=1/GPa)
#
#
# Indices 1 2 3 4 5 6 
#
# 1 0.021588 -0.001549 -0.009268 0.000000 0.000000 0.000000
# 2 -0.001549 0.015942 -0.006668 0.000000 0.000000 0.000000
# 3 -0.009268 -0.006668 0.015005 0.000000 0.000000 0.000000
# 4 0.000000 0.000000 0.000000 -1.400931 0.000000 0.000000
# 5 0.000000 0.000000 0.000000 0.000000 0.032751 0.000000
# 6 0.000000 0.000000 0.000000 0.000000 0.000000 0.113322
#
#
# Mechanical properties :
#
#
# Convention : Reuss Voigt Hill
#
# Bulk Modulus (GPa) = 56.92961 67.21708 62.07335
# Shear Modulus (GPa) = -4.30478 17.26856 6.48189
#
# Velocity S-wave (km/s) = -1.63011 3.26489 2.00028
# Velocity P-wave (km/s) = 5.62125 7.46353 6.60692
#
# Compressibility (1/GPa) = 0.01756555
#
# Stress axis : x y z
#
# Youngs Moduli (GPa) = 46.32178 62.72543 66.64501
#
# Poissons Ratio (x) = 0.09715 0.61767
# Poissons Ratio (y) = 0.07175 0.44439
# Poissons Ratio (z) = 0.42931 0.41826
#
# Static dielectric constant tensor:
#      x y z
#    x 3.146660 0.000000 0.000000 
#    y 0.000000 3.349940 0.000000 
#    z 0.000000 0.000000 2.888370 
# 
# 
# High freq. dielectric constant tensor:
#      x y z
#    x 1.630490 0.000000 0.000000 
#    y 0.000000 1.609000 0.000000 
#    z 0.000000 0.000000 1.598180 
# 
# From -- ./inp_files/22034.got.cif
#   From: 2010.03.12/outbox.cif.g09.slc.cpg/sg51_12_cif.got.tgz:22034.got - 2010.04.16 13:43:02.
