data_PCOD8214127
_publ_section_title
;
Structure prediction by ZEFSAII (Michael W. Deem and Ramdas Pophale) SiO2 
 PCOD8214127
Probable space group: P M M A
;
_chemical_formula_sum "Si O2"
_cell_formula_units_Z 48
_cell_length_a 8.611664
_cell_length_b 30.326846
_cell_length_c 9.144001
_cell_angle_alpha 90.000000
_cell_angle_beta 90.000000
_cell_angle_gamma 90.000000
_cell_volume 2388.089436
_symmetry_space_group_name_H-M "P M M A"
_symmetry_group_IT_number 51
_symmetry_cell_setting 'orthorhombic'
loop_
_space_group_symop_operation_xyz
x,y,z
1/2-x,-y,z
1/2+x,-y,-z
-x,y,-z
-x,-y,-z
1/2+x,y,-z
1/2-x,y,z
x,-y,z
loop_
_atom_site_type_symbol
_atom_site_label
_atom_site_fract_x
_atom_site_fract_y
_atom_site_fract_z
Si Si1 0.066503 0.874910 0.659609
Si Si2 0.068523 0.051225 0.155200
Si Si3 0.066224 0.549245 0.656402
Si Si4 0.932441 0.370116 0.157940
Si Si5 0.433847 0.204419 0.160030
Si Si6 0.566030 0.284798 0.339397
O O1 0.250000 0.871322 0.652084
O O2 0.000000 0.864641 0.500000
O O3 0.015391 0.923295 0.713019
O O4 0.000981 0.840657 0.776538
O O5 0.250000 0.061991 0.156673
O O6 0.033869 0.000000 0.181824
O O7 0.000000 0.066769 0.000000
O O8 0.250000 0.551784 0.645424
O O9 0.011150 0.500000 0.702036
O O10 0.001634 0.584268 0.774056
O O11 0.000000 0.562676 0.500000
O O12 0.750000 0.373079 0.144081
O O13 0.982774 0.329482 0.258336
O O14 0.000000 0.362122 0.000000
O O15 0.250000 0.201023 0.152377
O O16 0.483407 0.244236 0.262535
O O17 0.500000 0.213116 0.000000
O O18 0.500000 0.288755 0.500000
O O19 0.750000 0.277121 0.340533
#
# Coordination Sequence:
#
# PCOD8214127 Si02
#       6
#     8   8   8   8   8   8
#     4  12  25  42  63  89 122 159 200 245 295 349
#     4  10  21  39  63  91 123 160 202 247 296 350
#     4   9  18  34  55  80 110 145 187 234 284 339
#     4  10  22  37  55  81 114 150 189 235 285 340
#     4  12  25  43  65  90 120 154 194 239 290 346
#     4  11  23  40  61  87 117 151 192 237 289 345
#
# _framework density 20.099751000000001
#
# number of rings (size 3 to 8) (size 9 to 14) (size 15 to 20)
#    0.000    1.333    0.000    6.000    0.000    5.000 
#    0.000    0.000    0.000    0.000    0.000    0.000 
#    0.000    0.000    0.000    0.000    0.000    0.000 
#
# Total GULP energy -595448.892805 kJ/mol
# GULP energy per Si atom -12405.185267 kJ/mol
# Density = 2.005400 g / cm^3
# Si number density = 20.099751 Si / 1000 Ang^3
#
#
#
# Elastic Constant Matrix: (Units=GPa)
#
#
# Indices 1 2 3 4 5 6 
#
# 1 107.9948 47.6584 47.4888 0.0000 0.0000 0.0000
# 2 47.6584 114.8095 60.7382 0.0000 0.0000 0.0000
# 3 47.4888 60.7382 141.6910 0.0000 0.0000 0.0000
# 4 0.0000 0.0000 0.0000 38.9155 0.0000 0.0000
# 5 0.0000 0.0000 0.0000 0.0000 39.0585 0.0000
# 6 0.0000 0.0000 0.0000 0.0000 0.0000 -9.6707
#
#
#
# Elastic Compliance Matrix: (Units=1/GPa)
#
#
# Indices 1 2 3 4 5 6 
#
# 1 0.011950 -0.003675 -0.002430 0.000000 0.000000 0.000000
# 2 -0.003675 0.012395 -0.004082 0.000000 0.000000 0.000000
# 3 -0.002430 -0.004082 0.009622 0.000000 0.000000 0.000000
# 4 0.000000 0.000000 0.000000 0.025697 0.000000 0.000000
# 5 0.000000 0.000000 0.000000 0.000000 0.025603 0.000000
# 6 0.000000 0.000000 0.000000 0.000000 0.000000 -0.103405
#
#
# Mechanical properties :
#
#
# Convention : Reuss Voigt Hill
#
# Bulk Modulus (GPa) = 73.56354 75.14069 74.35211
# Shear Modulus (GPa) = 739.13729 27.56800 383.35265
#
# Velocity S-wave (km/s) = 19.19721 3.70747 13.82531
# Velocity P-wave (km/s) = 22.97947 7.46942 17.08578
#
# Compressibility (1/GPa) = 0.01359369
#
# Stress axis : x y z
#
# Youngs Moduli (GPa) = 83.68224 80.67812 103.93315
#
# Poissons Ratio (x) = 0.29650 0.25253
# Poissons Ratio (y) = 0.30754 0.42421
# Poissons Ratio (z) = 0.20332 0.32929
#
# Static dielectric constant tensor:
#      x y z
#    x 3.721750 0.000000 0.000000 
#    y 0.000000 3.991950 0.000000 
#    z 0.000000 0.000000 3.688650 
# 
# 
# High freq. dielectric constant tensor:
#      x y z
#    x 1.791950 0.000000 0.000000 
#    y 0.000000 1.802650 0.000000 
#    z 0.000000 0.000000 1.792530 
# 
# From -- ./inp_files/6044.got.cif
#   From: 2010.03.12/outbox.cif.g09.slc.cpg/sg51_4_cif.got.tgz:6044.got - 2010.04.16 13:43:02.
