data_PCOD8214692
_publ_section_title
;
Structure prediction by ZEFSAII (Michael W. Deem and Ramdas Pophale) SiO2 
 PCOD8214692
Probable space group: P M M A
;
_chemical_formula_sum "Si O2"
_cell_formula_units_Z 64
_cell_length_a 18.422805
_cell_length_b 9.890341
_cell_length_c 21.576832
_cell_angle_alpha 90.000000
_cell_angle_beta 90.000000
_cell_angle_gamma 90.000000
_cell_volume 3931.467599
_symmetry_space_group_name_H-M "P M M A"
_symmetry_group_IT_number 51
_symmetry_cell_setting 'orthorhombic'
loop_
_space_group_symop_operation_xyz
x,y,z
1/2-x,-y,z
1/2+x,-y,-z
-x,y,-z
-x,-y,-z
1/2+x,y,-z
1/2-x,y,z
x,-y,z
loop_
_atom_site_type_symbol
_atom_site_label
_atom_site_fract_x
_atom_site_fract_y
_atom_site_fract_z
Si Si1 0.163350 0.150763 0.508651
Si Si2 0.168871 0.161179 0.372695
Si Si3 0.947381 0.841793 0.187987
Si Si4 0.092617 0.840007 0.252051
Si Si5 0.830511 0.838572 0.869828
Si Si6 0.029225 0.159488 0.063950
Si Si7 0.836122 0.649697 0.388013
Si Si8 0.834555 0.343721 0.248399
O O1 0.250000 0.147212 0.511255
O O2 0.139665 0.205934 0.440620
O O3 0.130195 0.247132 0.561821
O O4 0.132595 0.000000 0.520387
O O5 0.250000 0.217771 0.361204
O O6 0.116675 0.220169 0.318723
O O7 0.171164 0.000000 0.371305
O O8 0.876916 0.752725 0.201340
O O9 0.009921 0.799733 0.236962
O O10 0.973676 0.805421 0.118926
O O11 0.927896 0.000000 0.193667
O O12 0.146179 0.785355 0.198241
O O13 0.099435 0.000000 0.253301
O O14 0.750000 0.783174 0.886197
O O15 0.889779 0.785161 0.919856
O O16 0.830933 0.000000 0.869521
O O17 0.034945 0.000000 0.056166
O O18 0.000000 0.225705 0.000000
O O19 0.750000 0.645936 0.394189
O O20 0.867322 0.500000 0.401352
O O21 0.856715 0.695987 0.318645
O O22 0.750000 0.317652 0.237082
O O23 0.853933 0.500000 0.235568
#
# Coordination Sequence:
#
# PCOD8214692 Si02
#       8
#     8   8   8   8   8   8   8   8
#     4   8  13  20  32  54  80 102 128 164 204 244
#     4   8  12  18  31  53  81 110 136 165 205 248
#     4   9  17  28  44  66  87 109 138 171 209 250
#     4   8  13  21  34  54  81 108 133 167 208 245
#     4   8  12  18  31  52  77 108 146 178 201 234
#     4   8  14  25  39  57  88 123 145 168 207 249
#     4   8  14  25  40  56  74  99 131 166 207 251
#     4   9  18  32  48  64  82 106 137 174 215 255
#
# _framework density 16.278908000000001
#
# number of rings (size 3 to 8) (size 9 to 14) (size 15 to 20)
#    0.000    3.750    0.000    3.375    0.000    2.250 
#    0.000    1.875    0.000    4.125    0.000    5.250 
#    0.000   12.000    0.000    0.000    0.000    0.500 
#
# Total GULP energy -792942.093529 kJ/mol
# GULP energy per Si atom -12389.720211 kJ/mol
# Density = 1.624186 g / cm^3
# Si number density = 16.278908 Si / 1000 Ang^3
#
#
#
# Elastic Constant Matrix: (Units=GPa)
#
#
# Indices 1 2 3 4 5 6 
#
# 1 78.5436 32.6878 58.5832 0.0000 0.0000 0.0000
# 2 32.6878 38.9785 42.0388 0.0000 0.0000 0.0000
# 3 58.5832 42.0388 117.7900 0.0000 0.0000 0.0000
# 4 0.0000 0.0000 0.0000 2.1018 0.0000 0.0000
# 5 0.0000 0.0000 0.0000 0.0000 21.1883 0.0000
# 6 0.0000 0.0000 0.0000 0.0000 0.0000 10.1081
#
#
#
# Elastic Compliance Matrix: (Units=1/GPa)
#
#
# Indices 1 2 3 4 5 6 
#
# 1 0.022926 -0.011264 -0.007382 0.000000 0.000000 0.000000
# 2 -0.011264 0.047245 -0.011259 0.000000 0.000000 0.000000
# 3 -0.007382 -0.011259 0.016180 0.000000 0.000000 0.000000
# 4 0.000000 0.000000 0.000000 0.475773 0.000000 0.000000
# 5 0.000000 0.000000 0.000000 0.000000 0.047196 0.000000
# 6 0.000000 0.000000 0.000000 0.000000 0.000000 0.098930
#
#
# Mechanical properties :
#
#
# Convention : Reuss Voigt Hill
#
# Bulk Modulus (GPa) = 37.68021 55.77019 46.72520
# Shear Modulus (GPa) = 6.43579 13.47981 9.95780
#
# Velocity S-wave (km/s) = 1.99049 2.88071 2.47594
# Velocity P-wave (km/s) = 5.33663 6.73782 6.07774
#
# Compressibility (1/GPa) = 0.02653913
#
# Stress axis : x y z
#
# Youngs Moduli (GPa) = 43.61940 21.16645 61.80656
#
# Poissons Ratio (x) = 0.23842 0.45626
# Poissons Ratio (y) = 0.49133 0.69589
# Poissons Ratio (z) = 0.32200 0.23832
#
# Static dielectric constant tensor:
#      x y z
#    x 2.979550 0.000000 0.000000 
#    y 0.000000 2.675860 0.000000 
#    z 0.000000 0.000000 3.436380 
# 
# 
# High freq. dielectric constant tensor:
#      x y z
#    x 1.602270 0.000000 0.000000 
#    y 0.000000 1.568300 0.000000 
#    z 0.000000 0.000000 1.629980 
# 
# From -- ./inp_files/34002.got.cif
#   From: 2010.03.12/outbox.cif.g09.slc.cpg/sg51_18_cif.got.tgz:34002.got - 2010.04.16 13:43:02.
