data_PCOD8214380
_publ_section_title
;
Structure prediction by ZEFSAII (Michael W. Deem and Ramdas Pophale) SiO2 
 PCOD8214380
Probable space group: P M M A
;
_chemical_formula_sum "Si O2"
_cell_formula_units_Z 48
_cell_length_a 23.104303
_cell_length_b 14.347368
_cell_length_c 7.793071
_cell_angle_alpha 90.000000
_cell_angle_beta 90.000000
_cell_angle_gamma 90.000000
_cell_volume 2583.293447
_symmetry_space_group_name_H-M "P M M A"
_symmetry_group_IT_number 51
_symmetry_cell_setting 'orthorhombic'
loop_
_space_group_symop_operation_xyz
x,y,z
1/2-x,-y,z
1/2+x,-y,-z
-x,y,-z
-x,-y,-z
1/2+x,y,-z
1/2-x,y,z
x,-y,z
loop_
_atom_site_type_symbol
_atom_site_label
_atom_site_fract_x
_atom_site_fract_y
_atom_site_fract_z
Si Si1 0.317471 0.608013 0.498576
Si Si2 0.009349 0.300247 0.684384
Si Si3 0.907083 0.099862 0.907537
Si Si4 0.618347 0.292885 0.809372
Si Si5 0.618159 0.609147 0.157660
Si Si6 0.466411 0.101084 0.749737
O O1 0.250000 0.629086 0.486328
O O2 0.331682 0.500000 0.462634
O O3 0.349622 0.669408 0.357177
O O4 0.338841 0.637081 0.687713
O O5 0.053801 0.358426 0.797138
O O6 0.034727 0.195963 0.638248
O O7 0.000000 0.349544 0.500000
O O8 0.950721 0.302859 0.793244
O O9 0.867931 0.182517 0.829403
O O10 0.971105 0.098606 0.833493
O O11 0.876597 0.000000 0.868811
O O12 0.915178 0.113125 0.111616
O O13 0.639979 0.344778 0.980744
O O14 0.618200 0.500000 0.125675
O O15 0.456844 0.000000 0.652144
#
# Coordination Sequence:
#
# PCOD8214380 Si02
#       6
#     8   8   8   8   8   8
#     4  10  23  42  60  80 104 134 183 240 280 317
#     4  11  20  32  50  81 119 149 179 219 270 339
#     4   8  14  26  48  77 110 144 177 213 258 314
#     4  11  20  35  60  83 110 145 183 218 273 333
#     4  11  23  37  54  79 112 147 180 223 277 332
#     4   8  14  26  44  71 111 149 179 215 256 310
#
# _framework density 18.580931
#
# number of rings (size 3 to 8) (size 9 to 14) (size 15 to 20)
#    0.000    2.167    3.333    2.000    0.000    3.333 
#    0.000    1.667    0.000    1.500    0.000    0.000 
#    0.000    0.000    0.000    0.000    0.000    0.000 
#
# Total GULP energy -594754.515666 kJ/mol
# GULP energy per Si atom -12390.719076 kJ/mol
# Density = 1.853864 g / cm^3
# Si number density = 18.580931 Si / 1000 Ang^3
#
#
#
# Elastic Constant Matrix: (Units=GPa)
#
#
# Indices 1 2 3 4 5 6 
#
# 1 50.2841 39.1898 8.3247 0.0000 0.0000 0.0000
# 2 39.1898 122.3989 55.8801 0.0000 0.0000 0.0000
# 3 8.3247 55.8801 76.9901 0.0000 0.0000 0.0000
# 4 0.0000 0.0000 0.0000 15.0894 0.0000 0.0000
# 5 0.0000 0.0000 0.0000 0.0000 10.3860 0.0000
# 6 0.0000 0.0000 0.0000 0.0000 0.0000 9.0446
#
#
#
# Elastic Compliance Matrix: (Units=1/GPa)
#
#
# Indices 1 2 3 4 5 6 
#
# 1 0.027810 -0.011264 0.005168 0.000000 0.000000 0.000000
# 2 -0.011264 0.016781 -0.010962 0.000000 0.000000 0.000000
# 3 0.005168 -0.010962 0.020386 0.000000 0.000000 0.000000
# 4 0.000000 0.000000 0.000000 0.066272 0.000000 0.000000
# 5 0.000000 0.000000 0.000000 0.000000 0.096284 0.000000
# 6 0.000000 0.000000 0.000000 0.000000 0.000000 0.110563
#
#
# Mechanical properties :
#
#
# Convention : Reuss Voigt Hill
#
# Bulk Modulus (GPa) = 32.40183 50.71802 41.55993
# Shear Modulus (GPa) = 13.07198 16.65590 14.86394
#
# Velocity S-wave (km/s) = 2.65527 2.99724 2.83142
# Velocity P-wave (km/s) = 5.18427 6.27160 5.75368
#
# Compressibility (1/GPa) = 0.03086246
#
# Stress axis : x y z
#
# Youngs Moduli (GPa) = 35.95827 59.59113 49.05307
#
# Poissons Ratio (x) = 0.67122 -0.25352
# Poissons Ratio (y) = 0.40503 0.53771
# Poissons Ratio (z) = -0.18585 0.65323
#
# Static dielectric constant tensor:
#      x y z
#    x 2.974580 0.000000 0.000000 
#    y 0.000000 3.970470 0.000000 
#    z 0.000000 0.000000 3.388860 
# 
# 
# High freq. dielectric constant tensor:
#      x y z
#    x 1.662270 0.000000 0.000000 
#    y 0.000000 1.735380 0.000000 
#    z 0.000000 0.000000 1.722640 
# 
# From -- ./inp_files/10829.got.cif
#   From: 2010.03.12/outbox.cif.g09.slc.cpg/sg51_6_cif.got.tgz:10829.got - 2010.04.16 13:43:02.
