data_PCOD8214873
_publ_section_title
;
Structure prediction by ZEFSAII (Michael W. Deem and Ramdas Pophale) SiO2 
 PCOD8214873
Probable space group: P M M A
;
_chemical_formula_sum "Si O2"
_cell_formula_units_Z 56
_cell_length_a 9.430528
_cell_length_b 13.593282
_cell_length_c 29.002118
_cell_angle_alpha 90.000000
_cell_angle_beta 90.000000
_cell_angle_gamma 90.000000
_cell_volume 3717.834479
_symmetry_space_group_name_H-M "P M M A"
_symmetry_group_IT_number 51
_symmetry_cell_setting 'orthorhombic'
loop_
_space_group_symop_operation_xyz
x,y,z
1/2-x,-y,z
1/2+x,-y,-z
-x,y,-z
-x,-y,-z
1/2+x,y,-z
1/2-x,y,z
x,-y,z
loop_
_atom_site_type_symbol
_atom_site_label
_atom_site_fract_x
_atom_site_fract_y
_atom_site_fract_z
Si Si1 0.913718 0.885422 0.868788
Si Si2 0.413091 0.109540 0.692051
Si Si3 0.914513 0.386146 0.455830
Si Si4 0.910807 0.882954 0.043148
Si Si5 0.585126 0.801269 0.772032
Si Si6 0.087062 0.390379 0.279813
Si Si7 0.584376 0.300877 0.359947
O O1 0.750000 0.866535 0.882119
O O2 0.960792 0.822768 0.824313
O O3 0.011858 0.847633 0.910347
O O4 0.939188 0.000000 0.858090
O O5 0.250000 0.122413 0.706331
O O6 0.502939 0.126380 0.737981
O O7 0.453254 0.187540 0.652116
O O8 0.443780 0.000000 0.672909
O O9 0.750000 0.369644 0.466320
O O10 0.948565 0.500000 0.445626
O O11 0.965463 0.322678 0.411930
O O12 0.000000 0.347512 0.500000
O O13 0.750000 0.841724 0.041797
O O14 0.908943 0.000000 0.040920
O O15 0.000000 0.840715 0.000000
O O16 0.750000 0.824914 0.765545
O O17 0.547979 0.687694 0.760227
O O18 0.250000 0.377609 0.294538
O O19 0.056995 0.500000 0.260625
O O20 0.995013 0.373489 0.325293
O O21 0.750000 0.323893 0.354802
#
# Coordination Sequence:
#
# PCOD8214873 Si02
#       7
#     8   8   8   8   8   8   8
#     4   9  16  25  37  53  75 104 135 164 193 227
#     4   9  17  28  42  60  81 105 134 167 199 231
#     4   9  17  28  42  60  80 101 126 158 197 240
#     4   9  16  25  37  53  74 101 132 164 197 233
#     4   9  17  28  41  58  81 109 138 166 198 236
#     4   9  17  28  42  61  84 108 134 165 199 235
#     4   9  17  29  44  61  81 106 134 162 195 237
#
# _framework density 15.062531
#
# number of rings (size 3 to 8) (size 9 to 14) (size 15 to 20)
#    0.000    3.000    0.000    1.286    0.000    4.571 
#    0.000    2.857    0.000    0.429    0.000    0.000 
#    0.000    0.571    0.000    1.000    0.000    1.429 
#
# Total GULP energy -694307.159049 kJ/mol
# GULP energy per Si atom -12398.342126 kJ/mol
# Density = 1.502825 g / cm^3
# Si number density = 15.062531 Si / 1000 Ang^3
#
#
#
# Elastic Constant Matrix: (Units=GPa)
#
#
# Indices 1 2 3 4 5 6 
#
# 1 60.2360 29.0703 59.8910 0.0000 0.0000 0.0000
# 2 29.0703 72.5839 50.7978 0.0000 0.0000 0.0000
# 3 59.8910 50.7978 140.4031 0.0000 0.0000 0.0000
# 4 0.0000 0.0000 0.0000 18.0593 0.0000 0.0000
# 5 0.0000 0.0000 0.0000 0.0000 28.6801 0.0000
# 6 0.0000 0.0000 0.0000 0.0000 0.0000 15.1978
#
#
#
# Elastic Compliance Matrix: (Units=1/GPa)
#
#
# Indices 1 2 3 4 5 6 
#
# 1 0.029693 -0.004055 -0.011199 0.000000 0.000000 0.000000
# 2 -0.004055 0.019002 -0.005145 0.000000 0.000000 0.000000
# 3 -0.011199 -0.005145 0.013761 0.000000 0.000000 0.000000
# 4 0.000000 0.000000 0.000000 0.055373 0.000000 0.000000
# 5 0.000000 0.000000 0.000000 0.000000 0.034867 0.000000
# 6 0.000000 0.000000 0.000000 0.000000 0.000000 0.065799
#
#
# Mechanical properties :
#
#
# Convention : Reuss Voigt Hill
#
# Bulk Modulus (GPa) = 46.17216 61.41570 53.79393
# Shear Modulus (GPa) = 18.76081 21.28503 20.02292
#
# Velocity S-wave (km/s) = 3.53303 3.76321 3.64994
# Velocity P-wave (km/s) = 6.88210 7.72947 7.31806
#
# Compressibility (1/GPa) = 0.02165807
#
# Stress axis : x y z
#
# Youngs Moduli (GPa) = 33.67794 52.62588 72.66877
#
# Poissons Ratio (x) = 0.21338 0.81382
# Poissons Ratio (y) = 0.13655 0.37391
# Poissons Ratio (z) = 0.37716 0.27078
#
# Static dielectric constant tensor:
#      x y z
#    x 2.978660 0.000000 0.000000 
#    y 0.000000 2.825800 0.000000 
#    z 0.000000 0.000000 2.909210 
# 
# 
# High freq. dielectric constant tensor:
#      x y z
#    x 1.582100 0.000000 0.000000 
#    y 0.000000 1.547230 0.000000 
#    z 0.000000 0.000000 1.568940 
# 
# From -- ./inp_files/37464.got.cif
#   From: 2010.03.12/outbox.cif.g09.slc.cpg/sg51_19_cif.got.tgz:37464.got - 2010.04.16 13:43:02.
