data_PCOD8214213
_publ_section_title
;
Structure prediction by ZEFSAII (Michael W. Deem and Ramdas Pophale) SiO2 
 PCOD8214213
Probable space group: P M M A
;
_chemical_formula_sum "Si O2"
_cell_formula_units_Z 48
_cell_length_a 14.082207
_cell_length_b 14.353191
_cell_length_c 12.300431
_cell_angle_alpha 90.000000
_cell_angle_beta 90.000000
_cell_angle_gamma 90.000000
_cell_volume 2486.219779
_symmetry_space_group_name_H-M "P M M A"
_symmetry_group_IT_number 51
_symmetry_cell_setting 'orthorhombic'
loop_
_space_group_symop_operation_xyz
x,y,z
1/2-x,-y,z
1/2+x,-y,-z
-x,y,-z
-x,-y,-z
1/2+x,y,-z
1/2-x,y,z
x,-y,z
loop_
_atom_site_type_symbol
_atom_site_label
_atom_site_fract_x
_atom_site_fract_y
_atom_site_fract_z
Si Si1 0.861125 0.223335 0.237083
Si Si2 0.637783 0.103386 0.033211
Si Si3 0.513124 0.110004 0.376760
Si Si4 0.040474 0.607817 0.832251
Si Si5 0.353891 0.392143 0.056672
Si Si6 0.856005 0.889257 0.792711
O O1 0.750000 0.240749 0.239802
O O2 0.896596 0.175738 0.124387
O O3 0.889140 0.155426 0.335462
O O4 0.914979 0.322148 0.255958
O O5 0.750000 0.094174 0.035222
O O6 0.594348 0.000000 0.056868
O O7 0.606528 0.140992 0.913514
O O8 0.500000 0.143139 0.500000
O O9 0.426473 0.147071 0.301341
O O10 0.524023 0.000000 0.369140
O O11 0.044153 0.500000 0.793377
O O12 0.932246 0.641408 0.855911
O O13 0.106857 0.623026 0.936645
O O14 0.250000 0.341867 0.070032
O O15 0.339279 0.500000 0.077548
O O16 0.750000 0.849106 0.770297
O O17 0.851098 0.000000 0.791181
#
# Coordination Sequence:
#
# PCOD8214213 Si02
#       6
#     8   8   8   8   8   8
#     4  11  22  34  52  78 106 137 173 212 260 318
#     4   8  15  29  48  72 102 131 161 200 248 305
#     4  10  22  38  54  74 100 132 175 222 263 308
#     4   9  18  31  47  72 106 141 179 222 265 314
#     4   8  14  27  47  70 102 145 185 219 260 313
#     4   8  15  30  51  73 100 134 167 203 254 314
#
# _framework density 19.306418000000001
#
# number of rings (size 3 to 8) (size 9 to 14) (size 15 to 20)
#    0.000    3.000    0.000    3.000    0.000    6.000 
#    0.000    6.667    0.000    0.500    0.000    0.000 
#    0.000    0.000    0.000    0.333    0.000    0.000 
#
# Total GULP energy -594831.120697 kJ/mol
# GULP energy per Si atom -12392.315015 kJ/mol
# Density = 1.926248 g / cm^3
# Si number density = 19.306418 Si / 1000 Ang^3
#
#
#
# Elastic Constant Matrix: (Units=GPa)
#
#
# Indices 1 2 3 4 5 6 
#
# 1 114.2565 32.2906 31.4047 0.0000 0.0000 0.0000
# 2 32.2906 53.5593 31.5293 0.0000 0.0000 0.0000
# 3 31.4047 31.5293 98.3072 0.0000 0.0000 0.0000
# 4 0.0000 0.0000 0.0000 14.2659 0.0000 0.0000
# 5 0.0000 0.0000 0.0000 0.0000 23.8436 0.0000
# 6 0.0000 0.0000 0.0000 0.0000 0.0000 21.8324
#
#
#
# Elastic Compliance Matrix: (Units=1/GPa)
#
#
# Indices 1 2 3 4 5 6 
#
# 1 0.010769 -0.005507 -0.001674 0.000000 0.000000 0.000000
# 2 -0.005507 0.025833 -0.006526 0.000000 0.000000 0.000000
# 3 -0.001674 -0.006526 0.012800 0.000000 0.000000 0.000000
# 4 0.000000 0.000000 0.000000 0.070097 0.000000 0.000000
# 5 0.000000 0.000000 0.000000 0.000000 0.041940 0.000000
# 6 0.000000 0.000000 0.000000 0.000000 0.000000 0.045804
#
#
# Mechanical properties :
#
#
# Convention : Reuss Voigt Hill
#
# Bulk Modulus (GPa) = 45.47982 50.73023 48.10503
# Shear Modulus (GPa) = 20.66244 23.38160 22.02202
#
# Velocity S-wave (km/s) = 3.27500 3.48383 3.38103
# Velocity P-wave (km/s) = 6.15701 6.52044 6.34133
#
# Compressibility (1/GPa) = 0.02198777
#
# Stress axis : x y z
#
# Youngs Moduli (GPa) = 92.86187 38.71068 78.12554
#
# Poissons Ratio (x) = 0.21318 0.13077
# Poissons Ratio (y) = 0.51139 0.50984
# Poissons Ratio (z) = 0.15544 0.25262
#
# Static dielectric constant tensor:
#      x y z
#    x 4.007530 0.000000 0.000000 
#    y 0.000000 3.455430 0.000000 
#    z 0.000000 0.000000 3.282910 
# 
# 
# High freq. dielectric constant tensor:
#      x y z
#    x 1.765840 0.000000 0.000000 
#    y 0.000000 1.738830 0.000000 
#    z 0.000000 0.000000 1.693200 
# 
# From -- ./inp_files/16469.got.cif
#   From: 2010.03.12/outbox.cif.g09.slc.cpg/sg51_9_cif.got.tgz:16469.got - 2010.04.16 13:43:02.
