data_PCOD8214088
_publ_section_title
;
Structure prediction by ZEFSAII (Michael W. Deem and Ramdas Pophale) SiO2 
 PCOD8214088
Probable space group: P M M A
;
_chemical_formula_sum "Si O2"
_cell_formula_units_Z 40
_cell_length_a 7.675297
_cell_length_b 9.392760
_cell_length_c 29.243993
_cell_angle_alpha 90.000000
_cell_angle_beta 90.000000
_cell_angle_gamma 90.000000
_cell_volume 2108.264455
_symmetry_space_group_name_H-M "P M M A"
_symmetry_group_IT_number 51
_symmetry_cell_setting 'orthorhombic'
loop_
_space_group_symop_operation_xyz
x,y,z
1/2-x,-y,z
1/2+x,-y,-z
-x,y,-z
-x,-y,-z
1/2+x,y,-z
1/2-x,y,z
x,-y,z
loop_
_atom_site_type_symbol
_atom_site_label
_atom_site_fract_x
_atom_site_fract_y
_atom_site_fract_z
Si Si1 0.750000 0.329839 0.717590
Si Si2 0.944148 0.669576 0.450348
Si Si3 0.952992 0.837323 0.867030
Si Si4 0.750000 0.331023 0.613109
Si Si5 0.454585 0.341363 0.049087
Si Si6 0.553173 0.164501 0.233090
O O1 0.750000 0.500000 0.723076
O O2 0.750000 0.279507 0.665117
O O3 0.575696 0.267517 0.739868
O O4 0.750000 0.724477 0.438356
O O5 0.948517 0.500000 0.451174
O O6 0.000000 0.728139 0.500000
O O7 0.077681 0.728873 0.412267
O O8 0.750000 0.805288 0.859310
O O9 0.034621 0.748081 0.909021
O O10 0.050113 0.795266 0.820436
O O11 0.986322 0.000000 0.879953
O O12 0.750000 0.500000 0.610460
O O13 0.250000 0.345495 0.055558
O O14 0.535576 0.500000 0.050815
O O15 0.500000 0.270726 0.000000
O O16 0.750000 0.188091 0.251209
O O17 0.494368 0.000000 0.239522
#
# Coordination Sequence:
#
# PCOD8214088 Si02
#       6
#     4   8   8   4   8   8
#     4  11  23  37  55  81 121 155 181 231 292 345
#     4   9  14  22  39  61  90 134 185 224 257 314
#     4   9  17  32  53  75  98 128 171 226 278 318
#     4   9  18  29  41  67 103 143 181 219 274 327
#     4   9  18  31  46  67  99 137 170 204 254 320
#     4  10  21  39  62  83 106 143 192 240 282 334
#
# _framework density 18.972951999999999
#
# number of rings (size 3 to 8) (size 9 to 14) (size 15 to 20)
#    0.000    2.600    2.000    0.300    0.000    3.200 
#    0.000    2.000    0.000    0.000    0.000    0.000 
#    0.000    3.200    0.000    0.000    0.000    0.000 
#
# Total GULP energy -495879.525420 kJ/mol
# GULP energy per Si atom -12396.988135 kJ/mol
# Density = 1.892977 g / cm^3
# Si number density = 18.972952 Si / 1000 Ang^3
#
#
#
# Elastic Constant Matrix: (Units=GPa)
#
#
# Indices 1 2 3 4 5 6 
#
# 1 114.8969 35.5719 65.3140 0.0000 0.0000 0.0000
# 2 35.5719 56.4130 54.0749 0.0000 0.0000 0.0000
# 3 65.3140 54.0749 141.0530 0.0000 0.0000 0.0000
# 4 0.0000 0.0000 0.0000 4.2275 0.0000 0.0000
# 5 0.0000 0.0000 0.0000 0.0000 22.1533 0.0000
# 6 0.0000 0.0000 0.0000 0.0000 0.0000 10.8414
#
#
#
# Elastic Compliance Matrix: (Units=1/GPa)
#
#
# Indices 1 2 3 4 5 6 
#
# 1 0.012263 -0.003620 -0.004291 0.000000 0.000000 0.000000
# 2 -0.003620 0.029093 -0.009477 0.000000 0.000000 0.000000
# 3 -0.004291 -0.009477 0.012710 0.000000 0.000000 0.000000
# 4 0.000000 0.000000 0.000000 0.236549 0.000000 0.000000
# 5 0.000000 0.000000 0.000000 0.000000 0.045140 0.000000
# 6 0.000000 0.000000 0.000000 0.000000 0.000000 0.092239
#
#
# Mechanical properties :
#
#
# Convention : Reuss Voigt Hill
#
# Bulk Modulus (GPa) = 51.83879 69.14275 60.49077
# Shear Modulus (GPa) = 10.65643 17.93789 14.29716
#
# Velocity S-wave (km/s) = 2.37252 3.07815 2.74807
# Velocity P-wave (km/s) = 5.90651 7.01108 6.48237
#
# Compressibility (1/GPa) = 0.01929058
#
# Stress axis : x y z
#
# Youngs Moduli (GPa) = 81.54445 34.37204 78.68070
#
# Poissons Ratio (x) = 0.12442 0.33760
# Poissons Ratio (y) = 0.29518 0.74568
# Poissons Ratio (z) = 0.34988 0.32575
#
# Static dielectric constant tensor:
#      x y z
#    x 3.528280 0.000000 0.000000 
#    y 0.000000 3.198020 0.000000 
#    z 0.000000 0.000000 3.633080 
# 
# 
# High freq. dielectric constant tensor:
#      x y z
#    x 1.743150 0.000000 0.000000 
#    y 0.000000 1.690690 0.000000 
#    z 0.000000 0.000000 1.739440 
# 
# From -- ./inp_files/36071.got.cif
#   From: 2010.03.12/outbox.cif.g09.slc.cpg/sg51_19_cif.got.tgz:36071.got - 2010.04.16 13:43:02.
