data_PCOD8214340
_publ_section_title
;
Structure prediction by ZEFSAII (Michael W. Deem and Ramdas Pophale) SiO2 
 PCOD8214340
Probable space group: P M M A
;
_chemical_formula_sum "Si O2"
_cell_formula_units_Z 48
_cell_length_a 9.599233
_cell_length_b 30.523759
_cell_length_c 7.665856
_cell_angle_alpha 90.000000
_cell_angle_beta 90.000000
_cell_angle_gamma 90.000000
_cell_volume 2246.131643
_symmetry_space_group_name_H-M "P M M A"
_symmetry_group_IT_number 51
_symmetry_cell_setting 'orthorhombic'
loop_
_space_group_symop_operation_xyz
x,y,z
1/2-x,-y,z
1/2+x,-y,-z
-x,y,-z
-x,-y,-z
1/2+x,y,-z
1/2-x,y,z
x,-y,z
loop_
_atom_site_type_symbol
_atom_site_label
_atom_site_fract_x
_atom_site_fract_y
_atom_site_fract_z
Si Si1 0.250000 0.664465 0.022232
Si Si2 0.516215 0.783548 0.206822
Si Si3 0.410958 0.550768 0.663286
Si Si4 0.412874 0.124733 0.837257
Si Si5 0.250000 0.738475 0.308308
Si Si6 0.500000 0.604281 0.000000
Si Si7 0.411859 0.951633 0.326596
Si Si8 0.750000 0.718087 0.308663
O O1 0.250000 0.708538 0.136342
O O2 0.381534 0.635706 0.074424
O O3 0.250000 0.674687 0.812934
O O4 0.575530 0.830994 0.278350
O O5 0.375153 0.773061 0.307191
O O6 0.615613 0.745153 0.262769
O O7 0.500000 0.780881 0.000000
O O8 0.500000 0.569200 0.500000
O O9 0.250000 0.558283 0.617210
O O10 0.446209 0.500000 0.693392
O O11 0.447723 0.574749 0.841854
O O12 0.250000 0.111842 0.868457
O O13 0.502457 0.082621 0.785335
O O14 0.500000 0.141913 0.000000
O O15 0.250000 0.708132 0.482929
O O16 0.500000 0.954607 0.500000
O O17 0.250000 0.936703 0.358517
O O18 0.411382 0.000000 0.237866
#
# Coordination Sequence:
#
# PCOD8214340 Si02
#       8
#     4   8   8   8   4   4   8   4
#     4  12  26  44  67  98 138 184 231 290 344 404
#     4  11  22  43  68  92 131 168 214 282 345 400
#     4  10  23  44  72 107 144 184 234 291 346 406
#     4  11  24  40  65  96 126 166 210 267 332 395
#     4  12  26  42  72  95 123 180 224 283 345 410
#     4  12  25  44  70  98 142 190 234 284 347 412
#     4  10  22  41  64  91 130 173 210 257 317 389
#     4  12  24  46  66  95 129 172 228 277 341 410
#
# _framework density 21.370073999999999
#
# number of rings (size 3 to 8) (size 9 to 14) (size 15 to 20)
#    0.000    1.000    3.333    2.750    5.833    4.000 
#    0.000    0.000    0.000    0.000    0.000    0.000 
#    0.000    0.000    0.000    0.000    0.000    0.000 
#
# Total GULP energy -594761.226079 kJ/mol
# GULP energy per Si atom -12390.858877 kJ/mol
# Density = 2.132143 g / cm^3
# Si number density = 21.370074 Si / 1000 Ang^3
#
#
#
# Elastic Constant Matrix: (Units=GPa)
#
#
# Indices 1 2 3 4 5 6 
#
# 1 178.4170 46.7201 21.6990 0.0000 0.0000 0.0000
# 2 46.7201 83.3223 23.6888 0.0000 0.0000 0.0000
# 3 21.6990 23.6888 86.8995 0.0000 0.0000 0.0000
# 4 0.0000 0.0000 0.0000 9.3528 0.0000 0.0000
# 5 0.0000 0.0000 0.0000 0.0000 36.5221 0.0000
# 6 0.0000 0.0000 0.0000 0.0000 0.0000 33.7657
#
#
#
# Elastic Compliance Matrix: (Units=1/GPa)
#
#
# Indices 1 2 3 4 5 6 
#
# 1 0.006608 -0.003508 -0.000694 0.000000 0.000000 0.000000
# 2 -0.003508 0.014872 -0.003178 0.000000 0.000000 0.000000
# 3 -0.000694 -0.003178 0.012547 0.000000 0.000000 0.000000
# 4 0.000000 0.000000 0.000000 0.106920 0.000000 0.000000
# 5 0.000000 0.000000 0.000000 0.000000 0.027381 0.000000
# 6 0.000000 0.000000 0.000000 0.000000 0.000000 0.029616
#
#
# Mechanical properties :
#
#
# Convention : Reuss Voigt Hill
#
# Bulk Modulus (GPa) = 51.90111 59.20606 55.55358
# Shear Modulus (GPa) = 22.81796 33.03017 27.92407
#
# Velocity S-wave (km/s) = 3.27119 3.93571 3.61874
# Velocity P-wave (km/s) = 6.21347 6.95833 6.59642
#
# Compressibility (1/GPa) = 0.01926741
#
# Stress axis : x y z
#
# Youngs Moduli (GPa) = 151.33672 67.24007 79.69932
#
# Poissons Ratio (x) = 0.23587 0.05529
# Poissons Ratio (y) = 0.53087 0.25330
# Poissons Ratio (z) = 0.10499 0.21370
#
# Static dielectric constant tensor:
#      x y z
#    x 4.523100 0.000000 0.000000 
#    y 0.000000 4.319760 0.000000 
#    z 0.000000 0.000000 3.682440 
# 
# 
# High freq. dielectric constant tensor:
#      x y z
#    x 1.860160 0.000000 0.000000 
#    y 0.000000 1.848070 0.000000 
#    z 0.000000 0.000000 1.823170 
# 
# From -- ./inp_files/6306.got.cif
#   From: 2010.03.12/outbox.cif.g09.slc.cpg/sg51_4_cif.got.tgz:6306.got - 2010.04.16 13:43:02.
