data_PCOD8214948
_publ_section_title
;
Structure prediction by ZEFSAII (Michael W. Deem and Ramdas Pophale) SiO2 
 PCOD8214948
Probable space group: P N N A
;
_chemical_formula_sum "Si O2"
_cell_formula_units_Z 32
_cell_length_a 9.602065
_cell_length_b 12.114080
_cell_length_c 14.763511
_cell_angle_alpha 90.000000
_cell_angle_beta 90.000000
_cell_angle_gamma 90.000000
_cell_volume 1717.294310
_symmetry_space_group_name_H-M "P N N A"
_symmetry_group_IT_number 52
_symmetry_cell_setting 'orthorhombic'
loop_
_space_group_symop_operation_xyz
x,y,z
1/2-x,-y,z
x,1/2-y,1/2-z
1/2-x,1/2+y,1/2-z
-x,-y,-z
1/2+x,y,-z
-x,1/2+y,1/2+z
1/2+x,1/2-y,1/2+z
loop_
_atom_site_type_symbol
_atom_site_label
_atom_site_fract_x
_atom_site_fract_y
_atom_site_fract_z
Si Si1 0.132149 0.368317 0.769686
Si Si2 0.729142 0.377087 0.031162
Si Si3 0.511844 0.216573 0.600921
Si Si4 0.553821 0.903044 0.222033
O O1 0.060509 0.250000 0.750000
O O2 0.141275 0.392082 0.876438
O O3 0.285190 0.366912 0.726623
O O4 0.040427 0.463863 0.721297
O O5 0.750000 0.500000 0.990757
O O6 0.874542 0.315887 0.045342
O O7 0.645619 0.301476 0.961129
O O8 0.526775 0.141801 0.690237
O O9 0.507041 0.346002 0.631213
#
# Coordination Sequence:
#
# PCOD8214948 Si02
#       4
#     8   8   8   8
#     4  10  16  31  55  78 100 140 196 219 255 328
#     4  11  19  30  54  86 106 134 183 236 266 319
#     4  10  19  33  53  81 107 136 179 225 280 315
#     4   9  17  32  53  74 106 146 176 218 275 334
#
# _framework density 18.633963000000001
#
# number of rings (size 3 to 8) (size 9 to 14) (size 15 to 20)
#    0.000    2.000   10.000    0.750    0.000    0.000 
#    0.000    1.250    5.500    0.000    0.000    0.000 
#    0.000    0.000    0.000    0.000    0.000    0.000 
#
# Total GULP energy -396682.312997 kJ/mol
# GULP energy per Si atom -12396.322281 kJ/mol
# Density = 1.859155 g / cm^3
# Si number density = 18.633963 Si / 1000 Ang^3
#
#
#
# Elastic Constant Matrix: (Units=GPa)
#
#
# Indices 1 2 3 4 5 6 
#
# 1 50.4413 29.0463 45.6083 0.0000 0.0000 0.0000
# 2 29.0463 172.7592 43.9596 0.0000 0.0000 0.0000
# 3 45.6083 43.9596 74.7191 0.0000 0.0000 0.0000
# 4 0.0000 0.0000 0.0000 27.3013 0.0000 0.0000
# 5 0.0000 0.0000 0.0000 0.0000 14.2275 0.0000
# 6 0.0000 0.0000 0.0000 0.0000 0.0000 14.8234
#
#
#
# Elastic Compliance Matrix: (Units=1/GPa)
#
#
# Indices 1 2 3 4 5 6 
#
# 1 0.044309 -0.000668 -0.026653 0.000000 0.000000 0.000000
# 2 -0.000668 0.006818 -0.003603 0.000000 0.000000 0.000000
# 3 -0.026653 -0.003603 0.031773 0.000000 0.000000 0.000000
# 4 0.000000 0.000000 0.000000 0.036628 0.000000 0.000000
# 5 0.000000 0.000000 0.000000 0.000000 0.070287 0.000000
# 6 0.000000 0.000000 0.000000 0.000000 0.000000 0.067461
#
#
# Mechanical properties :
#
#
# Convention : Reuss Voigt Hill
#
# Bulk Modulus (GPa) = 47.50512 59.46089 53.48300
# Shear Modulus (GPa) = 15.33083 23.22412 19.27747
#
# Velocity S-wave (km/s) = 2.87145 3.53417 3.21991
# Velocity P-wave (km/s) = 6.04506 6.97374 6.52594
#
# Compressibility (1/GPa) = 0.02105036
#
# Stress axis : x y z
#
# Youngs Moduli (GPa) = 22.56880 146.67951 31.47374
#
# Poissons Ratio (x) = 0.09793 0.83888
# Poissons Ratio (y) = 0.01507 0.11341
# Poissons Ratio (z) = 0.60153 0.52855
#
# Static dielectric constant tensor:
#      x y z
#    x 2.929640 0.000000 0.000000 
#    y 0.000000 3.702170 0.000000 
#    z 0.000000 0.000000 3.285570 
# 
# 
# High freq. dielectric constant tensor:
#      x y z
#    x 1.673180 0.000000 0.000000 
#    y 0.000000 1.732350 0.000000 
#    z 0.000000 0.000000 1.703320 
# 
# From -- ./inp_files/24094.got.cif
#   From: 2010.06.25/outbox.cif.g09.slc.cpg/sg52_13_cif.got.tgz:24094.got - 2010.06.26 19:32:48.
