data_PCOD8214306
_publ_section_title
;
Structure prediction by ZEFSAII (Michael W. Deem and Ramdas Pophale) SiO2 
 PCOD8214306
Probable space group: P M M A
;
_chemical_formula_sum "Si O2"
_cell_formula_units_Z 48
_cell_length_a 15.117089
_cell_length_b 14.771201
_cell_length_c 10.347069
_cell_angle_alpha 90.000000
_cell_angle_beta 90.000000
_cell_angle_gamma 90.000000
_cell_volume 2310.475262
_symmetry_space_group_name_H-M "P M M A"
_symmetry_group_IT_number 51
_symmetry_cell_setting 'orthorhombic'
loop_
_space_group_symop_operation_xyz
x,y,z
1/2-x,-y,z
1/2+x,-y,-z
-x,y,-z
-x,-y,-z
1/2+x,y,-z
1/2-x,y,z
x,-y,z
loop_
_atom_site_type_symbol
_atom_site_label
_atom_site_fract_x
_atom_site_fract_y
_atom_site_fract_z
Si Si1 0.646936 0.770874 0.989391
Si Si2 0.352171 0.099424 0.225780
Si Si3 0.487799 0.603799 0.648329
Si Si4 0.851104 0.397545 0.831228
Si Si5 0.647787 0.245193 0.274472
Si Si6 0.603885 0.897148 0.492753
O O1 0.750000 0.788722 0.981076
O O2 0.614188 0.791425 0.134532
O O3 0.601460 0.836991 0.882588
O O4 0.625095 0.667010 0.951727
O O5 0.250000 0.089684 0.192954
O O6 0.361963 0.140990 0.369633
O O7 0.397954 0.000000 0.221549
O O8 0.500000 0.627345 0.500000
O O9 0.459000 0.500000 0.670584
O O10 0.582138 0.624174 0.714721
O O11 0.409251 0.666385 0.697976
O O12 0.750000 0.380241 0.782272
O O13 0.862502 0.500000 0.881181
O O14 0.750000 0.275696 0.266826
O O15 0.638595 0.165539 0.378074
O O16 0.500000 0.893911 0.500000
O O17 0.638322 0.000000 0.469234
#
# Coordination Sequence:
#
# PCOD8214306 Si02
#       6
#     8   8   8   8   8   8
#     4   9  20  36  56  87 120 152 196 247 295 352
#     4   9  18  35  59  83 110 151 198 241 292 355
#     4  10  23  41  60  88 123 157 201 251 299 357
#     4   9  19  38  63  87 115 155 201 248 299 357
#     4  11  24  39  59  90 125 161 198 244 305 358
#     4  10  22  40  60  85 118 156 202 252 300 356
#
# _framework density 20.774946
#
# number of rings (size 3 to 8) (size 9 to 14) (size 15 to 20)
#    0.000    2.333    0.000    1.000    4.667    4.000 
#    0.000    6.667    0.000    3.000    0.000    0.000 
#    0.000    0.000    0.000    0.000    0.000    0.000 
#
# Total GULP energy -594989.167034 kJ/mol
# GULP energy per Si atom -12395.607647 kJ/mol
# Density = 2.072766 g / cm^3
# Si number density = 20.774946 Si / 1000 Ang^3
#
#
#
# Elastic Constant Matrix: (Units=GPa)
#
#
# Indices 1 2 3 4 5 6 
#
# 1 71.7868 38.0554 36.7447 0.0000 0.0000 0.0000
# 2 38.0554 115.6095 96.5300 0.0000 0.0000 0.0000
# 3 36.7447 96.5300 197.7026 0.0000 0.0000 0.0000
# 4 0.0000 0.0000 0.0000 27.7188 0.0000 0.0000
# 5 0.0000 0.0000 0.0000 0.0000 13.8276 0.0000
# 6 0.0000 0.0000 0.0000 0.0000 0.0000 31.9875
#
#
#
# Elastic Compliance Matrix: (Units=1/GPa)
#
#
# Indices 1 2 3 4 5 6 
#
# 1 0.016935 -0.004974 -0.000719 0.000000 0.000000 0.000000
# 2 -0.004974 0.016064 -0.006919 0.000000 0.000000 0.000000
# 3 -0.000719 -0.006919 0.008570 0.000000 0.000000 0.000000
# 4 0.000000 0.000000 0.000000 0.036077 0.000000 0.000000
# 5 0.000000 0.000000 0.000000 0.000000 0.072319 0.000000
# 6 0.000000 0.000000 0.000000 0.000000 0.000000 0.031262
#
#
# Mechanical properties :
#
#
# Convention : Reuss Voigt Hill
#
# Bulk Modulus (GPa) = 61.18064 80.86211 71.02138
# Shear Modulus (GPa) = 23.59605 28.95805 26.27705
#
# Velocity S-wave (km/s) = 3.37381 3.73754 3.56032
# Velocity P-wave (km/s) = 6.68506 7.59164 7.15272
#
# Compressibility (1/GPa) = 0.01634504
#
# Stress axis : x y z
#
# Youngs Moduli (GPa) = 59.04915 62.24937 116.68663
#
# Poissons Ratio (x) = 0.30966 0.08386
# Poissons Ratio (y) = 0.29374 0.80736
# Poissons Ratio (z) = 0.04244 0.43071
#
# Static dielectric constant tensor:
#      x y z
#    x 3.644300 0.000000 0.000000 
#    y 0.000000 4.033380 0.000000 
#    z 0.000000 0.000000 4.129320 
# 
# 
# High freq. dielectric constant tensor:
#      x y z
#    x 1.802080 0.000000 0.000000 
#    y 0.000000 1.816830 0.000000 
#    z 0.000000 0.000000 1.816320 
# 
# From -- ./inp_files/9561.got.cif
#   From: 2010.03.12/outbox.cif.g09.slc.cpg/sg51_5_cif.got.tgz:9561.got - 2010.04.16 13:43:02.
