data_PCOD8214819
_publ_section_title
;
Structure prediction by ZEFSAII (Michael W. Deem and Ramdas Pophale) SiO2 
 PCOD8214819
Probable space group: P M M A
;
_chemical_formula_sum "Si O2"
_cell_formula_units_Z 48
_cell_length_a 9.370715
_cell_length_b 9.782129
_cell_length_c 30.839164
_cell_angle_alpha 90.000000
_cell_angle_beta 90.000000
_cell_angle_gamma 90.000000
_cell_volume 2826.888712
_symmetry_space_group_name_H-M "P M M A"
_symmetry_group_IT_number 51
_symmetry_cell_setting 'orthorhombic'
loop_
_space_group_symop_operation_xyz
x,y,z
1/2-x,-y,z
1/2+x,-y,-z
-x,y,-z
-x,-y,-z
1/2+x,y,-z
1/2-x,y,z
x,-y,z
loop_
_atom_site_type_symbol
_atom_site_label
_atom_site_fract_x
_atom_site_fract_y
_atom_site_fract_z
Si Si1 0.592708 0.162110 0.038880
Si Si2 0.083579 0.841126 0.375072
Si Si3 0.919426 0.155141 0.134888
Si Si4 0.419369 0.651089 0.298069
Si Si5 0.913966 0.660023 0.798756
Si Si6 0.411850 0.837407 0.540880
O O1 0.750000 0.225858 0.034382
O O2 0.528925 0.197007 0.086382
O O3 0.601491 0.000000 0.034031
O O4 0.500000 0.226822 0.000000
O O5 0.250000 0.812036 0.384635
O O6 0.025487 0.759585 0.333306
O O7 0.992441 0.788713 0.415854
O O8 0.057065 0.000000 0.365706
O O9 0.750000 0.168266 0.137724
O O10 0.989814 0.256593 0.168524
O O11 0.966752 0.000000 0.145435
O O12 0.250000 0.645878 0.298123
O O13 0.479147 0.500000 0.309633
O O14 0.468847 0.694533 0.249901
O O15 0.750000 0.704576 0.804613
O O16 0.932176 0.500000 0.808183
O O17 0.500000 0.778535 0.500000
O O18 0.250000 0.779831 0.540248
O O19 0.409138 0.000000 0.538640
#
# Coordination Sequence:
#
# PCOD8214819 Si02
#       6
#     8   8   8   8   8   8
#     4   8  14  25  41  62  89 118 147 181 222 269
#     4   9  16  26  43  67  90 112 142 179 217 257
#     4   9  18  31  46  68  97 124 151 187 231 276
#     4   8  15  29  47  65  87 116 148 182 221 264
#     4   9  18  32  49  69  92 120 157 196 230 270
#     4   9  16  26  41  62  89 118 145 175 213 256
#
# _framework density 16.979797000000001
#
# number of rings (size 3 to 8) (size 9 to 14) (size 15 to 20)
#    0.000    3.333    0.000    2.500    0.000    4.000 
#    0.000    4.167    0.000    4.500    0.000    0.000 
#    0.000    0.000    0.000    0.000    0.000    0.000 
#
# Total GULP energy -594925.525242 kJ/mol
# GULP energy per Si atom -12394.281776 kJ/mol
# Density = 1.694115 g / cm^3
# Si number density = 16.979797 Si / 1000 Ang^3
#
#
#
# Elastic Constant Matrix: (Units=GPa)
#
#
# Indices 1 2 3 4 5 6 
#
# 1 62.4778 27.5565 60.4405 0.0000 0.0000 0.0000
# 2 27.5565 45.4491 59.9965 0.0000 0.0000 0.0000
# 3 60.4405 59.9965 167.4563 0.0000 0.0000 0.0000
# 4 0.0000 0.0000 0.0000 -1.2381 0.0000 0.0000
# 5 0.0000 0.0000 0.0000 0.0000 30.4980 0.0000
# 6 0.0000 0.0000 0.0000 0.0000 0.0000 17.6829
#
#
#
# Elastic Compliance Matrix: (Units=1/GPa)
#
#
# Indices 1 2 3 4 5 6 
#
# 1 0.025505 -0.006284 -0.006954 0.000000 0.000000 0.000000
# 2 -0.006284 0.043296 -0.013244 0.000000 0.000000 0.000000
# 3 -0.006954 -0.013244 0.013227 0.000000 0.000000 0.000000
# 4 0.000000 0.000000 0.000000 -0.807715 0.000000 0.000000
# 5 0.000000 0.000000 0.000000 0.000000 0.032789 0.000000
# 6 0.000000 0.000000 0.000000 0.000000 0.000000 0.056552
#
#
# Mechanical properties :
#
#
# Convention : Reuss Voigt Hill
#
# Bulk Modulus (GPa) = 34.40779 63.48558 48.94668
# Shear Modulus (GPa) = -8.71543 17.88121 4.58289
#
# Velocity S-wave (km/s) = -2.26803 3.24865 1.64465
# Velocity P-wave (km/s) = 3.66733 7.17926 5.70048
#
# Compressibility (1/GPa) = 0.02906319
#
# Stress axis : x y z
#
# Youngs Moduli (GPa) = 39.20872 23.09686 75.60450
#
# Poissons Ratio (x) = 0.14514 0.52575
# Poissons Ratio (y) = 0.24639 1.00131
# Poissons Ratio (z) = 0.27266 0.30590
#
# Static dielectric constant tensor:
#      x y z
#    x 3.242890 0.000000 0.000000 
#    y 0.000000 2.905810 0.000000 
#    z 0.000000 0.000000 3.454150 
# 
# 
# High freq. dielectric constant tensor:
#      x y z
#    x 1.636980 0.000000 0.000000 
#    y 0.000000 1.614140 0.000000 
#    z 0.000000 0.000000 1.669350 
# 
# From -- ./inp_files/36147.got.cif
#   From: 2010.03.12/outbox.cif.g09.slc.cpg/sg51_19_cif.got.tgz:36147.got - 2010.04.16 13:43:02.
