data_PCOD8214772
_publ_section_title
;
Structure prediction by ZEFSAII (Michael W. Deem and Ramdas Pophale) SiO2 
 PCOD8214772
Probable space group: P M M A
;
_chemical_formula_sum "Si O2"
_cell_formula_units_Z 48
_cell_length_a 16.687264
_cell_length_b 9.837610
_cell_length_c 18.302517
_cell_angle_alpha 90.000000
_cell_angle_beta 90.000000
_cell_angle_gamma 90.000000
_cell_volume 3004.592350
_symmetry_space_group_name_H-M "P M M A"
_symmetry_group_IT_number 51
_symmetry_cell_setting 'orthorhombic'
loop_
_space_group_symop_operation_xyz
x,y,z
1/2-x,-y,z
1/2+x,-y,-z
-x,y,-z
-x,-y,-z
1/2+x,y,-z
1/2-x,y,z
x,-y,z
loop_
_atom_site_type_symbol
_atom_site_label
_atom_site_fract_x
_atom_site_fract_y
_atom_site_fract_z
Si Si1 0.838250 0.161786 0.329738
Si Si2 0.160208 0.655581 0.176426
Si Si3 0.486740 0.161888 0.580710
Si Si4 0.070844 0.849336 0.808216
Si Si5 0.507215 0.657937 0.916075
Si Si6 0.911832 0.150666 0.713267
O O1 0.750000 0.219306 0.349033
O O2 0.859478 0.203174 0.246186
O O3 0.903287 0.221686 0.386871
O O4 0.839895 0.000000 0.334577
O O5 0.250000 0.679643 0.145408
O O6 0.147721 0.500000 0.200356
O O7 0.149736 0.745200 0.249551
O O8 0.096457 0.694410 0.113250
O O9 0.500000 0.223537 0.500000
O O10 0.561985 0.202575 0.632500
O O11 0.481000 0.000000 0.577943
O O12 0.060642 0.743287 0.873988
O O13 0.990936 0.857855 0.761226
O O14 0.090471 0.000000 0.839792
O O15 0.487606 0.500000 0.904508
O O16 0.500000 0.700303 0.000000
O O17 0.872413 0.000000 0.708840
#
# Coordination Sequence:
#
# PCOD8214772 Si02
#       6
#     8   8   8   8   8   8
#     4   8  13  22  37  56  78 106 139 172 204 238
#     4   9  17  29  44  60  79 106 138 169 201 239
#     4   8  13  22  37  58  85 113 138 166 202 243
#     4   8  14  25  41  59  78 103 135 166 196 235
#     4   9  17  29  44  61  81 105 133 164 200 245
#     4   8  14  25  41  60  81 105 133 166 201 235
#
# _framework density 15.975545
#
# number of rings (size 3 to 8) (size 9 to 14) (size 15 to 20)
#    0.000    3.667    0.000    2.000    0.000    0.667 
#    0.000    1.667    0.000    5.000    0.000    0.000 
#    0.000    0.000    0.000    0.000    0.000    0.000 
#
# Total GULP energy -594757.633018 kJ/mol
# GULP energy per Si atom -12390.784021 kJ/mol
# Density = 1.593918 g / cm^3
# Si number density = 15.975545 Si / 1000 Ang^3
#
#
#
# Elastic Constant Matrix: (Units=GPa)
#
#
# Indices 1 2 3 4 5 6 
#
# 1 82.5780 25.0982 47.9976 0.0000 0.0000 0.0000
# 2 25.0982 39.5657 41.8175 0.0000 0.0000 0.0000
# 3 47.9976 41.8175 129.3080 0.0000 0.0000 0.0000
# 4 0.0000 0.0000 0.0000 13.2740 0.0000 0.0000
# 5 0.0000 0.0000 0.0000 0.0000 17.7271 0.0000
# 6 0.0000 0.0000 0.0000 0.0000 0.0000 12.0938
#
#
#
# Elastic Compliance Matrix: (Units=1/GPa)
#
#
# Indices 1 2 3 4 5 6 
#
# 1 0.016329 -0.006004 -0.004119 0.000000 0.000000 0.000000
# 2 -0.006004 0.040607 -0.010903 0.000000 0.000000 0.000000
# 3 -0.004119 -0.010903 0.012789 0.000000 0.000000 0.000000
# 4 0.000000 0.000000 0.000000 0.075335 0.000000 0.000000
# 5 0.000000 0.000000 0.000000 0.000000 0.056411 0.000000
# 6 0.000000 0.000000 0.000000 0.000000 0.000000 0.082687
#
#
# Mechanical properties :
#
#
# Convention : Reuss Voigt Hill
#
# Bulk Modulus (GPa) = 36.13948 53.47536 44.80742
# Shear Modulus (GPa) = 14.90599 17.72154 16.31376
#
# Velocity S-wave (km/s) = 3.05790 3.33422 3.19904
# Velocity P-wave (km/s) = 5.92778 6.95475 6.46170
#
# Compressibility (1/GPa) = 0.02767057
#
# Stress axis : x y z
#
# Youngs Moduli (GPa) = 61.24060 24.62622 78.19459
#
# Poissons Ratio (x) = 0.14787 0.32211
# Poissons Ratio (y) = 0.36771 0.85258
# Poissons Ratio (z) = 0.25227 0.26851
#
# Static dielectric constant tensor:
#      x y z
#    x 3.117940 0.000000 0.000000 
#    y 0.000000 2.916090 0.000000 
#    z 0.000000 0.000000 3.195620 
# 
# 
# High freq. dielectric constant tensor:
#      x y z
#    x 1.599440 0.000000 0.000000 
#    y 0.000000 1.578380 0.000000 
#    z 0.000000 0.000000 1.603770 
# 
# From -- ./inp_files/24043.got.cif
#   From: 2010.03.12/outbox.cif.g09.slc.cpg/sg51_13_cif.got.tgz:24043.got - 2010.04.16 13:43:02.
