data_PCOD8214252
_publ_section_title
;
Structure prediction by ZEFSAII (Michael W. Deem and Ramdas Pophale) SiO2 
 PCOD8214252
Probable space group: P M M A
;
_chemical_formula_sum "Si O2"
_cell_formula_units_Z 48
_cell_length_a 17.876339
_cell_length_b 9.971727
_cell_length_c 13.690293
_cell_angle_alpha 90.000000
_cell_angle_beta 90.000000
_cell_angle_gamma 90.000000
_cell_volume 2440.403870
_symmetry_space_group_name_H-M "P M M A"
_symmetry_group_IT_number 51
_symmetry_cell_setting 'orthorhombic'
loop_
_space_group_symop_operation_xyz
x,y,z
1/2-x,-y,z
1/2+x,-y,-z
-x,y,-z
-x,-y,-z
1/2+x,y,-z
1/2-x,y,z
x,-y,z
loop_
_atom_site_type_symbol
_atom_site_label
_atom_site_fract_x
_atom_site_fract_y
_atom_site_fract_z
Si Si1 0.338388 0.849189 0.740921
Si Si2 0.160953 0.777306 0.527041
Si Si3 0.839542 0.000000 0.841102
Si Si4 0.838868 0.000000 0.618716
Si Si5 0.338107 0.500000 0.228775
Si Si6 0.339168 0.500000 0.447840
Si Si7 0.593628 0.275410 0.901414
Si Si8 0.574772 0.656077 0.117743
O O1 0.250000 0.829911 0.743179
O O2 0.369532 0.827119 0.631313
O O3 0.371936 0.736666 0.810399
O O4 0.360346 0.000000 0.774777
O O5 0.250000 0.783119 0.527755
O O6 0.130691 0.628507 0.506388
O O7 0.130765 0.870479 0.439301
O O8 0.868902 0.000000 0.729320
O O9 0.873012 0.127126 0.896936
O O10 0.750000 0.000000 0.848329
O O11 0.750000 0.000000 0.621728
O O12 0.250000 0.500000 0.232351
O O13 0.371344 0.500000 0.338083
O O14 0.363820 0.365729 0.176268
O O15 0.250000 0.500000 0.444104
O O16 0.506064 0.275176 0.876871
O O17 0.607946 0.334617 0.008908
O O18 0.570220 0.500000 0.148761
#
# Coordination Sequence:
#
# PCOD8214252 Si02
#       8
#     8   8   4   4   4   4   8   8
#     4  10  22  38  61  92 120 152 199 254 304 348
#     4   9  16  31  53  81 119 155 191 238 293 355
#     4  11  24  37  61 101 126 149 198 252 299 348
#     4   9  16  32  55  81 119 159 190 231 290 358
#     4  11  20  37  63  91 120 155 200 254 303 338
#     4   9  18  28  51  87 117 151 194 237 292 356
#     4  11  23  43  63  85 121 163 200 242 296 368
#     4  11  24  44  65  84 115 164 210 241 294 369
#
# _framework density 19.668876999999998
#
# number of rings (size 3 to 8) (size 9 to 14) (size 15 to 20)
#    0.000    1.833    2.500    2.000    3.500    5.000 
#    0.000    0.000    0.000    6.000    0.000    0.000 
#    0.000    0.000    0.000    0.000    0.000    0.000 
#
# Total GULP energy -595247.465142 kJ/mol
# GULP energy per Si atom -12400.988857 kJ/mol
# Density = 1.962411 g / cm^3
# Si number density = 19.668877 Si / 1000 Ang^3
#
#
#
# Elastic Constant Matrix: (Units=GPa)
#
#
# Indices 1 2 3 4 5 6 
#
# 1 45.2567 38.2906 33.2870 0.0000 0.0000 0.0000
# 2 38.2906 157.3398 34.5688 0.0000 0.0000 0.0000
# 3 33.2870 34.5688 87.7899 0.0000 0.0000 0.0000
# 4 0.0000 0.0000 0.0000 42.2571 0.0000 0.0000
# 5 0.0000 0.0000 0.0000 0.0000 -11.2272 0.0000
# 6 0.0000 0.0000 0.0000 0.0000 0.0000 27.9856
#
#
#
# Elastic Compliance Matrix: (Units=1/GPa)
#
#
# Indices 1 2 3 4 5 6 
#
# 1 0.035432 -0.006208 -0.010990 0.000000 0.000000 0.000000
# 2 -0.006208 0.008045 -0.000814 0.000000 0.000000 0.000000
# 3 -0.010990 -0.000814 0.015878 0.000000 0.000000 0.000000
# 4 0.000000 0.000000 0.000000 0.023665 0.000000 0.000000
# 5 0.000000 0.000000 0.000000 0.000000 -0.089069 0.000000
# 6 0.000000 0.000000 0.000000 0.000000 0.000000 0.035733
#
#
# Mechanical properties :
#
#
# Convention : Reuss Voigt Hill
#
# Bulk Modulus (GPa) = 42.86096 55.85322 49.35709
# Shear Modulus (GPa) = 68.04011 24.08577 46.06294
#
# Velocity S-wave (km/s) = 5.88794 3.50317 4.84459
# Velocity P-wave (km/s) = 8.24999 6.69487 7.51278
#
# Compressibility (1/GPa) = 0.02333126
#
# Stress axis : x y z
#
# Youngs Moduli (GPa) = 28.22289 124.29495 62.97841
#
# Poissons Ratio (x) = 0.77165 0.69214
# Poissons Ratio (y) = 0.17521 0.05127
# Poissons Ratio (z) = 0.31017 0.10118
#
# Static dielectric constant tensor:
#      x y z
#    x 3.195800 0.000000 0.000000 
#    y 0.000000 3.766280 0.000000 
#    z 0.000000 0.000000 3.781620 
# 
# 
# High freq. dielectric constant tensor:
#      x y z
#    x 1.726290 0.000000 0.000000 
#    y 0.000000 1.784810 0.000000 
#    z 0.000000 0.000000 1.776790 
# 
# From -- ./inp_files/25013.got.cif
#   From: 2010.03.12/outbox.cif.g09.slc.cpg/sg51_13_cif.got.tgz:25013.got - 2010.04.16 13:43:02.
