data_PCOD8214710
_publ_section_title
;
Structure prediction by ZEFSAII (Michael W. Deem and Ramdas Pophale) SiO2 
 PCOD8214710
Probable space group: P M M A
;
_chemical_formula_sum "Si O2"
_cell_formula_units_Z 64
_cell_length_a 9.830419
_cell_length_b 13.454459
_cell_length_c 33.812429
_cell_angle_alpha 90.000000
_cell_angle_beta 90.000000
_cell_angle_gamma 90.000000
_cell_volume 4472.132262
_symmetry_space_group_name_H-M "P M M A"
_symmetry_group_IT_number 51
_symmetry_cell_setting 'orthorhombic'
loop_
_space_group_symop_operation_xyz
x,y,z
1/2-x,-y,z
1/2+x,-y,-z
-x,y,-z
-x,-y,-z
1/2+x,y,-z
1/2-x,y,z
x,-y,z
loop_
_atom_site_type_symbol
_atom_site_label
_atom_site_fract_x
_atom_site_fract_y
_atom_site_fract_z
Si Si1 0.593294 0.385029 0.535872
Si Si2 0.406792 0.614708 0.305520
Si Si3 0.597395 0.881717 0.966484
Si Si4 0.093116 0.771753 0.730255
Si Si5 0.592853 0.115432 0.190393
Si Si6 0.093396 0.885376 0.650733
Si Si7 0.097415 0.881906 0.121089
Si Si8 0.406767 0.271376 0.384886
O O1 0.500000 0.347128 0.500000
O O2 0.750000 0.367896 0.524190
O O3 0.564649 0.500000 0.545378
O O4 0.552182 0.322964 0.574301
O O5 0.250000 0.632350 0.294022
O O6 0.447335 0.500000 0.302604
O O7 0.500240 0.674615 0.274811
O O8 0.435747 0.650100 0.350112
O O9 0.750000 0.845520 0.975618
O O10 0.552907 0.844593 0.922688
O O11 0.590332 0.000000 0.967809
O O12 0.500000 0.834774 0.000000
O O13 0.250000 0.738114 0.730762
O O14 0.050614 0.824833 0.770684
O O15 0.065168 0.849853 0.695307
O O16 0.750000 0.130937 0.179685
O O17 0.505976 0.159700 0.153940
O O18 0.560312 0.000000 0.198149
O O19 0.250000 0.867907 0.639010
O O20 0.999745 0.825698 0.620059
O O21 0.052587 0.000000 0.647929
O O22 0.250000 0.844499 0.130769
O O23 0.093771 0.000000 0.121432
O O24 0.250000 0.237626 0.384784
#
# Coordination Sequence:
#
# PCOD8214710 Si02
#       8
#     8   8   8   8   8   8   8   8
#     4   9  17  29  45  65  88 111 132 156 190 231
#     4   9  17  29  44  61  81 104 129 156 187 226
#     4   8  13  20  29  41  58  81 111 149 190 228
#     4   9  17  28  41  58  79 102 129 160 194 230
#     4   9  16  25  37  52  71  97 128 160 192 227
#     4   9  17  29  44  61  82 107 133 163 198 231
#     4   8  14  23  32  44  64  89 118 154 194 230
#     4   9  17  29  45  64  85 108 132 159 191 226
#
# _framework density 14.310848
#
# number of rings (size 3 to 8) (size 9 to 14) (size 15 to 20)
#    0.000    3.250    0.000    1.500    0.000    5.000 
#    0.000    2.500    0.000    4.875    0.000    0.000 
#    0.000    0.000    0.000    0.000    0.000    0.625 
#
# Total GULP energy -793440.150060 kJ/mol
# GULP energy per Si atom -12397.502345 kJ/mol
# Density = 1.427828 g / cm^3
# Si number density = 14.310848 Si / 1000 Ang^3
#
#
#
# Elastic Constant Matrix: (Units=GPa)
#
#
# Indices 1 2 3 4 5 6 
#
# 1 79.3788 47.7654 71.2688 0.0000 0.0000 0.0000
# 2 47.7654 72.2140 44.9479 0.0000 0.0000 0.0000
# 3 71.2688 44.9479 121.2735 0.0000 0.0000 0.0000
# 4 0.0000 0.0000 0.0000 11.4885 0.0000 0.0000
# 5 0.0000 0.0000 0.0000 0.0000 29.9426 0.0000
# 6 0.0000 0.0000 0.0000 0.0000 0.0000 20.9568
#
#
#
# Elastic Compliance Matrix: (Units=1/GPa)
#
#
# Indices 1 2 3 4 5 6 
#
# 1 0.034141 -0.013121 -0.015200 0.000000 0.000000 0.000000
# 2 -0.013121 0.023043 -0.000830 0.000000 0.000000 0.000000
# 3 -0.015200 -0.000830 0.017486 0.000000 0.000000 0.000000
# 4 0.000000 0.000000 0.000000 0.087043 0.000000 0.000000
# 5 0.000000 0.000000 0.000000 0.000000 0.033397 0.000000
# 6 0.000000 0.000000 0.000000 0.000000 0.000000 0.047717
#
#
# Mechanical properties :
#
#
# Convention : Reuss Voigt Hill
#
# Bulk Modulus (GPa) = 61.09598 66.75895 63.92747
# Shear Modulus (GPa) = 16.30869 19.73654 18.02261
#
# Velocity S-wave (km/s) = 3.37946 3.71769 3.55261
# Velocity P-wave (km/s) = 7.61659 8.07334 7.84829
#
# Compressibility (1/GPa) = 0.01636769
#
# Stress axis : x y z
#
# Youngs Moduli (GPa) = 29.29063 43.39735 57.18816
#
# Poissons Ratio (x) = 0.56941 0.86928
# Poissons Ratio (y) = 0.38432 0.04745
# Poissons Ratio (z) = 0.44523 0.03601
#
# Static dielectric constant tensor:
#      x y z
#    x 2.912830 0.000000 0.000000 
#    y 0.000000 2.490650 0.000000 
#    z 0.000000 0.000000 2.912560 
# 
# 
# High freq. dielectric constant tensor:
#      x y z
#    x 1.552700 0.000000 0.000000 
#    y 0.000000 1.501730 0.000000 
#    z 0.000000 0.000000 1.544290 
# 
# From -- ./inp_files/35449.got.cif
#   From: 2010.03.12/outbox.cif.g09.slc.cpg/sg51_18_cif.got.tgz:35449.got - 2010.04.16 13:43:02.
