data_PCOD8214517
_publ_section_title
;
Structure prediction by ZEFSAII (Michael W. Deem and Ramdas Pophale) SiO2 
 PCOD8214517
Probable space group: P M M A
;
_chemical_formula_sum "Si O2"
_cell_formula_units_Z 64
_cell_length_a 20.756346
_cell_length_b 18.400153
_cell_length_c 7.867110
_cell_angle_alpha 90.000000
_cell_angle_beta 90.000000
_cell_angle_gamma 90.000000
_cell_volume 3004.606196
_symmetry_space_group_name_H-M "P M M A"
_symmetry_group_IT_number 51
_symmetry_cell_setting 'orthorhombic'
loop_
_space_group_symop_operation_xyz
x,y,z
1/2-x,-y,z
1/2+x,-y,-z
-x,y,-z
-x,-y,-z
1/2+x,y,-z
1/2-x,y,z
x,-y,z
loop_
_atom_site_type_symbol
_atom_site_label
_atom_site_fract_x
_atom_site_fract_y
_atom_site_fract_z
Si Si1 0.823025 0.416527 0.192522
Si Si2 0.177902 0.919058 0.502445
Si Si3 0.124788 0.150746 0.812363
Si Si4 0.821485 0.583371 0.793044
Si Si5 0.426139 0.308250 0.309993
Si Si6 0.614297 0.160809 0.813663
Si Si7 0.501403 0.082118 0.304749
Si Si8 0.572468 0.302016 0.302200
O O1 0.750000 0.393018 0.247064
O O2 0.834579 0.500000 0.246396
O O3 0.877813 0.368236 0.280152
O O4 0.830820 0.407151 0.992608
O O5 0.250000 0.930526 0.445188
O O6 0.178932 0.868857 0.673074
O O7 0.145634 0.877502 0.347271
O O8 0.146362 0.000000 0.528623
O O9 0.097304 0.232176 0.799495
O O10 0.072434 0.089642 0.767976
O O11 0.149184 0.140962 0.007200
O O12 0.750000 0.613659 0.740845
O O13 0.825165 0.500000 0.738553
O O14 0.880967 0.621149 0.698286
O O15 0.388515 0.247709 0.201076
O O16 0.499395 0.323521 0.242640
O O17 0.429906 0.280071 0.501634
O O18 0.541152 0.132902 0.816309
O O19 0.500000 0.109750 0.500000
O O20 0.476660 0.000000 0.292226
#
# Coordination Sequence:
#
# PCOD8214517 Si02
#       8
#     8   8   8   8   8   8   8   8
#     4   9  20  40  64  91 125 166 214 265 318 384
#     4  11  26  47  67  91 128 170 214 267 323 386
#     4  12  24  41  66  94 126 167 214 264 322 386
#     4   9  20  40  64  91 125 166 214 265 318 384
#     4  11  23  40  62  91 131 171 212 268 327 383
#     4  12  24  41  66  94 126 167 214 264 322 386
#     4  11  21  37  63  94 128 163 205 263 325 384
#     4  11  23  40  62  91 131 171 212 268 327 383
#
# _framework density 21.300628
#
# number of rings (size 3 to 8) (size 9 to 14) (size 15 to 20)
#    0.000    1.250    3.750    2.625    0.000    7.000 
#    0.000    5.000    0.000    0.000    0.000    0.000 
#    0.000    0.000    0.000    0.000    0.000    0.000 
#
# Total GULP energy -793290.723440 kJ/mol
# GULP energy per Si atom -12395.167554 kJ/mol
# Density = 2.125215 g / cm^3
# Si number density = 21.300628 Si / 1000 Ang^3
#
#
#
# Elastic Constant Matrix: (Units=GPa)
#
#
# Indices 1 2 3 4 5 6 
#
# 1 102.8494 50.6763 22.0729 0.0000 0.0000 0.0000
# 2 50.6763 101.6488 31.5217 0.0000 0.0000 0.0000
# 3 22.0729 31.5217 114.1964 0.0000 0.0000 0.0000
# 4 0.0000 0.0000 0.0000 24.6867 0.0000 0.0000
# 5 0.0000 0.0000 0.0000 0.0000 19.3588 0.0000
# 6 0.0000 0.0000 0.0000 0.0000 0.0000 -218.9468
#
#
#
# Elastic Compliance Matrix: (Units=1/GPa)
#
#
# Indices 1 2 3 4 5 6 
#
# 1 0.012954 -0.006213 -0.000789 0.000000 0.000000 0.000000
# 2 -0.006213 0.013739 -0.002591 0.000000 0.000000 0.000000
# 3 -0.000789 -0.002591 0.009625 0.000000 0.000000 0.000000
# 4 0.000000 0.000000 0.000000 0.040508 0.000000 0.000000
# 5 0.000000 0.000000 0.000000 0.000000 0.051656 0.000000
# 6 0.000000 0.000000 0.000000 0.000000 0.000000 -0.004567
#
#
# Mechanical properties :
#
#
# Convention : Reuss Voigt Hill
#
# Bulk Modulus (GPa) = 58.37611 58.58182 58.47896
# Shear Modulus (GPa) = 33.59965 -20.68536 6.45714
#
# Velocity S-wave (km/s) = 3.97596 -3.11965 1.74299
# Velocity P-wave (km/s) = 6.96728 3.81913 5.61822
#
# Compressibility (1/GPa) = 0.01713030
#
# Stress axis : x y z
#
# Youngs Moduli (GPa) = 77.19786 72.78518 103.90035
#
# Poissons Ratio (x) = 0.45224 0.08195
# Poissons Ratio (y) = 0.47966 0.26925
# Poissons Ratio (z) = 0.06089 0.18862
#
# Static dielectric constant tensor:
#      x y z
#    x 4.000860 0.000000 0.000000 
#    y 0.000000 3.788220 0.000000 
#    z 0.000000 0.000000 3.832240 
# 
# 
# High freq. dielectric constant tensor:
#      x y z
#    x 1.830790 0.000000 0.000000 
#    y 0.000000 1.834310 0.000000 
#    z 0.000000 0.000000 1.834330 
# 
# From -- ./inp_files/11232.got.cif
#   From: 2010.03.12/outbox.cif.g09.slc.cpg/sg51_6_cif.got.tgz:11232.got - 2010.04.16 13:43:02.
