data_PCOD8214760
_publ_section_title
;
Structure prediction by ZEFSAII (Michael W. Deem and Ramdas Pophale) SiO2 
 PCOD8214760
Probable space group: P M M A
;
_chemical_formula_sum "Si O2"
_cell_formula_units_Z 56
_cell_length_a 9.119357
_cell_length_b 15.608790
_cell_length_c 30.974323
_cell_angle_alpha 90.000000
_cell_angle_beta 90.000000
_cell_angle_gamma 90.000000
_cell_volume 4408.951060
_symmetry_space_group_name_H-M "P M M A"
_symmetry_group_IT_number 51
_symmetry_cell_setting 'orthorhombic'
loop_
_space_group_symop_operation_xyz
x,y,z
1/2-x,-y,z
1/2+x,-y,-z
-x,y,-z
-x,-y,-z
1/2+x,y,-z
1/2-x,y,z
x,-y,z
loop_
_atom_site_type_symbol
_atom_site_label
_atom_site_fract_x
_atom_site_fract_y
_atom_site_fract_z
Si Si1 0.415987 0.602122 0.042121
Si Si2 0.922355 0.723707 0.545682
Si Si3 0.920187 0.090363 0.544906
Si Si4 0.415938 0.602109 0.873668
Si Si5 0.915355 0.601903 0.294231
Si Si6 0.084120 0.397816 0.210580
Si Si7 0.078386 0.598861 0.379770
O O1 0.250000 0.637380 0.042038
O O2 0.415173 0.500000 0.042130
O O3 0.499495 0.637172 0.084317
O O4 0.500000 0.637105 0.000000
O O5 0.750000 0.713130 0.537768
O O6 0.961054 0.818049 0.566630
O O7 0.978660 0.653022 0.579430
O O8 0.000000 0.708627 0.500000
O O9 0.750000 0.091871 0.534354
O O10 0.000000 0.087115 0.500000
O O11 0.958410 0.000000 0.570524
O O12 0.250000 0.637414 0.873921
O O13 0.415132 0.500000 0.873765
O O14 0.498686 0.636992 0.831330
O O15 0.750000 0.637811 0.293123
O O16 0.915498 0.500000 0.292438
O O17 0.003174 0.638363 0.253048
O O18 0.994132 0.633292 0.337727
O O19 0.250000 0.362672 0.209738
O O20 0.084318 0.500000 0.210814
O O21 0.250000 0.612680 0.371270
O O22 0.041559 0.500000 0.389287
#
# Coordination Sequence:
#
# PCOD8214760 Si02
#       7
#     8   8   8   8   8   8   8
#     4   9  15  21  27  34  45  62  83 105 131 166
#     4   9  17  27  38  52  68  85 105 127 150 177
#     4   8  13  22  36  52  68  84 101 122 148 176
#     4   9  15  21  28  38  51  65  82 106 135 167
#     4   9  16  25  36  48  59  72  93 120 147 174
#     4   9  15  22  32  44  56  69  85 108 140 175
#     4   9  17  28  38  47  62  84 106 126 149 178
#
# _framework density 12.701434000000001
#
# number of rings (size 3 to 8) (size 9 to 14) (size 15 to 20)
#    0.000    3.143    0.000    1.714    0.000    7.714 
#    0.000    0.000    0.000    0.000    0.000    0.000 
#    0.000    0.000    0.000    0.000    0.000    0.000 
#
# Total GULP energy -693815.294886 kJ/mol
# GULP energy per Si atom -12389.558837 kJ/mol
# Density = 1.267253 g / cm^3
# Si number density = 12.701434 Si / 1000 Ang^3
#
#
#
# Elastic Constant Matrix: (Units=GPa)
#
#
# Indices 1 2 3 4 5 6 
#
# 1 88.0426 18.7243 56.1020 0.0000 0.0000 0.0000
# 2 18.7243 35.3953 31.6133 0.0000 0.0000 0.0000
# 3 56.1020 31.6133 114.8061 0.0000 0.0000 0.0000
# 4 0.0000 0.0000 0.0000 0.3968 0.0000 0.0000
# 5 0.0000 0.0000 0.0000 0.0000 25.2458 0.0000
# 6 0.0000 0.0000 0.0000 0.0000 0.0000 5.5801
#
#
#
# Elastic Compliance Matrix: (Units=1/GPa)
#
#
# Indices 1 2 3 4 5 6 
#
# 1 0.016604 -0.002038 -0.007553 0.000000 0.000000 0.000000
# 2 -0.002038 0.037717 -0.009390 0.000000 0.000000 0.000000
# 3 -0.007553 -0.009390 0.014987 0.000000 0.000000 0.000000
# 4 0.000000 0.000000 0.000000 2.520222 0.000000 0.000000
# 5 0.000000 0.000000 0.000000 0.000000 0.039611 0.000000
# 6 0.000000 0.000000 0.000000 0.000000 0.000000 0.179208
#
#
# Mechanical properties :
#
#
# Convention : Reuss Voigt Hill
#
# Bulk Modulus (GPa) = 31.90129 50.12478 41.01304
# Shear Modulus (GPa) = 1.75024 15.03150 8.39087
#
# Velocity S-wave (km/s) = 1.17515 3.44386 2.57305
# Velocity P-wave (km/s) = 5.19732 7.44064 6.41776
#
# Compressibility (1/GPa) = 0.03134670
#
# Stress axis : x y z
#
# Youngs Moduli (GPa) = 60.22528 26.51313 66.72542
#
# Poissons Ratio (x) = 0.05403 0.50396
# Poissons Ratio (y) = 0.12274 0.62655
# Poissons Ratio (z) = 0.45487 0.24896
#
# Static dielectric constant tensor:
#      x y z
#    x 2.725680 0.000000 0.000000 
#    y 0.000000 2.376040 0.000000 
#    z 0.000000 0.000000 2.614290 
# 
# 
# High freq. dielectric constant tensor:
#      x y z
#    x 1.499050 0.000000 0.000000 
#    y 0.000000 1.408910 0.000000 
#    z 0.000000 0.000000 1.476970 
# 
# From -- ./inp_files/37457.got.cif
#   From: 2010.03.12/outbox.cif.g09.slc.cpg/sg51_19_cif.got.tgz:37457.got - 2010.04.16 13:43:02.
