data_PCOD8214234
_publ_section_title
;
Structure prediction by ZEFSAII (Michael W. Deem and Ramdas Pophale) SiO2 
 PCOD8214234
Probable space group: P M M A
;
_chemical_formula_sum "Si O2"
_cell_formula_units_Z 36
_cell_length_a 9.414118
_cell_length_b 7.693714
_cell_length_c 24.993631
_cell_angle_alpha 90.000000
_cell_angle_beta 90.000000
_cell_angle_gamma 90.000000
_cell_volume 1810.276983
_symmetry_space_group_name_H-M "P M M A"
_symmetry_group_IT_number 51
_symmetry_cell_setting 'orthorhombic'
loop_
_space_group_symop_operation_xyz
x,y,z
1/2-x,-y,z
1/2+x,-y,-z
-x,y,-z
-x,-y,-z
1/2+x,y,-z
1/2-x,y,z
x,-y,z
loop_
_atom_site_type_symbol
_atom_site_label
_atom_site_fract_x
_atom_site_fract_y
_atom_site_fract_z
Si Si1 0.915957 0.500000 0.054568
Si Si2 0.908206 0.298498 0.648074
Si Si3 0.089760 0.707233 0.550575
Si Si4 0.908742 0.204973 0.763819
Si Si5 0.084354 0.800659 0.865025
O O1 0.750000 0.500000 0.041522
O O2 0.958963 0.674693 0.086460
O O3 0.000000 0.500000 0.000000
O O4 0.750000 0.213139 0.644406
O O5 0.894214 0.500000 0.635534
O O6 0.972697 0.268892 0.707265
O O7 0.013771 0.217164 0.603958
O O8 0.250000 0.781642 0.547591
O O9 0.094669 0.500000 0.551298
O O10 0.000000 0.775034 0.500000
O O11 0.750000 0.281491 0.771352
O O12 0.005646 0.271110 0.812343
O O13 0.905963 0.000000 0.763965
O O14 0.250000 0.786929 0.852527
O O15 0.041190 0.000000 0.879346
#
# Coordination Sequence:
#
# PCOD8214234 Si02
#       5
#     4   8   8   8   8
#     4  10  22  38  56  82 110 140 177 216 257 302
#     4   9  17  28  43  66  94 123 156 198 247 296
#     4   9  16  26  41  62  89 121 157 199 247 299
#     4   9  18  32  50  73 100 131 167 205 248 299
#     4   9  19  36  55  76 106 141 174 212 259 307
#
# _framework density 19.886458999999999
#
# number of rings (size 3 to 8) (size 9 to 14) (size 15 to 20)
#    0.000    2.889    0.000    0.667    1.556    4.889 
#    0.000    0.000    0.000    0.667    0.000    0.000 
#    0.000    0.000    0.000    0.000    0.000    0.000 
#
# Total GULP energy -446286.109916 kJ/mol
# GULP energy per Si atom -12396.836387 kJ/mol
# Density = 1.984120 g / cm^3
# Si number density = 19.886459 Si / 1000 Ang^3
#
#
#
# Elastic Constant Matrix: (Units=GPa)
#
#
# Indices 1 2 3 4 5 6 
#
# 1 109.9580 26.2414 100.5989 0.0000 0.0000 0.0000
# 2 26.2414 48.4970 44.4290 0.0000 0.0000 0.0000
# 3 100.5989 44.4290 205.8401 0.0000 0.0000 0.0000
# 4 0.0000 0.0000 0.0000 -14.6363 0.0000 0.0000
# 5 0.0000 0.0000 0.0000 0.0000 43.2680 0.0000
# 6 0.0000 0.0000 0.0000 0.0000 0.0000 11.8528
#
#
#
# Elastic Compliance Matrix: (Units=1/GPa)
#
#
# Indices 1 2 3 4 5 6 
#
# 1 0.016593 -0.001931 -0.007693 0.000000 0.000000 0.000000
# 2 -0.001931 0.025927 -0.004652 0.000000 0.000000 0.000000
# 3 -0.007693 -0.004652 0.009622 0.000000 0.000000 0.000000
# 4 0.000000 0.000000 0.000000 -0.068323 0.000000 0.000000
# 5 0.000000 0.000000 0.000000 0.000000 0.023112 0.000000
# 6 0.000000 0.000000 0.000000 0.000000 0.000000 0.084368
#
#
# Mechanical properties :
#
#
# Convention : Reuss Voigt Hill
#
# Bulk Modulus (GPa) = 42.39136 78.53708 60.46422
# Shear Modulus (GPa) = 39.15000 20.96529 30.05764
#
# Velocity S-wave (km/s) = 4.44179 3.25044 3.89197
# Velocity P-wave (km/s) = 6.90427 7.32568 7.11810
#
# Compressibility (1/GPa) = 0.02358971
#
# Stress axis : x y z
#
# Youngs Moduli (GPa) = 60.26598 38.57011 103.92973
#
# Poissons Ratio (x) = 0.07448 0.79949
# Poissons Ratio (y) = 0.11638 0.48352
# Poissons Ratio (z) = 0.46360 0.17944
#
# Static dielectric constant tensor:
#      x y z
#    x 3.900580 0.000000 0.000000 
#    y 0.000000 3.424310 0.000000 
#    z 0.000000 0.000000 3.680560 
# 
# 
# High freq. dielectric constant tensor:
#      x y z
#    x 1.768220 0.000000 0.000000 
#    y 0.000000 1.756400 0.000000 
#    z 0.000000 0.000000 1.776050 
# 
# From -- ./inp_files/34330.got.cif
#   From: 2010.03.12/outbox.cif.g09.slc.cpg/sg51_18_cif.got.tgz:34330.got - 2010.04.16 13:43:02.
