data_PCOD8214800
_publ_section_title
;
Structure prediction by ZEFSAII (Michael W. Deem and Ramdas Pophale) SiO2 
 PCOD8214800
Probable space group: P M M A
;
_chemical_formula_sum "Si O2"
_cell_formula_units_Z 56
_cell_length_a 9.188506
_cell_length_b 20.163345
_cell_length_c 19.157265
_cell_angle_alpha 90.000000
_cell_angle_beta 90.000000
_cell_angle_gamma 90.000000
_cell_volume 3549.285960
_symmetry_space_group_name_H-M "P M M A"
_symmetry_group_IT_number 51
_symmetry_cell_setting 'orthorhombic'
loop_
_space_group_symop_operation_xyz
x,y,z
1/2-x,-y,z
1/2+x,-y,-z
-x,y,-z
-x,-y,-z
1/2+x,y,-z
1/2-x,y,z
x,-y,z
loop_
_atom_site_type_symbol
_atom_site_label
_atom_site_fract_x
_atom_site_fract_y
_atom_site_fract_z
Si Si1 0.578786 0.812744 0.310327
Si Si2 0.089788 0.578728 0.935877
Si Si3 0.584923 0.241263 0.570059
Si Si4 0.421655 0.423707 0.781161
Si Si5 0.081664 0.075600 0.797423
Si Si6 0.913897 0.921030 0.933466
Si Si7 0.085070 0.687727 0.295633
O O1 0.750000 0.800449 0.319706
O O2 0.500591 0.816634 0.386616
O O3 0.545277 0.880759 0.270238
O O4 0.508147 0.750902 0.266940
O O5 0.250000 0.609330 0.942190
O O6 0.097135 0.500000 0.942998
O O7 0.025349 0.596281 0.859490
O O8 0.000000 0.610147 0.000000
O O9 0.500000 0.258684 0.500000
O O10 0.750000 0.218139 0.553578
O O11 0.585958 0.307028 0.619414
O O12 0.250000 0.411237 0.773727
O O13 0.459210 0.500000 0.765611
O O14 0.509636 0.380537 0.725773
O O15 0.250000 0.081304 0.818574
O O16 0.990368 0.103250 0.862613
O O17 0.039452 0.000000 0.779032
O O18 0.750000 0.893404 0.935159
O O19 0.915846 0.000000 0.936304
O O20 0.000000 0.891872 0.000000
O O21 0.250000 0.690693 0.266445
#
# Coordination Sequence:
#
# PCOD8214800 Si02
#       7
#     8   8   8   8   8   8   8
#     4   9  17  30  49  70  94 124 151 185 228 271
#     4   8  14  24  38  59  86 116 151 188 224 264
#     4   9  18  31  50  74  95 117 151 189 222 264
#     4   9  17  29  46  68  94 123 155 191 232 277
#     4   9  17  29  46  69  95 122 154 191 233 279
#     4   9  16  25  39  60  87 120 156 194 233 272
#     4   9  19  31  46  70  95 120 152 190 225 269
#
# _framework density 15.777820999999999
#
# number of rings (size 3 to 8) (size 9 to 14) (size 15 to 20)
#    0.857    2.286    0.000    2.143    0.000    3.714 
#    0.000    1.429    0.000    1.714    0.000    4.000 
#    0.000    0.000    0.000    0.000    0.000    0.000 
#
# Total GULP energy -693821.243346 kJ/mol
# GULP energy per Si atom -12389.665060 kJ/mol
# Density = 1.574191 g / cm^3
# Si number density = 15.777821 Si / 1000 Ang^3
#
#
#
# Elastic Constant Matrix: (Units=GPa)
#
#
# Indices 1 2 3 4 5 6 
#
# 1 108.7122 40.8668 59.3616 0.0000 0.0000 0.0000
# 2 40.8668 56.4203 39.6807 0.0000 0.0000 0.0000
# 3 59.3616 39.6807 100.4505 0.0000 0.0000 0.0000
# 4 0.0000 0.0000 0.0000 17.7694 0.0000 0.0000
# 5 0.0000 0.0000 0.0000 0.0000 32.3191 0.0000
# 6 0.0000 0.0000 0.0000 0.0000 0.0000 18.6711
#
#
#
# Elastic Compliance Matrix: (Units=1/GPa)
#
#
# Indices 1 2 3 4 5 6 
#
# 1 0.015109 -0.006459 -0.006377 0.000000 0.000000 0.000000
# 2 -0.006459 0.027304 -0.006969 0.000000 0.000000 0.000000
# 3 -0.006377 -0.006969 0.016477 0.000000 0.000000 0.000000
# 4 0.000000 0.000000 0.000000 0.056277 0.000000 0.000000
# 5 0.000000 0.000000 0.000000 0.000000 0.030941 0.000000
# 6 0.000000 0.000000 0.000000 0.000000 0.000000 0.053559
#
#
# Mechanical properties :
#
#
# Convention : Reuss Voigt Hill
#
# Bulk Modulus (GPa) = 51.86850 60.60012 56.23431
# Shear Modulus (GPa) = 20.34988 22.13018 21.24003
#
# Velocity S-wave (km/s) = 3.59524 3.74921 3.67303
# Velocity P-wave (km/s) = 7.08379 7.56531 7.32850
#
# Compressibility (1/GPa) = 0.01927953
#
# Stress axis : x y z
#
# Youngs Moduli (GPa) = 66.18683 36.62529 60.69163
#
# Poissons Ratio (x) = 0.23655 0.38705
# Poissons Ratio (y) = 0.42747 0.42296
# Poissons Ratio (z) = 0.42209 0.25524
#
# Static dielectric constant tensor:
#      x y z
#    x 3.162970 0.000000 0.000000 
#    y 0.000000 2.593430 0.000000 
#    z 0.000000 0.000000 2.932060 
# 
# 
# High freq. dielectric constant tensor:
#      x y z
#    x 1.619330 0.000000 0.000000 
#    y 0.000000 1.557420 0.000000 
#    z 0.000000 0.000000 1.596880 
# 
# From -- ./inp_files/32252.got.cif
#   From: 2010.03.12/outbox.cif.g09.slc.cpg/sg51_17_cif.got.tgz:32252.got - 2010.04.16 13:43:02.
