data_PCOD8214864
_publ_section_title
;
Structure prediction by ZEFSAII (Michael W. Deem and Ramdas Pophale) SiO2 
 PCOD8214864
Probable space group: P M M A
;
_chemical_formula_sum "Si O2"
_cell_formula_units_Z 48
_cell_length_a 9.107887
_cell_length_b 30.453116
_cell_length_c 10.173253
_cell_angle_alpha 90.000000
_cell_angle_beta 90.000000
_cell_angle_gamma 90.000000
_cell_volume 2821.689459
_symmetry_space_group_name_H-M "P M M A"
_symmetry_group_IT_number 51
_symmetry_cell_setting 'orthorhombic'
loop_
_space_group_symop_operation_xyz
x,y,z
1/2-x,-y,z
1/2+x,-y,-z
-x,y,-z
-x,-y,-z
1/2+x,y,-z
1/2-x,y,z
x,-y,z
loop_
_atom_site_type_symbol
_atom_site_label
_atom_site_fract_x
_atom_site_fract_y
_atom_site_fract_z
Si Si1 0.079002 0.871446 0.639347
Si Si2 0.922299 0.288770 0.132934
Si Si3 0.077963 0.449768 0.632198
Si Si4 0.421923 0.389434 0.868106
Si Si5 0.079456 0.774178 0.638151
Si Si6 0.578394 0.047783 0.640527
O O1 0.250000 0.882498 0.624800
O O2 0.054928 0.823009 0.700383
O O3 0.999384 0.911576 0.719999
O O4 0.000000 0.869738 0.500000
O O5 0.750000 0.281847 0.113356
O O6 0.962610 0.339149 0.163850
O O7 0.981845 0.260050 0.254727
O O8 0.000000 0.272688 0.000000
O O9 0.250000 0.443589 0.611311
O O10 0.036867 0.500000 0.665156
O O11 0.019118 0.419462 0.749844
O O12 0.000000 0.433724 0.500000
O O13 0.250000 0.395792 0.888969
O O14 0.500000 0.405707 0.000000
O O15 0.250000 0.765970 0.610011
O O16 0.000000 0.766763 0.500000
O O17 0.500000 0.045572 0.500000
O O18 0.750000 0.057925 0.623218
O O19 0.556149 0.000000 0.710637
#
# Coordination Sequence:
#
# PCOD8214864 Si02
#       6
#     8   8   8   8   8   8
#     4   9  15  23  35  51  74 104 135 169 209 251
#     4   9  18  33  49  66  90 118 149 185 224 266
#     4   9  18  32  48  68  95 124 153 186 224 265
#     4   9  18  32  49  68  91 119 150 186 226 266
#     4   9  18  30  44  64  89 115 145 182 221 263
#     4   9  15  21  30  46  70 101 135 169 205 247
#
# _framework density 17.011085999999999
#
# number of rings (size 3 to 8) (size 9 to 14) (size 15 to 20)
#    0.000    3.000    0.000    2.000    0.000    4.000 
#    0.000    0.000    0.000    0.000    0.000    0.000 
#    0.000    0.667    0.000    1.500    0.000    8.500 
#
# Total GULP energy -594773.953689 kJ/mol
# GULP energy per Si atom -12391.124035 kJ/mol
# Density = 1.697237 g / cm^3
# Si number density = 17.011086 Si / 1000 Ang^3
#
#
#
# Elastic Constant Matrix: (Units=GPa)
#
#
# Indices 1 2 3 4 5 6 
#
# 1 65.1693 45.2099 40.6529 0.0000 0.0000 0.0000
# 2 45.2099 119.7489 80.7632 0.0000 0.0000 0.0000
# 3 40.6529 80.7632 105.5096 0.0000 0.0000 0.0000
# 4 0.0000 0.0000 0.0000 6.0749 0.0000 0.0000
# 5 0.0000 0.0000 0.0000 0.0000 23.1163 0.0000
# 6 0.0000 0.0000 0.0000 0.0000 0.0000 23.2379
#
#
#
# Elastic Compliance Matrix: (Units=1/GPa)
#
#
# Indices 1 2 3 4 5 6 
#
# 1 0.021702 -0.005279 -0.004321 0.000000 0.000000 0.000000
# 2 -0.005279 0.018547 -0.012163 0.000000 0.000000 0.000000
# 3 -0.004321 -0.012163 0.020453 0.000000 0.000000 0.000000
# 4 0.000000 0.000000 0.000000 0.164611 0.000000 0.000000
# 5 0.000000 0.000000 0.000000 0.000000 0.043259 0.000000
# 6 0.000000 0.000000 0.000000 0.000000 0.000000 0.043033
#
#
# Mechanical properties :
#
#
# Convention : Reuss Voigt Hill
#
# Bulk Modulus (GPa) = 58.22015 69.29776 63.75896
# Shear Modulus (GPa) = 13.85590 18.73928 16.29759
#
# Velocity S-wave (km/s) = 2.85708 3.32263 3.09861
# Velocity P-wave (km/s) = 6.72183 7.45285 7.09676
#
# Compressibility (1/GPa) = 0.01717618
#
# Stress axis : x y z
#
# Youngs Moduli (GPa) = 46.07768 53.91687 48.89311
#
# Poissons Ratio (x) = 0.28465 0.21126
# Poissons Ratio (y) = 0.24326 0.59468
# Poissons Ratio (z) = 0.19909 0.65578
#
# Static dielectric constant tensor:
#      x y z
#    x 3.171140 0.000000 0.000000 
#    y 0.000000 4.125520 0.000000 
#    z 0.000000 0.000000 2.848270 
# 
# 
# High freq. dielectric constant tensor:
#      x y z
#    x 1.659100 0.000000 0.000000 
#    y 0.000000 1.676770 0.000000 
#    z 0.000000 0.000000 1.603050 
# 
# From -- ./inp_files/7053.got.cif
#   From: 2010.03.12/outbox.cif.g09.slc.cpg/sg51_4_cif.got.tgz:7053.got - 2010.04.16 13:43:02.
