data_PCOD8214704
_publ_section_title
;
Structure prediction by ZEFSAII (Michael W. Deem and Ramdas Pophale) SiO2 
 PCOD8214704
Probable space group: P M M A
;
_chemical_formula_sum "Si O2"
_cell_formula_units_Z 40
_cell_length_a 9.572042
_cell_length_b 9.462033
_cell_length_c 25.810915
_cell_angle_alpha 90.000000
_cell_angle_beta 90.000000
_cell_angle_gamma 90.000000
_cell_volume 2337.719796
_symmetry_space_group_name_H-M "P M M A"
_symmetry_group_IT_number 51
_symmetry_cell_setting 'orthorhombic'
loop_
_space_group_symop_operation_xyz
x,y,z
1/2-x,-y,z
1/2+x,-y,-z
-x,y,-z
-x,-y,-z
1/2+x,y,-z
1/2-x,y,z
x,-y,z
loop_
_atom_site_type_symbol
_atom_site_label
_atom_site_fract_x
_atom_site_fract_y
_atom_site_fract_z
Si Si1 0.092714 0.168087 0.160159
Si Si2 0.588899 0.164871 0.649419
Si Si3 0.093869 0.831891 0.045547
Si Si4 0.411426 0.663415 0.451118
Si Si5 0.907898 0.831692 0.253531
O O1 0.250000 0.224289 0.170961
O O2 0.041866 0.215840 0.102749
O O3 0.985743 0.230019 0.202652
O O4 0.095007 0.000000 0.163559
O O5 0.750000 0.197110 0.663545
O O6 0.540673 0.247773 0.598494
O O7 0.492667 0.219957 0.696205
O O8 0.565850 0.000000 0.638775
O O9 0.250000 0.776011 0.036538
O O10 0.090256 0.000000 0.042304
O O11 0.000000 0.764484 0.000000
O O12 0.500000 0.716915 0.500000
O O13 0.250000 0.690473 0.464132
O O14 0.441962 0.500000 0.439106
O O15 0.750000 0.772006 0.255358
O O16 0.906488 0.000000 0.251506
#
# Coordination Sequence:
#
# PCOD8214704 Si02
#       5
#     8   8   8   8   8
#     4   8  13  21  31  42  60  89 122 155 195 242
#     4   9  17  29  44  61  82 108 135 163 198 239
#     4   8  13  19  26  37  54  79 114 155 195 233
#     4   9  18  32  48  65  85 109 136 164 195 234
#     4   9  16  24  35  53  74  95 123 161 201 237
#
# _framework density 17.110690999999999
#
# number of rings (size 3 to 8) (size 9 to 14) (size 15 to 20)
#    0.000    3.400    0.000    1.800    0.000    4.400 
#    0.000    4.000    0.000    0.000    0.000    0.000 
#    0.000    0.000    0.000    0.000    0.000    1.000 
#
# Total GULP energy -495787.458317 kJ/mol
# GULP energy per Si atom -12394.686458 kJ/mol
# Density = 1.707175 g / cm^3
# Si number density = 17.110691 Si / 1000 Ang^3
#
#
#
# Elastic Constant Matrix: (Units=GPa)
#
#
# Indices 1 2 3 4 5 6 
#
# 1 114.8635 18.4474 106.5825 0.0000 0.0000 0.0000
# 2 18.4474 14.5155 29.8706 0.0000 0.0000 0.0000
# 3 106.5825 29.8706 193.3849 0.0000 0.0000 0.0000
# 4 0.0000 0.0000 0.0000 -0.2628 0.0000 0.0000
# 5 0.0000 0.0000 0.0000 0.0000 39.9825 0.0000
# 6 0.0000 0.0000 0.0000 0.0000 0.0000 8.5981
#
#
#
# Elastic Compliance Matrix: (Units=1/GPa)
#
#
# Indices 1 2 3 4 5 6 
#
# 1 0.017946 -0.003597 -0.009335 0.000000 0.000000 0.000000
# 2 -0.003597 0.101715 -0.013729 0.000000 0.000000 0.000000
# 3 -0.009335 -0.013729 0.012437 0.000000 0.000000 0.000000
# 4 0.000000 0.000000 0.000000 -3.805101 0.000000 0.000000
# 5 0.000000 0.000000 0.000000 0.000000 0.025011 0.000000
# 6 0.000000 0.000000 0.000000 0.000000 0.000000 0.116305
#
#
# Mechanical properties :
#
#
# Convention : Reuss Voigt Hill
#
# Bulk Modulus (GPa) = 12.69423 70.28499 41.48961
# Shear Modulus (GPa) = -1.44839 20.85444 9.70302
#
# Velocity S-wave (km/s) = -0.92104 3.49491 2.38391
# Velocity P-wave (km/s) = 2.51076 7.57969 5.64604
#
# Compressibility (1/GPa) = 0.07877593
#
# Stress axis : x y z
#
# Youngs Moduli (GPa) = 55.72364 9.83142 80.40809
#
# Poissons Ratio (x) = 0.03536 0.75062
# Poissons Ratio (y) = 0.20042 1.10390
# Poissons Ratio (z) = 0.52018 0.13497
#
# Static dielectric constant tensor:
#      x y z
#    x 3.382510 0.000000 0.000000 
#    y 0.000000 2.532740 0.000000 
#    z 0.000000 0.000000 3.505620 
# 
# 
# High freq. dielectric constant tensor:
#      x y z
#    x 1.661370 0.000000 0.000000 
#    y 0.000000 1.582720 0.000000 
#    z 0.000000 0.000000 1.676050 
# 
# From -- ./inp_files/32786.got.cif
#   From: 2010.03.12/outbox.cif.g09.slc.cpg/sg51_17_cif.got.tgz:32786.got - 2010.04.16 13:43:02.
