data_PCOD8214999
_publ_section_title
;
Structure prediction by ZEFSAII (Michael W. Deem and Ramdas Pophale) SiO2 
 PCOD8214999
Probable space group: P N N A
;
_chemical_formula_sum "Si O2"
_cell_formula_units_Z 64
_cell_length_a 10.434472
_cell_length_b 13.907204
_cell_length_c 27.388215
_cell_angle_alpha 90.000000
_cell_angle_beta 90.000000
_cell_angle_gamma 90.000000
_cell_volume 3974.422490
_symmetry_space_group_name_H-M "P N N A"
_symmetry_group_IT_number 52
_symmetry_cell_setting 'orthorhombic'
loop_
_space_group_symop_operation_xyz
x,y,z
1/2-x,-y,z
x,1/2-y,1/2-z
1/2-x,1/2+y,1/2-z
-x,-y,-z
1/2+x,y,-z
-x,1/2+y,1/2+z
1/2+x,1/2-y,1/2+z
loop_
_atom_site_type_symbol
_atom_site_label
_atom_site_fract_x
_atom_site_fract_y
_atom_site_fract_z
Si Si1 0.245448 0.603943 0.325827
Si Si2 0.606455 0.478113 0.220966
Si Si3 0.377816 0.555332 0.942628
Si Si4 0.017616 0.324613 0.709474
Si Si5 0.519775 0.336566 0.141880
Si Si6 0.131161 0.432256 0.053886
Si Si7 0.411591 0.856640 0.265452
Si Si8 0.719680 0.197149 0.635756
O O1 0.250000 0.500000 0.352423
O O2 0.318080 0.597634 0.274403
O O3 0.303179 0.687735 0.360145
O O4 0.098296 0.621513 0.315118
O O5 0.750000 0.500000 0.205041
O O6 0.610950 0.404740 0.267404
O O7 0.532632 0.429921 0.176027
O O8 0.537848 0.578253 0.232712
O O9 0.250000 0.500000 0.926465
O O10 0.401548 0.646904 0.907942
O O11 0.496872 0.483508 0.936042
O O12 0.362646 0.597136 0.997123
O O13 0.963294 0.250000 0.750000
O O14 0.083283 0.257719 0.667725
O O15 0.370124 0.323337 0.130882
O O16 0.250000 0.500000 0.067949
O O17 0.143740 0.337985 0.087673
O O18 0.455508 0.750000 0.250000
O O19 0.336369 0.856128 0.316744
#
# Coordination Sequence:
#
# PCOD8214999 Si02
#       8
#     8   8   8   8   8   8   8   8
#     4  10  17  30  51  73  96 119 161 211 248 277
#     4  11  21  31  45  66  99 139 166 195 232 287
#     4  10  20  32  50  74 103 131 159 198 246 299
#     4   9  18  31  48  69  94 127 165 198 238 290
#     4  10  19  32  50  72  94 127 169 196 239 294
#     4  10  19  33  50  74 104 128 160 199 248 300
#     4  10  20  30  45  71 100 126 160 203 244 279
#     4  10  20  31  50  76  95 128 164 200 250 297
#
# _framework density 16.102969000000002
#
# number of rings (size 3 to 8) (size 9 to 14) (size 15 to 20)
#    0.000    2.000    2.500    3.750    0.000    1.500 
#    0.000    1.250    0.000    0.000    0.000    4.375 
#    0.000    0.000    0.000    0.000    0.000    0.000 
#
# Total GULP energy -793399.403307 kJ/mol
# GULP energy per Si atom -12396.865677 kJ/mol
# Density = 1.606632 g / cm^3
# Si number density = 16.102969 Si / 1000 Ang^3
#
#
#
# Elastic Constant Matrix: (Units=GPa)
#
#
# Indices 1 2 3 4 5 6 
#
# 1 72.6578 31.8366 26.1142 0.0000 0.0000 0.0000
# 2 31.8366 106.3815 49.0796 0.0000 0.0000 0.0000
# 3 26.1142 49.0796 88.8307 0.0000 0.0000 0.0000
# 4 0.0000 0.0000 0.0000 26.9353 0.0000 0.0000
# 5 0.0000 0.0000 0.0000 0.0000 21.4510 0.0000
# 6 0.0000 0.0000 0.0000 0.0000 0.0000 20.1059
#
#
#
# Elastic Compliance Matrix: (Units=1/GPa)
#
#
# Indices 1 2 3 4 5 6 
#
# 1 0.016351 -0.003591 -0.002823 0.000000 0.000000 0.000000
# 2 -0.003591 0.013405 -0.006350 0.000000 0.000000 0.000000
# 3 -0.002823 -0.006350 0.015596 0.000000 0.000000 0.000000
# 4 0.000000 0.000000 0.000000 0.037126 0.000000 0.000000
# 5 0.000000 0.000000 0.000000 0.000000 0.046618 0.000000
# 6 0.000000 0.000000 0.000000 0.000000 0.000000 0.049737
#
#
# Mechanical properties :
#
#
# Convention : Reuss Voigt Hill
#
# Bulk Modulus (GPa) = 50.44629 53.54787 51.99708
# Shear Modulus (GPa) = 23.70022 24.42109 24.06066
#
# Velocity S-wave (km/s) = 3.84056 3.89853 3.86965
# Velocity P-wave (km/s) = 7.14576 7.32054 7.23368
#
# Compressibility (1/GPa) = 0.01982306
#
# Stress axis : x y z
#
# Youngs Moduli (GPa) = 61.15754 74.60101 64.11944
#
# Poissons Ratio (x) = 0.26790 0.18100
# Poissons Ratio (y) = 0.21962 0.40719
# Poissons Ratio (z) = 0.17263 0.47375
#
# Static dielectric constant tensor:
#      x y z
#    x 2.918460 0.000000 0.000000 
#    y 0.000000 3.284440 0.000000 
#    z 0.000000 0.000000 3.091270 
# 
# 
# High freq. dielectric constant tensor:
#      x y z
#    x 1.610640 0.000000 0.000000 
#    y 0.000000 1.613080 0.000000 
#    z 0.000000 0.000000 1.603190 
# 
# From -- ./inp_files/44645.got.cif
#   From: 2010.06.25/outbox.cif.g09.slc.cpg/sg52_23_cif.got.tgz:44645.got - 2010.06.26 19:32:48.
