data_PCOD8214077
_publ_section_title
;
Structure prediction by ZEFSAII (Michael W. Deem and Ramdas Pophale) SiO2 
 PCOD8214077
Probable space group: P M M A
;
_chemical_formula_sum "Si O2"
_cell_formula_units_Z 48
_cell_length_a 10.098988
_cell_length_b 30.549891
_cell_length_c 7.614123
_cell_angle_alpha 90.000000
_cell_angle_beta 90.000000
_cell_angle_gamma 90.000000
_cell_volume 2349.131938
_symmetry_space_group_name_H-M "P M M A"
_symmetry_group_IT_number 51
_symmetry_cell_setting 'orthorhombic'
loop_
_space_group_symop_operation_xyz
x,y,z
1/2-x,-y,z
1/2+x,-y,-z
-x,y,-z
-x,-y,-z
1/2+x,y,-z
1/2-x,y,z
x,-y,z
loop_
_atom_site_type_symbol
_atom_site_label
_atom_site_fract_x
_atom_site_fract_y
_atom_site_fract_z
Si Si1 0.250000 0.658540 0.991235
Si Si2 0.485696 0.779006 0.302941
Si Si3 0.597255 0.551892 0.655180
Si Si4 0.598190 0.135397 0.849162
Si Si5 0.250000 0.721452 0.299938
Si Si6 0.500000 0.599679 0.000000
Si Si7 0.400063 0.951526 0.342180
Si Si8 0.750000 0.737206 0.278775
O O1 0.250000 0.674889 0.197120
O O2 0.122247 0.630005 0.949385
O O3 0.250000 0.696180 0.847075
O O4 0.500000 0.764384 0.500000
O O5 0.436233 0.829545 0.301135
O O6 0.375645 0.747350 0.220707
O O7 0.628216 0.768574 0.220696
O O8 0.500000 0.568908 0.500000
O O9 0.750000 0.567796 0.624735
O O10 0.593548 0.500000 0.664767
O O11 0.539929 0.569536 0.837046
O O12 0.750000 0.138611 0.909313
O O13 0.564006 0.085633 0.797089
O O14 0.500000 0.150228 0.000000
O O15 0.250000 0.720422 0.515143
O O16 0.500000 0.946285 0.500000
O O17 0.250000 0.944515 0.412143
O O18 0.414773 0.000000 0.256421
#
# Coordination Sequence:
#
# PCOD8214077 Si02
#       8
#     4   8   8   8   4   4   8   4
#     4  12  26  40  65  92 130 178 217 268 332 390
#     4  10  21  39  61  85 114 152 199 261 315 368
#     4  10  23  44  72 104 139 182 228 278 332 387
#     4  11  24  37  55  87 118 152 192 243 302 362
#     4  10  22  42  60  85 125 164 212 269 319 382
#     4  12  25  44  64 102 140 180 222 276 335 392
#     4   9  19  38  61  84 115 152 189 233 289 360
#     4  10  24  40  64  91 115 166 218 265 329 386
#
# _framework density 20.433078999999999
#
# number of rings (size 3 to 8) (size 9 to 14) (size 15 to 20)
#    0.000    1.667    1.667    1.750    4.667    2.333 
#    0.000    0.000    0.000    0.000    0.000    0.000 
#    0.000    0.000    0.000    0.000    0.000    0.000 
#
# Total GULP energy -594843.261225 kJ/mol
# GULP energy per Si atom -12392.567942 kJ/mol
# Density = 2.038657 g / cm^3
# Si number density = 20.433079 Si / 1000 Ang^3
#
#
#
# Elastic Constant Matrix: (Units=GPa)
#
#
# Indices 1 2 3 4 5 6 
#
# 1 158.4922 41.4862 44.2392 0.0000 0.0000 0.0000
# 2 41.4862 55.2907 30.1405 0.0000 0.0000 0.0000
# 3 44.2392 30.1405 80.0714 0.0000 0.0000 0.0000
# 4 0.0000 0.0000 0.0000 25.6199 0.0000 0.0000
# 5 0.0000 0.0000 0.0000 0.0000 24.1892 0.0000
# 6 0.0000 0.0000 0.0000 0.0000 0.0000 35.0603
#
#
#
# Elastic Compliance Matrix: (Units=1/GPa)
#
#
# Indices 1 2 3 4 5 6 
#
# 1 0.008332 -0.004709 -0.002831 0.000000 0.000000 0.000000
# 2 -0.004709 0.025416 -0.006966 0.000000 0.000000 0.000000
# 3 -0.002831 -0.006966 0.016675 0.000000 0.000000 0.000000
# 4 0.000000 0.000000 0.000000 0.039032 0.000000 0.000000
# 5 0.000000 0.000000 0.000000 0.000000 0.041341 0.000000
# 6 0.000000 0.000000 0.000000 0.000000 0.000000 0.028522
#
#
# Mechanical properties :
#
#
# Convention : Reuss Voigt Hill
#
# Bulk Modulus (GPa) = 46.70105 58.39845 52.54975
# Shear Modulus (GPa) = 25.57971 28.83978 27.20974
#
# Velocity S-wave (km/s) = 3.54203 3.76097 3.65314
# Velocity P-wave (km/s) = 6.29549 6.89219 6.60058
#
# Compressibility (1/GPa) = 0.02141279
#
# Stress axis : x y z
#
# Youngs Moduli (GPa) = 120.01653 39.34455 59.96966
#
# Poissons Ratio (x) = 0.18526 0.16978
# Poissons Ratio (y) = 0.56511 0.41774
# Poissons Ratio (z) = 0.33978 0.27407
#
# Static dielectric constant tensor:
#      x y z
#    x 4.795650 0.000000 0.000000 
#    y 0.000000 3.727800 0.000000 
#    z 0.000000 0.000000 3.508020 
# 
# 
# High freq. dielectric constant tensor:
#      x y z
#    x 1.824260 0.000000 0.000000 
#    y 0.000000 1.804420 0.000000 
#    z 0.000000 0.000000 1.779940 
# 
# From -- ./inp_files/6310.got.cif
#   From: 2010.03.12/outbox.cif.g09.slc.cpg/sg51_4_cif.got.tgz:6310.got - 2010.04.16 13:43:02.
