data_PCOD8214215
_publ_section_title
;
Structure prediction by ZEFSAII (Michael W. Deem and Ramdas Pophale) SiO2 
 PCOD8214215
Probable space group: P M M A
;
_chemical_formula_sum "Si O2"
_cell_formula_units_Z 48
_cell_length_a 7.605454
_cell_length_b 9.729911
_cell_length_c 34.613105
_cell_angle_alpha 90.000000
_cell_angle_beta 90.000000
_cell_angle_gamma 90.000000
_cell_volume 2561.383288
_symmetry_space_group_name_H-M "P M M A"
_symmetry_group_IT_number 51
_symmetry_cell_setting 'orthorhombic'
loop_
_space_group_symop_operation_xyz
x,y,z
1/2-x,-y,z
1/2+x,-y,-z
-x,y,-z
-x,-y,-z
1/2+x,y,-z
1/2-x,y,z
x,-y,z
loop_
_atom_site_type_symbol
_atom_site_label
_atom_site_fract_x
_atom_site_fract_y
_atom_site_fract_z
Si Si1 0.250000 0.841365 0.753245
Si Si2 0.958455 0.343351 0.623264
Si Si3 0.544421 0.152734 0.957875
Si Si4 0.044821 0.347574 0.459910
Si Si5 0.750000 0.341177 0.171410
Si Si6 0.547030 0.158754 0.692861
Si Si7 0.046769 0.658580 0.111088
O O1 0.250000 0.749665 0.790833
O O2 0.426584 0.806238 0.729511
O O3 0.250000 0.000000 0.765744
O O4 0.750000 0.338524 0.625023
O O5 0.024499 0.500000 0.629392
O O6 0.025392 0.285782 0.580999
O O7 0.030798 0.246239 0.657068
O O8 0.750000 0.142135 0.952610
O O9 0.471773 0.253383 0.924841
O O10 0.459548 0.000000 0.953640
O O11 0.500000 0.214410 0.000000
O O12 0.250000 0.358145 0.455319
O O13 0.961397 0.500000 0.463618
O O14 0.000000 0.264984 0.500000
O O15 0.750000 0.500000 0.183684
O O16 0.573623 0.305337 0.147680
O O17 0.750000 0.195656 0.702847
O O18 0.528614 0.000000 0.681088
O O19 0.250000 0.693134 0.121283
O O20 0.025414 0.500000 0.099283
#
# Coordination Sequence:
#
# PCOD8214215 Si02
#       7
#     4   8   8   8   4   8   8
#     4  10  22  38  54  78 104 126 162 206 248 302
#     4   8  14  26  45  68  93 123 159 198 240 287
#     4   9  18  31  48  74 105 136 173 216 256 293
#     4   8  13  22  36  56  86 120 153 191 234 279
#     4  10  22  38  56  78 104 134 168 208 254 302
#     4   9  18  34  54  73  97 129 160 195 244 298
#     4   9  19  36  54  74 103 137 172 208 248 298
#
# _framework density 18.739875000000001
#
# number of rings (size 3 to 8) (size 9 to 14) (size 15 to 20)
#    0.000    3.167    0.000    1.000    1.167    2.333 
#    1.500    0.000    0.000    0.500    0.000    0.000 
#    0.000    0.000    0.000    0.000    0.000    0.000 
#
# Total GULP energy -594675.847356 kJ/mol
# GULP energy per Si atom -12389.080153 kJ/mol
# Density = 1.869722 g / cm^3
# Si number density = 18.739875 Si / 1000 Ang^3
#
#
#
# Elastic Constant Matrix: (Units=GPa)
#
#
# Indices 1 2 3 4 5 6 
#
# 1 65.0464 30.7787 54.5588 0.0000 0.0000 0.0000
# 2 30.7787 74.7837 91.8540 0.0000 0.0000 0.0000
# 3 54.5588 91.8540 197.6577 0.0000 0.0000 0.0000
# 4 0.0000 0.0000 0.0000 197.7429 0.0000 0.0000
# 5 0.0000 0.0000 0.0000 0.0000 25.2526 0.0000
# 6 0.0000 0.0000 0.0000 0.0000 0.0000 13.3576
#
#
#
# Elastic Compliance Matrix: (Units=1/GPa)
#
#
# Indices 1 2 3 4 5 6 
#
# 1 0.020379 -0.003444 -0.004025 0.000000 0.000000 0.000000
# 2 -0.003444 0.031737 -0.013798 0.000000 0.000000 0.000000
# 3 -0.004025 -0.013798 0.012582 0.000000 0.000000 0.000000
# 4 0.000000 0.000000 0.000000 0.005057 0.000000 0.000000
# 5 0.000000 0.000000 0.000000 0.000000 0.039600 0.000000
# 6 0.000000 0.000000 0.000000 0.000000 0.000000 0.074864
#
#
# Mechanical properties :
#
#
# Convention : Reuss Voigt Hill
#
# Bulk Modulus (GPa) = 45.11644 76.87454 60.99549
# Shear Modulus (GPa) = 21.35477 57.95704 39.65590
#
# Velocity S-wave (km/s) = 3.37936 5.56725 4.60513
# Velocity P-wave (km/s) = 6.27329 9.07946 7.80355
#
# Compressibility (1/GPa) = 0.02216487
#
# Stress axis : x y z
#
# Youngs Moduli (GPa) = 49.06998 31.50930 79.47760
#
# Poissons Ratio (x) = 0.10852 0.31987
# Poissons Ratio (y) = 0.16900 1.09661
# Poissons Ratio (z) = 0.19749 0.43476
#
# Static dielectric constant tensor:
#      x y z
#    x 3.443470 0.000000 0.000000 
#    y 0.000000 3.427320 0.000000 
#    z 0.000000 0.000000 3.687190 
# 
# 
# High freq. dielectric constant tensor:
#      x y z
#    x 1.723720 0.000000 0.000000 
#    y 0.000000 1.693990 0.000000 
#    z 0.000000 0.000000 1.731840 
# 
# From -- ./inp_files/37095.got.cif
#   From: 2010.03.12/outbox.cif.g09.slc.cpg/sg51_19_cif.got.tgz:37095.got - 2010.04.16 13:43:02.
