data_PCOD8214737
_publ_section_title
;
Structure prediction by ZEFSAII (Michael W. Deem and Ramdas Pophale) SiO2 
 PCOD8214737
Probable space group: P M M A
;
_chemical_formula_sum "Si O2"
_cell_formula_units_Z 56
_cell_length_a 18.737266
_cell_length_b 9.214280
_cell_length_c 18.255563
_cell_angle_alpha 90.000000
_cell_angle_beta 90.000000
_cell_angle_gamma 90.000000
_cell_volume 3151.830535
_symmetry_space_group_name_H-M "P M M A"
_symmetry_group_IT_number 51
_symmetry_cell_setting 'orthorhombic'
loop_
_space_group_symop_operation_xyz
x,y,z
1/2-x,-y,z
1/2+x,-y,-z
-x,y,-z
-x,-y,-z
1/2+x,y,-z
1/2-x,y,z
x,-y,z
loop_
_atom_site_type_symbol
_atom_site_label
_atom_site_fract_x
_atom_site_fract_y
_atom_site_fract_z
Si Si1 0.670287 0.673037 0.361391
Si Si2 0.167005 0.331074 0.362627
Si Si3 0.334932 0.836082 0.219195
Si Si4 0.419792 0.672808 0.503439
Si Si5 0.335143 0.163310 0.937569
Si Si6 0.335126 0.664184 0.078580
Si Si7 0.835007 0.661815 0.200520
O O1 0.750000 0.734221 0.375699
O O2 0.672903 0.500000 0.364040
O O3 0.617904 0.735870 0.423626
O O4 0.641818 0.720868 0.280887
O O5 0.250000 0.301630 0.378334
O O6 0.152986 0.500000 0.346930
O O7 0.138606 0.242586 0.292781
O O8 0.123381 0.273940 0.432477
O O9 0.250000 0.835814 0.216671
O O10 0.365156 0.748940 0.149335
O O11 0.364631 0.000000 0.217311
O O12 0.500000 0.734325 0.500000
O O13 0.419720 0.500000 0.506417
O O14 0.250000 0.163949 0.937200
O O15 0.365197 0.232887 0.862472
O O16 0.364543 0.000000 0.944018
O O17 0.364036 0.255768 0.006098
O O18 0.250000 0.663979 0.079243
O O19 0.364459 0.500000 0.079554
O O20 0.750000 0.655689 0.197916
O O21 0.865497 0.500000 0.186746
#
# Coordination Sequence:
#
# PCOD8214737 Si02
#       7
#     8   8   8   8   8   8   8
#     4   8  13  22  37  56  78 106 140 175 210 249
#     4   9  16  26  41  60  82 109 140 172 208 251
#     4   9  16  25  37  54  77 105 138 174 208 242
#     4   9  16  25  39  61  86 108 134 173 216 252
#     4   9  15  21  30  47  74 106 136 166 202 241
#     4   9  15  22  33  50  75 107 139 168 201 243
#     4   8  13  21  33  49  70  99 135 169 199 236
#
# _framework density 17.767453
#
# number of rings (size 3 to 8) (size 9 to 14) (size 15 to 20)
#    0.000    3.286    0.000    2.571    0.000    6.857 
#    0.000    0.000    0.000    1.286    0.000    4.000 
#    0.000    1.143    0.000   13.429    0.000   16.286 
#
# Total GULP energy -694139.727573 kJ/mol
# GULP energy per Si atom -12395.352278 kJ/mol
# Density = 1.772701 g / cm^3
# Si number density = 17.767453 Si / 1000 Ang^3
#
#
#
# Elastic Constant Matrix: (Units=GPa)
#
#
# Indices 1 2 3 4 5 6 
#
# 1 39.2115 19.2345 44.0243 0.0000 0.0000 0.0000
# 2 19.2345 100.5697 78.5707 0.0000 0.0000 0.0000
# 3 44.0243 78.5707 202.8155 0.0000 0.0000 0.0000
# 4 0.0000 0.0000 0.0000 10.2217 0.0000 0.0000
# 5 0.0000 0.0000 0.0000 0.0000 2.0030 0.0000
# 6 0.0000 0.0000 0.0000 0.0000 0.0000 4.2199
#
#
#
# Elastic Compliance Matrix: (Units=1/GPa)
#
#
# Indices 1 2 3 4 5 6 
#
# 1 0.033798 -0.001050 -0.006929 0.000000 0.000000 0.000000
# 2 -0.001050 0.014292 -0.005309 0.000000 0.000000 0.000000
# 3 -0.006929 -0.005309 0.008491 0.000000 0.000000 0.000000
# 4 0.000000 0.000000 0.000000 0.097831 0.000000 0.000000
# 5 0.000000 0.000000 0.000000 0.000000 0.499253 0.000000
# 6 0.000000 0.000000 0.000000 0.000000 0.000000 0.236971
#
#
# Mechanical properties :
#
#
# Convention : Reuss Voigt Hill
#
# Bulk Modulus (GPa) = 33.32886 69.58397 51.45642
# Shear Modulus (GPa) = 5.39250 16.67341 11.03295
#
# Velocity S-wave (km/s) = 1.74403 3.06669 2.49462
# Velocity P-wave (km/s) = 4.78065 7.19640 6.10913
#
# Compressibility (1/GPa) = 0.03000403
#
# Stress axis : x y z
#
# Youngs Moduli (GPa) = 29.58760 69.97127 117.76800
#
# Poissons Ratio (x) = 0.07350 0.81607
# Poissons Ratio (y) = 0.03108 0.62518
# Poissons Ratio (z) = 0.20503 0.37145
#
# Static dielectric constant tensor:
#      x y z
#    x 2.722820 0.000000 0.000000 
#    y 0.000000 3.147950 0.000000 
#    z 0.000000 0.000000 3.665200 
# 
# 
# High freq. dielectric constant tensor:
#      x y z
#    x 1.611810 0.000000 0.000000 
#    y 0.000000 1.660030 0.000000 
#    z 0.000000 0.000000 1.709950 
# 
# From -- ./inp_files/30454.got.cif
#   From: 2010.03.12/outbox.cif.g09.slc.cpg/sg51_16_cif.got.tgz:30454.got - 2010.04.16 13:43:02.
