data_PCOD8214715
_publ_section_title
;
Structure prediction by ZEFSAII (Michael W. Deem and Ramdas Pophale) SiO2 
 PCOD8214715
Probable space group: P M M A
;
_chemical_formula_sum "Si O2"
_cell_formula_units_Z 48
_cell_length_a 9.356148
_cell_length_b 9.383482
_cell_length_c 31.312802
_cell_angle_alpha 90.000000
_cell_angle_beta 90.000000
_cell_angle_gamma 90.000000
_cell_volume 2749.052540
_symmetry_space_group_name_H-M "P M M A"
_symmetry_group_IT_number 51
_symmetry_cell_setting 'orthorhombic'
loop_
_space_group_symop_operation_xyz
x,y,z
1/2-x,-y,z
1/2+x,-y,-z
-x,y,-z
-x,-y,-z
1/2+x,y,-z
1/2-x,y,z
x,-y,z
loop_
_atom_site_type_symbol
_atom_site_label
_atom_site_fract_x
_atom_site_fract_y
_atom_site_fract_z
Si Si1 0.087830 0.169538 0.122232
Si Si2 0.910631 0.669586 0.538918
Si Si3 0.410781 0.669388 0.367597
Si Si4 0.587143 0.830142 0.040983
Si Si5 0.416449 0.335268 0.712499
Si Si6 0.584746 0.833450 0.204510
O O1 0.250000 0.229129 0.120280
O O2 0.995863 0.228775 0.082509
O O3 0.011232 0.222033 0.165376
O O4 0.089902 0.000000 0.120559
O O5 0.750000 0.724737 0.533453
O O6 0.915912 0.500000 0.536308
O O7 0.968837 0.718993 0.585652
O O8 0.000000 0.738027 0.500000
O O9 0.250000 0.725776 0.360944
O O10 0.413300 0.500000 0.366109
O O11 0.507748 0.730192 0.329438
O O12 0.750000 0.771343 0.040226
O O13 0.590666 0.000000 0.041326
O O14 0.500000 0.773857 0.000000
O O15 0.250000 0.313261 0.704972
O O16 0.456322 0.500000 0.719715
O O17 0.469316 0.249158 0.753723
O O18 0.750000 0.798964 0.194097
O O19 0.562285 0.000000 0.212755
#
# Coordination Sequence:
#
# PCOD8214715 Si02
#       6
#     8   8   8   8   8   8
#     4   9  16  25  37  54  76 102 133 167 201 238
#     4   8  13  20  30  46  69  97 127 156 187 227
#     4   8  14  24  36  51  74 103 131 159 195 237
#     4   9  15  22  33  50  74 104 135 165 199 240
#     4   9  17  28  42  60  80 103 134 169 200 233
#     4   9  17  29  43  58  79 107 135 164 201 241
#
# _framework density 17.460560000000001
#
# number of rings (size 3 to 8) (size 9 to 14) (size 15 to 20)
#    0.000    3.333    0.000    2.000    0.000    5.333 
#    0.000    3.333    0.000    0.000    0.000    0.000 
#    0.000    1.333    0.000    3.333    0.000    6.333 
#
# Total GULP energy -594894.522730 kJ/mol
# GULP energy per Si atom -12393.635890 kJ/mol
# Density = 1.742082 g / cm^3
# Si number density = 17.460560 Si / 1000 Ang^3
#
#
#
# Elastic Constant Matrix: (Units=GPa)
#
#
# Indices 1 2 3 4 5 6 
#
# 1 115.4287 14.4107 100.9375 0.0000 0.0000 0.0000
# 2 14.4107 11.1118 24.2927 0.0000 0.0000 0.0000
# 3 100.9375 24.2927 208.4646 0.0000 0.0000 0.0000
# 4 0.0000 0.0000 0.0000 -5.2877 0.0000 0.0000
# 5 0.0000 0.0000 0.0000 0.0000 42.0940 0.0000
# 6 0.0000 0.0000 0.0000 0.0000 0.0000 7.4217
#
#
#
# Elastic Compliance Matrix: (Units=1/GPa)
#
#
# Indices 1 2 3 4 5 6 
#
# 1 0.015219 -0.004867 -0.006802 0.000000 0.000000 0.000000
# 2 -0.004867 0.122315 -0.011897 0.000000 0.000000 0.000000
# 3 -0.006802 -0.011897 0.009477 0.000000 0.000000 0.000000
# 4 0.000000 0.000000 0.000000 -0.189118 0.000000 0.000000
# 5 0.000000 0.000000 0.000000 0.000000 0.023756 0.000000
# 6 0.000000 0.000000 0.000000 0.000000 0.000000 0.134739
#
#
# Mechanical properties :
#
#
# Convention : Reuss Voigt Hill
#
# Bulk Modulus (GPa) = 10.01208 68.25413 39.13311
# Shear Modulus (GPa) = 25.40487 21.86989 23.63738
#
# Velocity S-wave (km/s) = 3.81857 3.54295 3.68334
# Velocity P-wave (km/s) = 5.01881 7.47743 6.36791
#
# Compressibility (1/GPa) = 0.09987931
#
# Stress axis : x y z
#
# Youngs Moduli (GPa) = 65.70837 8.17559 105.52199
#
# Poissons Ratio (x) = 0.03979 0.71773
# Poissons Ratio (y) = 0.31980 1.25540
# Poissons Ratio (z) = 0.44693 0.09727
#
# Static dielectric constant tensor:
#      x y z
#    x 3.400590 0.000000 0.000000 
#    y 0.000000 2.528130 0.000000 
#    z 0.000000 0.000000 3.677070 
# 
# 
# High freq. dielectric constant tensor:
#      x y z
#    x 1.677190 0.000000 0.000000 
#    y 0.000000 1.588300 0.000000 
#    z 0.000000 0.000000 1.695850 
# 
# From -- ./inp_files/37300.got.cif
#   From: 2010.03.12/outbox.cif.g09.slc.cpg/sg51_19_cif.got.tgz:37300.got - 2010.04.16 13:43:02.
