data_PCOD8214762
_publ_section_title
;
Structure prediction by ZEFSAII (Michael W. Deem and Ramdas Pophale) SiO2 
 PCOD8214762
Probable space group: P M M A
;
_chemical_formula_sum "Si O2"
_cell_formula_units_Z 40
_cell_length_a 9.370065
_cell_length_b 9.571607
_cell_length_c 25.837608
_cell_angle_alpha 90.000000
_cell_angle_beta 90.000000
_cell_angle_gamma 90.000000
_cell_volume 2317.286690
_symmetry_space_group_name_H-M "P M M A"
_symmetry_group_IT_number 51
_symmetry_cell_setting 'orthorhombic'
loop_
_space_group_symop_operation_xyz
x,y,z
1/2-x,-y,z
1/2+x,-y,-z
-x,y,-z
-x,-y,-z
1/2+x,y,-z
1/2-x,y,z
x,-y,z
loop_
_atom_site_type_symbol
_atom_site_label
_atom_site_fract_x
_atom_site_fract_y
_atom_site_fract_z
Si Si1 0.919497 0.843528 0.855505
Si Si2 0.083676 0.839256 0.448850
Si Si3 0.919908 0.157223 0.740971
Si Si4 0.583696 0.337886 0.949762
Si Si5 0.579968 0.657898 0.647743
O O1 0.750000 0.838531 0.856001
O O2 0.972987 0.796888 0.798331
O O3 0.979601 0.741145 0.899617
O O4 0.973339 0.000000 0.867486
O O5 0.250000 0.814996 0.459432
O O6 0.026992 0.742048 0.402527
O O7 0.000000 0.794003 0.500000
O O8 0.052598 0.000000 0.433963
O O9 0.750000 0.158738 0.739005
O O10 0.982172 0.264902 0.698717
O O11 0.973542 0.000000 0.728519
O O12 0.750000 0.305877 0.958362
O O13 0.554426 0.500000 0.940132
O O14 0.500000 0.283333 0.000000
O O15 0.750000 0.657607 0.649511
O O16 0.520102 0.500000 0.645987
#
# Coordination Sequence:
#
# PCOD8214762 Si02
#       5
#     8   8   8   8   8
#     4   8  14  24  38  57  80 105 133 165 201 239
#     4   9  17  29  44  61  82 109 139 168 199 237
#     4   8  13  22  36  54  78 106 132 161 201 244
#     4   9  17  28  41  58  81 108 136 165 198 237
#     4   9  16  24  36  57  83 108 134 165 201 240
#
# _framework density 17.261568
#
# number of rings (size 3 to 8) (size 9 to 14) (size 15 to 20)
#    0.000    3.400    0.000    1.800    0.000    4.000 
#    0.000    4.000    0.000    0.000    0.000    1.400 
#    0.000    1.600    0.000    0.000    0.000    0.000 
#
# Total GULP energy -495784.132803 kJ/mol
# GULP energy per Si atom -12394.603320 kJ/mol
# Density = 1.722228 g / cm^3
# Si number density = 17.261568 Si / 1000 Ang^3
#
#
#
# Elastic Constant Matrix: (Units=GPa)
#
#
# Indices 1 2 3 4 5 6 
#
# 1 13.5491 18.1604 27.4162 0.0000 0.0000 0.0000
# 2 18.1604 116.7236 107.4202 0.0000 0.0000 0.0000
# 3 27.4162 107.4202 192.4925 0.0000 0.0000 0.0000
# 4 0.0000 0.0000 0.0000 31.1181 0.0000 0.0000
# 5 0.0000 0.0000 0.0000 0.0000 20.1965 0.0000
# 6 0.0000 0.0000 0.0000 0.0000 0.0000 9.1093
#
#
#
# Elastic Compliance Matrix: (Units=1/GPa)
#
#
# Indices 1 2 3 4 5 6 
#
# 1 0.105262 -0.005304 -0.012032 0.000000 0.000000 0.000000
# 2 -0.005304 0.017880 -0.009222 0.000000 0.000000 0.000000
# 3 -0.012032 -0.009222 0.012055 0.000000 0.000000 0.000000
# 4 0.000000 0.000000 0.000000 0.032136 0.000000 0.000000
# 5 0.000000 0.000000 0.000000 0.000000 0.049514 0.000000
# 6 0.000000 0.000000 0.000000 0.000000 0.000000 0.109778
#
#
# Mechanical properties :
#
#
# Convention : Reuss Voigt Hill
#
# Bulk Modulus (GPa) = 12.18326 69.86207 41.02267
# Shear Modulus (GPa) = 12.28197 23.40266 17.84231
#
# Velocity S-wave (km/s) = 2.67033 3.68607 3.21852
# Velocity P-wave (km/s) = 4.07196 7.66007 6.13423
#
# Compressibility (1/GPa) = 0.08207982
#
# Stress axis : x y z
#
# Youngs Moduli (GPa) = 9.50012 55.92928 82.95130
#
# Poissons Ratio (x) = 0.29664 0.99810
# Poissons Ratio (y) = 0.05039 0.76501
# Poissons Ratio (z) = 0.11431 0.51580
#
# Static dielectric constant tensor:
#      x y z
#    x 2.539600 0.000000 0.000000 
#    y 0.000000 3.374760 0.000000 
#    z 0.000000 0.000000 3.598880 
# 
# 
# High freq. dielectric constant tensor:
#      x y z
#    x 1.591490 0.000000 0.000000 
#    y 0.000000 1.666750 0.000000 
#    z 0.000000 0.000000 1.682960 
# 
# From -- ./inp_files/32794.got.cif
#   From: 2010.03.12/outbox.cif.g09.slc.cpg/sg51_17_cif.got.tgz:32794.got - 2010.04.16 13:43:02.
