data_PCOD8214457
_publ_section_title
;
Structure prediction by ZEFSAII (Michael W. Deem and Ramdas Pophale) SiO2 
 PCOD8214457
Probable space group: P M M A
;
_chemical_formula_sum "Si O2"
_cell_formula_units_Z 64
_cell_length_a 14.736312
_cell_length_b 9.249947
_cell_length_c 25.993299
_cell_angle_alpha 90.000000
_cell_angle_beta 90.000000
_cell_angle_gamma 90.000000
_cell_volume 3543.149315
_symmetry_space_group_name_H-M "P M M A"
_symmetry_group_IT_number 51
_symmetry_cell_setting 'orthorhombic'
loop_
_space_group_symop_operation_xyz
x,y,z
1/2-x,-y,z
1/2+x,-y,-z
-x,y,-z
-x,-y,-z
1/2+x,y,-z
1/2-x,y,z
x,-y,z
loop_
_atom_site_type_symbol
_atom_site_label
_atom_site_fract_x
_atom_site_fract_y
_atom_site_fract_z
Si Si1 0.644814 0.334476 0.759502
Si Si2 0.000001 0.171742 0.695455
Si Si3 0.647655 0.171965 0.499998
Si Si4 0.499997 0.171622 0.420705
Si Si5 0.644971 0.665504 0.877377
Si Si6 0.644959 0.665513 0.122624
Si Si7 0.644802 0.665532 0.240494
Si Si8 0.999999 0.170178 0.940833
O O1 0.750000 0.309644 0.747764
O O2 0.617217 0.500000 0.748529
O O3 0.589829 0.228666 0.722957
O O4 0.622373 0.295675 0.818449
O O5 0.999996 0.231448 0.637172
O O6 0.089843 0.228643 0.722952
O O7 0.999989 0.000000 0.697452
O O8 0.750000 0.237955 0.499996
O O9 0.591379 0.225567 0.449834
O O10 0.591384 0.225564 0.550165
O O11 0.653971 0.000000 0.499997
O O12 0.499999 0.000000 0.420947
O O13 0.750000 0.691462 0.889106
O O14 0.617975 0.500000 0.888287
O O15 0.589890 0.768693 0.914636
O O16 0.750000 0.691753 0.111019
O O17 0.618134 0.500000 0.111605
O O18 0.622143 0.704057 0.181550
O O19 0.589904 0.768734 0.085362
O O20 0.750000 0.690650 0.252110
O O21 0.617377 0.500000 0.251574
O O22 0.999976 0.000000 0.934064
O O23 0.000000 0.217367 0.000000
#
# Coordination Sequence:
#
# PCOD8214457 Si02
#       8
#     8   8   8   8   8   8   8   8
#     4   9  19  36  55  74  99 134 173 207 243 294
#     4  11  21  30  46  77 113 137 157 201 258 304
#     4   8  13  25  44  59  81 126 172 204 240 288
#     4   8  16  27  38  63  98 126 159 201 246 295
#     4   9  19  37  59  78  96 126 172 218 250 283
#     4   9  19  37  59  78  96 126 172 218 250 283
#     4   9  19  36  55  74  99 134 173 207 243 294
#     4  11  24  37  50  75 109 138 162 196 251 312
#
# _framework density 18.063026000000001
#
# number of rings (size 3 to 8) (size 9 to 14) (size 15 to 20)
#    0.000    2.750    0.000    3.750    0.000    7.500 
#    0.000    7.500    0.000    0.000    0.000    7.000 
#    0.000   12.000    0.000    0.000    0.000    0.000 
#
# Total GULP energy -793513.451105 kJ/mol
# GULP energy per Si atom -12398.647674 kJ/mol
# Density = 1.802191 g / cm^3
# Si number density = 18.063026 Si / 1000 Ang^3
#
#
#
# Elastic Constant Matrix: (Units=GPa)
#
#
# Indices 1 2 3 4 5 6 
#
# 1 130.8346 41.7370 80.4362 0.0000 0.0000 0.0000
# 2 41.7370 56.3382 58.8245 0.0000 0.0000 0.0000
# 3 80.4362 58.8245 149.8561 0.0000 0.0000 0.0000
# 4 0.0000 0.0000 0.0000 -7.4795 0.0000 0.0000
# 5 0.0000 0.0000 0.0000 0.0000 -88.2996 0.0000
# 6 0.0000 0.0000 0.0000 0.0000 0.0000 19.5083
#
#
#
# Elastic Compliance Matrix: (Units=1/GPa)
#
#
# Indices 1 2 3 4 5 6 
#
# 1 0.011827 -0.003615 -0.004929 0.000000 0.000000 0.000000
# 2 -0.003615 0.031183 -0.010300 0.000000 0.000000 0.000000
# 3 -0.004929 -0.010300 0.013362 0.000000 0.000000 0.000000
# 4 0.000000 0.000000 0.000000 -0.133700 0.000000 0.000000
# 5 0.000000 0.000000 0.000000 0.000000 -0.011325 0.000000
# 6 0.000000 0.000000 0.000000 0.000000 0.000000 0.051260
#
#
# Mechanical properties :
#
#
# Convention : Reuss Voigt Hill
#
# Bulk Modulus (GPa) = 53.52426 77.66937 65.59681
# Shear Modulus (GPa) = 766.51980 -4.85206 380.83387
#
# Velocity S-wave (km/s) = 20.62231 -1.64074 14.53595
# Velocity P-wave (km/s) = 24.42818 6.28515 17.83590
#
# Compressibility (1/GPa) = 0.01868312
#
# Stress axis : x y z
#
# Youngs Moduli (GPa) = 84.55359 32.06905 74.83937
#
# Poissons Ratio (x) = 0.11593 0.36889
# Poissons Ratio (y) = 0.30567 0.77085
# Poissons Ratio (z) = 0.41677 0.33031
#
# Static dielectric constant tensor:
#      x y z
#    x 3.447330 0.000000 0.000000 
#    y 0.000000 3.016480 0.000000 
#    z 0.000000 0.000000 3.472600 
# 
# 
# High freq. dielectric constant tensor:
#      x y z
#    x 1.714260 0.000000 0.000000 
#    y 0.000000 1.669280 0.000000 
#    z 0.000000 0.000000 1.700020 
# 
# From -- ./inp_files/35620.got.cif
#   From: 2010.03.12/outbox.cif.g09.slc.cpg/sg51_18_cif.got.tgz:35620.got - 2010.04.16 13:43:02.
