data_PCOD8214173
_publ_section_title
;
Structure prediction by ZEFSAII (Michael W. Deem and Ramdas Pophale) SiO2 
 PCOD8214173
Probable space group: P M M A
;
_chemical_formula_sum "Si O2"
_cell_formula_units_Z 56
_cell_length_a 14.585763
_cell_length_b 7.754052
_cell_length_c 23.821366
_cell_angle_alpha 90.000000
_cell_angle_beta 90.000000
_cell_angle_gamma 90.000000
_cell_volume 2694.167070
_symmetry_space_group_name_H-M "P M M A"
_symmetry_group_IT_number 51
_symmetry_cell_setting 'orthorhombic'
loop_
_space_group_symop_operation_xyz
x,y,z
1/2-x,-y,z
1/2+x,-y,-z
-x,y,-z
-x,-y,-z
1/2+x,y,-z
1/2-x,y,z
x,-y,z
loop_
_atom_site_type_symbol
_atom_site_label
_atom_site_fract_x
_atom_site_fract_y
_atom_site_fract_z
Si Si1 0.647389 0.297688 0.856391
Si Si2 0.640266 0.000000 0.651185
Si Si3 0.358151 0.688421 0.738280
Si Si4 0.142040 0.704049 0.614702
Si Si5 0.503304 0.802456 0.061449
Si Si6 0.022175 0.000000 0.564703
Si Si7 0.141697 0.690979 0.267557
Si Si8 0.649782 0.196576 0.144274
O O1 0.750000 0.223572 0.860468
O O2 0.646109 0.500000 0.867124
O O3 0.592192 0.206395 0.905956
O O4 0.604736 0.256854 0.794539
O O5 0.576139 0.000000 0.596514
O O6 0.612223 0.169135 0.686637
O O7 0.750000 0.000000 0.636106
O O8 0.250000 0.675792 0.734736
O O9 0.401341 0.500000 0.747394
O O10 0.389572 0.760764 0.677848
O O11 0.389481 0.799387 0.791880
O O12 0.250000 0.740406 0.604447
O O13 0.121862 0.500000 0.604194
O O14 0.081295 0.826586 0.575466
O O15 0.581036 0.711054 0.100436
O O16 0.530526 0.000000 0.052384
O O17 0.500000 0.711711 0.000000
O O18 0.000000 0.000000 0.500000
O O19 0.250000 0.682538 0.261845
O O20 0.105084 0.500000 0.285258
O O21 0.750000 0.287837 0.141131
O O22 0.659728 0.000000 0.126829
#
# Coordination Sequence:
#
# PCOD8214173 Si02
#       8
#     8   4   8   8   8   4   8   8
#     4   9  19  36  57  80 105 135 176 231 292 345
#     4  10  22  39  60  87 121 161 202 240 294 359
#     4   8  15  30  54  84 112 137 172 221 282 349
#     4   9  20  41  67  93 123 159 200 249 305 362
#     4  10  22  36  49  71 103 142 189 231 267 326
#     4  12  27  41  60  91 127 167 209 254 287 337
#     4   8  16  34  59  86 115 146 187 243 302 358
#     4   9  18  32  50  73 105 141 174 219 279 338
#
# _framework density 20.785644000000001
#
# number of rings (size 3 to 8) (size 9 to 14) (size 15 to 20)
#    0.000    2.857    0.000    1.929    2.000    4.286 
#    0.000    4.286    0.000    3.429    0.000    0.000 
#    0.000    0.000    0.000    0.000    0.000    0.000 
#
# Total GULP energy -693756.473634 kJ/mol
# GULP energy per Si atom -12388.508458 kJ/mol
# Density = 2.073834 g / cm^3
# Si number density = 20.785644 Si / 1000 Ang^3
#
#
#
# Elastic Constant Matrix: (Units=GPa)
#
#
# Indices 1 2 3 4 5 6 
#
# 1 95.3735 34.0941 69.5853 0.0000 0.0000 0.0000
# 2 34.0941 75.5885 54.6286 0.0000 0.0000 0.0000
# 3 69.5853 54.6286 181.4002 0.0000 0.0000 0.0000
# 4 0.0000 0.0000 0.0000 68.8134 0.0000 0.0000
# 5 0.0000 0.0000 0.0000 0.0000 33.5063 0.0000
# 6 0.0000 0.0000 0.0000 0.0000 0.0000 15.2014
#
#
#
# Elastic Compliance Matrix: (Units=1/GPa)
#
#
# Indices 1 2 3 4 5 6 
#
# 1 0.015206 -0.003378 -0.004816 0.000000 0.000000 0.000000
# 2 -0.003378 0.017660 -0.004022 0.000000 0.000000 0.000000
# 3 -0.004816 -0.004022 0.008571 0.000000 0.000000 0.000000
# 4 0.000000 0.000000 0.000000 0.014532 0.000000 0.000000
# 5 0.000000 0.000000 0.000000 0.000000 0.029845 0.000000
# 6 0.000000 0.000000 0.000000 0.000000 0.000000 0.065784
#
#
# Mechanical properties :
#
#
# Convention : Reuss Voigt Hill
#
# Bulk Modulus (GPa) = 58.80655 74.33090 66.56873
# Shear Modulus (GPa) = 27.51778 36.44115 31.97946
#
# Velocity S-wave (km/s) = 3.64247 4.19165 3.92667
# Velocity P-wave (km/s) = 6.78553 7.69837 7.25632
#
# Compressibility (1/GPa) = 0.01700491
#
# Stress axis : x y z
#
# Youngs Moduli (GPa) = 65.76147 56.62372 116.66720
#
# Poissons Ratio (x) = 0.19130 0.56185
# Poissons Ratio (y) = 0.22217 0.46929
# Poissons Ratio (z) = 0.31669 0.22777
#
# Static dielectric constant tensor:
#      x y z
#    x 3.876020 0.000000 0.000000 
#    y 0.000000 3.721760 0.000000 
#    z 0.000000 0.000000 3.775820 
# 
# 
# High freq. dielectric constant tensor:
#      x y z
#    x 1.808820 0.000000 0.000000 
#    y 0.000000 1.800570 0.000000 
#    z 0.000000 0.000000 1.796330 
# 
# From -- ./inp_files/33581.got.cif
#   From: 2010.03.12/outbox.cif.g09.slc.cpg/sg51_17_cif.got.tgz:33581.got - 2010.04.16 13:43:02.
