data_PCOD8214808
_publ_section_title
;
Structure prediction by ZEFSAII (Michael W. Deem and Ramdas Pophale) SiO2 
 PCOD8214808
Probable space group: P M M A
;
_chemical_formula_sum "Si O2"
_cell_formula_units_Z 64
_cell_length_a 14.131706
_cell_length_b 9.438247
_cell_length_c 31.044381
_cell_angle_alpha 90.000000
_cell_angle_beta 90.000000
_cell_angle_gamma 90.000000
_cell_volume 4140.653957
_symmetry_space_group_name_H-M "P M M A"
_symmetry_group_IT_number 51
_symmetry_cell_setting 'orthorhombic'
loop_
_space_group_symop_operation_xyz
x,y,z
1/2-x,-y,z
1/2+x,-y,-z
-x,y,-z
-x,-y,-z
1/2+x,y,-z
1/2-x,y,z
x,-y,z
loop_
_atom_site_type_symbol
_atom_site_label
_atom_site_fract_x
_atom_site_fract_y
_atom_site_fract_z
Si Si1 0.641370 0.332728 0.360264
Si Si2 0.895233 0.341726 0.017432
Si Si3 0.039360 0.167813 0.566575
Si Si4 0.862236 0.343731 0.264128
Si Si5 0.140605 0.835364 0.815244
Si Si6 0.144799 0.167673 0.481150
Si Si7 0.049161 0.833719 0.903688
Si Si8 0.351325 0.159898 0.060295
O O1 0.750000 0.286713 0.368923
O O2 0.630384 0.500000 0.367477
O O3 0.570451 0.248840 0.390851
O O4 0.609617 0.290428 0.311803
O O5 0.853639 0.500000 0.024573
O O6 0.889905 0.254899 0.061948
O O7 0.837500 0.258762 0.981241
O O8 0.000000 0.351348 0.000000
O O9 0.108093 0.217408 0.527885
O O10 0.931135 0.213777 0.555250
O O11 0.046444 0.000000 0.574204
O O12 0.750000 0.350000 0.261956
O O13 0.904453 0.500000 0.255868
O O14 0.901616 0.241178 0.226974
O O15 0.250000 0.796404 0.823458
O O16 0.080727 0.784600 0.856412
O O17 0.127294 0.000000 0.806712
O O18 0.250000 0.231839 0.472101
O O19 0.150110 0.000000 0.481556
O O20 0.937581 0.795705 0.908543
O O21 0.069957 0.000000 0.910706
O O22 0.250000 0.168496 0.085353
O O23 0.370780 0.000000 0.043822
#
# Coordination Sequence:
#
# PCOD8214808 Si02
#       8
#     8   8   8   8   8   8   8   8
#     4   9  17  28  41  59  85 112 134 164 209 251
#     4   9  17  28  41  58  80 104 131 164 198 230
#     4   9  16  25  41  63  81 106 146 179 203 240
#     4   8  15  28  43  58  79 107 133 156 192 245
#     4   9  17  28  42  61  83 104 127 159 198 237
#     4   8  14  25  39  57  85 115 140 172 212 246
#     4   9  17  29  43  60  83 107 131 161 196 236
#     4   9  17  29  44  59  77 106 139 165 193 230
#
# _framework density 15.456496
#
# number of rings (size 3 to 8) (size 9 to 14) (size 15 to 20)
#    0.000    3.250    0.000    2.250    0.000    4.000 
#    0.000    3.750    0.000    1.125    0.000    0.875 
#    0.000    5.000    0.000    0.000    0.000    0.000 
#
# Total GULP energy -793069.256375 kJ/mol
# GULP energy per Si atom -12391.707131 kJ/mol
# Density = 1.542132 g / cm^3
# Si number density = 15.456496 Si / 1000 Ang^3
#
#
#
# Elastic Constant Matrix: (Units=GPa)
#
#
# Indices 1 2 3 4 5 6 
#
# 1 88.2879 26.8368 53.7901 0.0000 0.0000 0.0000
# 2 26.8368 52.4899 52.0192 0.0000 0.0000 0.0000
# 3 53.7901 52.0192 133.1514 0.0000 0.0000 0.0000
# 4 0.0000 0.0000 0.0000 17.5198 0.0000 0.0000
# 5 0.0000 0.0000 0.0000 0.0000 20.6785 0.0000
# 6 0.0000 0.0000 0.0000 0.0000 0.0000 10.1985
#
#
#
# Elastic Compliance Matrix: (Units=1/GPa)
#
#
# Indices 1 2 3 4 5 6 
#
# 1 0.015266 -0.002763 -0.005088 0.000000 0.000000 0.000000
# 2 -0.002763 0.031588 -0.011224 0.000000 0.000000 0.000000
# 3 -0.005088 -0.011224 0.013951 0.000000 0.000000 0.000000
# 4 0.000000 0.000000 0.000000 0.057078 0.000000 0.000000
# 5 0.000000 0.000000 0.000000 0.000000 0.048359 0.000000
# 6 0.000000 0.000000 0.000000 0.000000 0.000000 0.098054
#
#
# Mechanical properties :
#
#
# Convention : Reuss Voigt Hill
#
# Bulk Modulus (GPa) = 44.14197 59.91348 52.02772
# Shear Modulus (GPa) = 16.12915 19.09824 17.61370
#
# Velocity S-wave (km/s) = 3.23386 3.51894 3.37941
# Velocity P-wave (km/s) = 6.52416 7.44026 6.99722
#
# Compressibility (1/GPa) = 0.02265418
#
# Stress axis : x y z
#
# Youngs Moduli (GPa) = 65.50406 31.65794 71.68124
#
# Poissons Ratio (x) = 0.08748 0.36469
# Poissons Ratio (y) = 0.18100 0.80457
# Poissons Ratio (z) = 0.33327 0.35534
#
# Static dielectric constant tensor:
#      x y z
#    x 2.997870 0.000000 0.000000 
#    y 0.000000 2.978610 0.000000 
#    z 0.000000 0.000000 2.950990 
# 
# 
# High freq. dielectric constant tensor:
#      x y z
#    x 1.574160 0.000000 0.000000 
#    y 0.000000 1.583080 0.000000 
#    z 0.000000 0.000000 1.577200 
# 
# From -- ./inp_files/37820.got.cif
#   From: 2010.03.12/outbox.cif.g09.slc.cpg/sg51_19_cif.got.tgz:37820.got - 2010.04.16 13:43:02.
