data_PCOD8214268
_publ_section_title
;
Structure prediction by ZEFSAII (Michael W. Deem and Ramdas Pophale) SiO2 
 PCOD8214268
Probable space group: P M M A
;
_chemical_formula_sum "Si O2"
_cell_formula_units_Z 48
_cell_length_a 10.230282
_cell_length_b 28.012032
_cell_length_c 8.891362
_cell_angle_alpha 90.000000
_cell_angle_beta 90.000000
_cell_angle_gamma 90.000000
_cell_volume 2548.006382
_symmetry_space_group_name_H-M "P M M A"
_symmetry_group_IT_number 51
_symmetry_cell_setting 'orthorhombic'
loop_
_space_group_symop_operation_xyz
x,y,z
1/2-x,-y,z
1/2+x,-y,-z
-x,y,-z
-x,-y,-z
1/2+x,y,-z
1/2-x,y,z
x,-y,z
loop_
_atom_site_type_symbol
_atom_site_label
_atom_site_fract_x
_atom_site_fract_y
_atom_site_fract_z
Si Si1 0.250000 0.212775 0.680753
Si Si2 0.750000 0.223396 0.676689
Si Si3 0.250000 0.104207 0.675744
Si Si4 0.506617 0.946135 0.679431
Si Si5 0.750000 0.113082 0.680736
Si Si6 0.604224 0.445705 0.379250
Si Si7 0.991129 0.265065 0.178865
Si Si8 0.400442 0.366799 0.868014
O O1 0.250000 0.223916 0.503618
O O2 0.250000 0.158100 0.729964
O O3 0.120044 0.232342 0.754127
O O4 0.750000 0.168349 0.731234
O O5 0.625576 0.251400 0.740340
O O6 0.126412 0.076216 0.742643
O O7 0.250000 0.105999 0.496677
O O8 0.500000 0.945672 0.500000
O O9 0.622424 0.913354 0.745051
O O10 0.525005 0.000000 0.738818
O O11 0.500000 0.427608 0.500000
O O12 0.750000 0.441874 0.448984
O O13 0.573619 0.500000 0.329383
O O14 0.592138 0.412521 0.236200
O O15 0.952307 0.319592 0.217152
O O16 0.000000 0.257912 0.000000
O O17 0.250000 0.358589 0.923761
O O18 0.500000 0.378689 0.000000
#
# Coordination Sequence:
#
# PCOD8214268 Si02
#       8
#     4   4   4   8   4   8   8   8
#     4  11  21  38  57  82 115 147 188 236 289 341
#     4  11  23  36  59  84 111 149 192 234 291 343
#     4   9  17  27  44  67 102 137 171 222 271 328
#     4   9  15  24  40  64  99 140 173 207 268 338
#     4   9  17  29  42  69 102 135 173 222 275 328
#     4   9  19  37  59  87 122 156 192 238 288 338
#     4  11  23  40  58  81 114 152 190 241 288 344
#     4  10  22  39  59  83 113 151 192 238 287 338
#
# _framework density 18.838256000000001
#
# number of rings (size 3 to 8) (size 9 to 14) (size 15 to 20)
#    0.000    2.167    0.833    2.500    3.500    7.000 
#    0.000    0.000    0.000    0.000    0.000    0.000 
#    0.000   46.667    0.000    0.000    0.000    0.000 
#
# Total GULP energy -595075.495418 kJ/mol
# GULP energy per Si atom -12397.406155 kJ/mol
# Density = 1.879538 g / cm^3
# Si number density = 18.838256 Si / 1000 Ang^3
#
#
#
# Elastic Constant Matrix: (Units=GPa)
#
#
# Indices 1 2 3 4 5 6 
#
# 1 184.1438 73.1298 39.8086 0.0000 0.0000 0.0000
# 2 73.1298 116.2823 37.5695 0.0000 0.0000 0.0000
# 3 39.8086 37.5695 50.1720 0.0000 0.0000 0.0000
# 4 0.0000 0.0000 0.0000 -2.0707 0.0000 0.0000
# 5 0.0000 0.0000 0.0000 0.0000 28.4975 0.0000
# 6 0.0000 0.0000 0.0000 0.0000 0.0000 36.1591
#
#
#
# Elastic Compliance Matrix: (Units=1/GPa)
#
#
# Indices 1 2 3 4 5 6 
#
# 1 0.007618 -0.003744 -0.003241 0.000000 0.000000 0.000000
# 2 -0.003744 0.013184 -0.006902 0.000000 0.000000 0.000000
# 3 -0.003241 -0.006902 0.027671 0.000000 0.000000 0.000000
# 4 0.000000 0.000000 0.000000 -0.482927 0.000000 0.000000
# 5 0.000000 0.000000 0.000000 0.000000 0.035091 0.000000
# 6 0.000000 0.000000 0.000000 0.000000 0.000000 0.027656
#
#
# Mechanical properties :
#
#
# Convention : Reuss Voigt Hill
#
# Bulk Modulus (GPa) = 48.30958 72.40155 60.35557
# Shear Modulus (GPa) = -14.83533 25.85653 5.51060
#
# Velocity S-wave (km/s) = -2.80931 3.70882 1.71218
# Velocity P-wave (km/s) = 3.89578 7.54037 6.00143
#
# Compressibility (1/GPa) = 0.02069983
#
# Stress axis : x y z
#
# Youngs Moduli (GPa) = 131.26844 75.84836 36.13844
#
# Poissons Ratio (x) = 0.28396 0.11713
# Poissons Ratio (y) = 0.49144 0.24943
# Poissons Ratio (z) = 0.42544 0.52351
#
# Static dielectric constant tensor:
#      x y z
#    x 3.678870 0.000000 0.000000 
#    y 0.000000 3.692820 0.000000 
#    z 0.000000 0.000000 3.061290 
# 
# 
# High freq. dielectric constant tensor:
#      x y z
#    x 1.756650 0.000000 0.000000 
#    y 0.000000 1.749720 0.000000 
#    z 0.000000 0.000000 1.685220 
# 
# From -- ./inp_files/6318.got.cif
#   From: 2010.03.12/outbox.cif.g09.slc.cpg/sg51_4_cif.got.tgz:6318.got - 2010.04.16 13:43:02.
