data_PCOD8214366
_publ_section_title
;
Structure prediction by ZEFSAII (Michael W. Deem and Ramdas Pophale) SiO2 
 PCOD8214366
Probable space group: P M M A
;
_chemical_formula_sum "Si O2"
_cell_formula_units_Z 64
_cell_length_a 26.973005
_cell_length_b 14.234910
_cell_length_c 9.191313
_cell_angle_alpha 90.000000
_cell_angle_beta 90.000000
_cell_angle_gamma 90.000000
_cell_volume 3529.080901
_symmetry_space_group_name_H-M "P M M A"
_symmetry_group_IT_number 51
_symmetry_cell_setting 'orthorhombic'
loop_
_space_group_symop_operation_xyz
x,y,z
1/2-x,-y,z
1/2+x,-y,-z
-x,y,-z
-x,-y,-z
1/2+x,y,-z
1/2-x,y,z
x,-y,z
loop_
_atom_site_type_symbol
_atom_site_label
_atom_site_fract_x
_atom_site_fract_y
_atom_site_fract_z
Si Si1 0.023420 0.393569 0.842224
Si Si2 0.390167 0.251465 0.808653
Si Si3 0.364777 0.752315 0.471007
Si Si4 0.307157 0.748200 0.046231
Si Si5 0.191917 0.894012 0.290737
Si Si6 0.474080 0.107605 0.845809
Si Si7 0.471907 0.751413 0.350982
Si Si8 0.192276 0.393528 0.297710
O O1 0.030789 0.500000 0.787756
O O2 0.984171 0.341546 0.739965
O O3 0.076745 0.343185 0.839157
O O4 0.000000 0.390193 0.000000
O O5 0.375222 0.247583 0.640921
O O6 0.420991 0.158544 0.849392
O O7 0.340595 0.255316 0.903348
O O8 0.333112 0.844103 0.429137
O O9 0.413825 0.757252 0.373983
O O10 0.336035 0.657094 0.429605
O O11 0.250000 0.750421 0.995362
O O12 0.320484 0.840167 0.140958
O O13 0.318200 0.656780 0.144057
O O14 0.250000 0.891549 0.321236
O O15 0.171816 0.000000 0.276614
O O16 0.510153 0.154122 0.727906
O O17 0.465403 0.000000 0.802005
O O18 0.500000 0.118398 0.000000
O O19 0.500000 0.741466 0.500000
O O20 0.250000 0.388440 0.336122
O O21 0.173180 0.500000 0.285273
#
# Coordination Sequence:
#
# PCOD8214366 Si02
#       8
#     8   8   8   8   8   8   8   8
#     4  10  23  40  59  81 111 152 191 232 279 326
#     4  11  22  39  56  83 120 143 185 235 277 335
#     4  11  22  35  58  86 114 150 185 223 283 334
#     4   9  20  37  61  85 110 146 183 231 285 330
#     4   9  20  39  60  84 112 144 188 232 273 332
#     4  10  23  40  59  81 111 152 191 232 279 326
#     4  11  21  40  56  83 118 148 183 229 274 336
#     4   9  20  39  60  84 112 144 188 232 273 332
#
# _framework density 18.135031999999999
#
# number of rings (size 3 to 8) (size 9 to 14) (size 15 to 20)
#    0.000    2.000    2.500    2.625    7.000    4.500 
#    0.000    0.000    0.000    3.000    0.000    0.000 
#    0.000    0.000    0.000    0.000    0.000    0.000 
#
# Total GULP energy -793709.192738 kJ/mol
# GULP energy per Si atom -12401.706137 kJ/mol
# Density = 1.809376 g / cm^3
# Si number density = 18.135032 Si / 1000 Ang^3
#
#
#
# Elastic Constant Matrix: (Units=GPa)
#
#
# Indices 1 2 3 4 5 6 
#
# 1 81.9289 37.2567 40.5333 0.0000 0.0000 0.0000
# 2 37.2567 151.7750 38.8953 0.0000 0.0000 0.0000
# 3 40.5333 38.8953 89.4007 0.0000 0.0000 0.0000
# 4 0.0000 0.0000 0.0000 -7.6698 0.0000 0.0000
# 5 0.0000 0.0000 0.0000 0.0000 38.4454 0.0000
# 6 0.0000 0.0000 0.0000 0.0000 0.0000 9.5749
#
#
#
# Elastic Compliance Matrix: (Units=1/GPa)
#
#
# Indices 1 2 3 4 5 6 
#
# 1 0.016475 -0.002397 -0.006427 0.000000 0.000000 0.000000
# 2 -0.002397 0.007764 -0.002291 0.000000 0.000000 0.000000
# 3 -0.006427 -0.002291 0.015096 0.000000 0.000000 0.000000
# 4 0.000000 0.000000 0.000000 -0.130382 0.000000 0.000000
# 5 0.000000 0.000000 0.000000 0.000000 0.026011 0.000000
# 6 0.000000 0.000000 0.000000 0.000000 0.000000 0.104440
#
#
# Mechanical properties :
#
#
# Convention : Reuss Voigt Hill
#
# Bulk Modulus (GPa) = 58.46039 61.83059 60.14549
# Shear Modulus (GPa) = 74.25315 21.83138 48.04226
#
# Velocity S-wave (km/s) = 6.40574 3.47338 5.15256
# Velocity P-wave (km/s) = 9.32831 7.08903 8.28468
#
# Compressibility (1/GPa) = 0.01710560
#
# Stress axis : x y z
#
# Youngs Moduli (GPa) = 60.69634 128.79450 66.24171
#
# Poissons Ratio (x) = 0.30876 0.42572
# Poissons Ratio (y) = 0.14551 0.15177
# Poissons Ratio (z) = 0.39008 0.29508
#
# Static dielectric constant tensor:
#      x y z
#    x 3.354700 0.000000 0.000000 
#    y 0.000000 3.730830 0.000000 
#    z 0.000000 0.000000 3.202780 
# 
# 
# High freq. dielectric constant tensor:
#      x y z
#    x 1.709830 0.000000 0.000000 
#    y 0.000000 1.709520 0.000000 
#    z 0.000000 0.000000 1.699680 
# 
# From -- ./inp_files/11912.got.cif
#   From: 2010.03.12/outbox.cif.g09.slc.cpg/sg51_6_cif.got.tgz:11912.got - 2010.04.16 13:43:02.
