data_PCOD8214830
_publ_section_title
;
Structure prediction by ZEFSAII (Michael W. Deem and Ramdas Pophale) SiO2 
 PCOD8214830
Probable space group: P M M A
;
_chemical_formula_sum "Si O2"
_cell_formula_units_Z 36
_cell_length_a 10.270216
_cell_length_b 12.741757
_cell_length_c 19.003551
_cell_angle_alpha 90.000000
_cell_angle_beta 90.000000
_cell_angle_gamma 90.000000
_cell_volume 2486.816022
_symmetry_space_group_name_H-M "P M M A"
_symmetry_group_IT_number 51
_symmetry_cell_setting 'orthorhombic'
loop_
_space_group_symop_operation_xyz
x,y,z
1/2-x,-y,z
1/2+x,-y,-z
-x,y,-z
-x,-y,-z
1/2+x,y,-z
1/2-x,y,z
x,-y,z
loop_
_atom_site_type_symbol
_atom_site_label
_atom_site_fract_x
_atom_site_fract_y
_atom_site_fract_z
Si Si1 0.750000 0.374763 0.088281
Si Si2 0.990453 0.375116 0.839736
Si Si3 0.250000 0.374694 0.070669
Si Si4 0.597255 0.380310 0.689360
Si Si5 0.400757 0.228476 0.434857
Si Si6 0.893596 0.000000 0.558454
O O1 0.750000 0.500000 0.087340
O O2 0.625053 0.331060 0.129614
O O3 0.750000 0.331160 0.008831
O O4 0.985058 0.500000 0.841762
O O5 0.876012 0.330352 0.889003
O O6 0.974946 0.338052 0.759129
O O7 0.250000 0.500000 0.070019
O O8 0.750000 0.371123 0.703920
O O9 0.557893 0.500000 0.672086
O O10 0.552538 0.309835 0.624015
O O11 0.500000 0.240833 0.500000
O O12 0.250000 0.251310 0.457951
O O13 0.410025 0.110647 0.400138
O O14 0.000000 0.000000 0.500000
O O15 0.750000 0.000000 0.523170
#
# Coordination Sequence:
#
# PCOD8214830 Si02
#       6
#     4   8   4   8   8   4
#     4   9  16  22  32  52  73  94 125 166 195 214
#     4   9  15  24  35  49  71  99 130 157 188 226
#     4   9  14  22  36  50  67  96 131 160 187 224
#     4   9  16  27  41  54  75 109 138 157 184 228
#     4   9  17  29  44  61  78  99 129 162 196 231
#     4   8  14  26  44  62  78  94 117 157 202 236
#
# _framework density 14.476343
#
# number of rings (size 3 to 8) (size 9 to 14) (size 15 to 20)
#    0.000    3.111    1.111    0.667    0.000    3.111 
#    2.000    0.000    0.000    0.000    0.000    0.000 
#    0.000    0.000    0.000    6.000    0.000    2.778 
#
# Total GULP energy -446010.550135 kJ/mol
# GULP energy per Si atom -12389.181948 kJ/mol
# Density = 1.444339 g / cm^3
# Si number density = 14.476343 Si / 1000 Ang^3
#
#
#
# Elastic Constant Matrix: (Units=GPa)
#
#
# Indices 1 2 3 4 5 6 
#
# 1 96.6105 24.9021 60.1466 0.0000 0.0000 0.0000
# 2 24.9021 53.5819 49.7442 0.0000 0.0000 0.0000
# 3 60.1466 49.7442 123.7774 0.0000 0.0000 0.0000
# 4 0.0000 0.0000 0.0000 0.5739 0.0000 0.0000
# 5 0.0000 0.0000 0.0000 0.0000 23.2020 0.0000
# 6 0.0000 0.0000 0.0000 0.0000 0.0000 9.5488
#
#
#
# Elastic Compliance Matrix: (Units=1/GPa)
#
#
# Indices 1 2 3 4 5 6 
#
# 1 0.014844 -0.000323 -0.007083 0.000000 0.000000 0.000000
# 2 -0.000323 0.029777 -0.011810 0.000000 0.000000 0.000000
# 3 -0.007083 -0.011810 0.016267 0.000000 0.000000 0.000000
# 4 0.000000 0.000000 0.000000 1.742433 0.000000 0.000000
# 5 0.000000 0.000000 0.000000 0.000000 0.043100 0.000000
# 6 0.000000 0.000000 0.000000 0.000000 0.000000 0.104725
#
#
# Mechanical properties :
#
#
# Convention : Reuss Voigt Hill
#
# Bulk Modulus (GPa) = 44.53142 60.39508 52.46325
# Shear Modulus (GPa) = 2.50368 15.94342 9.22355
#
# Velocity S-wave (km/s) = 1.31653 3.32225 2.52691
# Velocity P-wave (km/s) = 5.75667 7.51843 6.69575
#
# Compressibility (1/GPa) = 0.02245605
#
# Stress axis : x y z
#
# Youngs Moduli (GPa) = 67.36791 33.58258 61.47279
#
# Poissons Ratio (x) = 0.01083 0.43543
# Poissons Ratio (y) = 0.02173 0.72601
# Poissons Ratio (z) = 0.47719 0.39662
#
# Static dielectric constant tensor:
#      x y z
#    x 2.976540 0.000000 0.000000 
#    y 0.000000 2.724940 0.000000 
#    z 0.000000 0.000000 2.806570 
# 
# 
# High freq. dielectric constant tensor:
#      x y z
#    x 1.561530 0.000000 0.000000 
#    y 0.000000 1.499670 0.000000 
#    z 0.000000 0.000000 1.544230 
# 
# From -- ./inp_files/28904.got.cif
#   From: 2010.03.12/outbox.cif.g09.slc.cpg/sg51_15_cif.got.tgz:28904.got - 2010.04.16 13:43:02.
