data_PCOD8214002
_publ_section_title
;
Structure prediction by ZEFSAII (Michael W. Deem and Ramdas Pophale) SiO2 
 PCOD8214002
Probable space group: P M M A
;
_chemical_formula_sum "Si O2"
_cell_formula_units_Z 40
_cell_length_a 8.745862
_cell_length_b 25.494267
_cell_length_c 9.207530
_cell_angle_alpha 90.000000
_cell_angle_beta 90.000000
_cell_angle_gamma 90.000000
_cell_volume 2052.996896
_symmetry_space_group_name_H-M "P M M A"
_symmetry_group_IT_number 51
_symmetry_cell_setting 'orthorhombic'
loop_
_space_group_symop_operation_xyz
x,y,z
1/2-x,-y,z
1/2+x,-y,-z
-x,y,-z
-x,-y,-z
1/2+x,y,-z
1/2-x,y,z
x,-y,z
loop_
_atom_site_type_symbol
_atom_site_label
_atom_site_fract_x
_atom_site_fract_y
_atom_site_fract_z
Si Si1 0.427386 0.855012 0.846878
Si Si2 0.428527 0.753417 0.656921
Si Si3 0.428948 0.443183 0.841923
Si Si4 0.428984 0.939507 0.348951
Si Si5 0.930836 0.660757 0.839725
O O1 0.250000 0.865972 0.869101
O O2 0.459358 0.807326 0.739377
O O3 0.503065 0.907500 0.784832
O O4 0.500000 0.840101 0.000000
O O5 0.500000 0.759958 0.500000
O O6 0.250000 0.739975 0.646694
O O7 0.514500 0.707369 0.739163
O O8 0.250000 0.430785 0.854024
O O9 0.456046 0.500000 0.763021
O O10 0.512366 0.394015 0.764484
O O11 0.500000 0.447173 0.000000
O O12 0.500000 0.919440 0.500000
O O13 0.250000 0.929911 0.357910
O O14 0.471108 0.000000 0.321817
O O15 0.750000 0.661243 0.851195
O O16 0.000000 0.667435 0.000000
#
# Coordination Sequence:
#
# PCOD8214002 Si02
#       5
#     8   8   8   8   8
#     4  11  24  40  61  87 116 150 188 234 283 333
#     4  11  24  41  60  83 111 145 186 230 280 338
#     4   9  16  27  46  74 108 144 182 226 275 327
#     4  10  21  38  61  88 119 155 193 233 278 331
#     4  11  21  34  55  82 113 148 186 231 280 330
#
# _framework density 19.483712000000001
#
# number of rings (size 3 to 8) (size 9 to 14) (size 15 to 20)
#    0.000    1.600    0.000    6.600    0.000    9.200 
#    0.000    0.000    0.000    0.600    0.000    0.000 
#    0.000    0.000    0.000    0.000    0.000    0.000 
#
# Total GULP energy -495996.689657 kJ/mol
# GULP energy per Si atom -12399.917241 kJ/mol
# Density = 1.943937 g / cm^3
# Si number density = 19.483712 Si / 1000 Ang^3
#
#
#
# Elastic Constant Matrix: (Units=GPa)
#
#
# Indices 1 2 3 4 5 6 
#
# 1 153.9381 78.0900 62.0743 0.0000 0.0000 0.0000
# 2 78.0900 114.6953 47.1622 0.0000 0.0000 0.0000
# 3 62.0743 47.1622 96.9695 0.0000 0.0000 0.0000
# 4 0.0000 0.0000 0.0000 150.7507 0.0000 0.0000
# 5 0.0000 0.0000 0.0000 0.0000 32.3437 0.0000
# 6 0.0000 0.0000 0.0000 0.0000 0.0000 -25.0740
#
#
#
# Elastic Compliance Matrix: (Units=1/GPa)
#
#
# Indices 1 2 3 4 5 6 
#
# 1 0.011211 -0.005852 -0.004330 0.000000 0.000000 0.000000
# 2 -0.005852 0.013953 -0.003040 0.000000 0.000000 0.000000
# 3 -0.004330 -0.003040 0.014563 0.000000 0.000000 0.000000
# 4 0.000000 0.000000 0.000000 0.006633 0.000000 0.000000
# 5 0.000000 0.000000 0.000000 0.000000 0.030918 0.000000
# 6 0.000000 0.000000 0.000000 0.000000 0.000000 -0.039882
#
#
# Mechanical properties :
#
#
# Convention : Reuss Voigt Hill
#
# Bulk Modulus (GPa) = 75.28936 82.25065 78.77000
# Shear Modulus (GPa) = 73.23861 43.48916 58.36389
#
# Velocity S-wave (km/s) = 6.13769 4.72961 5.47907
# Velocity P-wave (km/s) = 9.43157 8.49308 8.97460
#
# Compressibility (1/GPa) = 0.01328209
#
# Stress axis : x y z
#
# Youngs Moduli (GPa) = 89.19714 71.66699 68.66687
#
# Poissons Ratio (x) = 0.41943 0.29735
# Poissons Ratio (y) = 0.52202 0.20875
# Poissons Ratio (z) = 0.38625 0.21787
#
# Static dielectric constant tensor:
#      x y z
#    x 3.761910 0.000000 0.000000 
#    y 0.000000 4.196510 0.000000 
#    z 0.000000 0.000000 3.300440 
# 
# 
# High freq. dielectric constant tensor:
#      x y z
#    x 1.779890 0.000000 0.000000 
#    y 0.000000 1.782140 0.000000 
#    z 0.000000 0.000000 1.728600 
# 
# From -- ./inp_files/5270.got.cif
#   From: 2010.03.12/outbox.cif.g09.slc.cpg/sg51_3_cif.got.tgz:5270.got - 2010.04.16 13:43:02.
