data_PCOD8214986
_publ_section_title
;
Structure prediction by ZEFSAII (Michael W. Deem and Ramdas Pophale) SiO2 
 PCOD8214986
Probable space group: P N N A
;
_chemical_formula_sum "Si O2"
_cell_formula_units_Z 60
_cell_length_a 18.557087
_cell_length_b 13.240530
_cell_length_c 12.749655
_cell_angle_alpha 90.000000
_cell_angle_beta 90.000000
_cell_angle_gamma 90.000000
_cell_volume 3132.662488
_symmetry_space_group_name_H-M "P N N A"
_symmetry_group_IT_number 52
_symmetry_cell_setting 'orthorhombic'
loop_
_space_group_symop_operation_xyz
x,y,z
1/2-x,-y,z
x,1/2-y,1/2-z
1/2-x,1/2+y,1/2-z
-x,-y,-z
1/2+x,y,-z
-x,1/2+y,1/2+z
1/2+x,1/2-y,1/2+z
loop_
_atom_site_type_symbol
_atom_site_label
_atom_site_fract_x
_atom_site_fract_y
_atom_site_fract_z
Si Si1 0.668843 0.498968 0.361617
Si Si2 0.855505 0.839841 0.960346
Si Si3 0.228847 0.720089 0.133610
Si Si4 0.383954 0.328710 0.489289
Si Si5 0.536326 0.413670 0.245732
Si Si6 0.750000 0.000000 0.689296
Si Si7 0.026521 0.245238 0.577542
Si Si8 0.603515 0.996831 0.817980
O O1 0.750000 0.500000 0.313206
O O2 0.676857 0.415007 0.452377
O O3 0.640575 0.606567 0.408791
O O4 0.612555 0.469322 0.269166
O O5 0.796550 0.791819 0.885356
O O6 0.909348 0.904717 0.888500
O O7 0.900477 0.749807 0.011294
O O8 0.199369 0.750000 0.250000
O O9 0.173219 0.742452 0.040287
O O10 0.246764 0.601721 0.120503
O O11 0.459263 0.267188 0.500757
O O12 0.389332 0.399277 0.389079
O O13 0.526627 0.330302 0.334212
O O14 0.530279 0.364892 0.130386
O O15 0.468380 0.489893 0.247642
O O16 0.677771 0.006981 0.756616
#
# Coordination Sequence:
#
# PCOD8214986 Si02
#       8
#     8   8   8   8   8   4   8   8
#     4  10  18  31  52  83 112 144 185 240 283 325
#     4  10  19  32  50  76 110 145 179 222 282 338
#     4  12  21  32  51  79 109 148 176 228 287 344
#     4  10  18  30  52  79 113 139 178 236 289 330
#     4   9  18  30  50  78 110 142 183 227 279 331
#     4  12  22  30  50  82 110 142 182 218 288 350
#     4   9  18  31  49  77 108 147 179 221 282 339
#     4  10  17  29  49  79 110 136 175 229 278 339
#
# _framework density 19.153037999999999
#
# number of rings (size 3 to 8) (size 9 to 14) (size 15 to 20)
#    0.000    1.867    4.000    1.600    3.733    3.200 
#    0.000    0.000    1.467    3.200    0.000    1.867 
#    0.000    0.000    0.000    0.000    0.000    0.000 
#
# Total GULP energy -743467.131474 kJ/mol
# GULP energy per Si atom -12391.118858 kJ/mol
# Density = 1.910945 g / cm^3
# Si number density = 19.153038 Si / 1000 Ang^3
#
#
#
# Elastic Constant Matrix: (Units=GPa)
#
#
# Indices 1 2 3 4 5 6 
#
# 1 135.7312 31.5043 29.6196 0.0000 0.0000 0.0000
# 2 31.5043 76.9861 19.7952 0.0000 0.0000 0.0000
# 3 29.6196 19.7952 29.3531 0.0000 0.0000 0.0000
# 4 0.0000 0.0000 0.0000 17.3859 0.0000 0.0000
# 5 0.0000 0.0000 0.0000 0.0000 6.6596 0.0000
# 6 0.0000 0.0000 0.0000 0.0000 0.0000 23.1996
#
#
#
# Elastic Compliance Matrix: (Units=1/GPa)
#
#
# Indices 1 2 3 4 5 6 
#
# 1 0.009638 -0.001746 -0.008548 0.000000 0.000000 0.000000
# 2 -0.001746 0.016031 -0.009049 0.000000 0.000000 0.000000
# 3 -0.008548 -0.009049 0.048796 0.000000 0.000000 0.000000
# 4 0.000000 0.000000 0.000000 0.057518 0.000000 0.000000
# 5 0.000000 0.000000 0.000000 0.000000 0.150160 0.000000
# 6 0.000000 0.000000 0.000000 0.000000 0.000000 0.043104
#
#
# Mechanical properties :
#
#
# Convention : Reuss Voigt Hill
#
# Bulk Modulus (GPa) = 27.94957 44.87875 36.41416
# Shear Modulus (GPa) = 13.30287 20.19244 16.74765
#
# Velocity S-wave (km/s) = 2.63830 3.25047 2.96025
# Velocity P-wave (km/s) = 4.88930 6.12943 5.54415
#
# Compressibility (1/GPa) = 0.03577873
#
# Stress axis : x y z
#
# Youngs Moduli (GPa) = 103.75381 62.38065 20.49352
#
# Poissons Ratio (x) = 0.10893 0.17518
# Poissons Ratio (y) = 0.18118 0.18544
# Poissons Ratio (z) = 0.88690 0.56446
#
# Static dielectric constant tensor:
#      x y z
#    x 3.721710 0.000000 0.000000 
#    y 0.000000 3.642960 0.000000 
#    z 0.000000 0.000000 3.112540 
# 
# 
# High freq. dielectric constant tensor:
#      x y z
#    x 1.759080 0.000000 0.000000 
#    y 0.000000 1.731080 0.000000 
#    z 0.000000 0.000000 1.692160 
# 
# From -- ./inp_files/28281.got.cif
#   From: 2010.06.25/outbox.cif.g09.slc.cpg/sg52_15_cif.got.tgz:28281.got - 2010.06.26 19:32:48.
