data_PCOD8214883
_publ_section_title
;
Structure prediction by ZEFSAII (Michael W. Deem and Ramdas Pophale) SiO2 
 PCOD8214883
Probable space group: P M M A
;
_chemical_formula_sum "Si O2"
_cell_formula_units_Z 40
_cell_length_a 9.332150
_cell_length_b 9.597956
_cell_length_c 25.622536
_cell_angle_alpha 90.000000
_cell_angle_beta 90.000000
_cell_angle_gamma 90.000000
_cell_volume 2294.999406
_symmetry_space_group_name_H-M "P M M A"
_symmetry_group_IT_number 51
_symmetry_cell_setting 'orthorhombic'
loop_
_space_group_symop_operation_xyz
x,y,z
1/2-x,-y,z
1/2+x,-y,-z
-x,y,-z
-x,-y,-z
1/2+x,y,-z
1/2-x,y,z
x,-y,z
loop_
_atom_site_type_symbol
_atom_site_label
_atom_site_fract_x
_atom_site_fract_y
_atom_site_fract_z
Si Si1 0.916882 0.339324 0.648809
Si Si2 0.916807 0.160793 0.551071
Si Si3 0.087868 0.834210 0.049287
Si Si4 0.083853 0.161917 0.849696
Si Si5 0.083410 0.660307 0.750824
O O1 0.750000 0.313747 0.658782
O O2 0.951507 0.500000 0.636845
O O3 0.972548 0.249874 0.599984
O O4 0.998924 0.287249 0.700110
O O5 0.750000 0.186978 0.540881
O O6 0.000000 0.212733 0.500000
O O7 0.950548 0.000000 0.563069
O O8 0.250000 0.775652 0.048148
O O9 0.009424 0.783951 0.101767
O O10 0.089248 0.000000 0.046785
O O11 0.000000 0.773999 0.000000
O O12 0.250000 0.189991 0.862803
O O13 0.032344 0.247891 0.799555
O O14 0.056021 0.000000 0.838129
O O15 0.250000 0.682786 0.739410
O O16 0.047389 0.500000 0.763442
#
# Coordination Sequence:
#
# PCOD8214883 Si02
#       5
#     8   8   8   8   8
#     4   9  18  32  48  66  89 117 149 184 221 262
#     4   9  18  32  48  67  92 120 148 180 221 266
#     4   9  16  26  42  65  92 120 149 183 224 267
#     4   9  17  29  45  66  91 117 147 184 223 263
#     4   9  18  32  48  66  90 120 151 183 222 266
#
# _framework density 17.429198
#
# number of rings (size 3 to 8) (size 9 to 14) (size 15 to 20)
#    0.000    3.000    0.000    0.600    0.000    5.200 
#    0.000    0.000    0.000    0.600    0.000    0.000 
#    0.000    0.000    0.000    0.000    0.000    0.000 
#
# Total GULP energy -496060.828679 kJ/mol
# GULP energy per Si atom -12401.520717 kJ/mol
# Density = 1.738953 g / cm^3
# Si number density = 17.429198 Si / 1000 Ang^3
#
#
#
# Elastic Constant Matrix: (Units=GPa)
#
#
# Indices 1 2 3 4 5 6 
#
# 1 80.3437 34.2218 85.4936 0.0000 0.0000 0.0000
# 2 34.2218 49.3251 69.9015 0.0000 0.0000 0.0000
# 3 85.4936 69.9015 199.1162 0.0000 0.0000 0.0000
# 4 0.0000 0.0000 0.0000 10.9197 0.0000 0.0000
# 5 0.0000 0.0000 0.0000 0.0000 39.8661 0.0000
# 6 0.0000 0.0000 0.0000 0.0000 0.0000 16.2959
#
#
#
# Elastic Compliance Matrix: (Units=1/GPa)
#
#
# Indices 1 2 3 4 5 6 
#
# 1 0.023299 -0.003956 -0.008615 0.000000 0.000000 0.000000
# 2 -0.003956 0.041018 -0.012701 0.000000 0.000000 0.000000
# 3 -0.008615 -0.012701 0.013180 0.000000 0.000000 0.000000
# 4 0.000000 0.000000 0.000000 0.091578 0.000000 0.000000
# 5 0.000000 0.000000 0.000000 0.000000 0.025084 0.000000
# 6 0.000000 0.000000 0.000000 0.000000 0.000000 0.061365
#
#
# Mechanical properties :
#
#
# Convention : Reuss Voigt Hill
#
# Bulk Modulus (GPa) = 37.10238 78.66877 57.88558
# Shear Modulus (GPa) = 15.87044 22.69421 19.28232
#
# Velocity S-wave (km/s) = 3.02083 3.61235 3.32975
# Velocity P-wave (km/s) = 5.78800 7.91410 6.93303
#
# Compressibility (1/GPa) = 0.02695245
#
# Stress axis : x y z
#
# Youngs Moduli (GPa) = 42.92108 24.37970 75.87306
#
# Poissons Ratio (x) = 0.09645 0.65363
# Poissons Ratio (y) = 0.16980 0.96367
# Poissons Ratio (z) = 0.36976 0.30965
#
# Static dielectric constant tensor:
#      x y z
#    x 3.254860 0.000000 0.000000 
#    y 0.000000 3.026620 0.000000 
#    z 0.000000 0.000000 3.383110 
# 
# 
# High freq. dielectric constant tensor:
#      x y z
#    x 1.672130 0.000000 0.000000 
#    y 0.000000 1.644750 0.000000 
#    z 0.000000 0.000000 1.682430 
# 
# From -- ./inp_files/27035.got.cif
#   From: 2010.03.12/outbox.cif.g09.slc.cpg/sg51_14_cif.got.tgz:27035.got - 2010.04.16 13:43:02.
