data_PCOD8214192
_publ_section_title
;
Structure prediction by ZEFSAII (Michael W. Deem and Ramdas Pophale) SiO2 
 PCOD8214192
Probable space group: P M M A
;
_chemical_formula_sum "Si O2"
_cell_formula_units_Z 64
_cell_length_a 21.956091
_cell_length_b 9.340397
_cell_length_c 16.951030
_cell_angle_alpha 90.000000
_cell_angle_beta 90.000000
_cell_angle_gamma 90.000000
_cell_volume 3476.293611
_symmetry_space_group_name_H-M "P M M A"
_symmetry_group_IT_number 51
_symmetry_cell_setting 'orthorhombic'
loop_
_space_group_symop_operation_xyz
x,y,z
1/2-x,-y,z
1/2+x,-y,-z
-x,y,-z
-x,-y,-z
1/2+x,y,-z
1/2-x,y,z
x,-y,z
loop_
_atom_site_type_symbol
_atom_site_label
_atom_site_fract_x
_atom_site_fract_y
_atom_site_fract_z
Si Si1 0.316229 0.339052 0.308952
Si Si2 0.682544 0.169895 0.236123
Si Si3 0.571068 0.667733 0.789886
Si Si4 0.567614 0.330394 0.970139
Si Si5 0.636929 0.831754 0.556979
Si Si6 0.613339 0.831690 0.385567
Si Si7 0.678270 0.830087 0.058484
Si Si8 0.019429 0.165345 0.344951
O O1 0.250000 0.330859 0.268913
O O2 0.333347 0.500000 0.334099
O O3 0.363192 0.283158 0.243524
O O4 0.313704 0.245240 0.388473
O O5 0.750000 0.225593 0.253792
O O6 0.641469 0.237879 0.306022
O O7 0.663091 0.217871 0.148353
O O8 0.679825 0.000000 0.238529
O O9 0.559394 0.500000 0.782801
O O10 0.567528 0.717615 0.879471
O O11 0.520961 0.747390 0.736966
O O12 0.577353 0.500000 0.981883
O O13 0.500000 0.284048 0.000000
O O14 0.626258 0.251502 0.008392
O O15 0.642137 0.772766 0.467250
O O16 0.571465 0.791043 0.593557
O O17 0.648726 0.000000 0.559396
O O18 0.542400 0.795957 0.389289
O O19 0.624995 0.000000 0.382919
O O20 0.750000 0.790077 0.038201
O O21 0.670083 0.000000 0.046632
O O22 0.023115 0.000000 0.321152
#
# Coordination Sequence:
#
# PCOD8214192 Si02
#       8
#     8   8   8   8   8   8   8   8
#     4   9  18  33  51  68  91 127 166 201 240 291
#     4   8  15  28  45  68  97 126 162 206 244 289
#     4   9  19  35  51  70  98 130 164 202 246 301
#     4  10  22  37  54  80 111 138 171 218 268 319
#     4   9  17  29  45  70 101 127 158 204 249 287
#     4   9  16  26  45  70  96 130 166 198 240 293
#     4   9  19  36  56  78 105 137 175 218 262 312
#     4   9  17  29  47  71  99 128 163 203 244 290
#
# _framework density 18.410412999999998
#
# number of rings (size 3 to 8) (size 9 to 14) (size 15 to 20)
#    0.000    3.000    0.000    1.125    1.750    3.750 
#    0.000    3.125    0.000    3.750    0.000    0.000 
#    0.000    0.000    0.000    0.000    0.000    0.000 
#
# Total GULP energy -792947.748243 kJ/mol
# GULP energy per Si atom -12389.808566 kJ/mol
# Density = 1.836851 g / cm^3
# Si number density = 18.410413 Si / 1000 Ang^3
#
#
#
# Elastic Constant Matrix: (Units=GPa)
#
#
# Indices 1 2 3 4 5 6 
#
# 1 71.6732 18.9575 39.8012 0.0000 0.0000 0.0000
# 2 18.9575 27.0923 30.1591 0.0000 0.0000 0.0000
# 3 39.8012 30.1591 134.6534 0.0000 0.0000 0.0000
# 4 0.0000 0.0000 0.0000 21.9803 0.0000 0.0000
# 5 0.0000 0.0000 0.0000 0.0000 23.7367 0.0000
# 6 0.0000 0.0000 0.0000 0.0000 0.0000 17.4402
#
#
#
# Elastic Compliance Matrix: (Units=1/GPa)
#
#
# Indices 1 2 3 4 5 6 
#
# 1 0.018199 -0.008987 -0.003366 0.000000 0.000000 0.000000
# 2 -0.008987 0.053608 -0.009351 0.000000 0.000000 0.000000
# 3 -0.003366 -0.009351 0.010516 0.000000 0.000000 0.000000
# 4 0.000000 0.000000 0.000000 0.045495 0.000000 0.000000
# 5 0.000000 0.000000 0.000000 0.000000 0.042129 0.000000
# 6 0.000000 0.000000 0.000000 0.000000 0.000000 0.057339
#
#
# Mechanical properties :
#
#
# Convention : Reuss Voigt Hill
#
# Bulk Modulus (GPa) = 25.69693 45.69498 35.69595
# Shear Modulus (GPa) = 17.62642 22.26486 19.94564
#
# Velocity S-wave (km/s) = 3.09757 3.48136 3.29506
# Velocity P-wave (km/s) = 5.17507 6.40577 5.82303
#
# Compressibility (1/GPa) = 0.03891516
#
# Stress axis : x y z
#
# Youngs Moduli (GPa) = 54.94924 18.65380 95.09475
#
# Poissons Ratio (x) = 0.16764 0.32012
# Poissons Ratio (y) = 0.49382 0.88920
# Poissons Ratio (z) = 0.18498 0.17442
#
# Static dielectric constant tensor:
#      x y z
#    x 3.497920 0.000000 0.000000 
#    y 0.000000 3.078690 0.000000 
#    z 0.000000 0.000000 3.634610 
# 
# 
# High freq. dielectric constant tensor:
#      x y z
#    x 1.717390 0.000000 0.000000 
#    y 0.000000 1.674700 0.000000 
#    z 0.000000 0.000000 1.720410 
# 
# From -- ./inp_files/30680.got.cif
#   From: 2010.03.12/outbox.cif.g09.slc.cpg/sg51_16_cif.got.tgz:30680.got - 2010.04.16 13:43:02.
