data_PCOD8214123
_publ_section_title
;
Structure prediction by ZEFSAII (Michael W. Deem and Ramdas Pophale) SiO2 
 PCOD8214123
Probable space group: P M M A
;
_chemical_formula_sum "Si O2"
_cell_formula_units_Z 48
_cell_length_a 8.527497
_cell_length_b 31.292093
_cell_length_c 9.158089
_cell_angle_alpha 90.000000
_cell_angle_beta 90.000000
_cell_angle_gamma 90.000000
_cell_volume 2443.774042
_symmetry_space_group_name_H-M "P M M A"
_symmetry_group_IT_number 51
_symmetry_cell_setting 'orthorhombic'
loop_
_space_group_symop_operation_xyz
x,y,z
1/2-x,-y,z
1/2+x,-y,-z
-x,y,-z
-x,-y,-z
1/2+x,y,-z
1/2-x,y,z
x,-y,z
loop_
_atom_site_type_symbol
_atom_site_label
_atom_site_fract_x
_atom_site_fract_y
_atom_site_fract_z
Si Si1 0.434357 0.621732 0.158803
Si Si2 0.934960 0.777256 0.836728
Si Si3 0.934506 0.450996 0.345372
Si Si4 0.565503 0.699035 0.340056
Si Si5 0.565452 0.954828 0.161232
Si Si6 0.435948 0.136422 0.837179
O O1 0.250000 0.621436 0.148585
O O2 0.492936 0.575668 0.212913
O O3 0.488473 0.657306 0.271822
O O4 0.500000 0.632445 0.000000
O O5 0.750000 0.769120 0.833209
O O6 0.023742 0.740476 0.751989
O O7 0.978107 0.823090 0.761285
O O8 0.000000 0.777106 0.000000
O O9 0.750000 0.444861 0.346067
O O10 0.984323 0.500000 0.320175
O O11 0.000000 0.434244 0.500000
O O12 0.500000 0.706082 0.500000
O O13 0.750000 0.692196 0.344299
O O14 0.750000 0.954340 0.146195
O O15 0.518316 0.909576 0.239783
O O16 0.512399 0.000000 0.240419
O O17 0.500000 0.955319 0.000000
O O18 0.250000 0.144665 0.836905
O O19 0.500000 0.133460 0.000000
#
# Coordination Sequence:
#
# PCOD8214123 Si02
#       6
#     8   8   8   8   8   8
#     4  12  25  42  63  89 120 154 192 234 281 330
#     4  11  21  35  54  78 107 141 180 223 272 324
#     4  10  21  39  63  91 123 160 200 240 283 331
#     4  12  25  43  63  85 112 143 181 224 274 330
#     4   8  13  20  31  50  80 119 162 206 253 307
#     4   9  15  24  39  61  90 127 169 213 262 315
#
# _framework density 19.641749999999998
#
# number of rings (size 3 to 8) (size 9 to 14) (size 15 to 20)
#    0.000    1.667    0.000    7.500    0.000    2.000 
#    0.000    0.000    0.000    0.000    0.000    0.000 
#    0.000    0.667    0.000    1.833    0.000    8.500 
#
# Total GULP energy -594780.204982 kJ/mol
# GULP energy per Si atom -12391.254270 kJ/mol
# Density = 1.959704 g / cm^3
# Si number density = 19.641750 Si / 1000 Ang^3
#
#
#
# Elastic Constant Matrix: (Units=GPa)
#
#
# Indices 1 2 3 4 5 6 
#
# 1 57.6049 18.7962 5.0687 0.0000 0.0000 0.0000
# 2 18.7962 133.6561 25.0923 0.0000 0.0000 0.0000
# 3 5.0687 25.0923 44.8343 0.0000 0.0000 0.0000
# 4 0.0000 0.0000 0.0000 -3.2821 0.0000 0.0000
# 5 0.0000 0.0000 0.0000 0.0000 26.8420 0.0000
# 6 0.0000 0.0000 0.0000 0.0000 0.0000 28.9002
#
#
#
# Elastic Compliance Matrix: (Units=1/GPa)
#
#
# Indices 1 2 3 4 5 6 
#
# 1 0.018214 -0.002430 -0.000699 0.000000 0.000000 0.000000
# 2 -0.002430 0.008685 -0.004586 0.000000 0.000000 0.000000
# 3 -0.000699 -0.004586 0.024950 0.000000 0.000000 0.000000
# 4 0.000000 0.000000 0.000000 -0.304684 0.000000 0.000000
# 5 0.000000 0.000000 0.000000 0.000000 0.037255 0.000000
# 6 0.000000 0.000000 0.000000 0.000000 0.000000 0.034602
#
#
# Mechanical properties :
#
#
# Convention : Reuss Voigt Hill
#
# Bulk Modulus (GPa) = 27.45857 37.11220 32.28538
# Shear Modulus (GPa) = -32.59261 22.96789 -4.81236
#
# Velocity S-wave (km/s) = -4.07794 3.42327 -1.56697
# Velocity P-wave (km/s) = 2.85704 5.87883 3.63304
#
# Compressibility (1/GPa) = 0.03641851
#
# Stress axis : x y z
#
# Youngs Moduli (GPa) = 54.90243 115.14680 40.08035
#
# Poissons Ratio (x) = 0.27983 0.02802
# Poissons Ratio (y) = 0.13343 0.18380
# Poissons Ratio (z) = 0.03838 0.52803
#
# Static dielectric constant tensor:
#      x y z
#    x 3.497500 0.000000 0.000000 
#    y 0.000000 4.653600 0.000000 
#    z 0.000000 0.000000 3.158230 
# 
# 
# High freq. dielectric constant tensor:
#      x y z
#    x 1.781190 0.000000 0.000000 
#    y 0.000000 1.803520 0.000000 
#    z 0.000000 0.000000 1.709480 
# 
# From -- ./inp_files/6070.got.cif
#   From: 2010.03.12/outbox.cif.g09.slc.cpg/sg51_4_cif.got.tgz:6070.got - 2010.04.16 13:43:02.
