data_PCOD8214896
_publ_section_title
;
Structure prediction by ZEFSAII (Michael W. Deem and Ramdas Pophale) SiO2 
 PCOD8214896
Probable space group: P M M A
;
_chemical_formula_sum "Si O2"
_cell_formula_units_Z 56
_cell_length_a 26.012074
_cell_length_b 9.569295
_cell_length_c 12.800530
_cell_angle_alpha 90.000000
_cell_angle_beta 90.000000
_cell_angle_gamma 90.000000
_cell_volume 3186.272210
_symmetry_space_group_name_H-M "P M M A"
_symmetry_group_IT_number 51
_symmetry_cell_setting 'orthorhombic'
loop_
_space_group_symop_operation_xyz
x,y,z
1/2-x,-y,z
1/2+x,-y,-z
-x,y,-z
-x,-y,-z
1/2+x,y,-z
1/2-x,y,z
x,-y,z
loop_
_atom_site_type_symbol
_atom_site_label
_atom_site_fract_x
_atom_site_fract_y
_atom_site_fract_z
Si Si1 0.613476 0.834750 0.910761
Si Si2 0.011259 0.342055 0.614360
Si Si3 0.989070 0.162631 0.802137
Si Si4 0.370492 0.341879 0.668733
Si Si5 0.104901 0.836440 0.858345
Si Si6 0.189818 0.660361 0.467039
Si Si7 0.190490 0.836165 0.266840
O O1 0.556313 0.785600 0.878299
O O2 0.657040 0.779768 0.831013
O O3 0.614769 0.000000 0.912301
O O4 0.624575 0.782332 0.028630
O O5 0.990436 0.500000 0.625702
O O6 0.980981 0.245247 0.694794
O O7 0.071374 0.334518 0.632789
O O8 0.000000 0.282389 0.500000
O O9 0.044018 0.196729 0.853560
O O10 0.983752 0.000000 0.775974
O O11 0.354108 0.500000 0.697316
O O12 0.362734 0.245967 0.770811
O O13 0.336447 0.283957 0.573084
O O14 0.115155 0.000000 0.841145
O O15 0.250000 0.675599 0.484158
O O16 0.173611 0.500000 0.445112
O O17 0.171664 0.754037 0.369588
O O18 0.250000 0.804093 0.241632
O O19 0.181302 0.000000 0.286969
#
# Coordination Sequence:
#
# PCOD8214896 Si02
#       7
#     8   8   8   8   8   8   8
#     4   9  17  30  49  70  93 123 157 192 234 276
#     4   9  18  30  43  63  94 126 151 182 228 277
#     4   9  17  29  46  68  91 120 158 193 224 267
#     4   9  18  32  48  66  93 124 152 187 233 275
#     4   9  17  31  49  69  94 124 157 192 228 270
#     4   9  18  33  52  71  92 121 156 193 233 278
#     4   9  18  32  49  70  95 120 149 190 236 278
#
# _framework density 17.575396999999999
#
# number of rings (size 3 to 8) (size 9 to 14) (size 15 to 20)
#    0.000    3.000    0.000    0.429    2.000    2.571 
#    0.000    2.143    0.000    4.286    0.000    0.000 
#    0.000    0.000    0.000    0.000    0.000    0.000 
#
# Total GULP energy -694289.248992 kJ/mol
# GULP energy per Si atom -12398.022303 kJ/mol
# Density = 1.753539 g / cm^3
# Si number density = 17.575397 Si / 1000 Ang^3
#
#
#
# Elastic Constant Matrix: (Units=GPa)
#
#
# Indices 1 2 3 4 5 6 
#
# 1 46.0312 24.5579 53.9654 0.0000 0.0000 0.0000
# 2 24.5579 49.7177 62.2191 0.0000 0.0000 0.0000
# 3 53.9654 62.2191 187.5638 0.0000 0.0000 0.0000
# 4 0.0000 0.0000 0.0000 14.6817 0.0000 0.0000
# 5 0.0000 0.0000 0.0000 0.0000 30.0759 0.0000
# 6 0.0000 0.0000 0.0000 0.0000 0.0000 16.7383
#
#
#
# Elastic Compliance Matrix: (Units=1/GPa)
#
#
# Indices 1 2 3 4 5 6 
#
# 1 0.034506 -0.007899 -0.007308 0.000000 0.000000 0.000000
# 2 -0.007899 0.036198 -0.009735 0.000000 0.000000 0.000000
# 3 -0.007308 -0.009735 0.010663 0.000000 0.000000 0.000000
# 4 0.000000 0.000000 0.000000 0.068112 0.000000 0.000000
# 5 0.000000 0.000000 0.000000 0.000000 0.033249 0.000000
# 6 0.000000 0.000000 0.000000 0.000000 0.000000 0.059743
#
#
# Mechanical properties :
#
#
# Convention : Reuss Voigt Hill
#
# Bulk Modulus (GPa) = 31.76208 62.75528 47.25868
# Shear Modulus (GPa) = 16.50983 21.80386 19.15684
#
# Velocity S-wave (km/s) = 3.06824 3.52602 3.30507
# Velocity P-wave (km/s) = 5.53744 7.23609 6.44299
#
# Compressibility (1/GPa) = 0.03148408
#
# Stress axis : x y z
#
# Youngs Moduli (GPa) = 28.98061 27.62577 93.77856
#
# Poissons Ratio (x) = 0.21821 0.68531
# Poissons Ratio (y) = 0.22891 0.91294
# Poissons Ratio (z) = 0.21178 0.26894
#
# Static dielectric constant tensor:
#      x y z
#    x 3.197380 0.000000 0.000000 
#    y 0.000000 3.195120 0.000000 
#    z 0.000000 0.000000 3.507730 
# 
# 
# High freq. dielectric constant tensor:
#      x y z
#    x 1.665860 0.000000 0.000000 
#    y 0.000000 1.657740 0.000000 
#    z 0.000000 0.000000 1.687360 
# 
# From -- ./inp_files/19170.got.cif
#   From: 2010.03.12/outbox.cif.g09.slc.cpg/sg51_10_cif.got.tgz:19170.got - 2010.04.16 13:43:02.
