data_PCOD8214164
_publ_section_title
;
Structure prediction by ZEFSAII (Michael W. Deem and Ramdas Pophale) SiO2 
 PCOD8214164
Probable space group: P M M A
;
_chemical_formula_sum "Si O2"
_cell_formula_units_Z 48
_cell_length_a 14.143812
_cell_length_b 8.747178
_cell_length_c 19.039827
_cell_angle_alpha 90.000000
_cell_angle_beta 90.000000
_cell_angle_gamma 90.000000
_cell_volume 2355.577716
_symmetry_space_group_name_H-M "P M M A"
_symmetry_group_IT_number 51
_symmetry_cell_setting 'orthorhombic'
loop_
_space_group_symop_operation_xyz
x,y,z
1/2-x,-y,z
1/2+x,-y,-z
-x,y,-z
-x,-y,-z
1/2+x,y,-z
1/2-x,y,z
x,-y,z
loop_
_atom_site_type_symbol
_atom_site_label
_atom_site_fract_x
_atom_site_fract_y
_atom_site_fract_z
Si Si1 0.140643 0.319232 0.520643
Si Si2 0.524922 0.181311 0.602783
Si Si3 0.643190 0.319937 0.880719
Si Si4 0.141187 0.180059 0.825378
Si Si5 0.862347 0.829786 0.020083
Si Si6 0.477533 0.679937 0.250313
O O1 0.250000 0.277297 0.534550
O O2 0.125822 0.500000 0.514300
O O3 0.076956 0.255147 0.584280
O O4 0.106491 0.240611 0.448905
O O5 0.555489 0.232043 0.680310
O O6 0.516867 0.000000 0.597003
O O7 0.750000 0.256904 0.874455
O O8 0.641328 0.500000 0.880322
O O9 0.596467 0.266573 0.954665
O O10 0.586136 0.257253 0.813882
O O11 0.250000 0.219700 0.813082
O O12 0.085269 0.276832 0.767469
O O13 0.122784 0.000000 0.816058
O O14 0.107258 0.234161 0.903385
O O15 0.750000 0.828641 0.018750
O O16 0.901631 0.000000 0.010524
O O17 0.466685 0.500000 0.262510
#
# Coordination Sequence:
#
# PCOD8214164 Si02
#       6
#     8   8   8   8   8   8
#     4  10  21  40  67  93 117 148 183 220 267 324
#     4  11  23  39  60  87 120 151 184 229 272 320
#     4   9  19  35  53  74 103 141 184 229 277 328
#     4   9  19  36  55  76 105 142 184 230 282 336
#     4   8  15  30  52  75 100 134 179 231 282 332
#     4  11  23  37  54  79 112 148 186 227 275 330
#
# _framework density 20.377167
#
# number of rings (size 3 to 8) (size 9 to 14) (size 15 to 20)
#    0.000    2.333    0.000    4.500    0.000    5.667 
#    0.000    6.667    0.000    0.000    0.000    0.000 
#    0.000    0.000    0.000    0.000    0.000    0.000 
#
# Total GULP energy -595130.005540 kJ/mol
# GULP energy per Si atom -12398.541782 kJ/mol
# Density = 2.033079 g / cm^3
# Si number density = 20.377167 Si / 1000 Ang^3
#
#
#
# Elastic Constant Matrix: (Units=GPa)
#
#
# Indices 1 2 3 4 5 6 
#
# 1 42.8371 16.1416 -6.1068 0.0000 0.0000 0.0000
# 2 16.1416 72.5361 20.1891 0.0000 0.0000 0.0000
# 3 -6.1068 20.1891 87.3218 0.0000 0.0000 0.0000
# 4 0.0000 0.0000 0.0000 38.6157 0.0000 0.0000
# 5 0.0000 0.0000 0.0000 0.0000 23.0638 0.0000
# 6 0.0000 0.0000 0.0000 0.0000 0.0000 20.2066
#
#
#
# Elastic Compliance Matrix: (Units=1/GPa)
#
#
# Indices 1 2 3 4 5 6 
#
# 1 0.026406 -0.006830 0.003426 0.000000 0.000000 0.000000
# 2 -0.006830 0.016501 -0.004293 0.000000 0.000000 0.000000
# 3 0.003426 -0.004293 0.012684 0.000000 0.000000 0.000000
# 4 0.000000 0.000000 0.000000 0.025896 0.000000 0.000000
# 5 0.000000 0.000000 0.000000 0.000000 0.043358 0.000000
# 6 0.000000 0.000000 0.000000 0.000000 0.000000 0.049489
#
#
# Mechanical properties :
#
#
# Convention : Reuss Voigt Hill
#
# Bulk Modulus (GPa) = 24.87706 29.23808 27.05757
# Shear Modulus (GPa) = 24.61521 27.87529 26.24525
#
# Velocity S-wave (km/s) = 3.47937 3.70262 3.59273
# Velocity P-wave (km/s) = 5.32693 5.71478 5.52426
#
# Compressibility (1/GPa) = 0.04019768
#
# Stress axis : x y z
#
# Youngs Moduli (GPa) = 37.86999 60.60296 78.83977
#
# Poissons Ratio (x) = 0.41390 -0.27008
# Poissons Ratio (y) = 0.25864 0.33843
# Poissons Ratio (z) = -0.12973 0.26015
#
# Static dielectric constant tensor:
#      x y z
#    x 3.702030 0.000000 0.000000 
#    y 0.000000 3.585480 0.000000 
#    z 0.000000 0.000000 3.834570 
# 
# 
# High freq. dielectric constant tensor:
#      x y z
#    x 1.792570 0.000000 0.000000 
#    y 0.000000 1.788940 0.000000 
#    z 0.000000 0.000000 1.801210 
# 
# From -- ./inp_files/29461.got.cif
#   From: 2010.03.12/outbox.cif.g09.slc.cpg/sg51_15_cif.got.tgz:29461.got - 2010.04.16 13:43:02.
