data_PCOD8214875
_publ_section_title
;
Structure prediction by ZEFSAII (Michael W. Deem and Ramdas Pophale) SiO2 
 PCOD8214875
Probable space group: P M M A
;
_chemical_formula_sum "Si O2"
_cell_formula_units_Z 40
_cell_length_a 19.156372
_cell_length_b 7.884798
_cell_length_c 15.465333
_cell_angle_alpha 90.000000
_cell_angle_beta 90.000000
_cell_angle_gamma 90.000000
_cell_volume 2335.947670
_symmetry_space_group_name_H-M "P M M A"
_symmetry_group_IT_number 51
_symmetry_cell_setting 'orthorhombic'
loop_
_space_group_symop_operation_xyz
x,y,z
1/2-x,-y,z
1/2+x,-y,-z
-x,y,-z
-x,-y,-z
1/2+x,y,-z
1/2-x,y,z
x,-y,z
loop_
_atom_site_type_symbol
_atom_site_label
_atom_site_fract_x
_atom_site_fract_y
_atom_site_fract_z
Si Si1 0.554527 0.000000 0.872212
Si Si2 0.826110 0.803209 0.338465
Si Si3 0.128854 0.314789 0.838631
Si Si4 0.397117 0.000000 0.941329
Si Si5 0.028942 0.201093 0.590590
Si Si6 0.473899 0.687237 0.232117
O O1 0.474889 0.000000 0.903497
O O2 0.571775 0.167103 0.814680
O O3 0.604836 0.000000 0.954997
O O4 0.750000 0.770995 0.382917
O O5 0.824890 0.709075 0.246768
O O6 0.889816 0.740007 0.399191
O O7 0.838113 0.000000 0.317968
O O8 0.146327 0.500000 0.878985
O O9 0.048974 0.306803 0.811127
O O10 0.143623 0.168242 0.908928
O O11 0.000000 0.272157 0.500000
O O12 0.980986 0.277921 0.665841
O O13 0.022570 0.000000 0.594950
O O14 0.440032 0.500000 0.218881
#
# Coordination Sequence:
#
# PCOD8214875 Si02
#       6
#     4   8   8   4   8   8
#     4   9  16  26  39  56  81 110 141 176 212 254
#     4   9  16  27  43  62  87 118 149 183 223 270
#     4   9  16  26  40  58  82 112 143 174 213 260
#     4   9  16  26  39  56  81 110 140 174 210 251
#     4   9  16  27  43  62  87 119 153 188 231 278
#     4   9  16  26  40  58  82 113 146 178 217 265
#
# _framework density 17.123671000000002
#
# number of rings (size 3 to 8) (size 9 to 14) (size 15 to 20)
#    0.000    3.000    2.000    0.000    0.000    1.600 
#    0.000    4.000    0.000    0.000    0.000    0.000 
#    0.000    3.200    0.000    1.000    0.000    0.600 
#
# Total GULP energy -495646.872857 kJ/mol
# GULP energy per Si atom -12391.171821 kJ/mol
# Density = 1.708470 g / cm^3
# Si number density = 17.123671 Si / 1000 Ang^3
#
#
#
# Elastic Constant Matrix: (Units=GPa)
#
#
# Indices 1 2 3 4 5 6 
#
# 1 45.2722 20.7599 35.2501 0.0000 0.0000 0.0000
# 2 20.7599 113.6580 67.6761 0.0000 0.0000 0.0000
# 3 35.2501 67.6761 118.6255 0.0000 0.0000 0.0000
# 4 0.0000 0.0000 0.0000 10.8173 0.0000 0.0000
# 5 0.0000 0.0000 0.0000 0.0000 11.6889 0.0000
# 6 0.0000 0.0000 0.0000 0.0000 0.0000 5.6859
#
#
#
# Elastic Compliance Matrix: (Units=1/GPa)
#
#
# Indices 1 2 3 4 5 6 
#
# 1 0.028742 -0.000249 -0.008399 0.000000 0.000000 0.000000
# 2 -0.000249 0.013327 -0.007529 0.000000 0.000000 0.000000
# 3 -0.008399 -0.007529 0.015221 0.000000 0.000000 0.000000
# 4 0.000000 0.000000 0.000000 0.092444 0.000000 0.000000
# 5 0.000000 0.000000 0.000000 0.000000 0.085551 0.000000
# 6 0.000000 0.000000 0.000000 0.000000 0.000000 0.175872
#
#
# Mechanical properties :
#
#
# Convention : Reuss Voigt Hill
#
# Bulk Modulus (GPa) = 40.10177 58.32532 49.21355
# Shear Modulus (GPa) = 11.06626 15.89640 13.48133
#
# Velocity S-wave (km/s) = 2.54491 3.05015 2.80892
# Velocity P-wave (km/s) = 5.66614 6.82201 6.27076
#
# Compressibility (1/GPa) = 0.02493656
#
# Stress axis : x y z
#
# Youngs Moduli (GPa) = 34.79185 75.03644 65.69853
#
# Poissons Ratio (x) = 0.01867 0.55180
# Poissons Ratio (y) = 0.00866 0.49465
# Poissons Ratio (z) = 0.29222 0.56495
#
# Static dielectric constant tensor:
#      x y z
#    x 2.797790 0.000000 0.000000 
#    y 0.000000 3.507570 0.000000 
#    z 0.000000 0.000000 3.155100 
# 
# 
# High freq. dielectric constant tensor:
#      x y z
#    x 1.598320 0.000000 0.000000 
#    y 0.000000 1.675610 0.000000 
#    z 0.000000 0.000000 1.635800 
# 
# From -- ./inp_files/18000.got.cif
#   From: 2010.03.12/outbox.cif.g09.slc.cpg/sg51_9_cif.got.tgz:18000.got - 2010.04.16 13:43:02.
