data_PCOD8214253
_publ_section_title
;
Structure prediction by ZEFSAII (Michael W. Deem and Ramdas Pophale) SiO2 
 PCOD8214253
Probable space group: P M M A
;
_chemical_formula_sum "Si O2"
_cell_formula_units_Z 56
_cell_length_a 16.333889
_cell_length_b 18.892944
_cell_length_c 9.015227
_cell_angle_alpha 90.000000
_cell_angle_beta 90.000000
_cell_angle_gamma 90.000000
_cell_volume 2782.056231
_symmetry_space_group_name_H-M "P M M A"
_symmetry_group_IT_number 51
_symmetry_cell_setting 'orthorhombic'
loop_
_space_group_symop_operation_xyz
x,y,z
1/2-x,-y,z
1/2+x,-y,-z
-x,y,-z
-x,-y,-z
1/2+x,y,-z
1/2-x,y,z
x,-y,z
loop_
_atom_site_type_symbol
_atom_site_label
_atom_site_fract_x
_atom_site_fract_y
_atom_site_fract_z
Si Si1 0.348609 0.212254 0.876888
Si Si2 0.573711 0.683715 0.593760
Si Si3 0.843958 0.580614 0.360258
Si Si4 0.102744 0.920604 0.357337
Si Si5 0.914498 0.918618 0.303953
Si Si6 0.042031 0.654035 0.840973
Si Si7 0.660609 0.792311 0.791272
O O1 0.250000 0.226278 0.860416
O O2 0.368916 0.136418 0.804055
O O3 0.405800 0.273765 0.808083
O O4 0.380739 0.212716 0.047388
O O5 0.500000 0.717362 0.500000
O O6 0.627128 0.630331 0.495538
O O7 0.535200 0.643277 0.733268
O O8 0.622484 0.749746 0.655867
O O9 0.750000 0.597628 0.325868
O O10 0.856506 0.500000 0.411724
O O11 0.893715 0.592959 0.206213
O O12 0.120364 0.908996 0.530882
O O13 0.163207 0.873264 0.260377
O O14 0.010447 0.901539 0.309825
O O15 0.123180 0.000000 0.312389
O O16 0.899375 0.000000 0.250161
O O17 0.000000 0.645063 0.000000
O O18 0.750000 0.761206 0.813746
#
# Coordination Sequence:
#
# PCOD8214253 Si02
#       7
#     8   8   8   8   8   8   8
#     4  11  24  39  58  86 125 164 203 256 313 370
#     4  10  22  38  64  91 119 158 203 251 296 358
#     4  10  23  44  68  96 130 164 199 245 303 362
#     4   9  20  37  57  83 114 153 202 258 312 365
#     4   9  20  38  60  84 114 155 206 259 312 371
#     4  11  22  40  65  93 125 164 208 252 298 359
#     4  11  23  37  56  85 120 158 202 252 308 367
#
# _framework density 20.128996999999998
#
# number of rings (size 3 to 8) (size 9 to 14) (size 15 to 20)
#    0.000    1.857    1.429    2.571    6.000    4.571 
#    0.000    4.286    0.000    1.714    0.000    0.000 
#    0.000    0.000    0.000    0.000    0.000    0.000 
#
# Total GULP energy -693888.599143 kJ/mol
# GULP energy per Si atom -12390.867842 kJ/mol
# Density = 2.008318 g / cm^3
# Si number density = 20.128997 Si / 1000 Ang^3
#
#
#
# Elastic Constant Matrix: (Units=GPa)
#
#
# Indices 1 2 3 4 5 6 
#
# 1 85.8411 44.6305 47.9908 0.0000 0.0000 0.0000
# 2 44.6305 95.9488 42.1910 0.0000 0.0000 0.0000
# 3 47.9908 42.1910 100.7774 0.0000 0.0000 0.0000
# 4 0.0000 0.0000 0.0000 23.5798 0.0000 0.0000
# 5 0.0000 0.0000 0.0000 0.0000 32.2996 0.0000
# 6 0.0000 0.0000 0.0000 0.0000 0.0000 30.2374
#
#
#
# Elastic Compliance Matrix: (Units=1/GPa)
#
#
# Indices 1 2 3 4 5 6 
#
# 1 0.018085 -0.005669 -0.006239 0.000000 0.000000 0.000000
# 2 -0.005669 0.014551 -0.003392 0.000000 0.000000 0.000000
# 3 -0.006239 -0.003392 0.014314 0.000000 0.000000 0.000000
# 4 0.000000 0.000000 0.000000 0.042409 0.000000 0.000000
# 5 0.000000 0.000000 0.000000 0.000000 0.030960 0.000000
# 6 0.000000 0.000000 0.000000 0.000000 0.000000 0.033072
#
#
# Mechanical properties :
#
#
# Convention : Reuss Voigt Hill
#
# Bulk Modulus (GPa) = 61.16276 61.35467 61.25871
# Shear Modulus (GPa) = 26.39365 27.07369 26.73367
#
# Velocity S-wave (km/s) = 3.62501 3.67142 3.64829
# Velocity P-wave (km/s) = 6.92621 6.96558 6.94592
#
# Compressibility (1/GPa) = 0.01634982
#
# Stress axis : x y z
#
# Youngs Moduli (GPa) = 55.29581 68.72531 69.86182
#
# Poissons Ratio (x) = 0.38958 0.43585
# Poissons Ratio (y) = 0.31346 0.23699
# Poissons Ratio (z) = 0.34498 0.23313
#
# Static dielectric constant tensor:
#      x y z
#    x 3.710690 0.000000 0.000000 
#    y 0.000000 3.537150 0.000000 
#    z 0.000000 0.000000 3.903960 
# 
# 
# High freq. dielectric constant tensor:
#      x y z
#    x 1.789840 0.000000 0.000000 
#    y 0.000000 1.777330 0.000000 
#    z 0.000000 0.000000 1.788340 
# 
# From -- ./inp_files/8513.got.cif
#   From: 2010.03.12/outbox.cif.g09.slc.cpg/sg51_5_cif.got.tgz:8513.got - 2010.04.16 13:43:02.
