data_PCOD8214408
_publ_section_title
;
Structure prediction by ZEFSAII (Michael W. Deem and Ramdas Pophale) SiO2 
 PCOD8214408
Probable space group: P M M A
;
_chemical_formula_sum "Si O2"
_cell_formula_units_Z 48
_cell_length_a 16.900656
_cell_length_b 16.528697
_cell_length_c 7.919898
_cell_angle_alpha 90.000000
_cell_angle_beta 90.000000
_cell_angle_gamma 90.000000
_cell_volume 2212.390418
_symmetry_space_group_name_H-M "P M M A"
_symmetry_group_IT_number 51
_symmetry_cell_setting 'orthorhombic'
loop_
_space_group_symop_operation_xyz
x,y,z
1/2-x,-y,z
1/2+x,-y,-z
-x,y,-z
-x,-y,-z
1/2+x,y,-z
1/2-x,y,z
x,-y,z
loop_
_atom_site_type_symbol
_atom_site_label
_atom_site_fract_x
_atom_site_fract_y
_atom_site_fract_z
Si Si1 0.155933 0.805308 0.382758
Si Si2 0.338490 0.500000 0.240842
Si Si3 0.837387 0.500000 0.158585
Si Si4 0.062864 0.350713 0.372189
Si Si5 0.061411 0.645759 0.879002
Si Si6 0.343270 0.909773 0.699593
Si Si7 0.592078 0.188570 0.987583
O O1 0.250000 0.796918 0.377837
O O2 0.119515 0.719324 0.441312
O O3 0.126306 0.867084 0.527272
O O4 0.125970 0.833214 0.197705
O O5 0.250000 0.500000 0.318366
O O6 0.383229 0.579713 0.296767
O O7 0.332537 0.500000 0.041024
O O8 0.750000 0.500000 0.240587
O O9 0.882034 0.581870 0.217643
O O10 0.000000 0.390746 0.500000
O O11 0.001333 0.308141 0.241793
O O12 0.110551 0.715813 0.975155
O O13 0.000000 0.596041 0.000000
O O14 0.250000 0.914212 0.689614
O O15 0.364598 0.863385 0.870491
O O16 0.379876 0.000000 0.705350
O O17 0.500000 0.167986 0.000000
#
# Coordination Sequence:
#
# PCOD8214408 Si02
#       7
#     8   4   4   8   8   8   8
#     4  11  23  41  68  96 128 173 221 265 322 392
#     4  11  22  37  57  88 122 159 217 266 309 373
#     4  11  22  36  61  91 124 165 215 268 314 374
#     4  12  23  39  62  87 124 170 209 265 325 380
#     4  11  20  39  60  87 125 163 210 259 316 381
#     4  10  24  45  67  96 134 171 212 269 332 394
#     4  11  22  40  68  99 132 171 217 269 327 393
#
# _framework density 21.695992
#
# number of rings (size 3 to 8) (size 9 to 14) (size 15 to 20)
#    0.000    1.000    5.000    3.000    0.000    3.667 
#    0.000    5.000    0.000    0.000    0.000    0.000 
#    0.000    0.000    0.000    0.000    0.000    0.000 
#
# Total GULP energy -594777.854495 kJ/mol
# GULP energy per Si atom -12391.205302 kJ/mol
# Density = 2.164661 g / cm^3
# Si number density = 21.695992 Si / 1000 Ang^3
#
#
#
# Elastic Constant Matrix: (Units=GPa)
#
#
# Indices 1 2 3 4 5 6 
#
# 1 90.3706 35.6435 22.2612 0.0000 0.0000 0.0000
# 2 35.6435 138.8649 39.7256 0.0000 0.0000 0.0000
# 3 22.2612 39.7256 94.9857 0.0000 0.0000 0.0000
# 4 0.0000 0.0000 0.0000 25.0249 0.0000 0.0000
# 5 0.0000 0.0000 0.0000 0.0000 35.6153 0.0000
# 6 0.0000 0.0000 0.0000 0.0000 0.0000 19.1247
#
#
#
# Elastic Compliance Matrix: (Units=1/GPa)
#
#
# Indices 1 2 3 4 5 6 
#
# 1 0.012582 -0.002710 -0.001815 0.000000 0.000000 0.000000
# 2 -0.002710 0.008764 -0.003030 0.000000 0.000000 0.000000
# 3 -0.001815 -0.003030 0.012221 0.000000 0.000000 0.000000
# 4 0.000000 0.000000 0.000000 0.039960 0.000000 0.000000
# 5 0.000000 0.000000 0.000000 0.000000 0.028078 0.000000
# 6 0.000000 0.000000 0.000000 0.000000 0.000000 0.052289
#
#
# Mechanical properties :
#
#
# Convention : Reuss Voigt Hill
#
# Bulk Modulus (GPa) = 54.18569 57.72021 55.95295
# Shear Modulus (GPa) = 28.54615 31.05902 29.80259
#
# Velocity S-wave (km/s) = 3.63124 3.78770 3.71029
# Velocity P-wave (km/s) = 6.52766 6.76688 6.64835
#
# Compressibility (1/GPa) = 0.01845506
#
# Stress axis : x y z
#
# Youngs Moduli (GPa) = 79.48111 114.10706 81.82918
#
# Poissons Ratio (x) = 0.30925 0.14854
# Poissons Ratio (y) = 0.21540 0.24795
# Poissons Ratio (z) = 0.14428 0.34575
#
# Static dielectric constant tensor:
#      x y z
#    x 4.055420 0.000000 0.000000 
#    y 0.000000 3.959930 0.000000 
#    z 0.000000 0.000000 4.480370 
# 
# 
# High freq. dielectric constant tensor:
#      x y z
#    x 1.857570 0.000000 0.000000 
#    y 0.000000 1.837540 0.000000 
#    z 0.000000 0.000000 1.862730 
# 
# From -- ./inp_files/8370.got.cif
#   From: 2010.03.12/outbox.cif.g09.slc.cpg/sg51_5_cif.got.tgz:8370.got - 2010.04.16 13:43:02.
