data_PCOD8214634
_publ_section_title
;
Structure prediction by ZEFSAII (Michael W. Deem and Ramdas Pophale) SiO2 
 PCOD8214634
Probable space group: P M M A
;
_chemical_formula_sum "Si O2"
_cell_formula_units_Z 40
_cell_length_a 18.388385
_cell_length_b 13.981468
_cell_length_c 7.601095
_cell_angle_alpha 90.000000
_cell_angle_beta 90.000000
_cell_angle_gamma 90.000000
_cell_volume 1954.215806
_symmetry_space_group_name_H-M "P M M A"
_symmetry_group_IT_number 51
_symmetry_cell_setting 'orthorhombic'
loop_
_space_group_symop_operation_xyz
x,y,z
1/2-x,-y,z
1/2+x,-y,-z
-x,y,-z
-x,-y,-z
1/2+x,y,-z
1/2-x,y,z
x,-y,z
loop_
_atom_site_type_symbol
_atom_site_label
_atom_site_fract_x
_atom_site_fract_y
_atom_site_fract_z
Si Si1 0.835922 0.196443 0.223122
Si Si2 0.666181 0.608390 0.684380
Si Si3 0.923984 0.111598 0.919124
Si Si4 0.836207 0.396580 0.083022
Si Si5 0.082773 0.781614 0.445132
O O1 0.750000 0.187129 0.242001
O O2 0.874445 0.160198 0.401770
O O3 0.860134 0.132601 0.057949
O O4 0.862896 0.306653 0.196609
O O5 0.750000 0.641644 0.668649
O O6 0.658148 0.500000 0.615307
O O7 0.637110 0.617108 0.883338
O O8 0.617169 0.676110 0.564397
O O9 0.906455 0.164049 0.737548
O O10 0.927796 0.000000 0.877615
O O11 0.000000 0.148743 0.000000
O O12 0.750000 0.399207 0.080909
O O13 0.865165 0.500000 0.155402
O O14 0.000000 0.773181 0.500000
#
# Coordination Sequence:
#
# PCOD8214634 Si02
#       5
#     8   8   8   8   8
#     4  11  23  40  66  99 131 165 214 270 319 379
#     4   9  18  35  60  90 129 175 216 257 311 376
#     4  11  25  47  70  89 121 170 215 263 333 401
#     4   8  15  31  58  88 121 165 209 249 304 372
#     4  12  24  39  65  98 131 169 217 267 320 386
#
# _framework density 20.468568000000001
#
# number of rings (size 3 to 8) (size 9 to 14) (size 15 to 20)
#    0.000    1.800    4.000    1.800    0.000    3.600 
#    0.000    2.000    0.000    3.600    0.000    0.000 
#    0.000    0.000    0.000    0.000    0.000    0.000 
#
# Total GULP energy -495948.725671 kJ/mol
# GULP energy per Si atom -12398.718142 kJ/mol
# Density = 2.042198 g / cm^3
# Si number density = 20.468568 Si / 1000 Ang^3
#
#
#
# Elastic Constant Matrix: (Units=GPa)
#
#
# Indices 1 2 3 4 5 6 
#
# 1 110.6485 30.9316 53.9680 0.0000 0.0000 0.0000
# 2 30.9316 66.1587 33.9439 0.0000 0.0000 0.0000
# 3 53.9680 33.9439 135.8851 0.0000 0.0000 0.0000
# 4 0.0000 0.0000 0.0000 6.4935 0.0000 0.0000
# 5 0.0000 0.0000 0.0000 0.0000 -21.8000 0.0000
# 6 0.0000 0.0000 0.0000 0.0000 0.0000 25.9238
#
#
#
# Elastic Compliance Matrix: (Units=1/GPa)
#
#
# Indices 1 2 3 4 5 6 
#
# 1 0.011914 -0.003604 -0.003831 0.000000 0.000000 0.000000
# 2 -0.003604 0.018428 -0.003172 0.000000 0.000000 0.000000
# 3 -0.003831 -0.003172 0.009673 0.000000 0.000000 0.000000
# 4 0.000000 0.000000 0.000000 0.154000 0.000000 0.000000
# 5 0.000000 0.000000 0.000000 0.000000 -0.045872 0.000000
# 6 0.000000 0.000000 0.000000 0.000000 0.000000 0.038575
#
#
# Mechanical properties :
#
#
# Convention : Reuss Voigt Hill
#
# Bulk Modulus (GPa) = 53.19215 61.15327 57.17271
# Shear Modulus (GPa) = 23.34278 15.04671 19.19475
#
# Velocity S-wave (km/s) = 3.38068 2.71424 3.06562
# Velocity P-wave (km/s) = 6.42513 6.30590 6.36579
#
# Compressibility (1/GPa) = 0.01879976
#
# Stress axis : x y z
#
# Youngs Moduli (GPa) = 83.93511 54.26620 103.37961
#
# Poissons Ratio (x) = 0.19560 0.39608
# Poissons Ratio (y) = 0.30254 0.32788
# Poissons Ratio (z) = 0.32158 0.17211
#
# Static dielectric constant tensor:
#      x y z
#    x 3.480740 0.000000 0.000000 
#    y 0.000000 4.027740 0.000000 
#    z 0.000000 0.000000 3.853130 
# 
# 
# High freq. dielectric constant tensor:
#      x y z
#    x 1.778680 0.000000 0.000000 
#    y 0.000000 1.793520 0.000000 
#    z 0.000000 0.000000 1.811160 
# 
# From -- ./inp_files/9425.got.cif
#   From: 2010.03.12/outbox.cif.g09.slc.cpg/sg51_5_cif.got.tgz:9425.got - 2010.04.16 13:43:02.
