data_PCOD8214844
_publ_section_title
;
Structure prediction by ZEFSAII (Michael W. Deem and Ramdas Pophale) SiO2 
 PCOD8214844
Probable space group: P M M A
;
_chemical_formula_sum "Si O2"
_cell_formula_units_Z 40
_cell_length_a 16.259384
_cell_length_b 16.621601
_cell_length_c 8.826439
_cell_angle_alpha 90.000000
_cell_angle_beta 90.000000
_cell_angle_gamma 90.000000
_cell_volume 2385.406866
_symmetry_space_group_name_H-M "P M M A"
_symmetry_group_IT_number 51
_symmetry_cell_setting 'orthorhombic'
loop_
_space_group_symop_operation_xyz
x,y,z
1/2-x,-y,z
1/2+x,-y,-z
-x,y,-z
-x,-y,-z
1/2+x,y,-z
1/2-x,y,z
x,-y,z
loop_
_atom_site_type_symbol
_atom_site_label
_atom_site_fract_x
_atom_site_fract_y
_atom_site_fract_z
Si Si1 0.341060 0.591020 0.361467
Si Si2 0.497786 0.407203 0.172667
Si Si3 0.917560 0.697473 0.402790
Si Si4 0.156824 0.000000 0.394075
Si Si5 0.998532 0.000000 0.182933
Si Si6 0.078831 0.876705 0.603887
O O1 0.250000 0.599793 0.291039
O O2 0.356508 0.500000 0.420651
O O3 0.406340 0.612569 0.231846
O O4 0.347622 0.652087 0.501997
O O5 0.521032 0.500000 0.199300
O O6 0.566656 0.352913 0.251403
O O7 0.500000 0.382276 0.000000
O O8 0.888201 0.787353 0.358061
O O9 0.000000 0.698841 0.500000
O O10 0.146654 0.076737 0.504695
O O11 0.250000 0.000000 0.327813
O O12 0.091131 0.000000 0.254707
O O13 0.947373 0.922242 0.241279
O O14 0.000000 0.000000 0.000000
O O15 0.000000 0.870763 0.500000
#
# Coordination Sequence:
#
# PCOD8214844 Si02
#       6
#     8   8   8   4   4   8
#     4   9  17  29  45  65  89 118 154 197 239 274
#     4   9  17  29  45  66  93 125 158 190 227 276
#     4   9  16  28  47  67  87 115 153 191 225 267
#     4   9  17  31  50  68  89 120 156 191 230 276
#     4   9  17  31  49  70  97 124 152 185 226 278
#     4   8  16  30  47  67  89 117 151 185 224 272
#
# _framework density 16.768628
#
# number of rings (size 3 to 8) (size 9 to 14) (size 15 to 20)
#    0.000    3.200    0.000    1.800    0.000    4.000 
#    0.000    3.000    0.000    3.600    0.000    0.000 
#    0.000    0.000    0.000    0.000    0.000    0.000 
#
# Total GULP energy -495715.268149 kJ/mol
# GULP energy per Si atom -12392.881704 kJ/mol
# Density = 1.673046 g / cm^3
# Si number density = 16.768628 Si / 1000 Ang^3
#
#
#
# Elastic Constant Matrix: (Units=GPa)
#
#
# Indices 1 2 3 4 5 6 
#
# 1 72.8919 28.7276 34.0638 0.0000 0.0000 0.0000
# 2 28.7276 113.8369 60.4851 0.0000 0.0000 0.0000
# 3 34.0638 60.4851 122.9588 0.0000 0.0000 0.0000
# 4 0.0000 0.0000 0.0000 14.3288 0.0000 0.0000
# 5 0.0000 0.0000 0.0000 0.0000 15.5662 0.0000
# 6 0.0000 0.0000 0.0000 0.0000 0.0000 11.1434
#
#
#
# Elastic Compliance Matrix: (Units=1/GPa)
#
#
# Indices 1 2 3 4 5 6 
#
# 1 0.016194 -0.002306 -0.003352 0.000000 0.000000 0.000000
# 2 -0.002306 0.012221 -0.005373 0.000000 0.000000 0.000000
# 3 -0.003352 -0.005373 0.011705 0.000000 0.000000 0.000000
# 4 0.000000 0.000000 0.000000 0.069789 0.000000 0.000000
# 5 0.000000 0.000000 0.000000 0.000000 0.064242 0.000000
# 6 0.000000 0.000000 0.000000 0.000000 0.000000 0.089739
#
#
# Mechanical properties :
#
#
# Convention : Reuss Voigt Hill
#
# Bulk Modulus (GPa) = 55.37635 61.80452 58.59044
# Shear Modulus (GPa) = 17.12496 20.63508 18.88002
#
# Velocity S-wave (km/s) = 3.19917 3.51176 3.35910
# Velocity P-wave (km/s) = 6.83679 7.30620 7.07539
#
# Compressibility (1/GPa) = 0.01805825
#
# Stress axis : x y z
#
# Youngs Moduli (GPa) = 61.75068 81.82502 85.43688
#
# Poissons Ratio (x) = 0.18866 0.28640
# Poissons Ratio (y) = 0.14237 0.45906
# Poissons Ratio (z) = 0.20700 0.43965
#
# Static dielectric constant tensor:
#      x y z
#    x 2.932060 0.000000 0.000000 
#    y 0.000000 3.718290 0.000000 
#    z 0.000000 0.000000 2.929540 
# 
# 
# High freq. dielectric constant tensor:
#      x y z
#    x 1.624900 0.000000 0.000000 
#    y 0.000000 1.654310 0.000000 
#    z 0.000000 0.000000 1.621620 
# 
# From -- ./inp_files/9790.got.cif
#   From: 2010.03.12/outbox.cif.g09.slc.cpg/sg51_5_cif.got.tgz:9790.got - 2010.04.16 13:43:02.
