data_PCOD8214209
_publ_section_title
;
Structure prediction by ZEFSAII (Michael W. Deem and Ramdas Pophale) SiO2 
 PCOD8214209
Probable space group: P M M A
;
_chemical_formula_sum "Si O2"
_cell_formula_units_Z 44
_cell_length_a 9.245924
_cell_length_b 17.360483
_cell_length_c 15.019589
_cell_angle_alpha 90.000000
_cell_angle_beta 90.000000
_cell_angle_gamma 90.000000
_cell_volume 2410.849899
_symmetry_space_group_name_H-M "P M M A"
_symmetry_group_IT_number 51
_symmetry_cell_setting 'orthorhombic'
loop_
_space_group_symop_operation_xyz
x,y,z
1/2-x,-y,z
1/2+x,-y,-z
-x,y,-z
-x,-y,-z
1/2+x,y,-z
1/2-x,y,z
x,-y,z
loop_
_atom_site_type_symbol
_atom_site_label
_atom_site_fract_x
_atom_site_fract_y
_atom_site_fract_z
Si Si1 0.913471 0.880324 0.085203
Si Si2 0.587536 0.697295 0.083518
Si Si3 0.581620 0.587309 0.588282
Si Si4 0.081613 0.699349 0.256319
Si Si5 0.081692 0.876610 0.261011
Si Si6 0.581089 0.000000 0.593786
O O1 0.750000 0.913053 0.084559
O O2 0.911318 0.788903 0.079239
O O3 0.991813 0.906856 0.176024
O O4 0.000000 0.913907 0.000000
O O5 0.750000 0.664274 0.081989
O O6 0.507915 0.669798 0.172182
O O7 0.500000 0.663099 0.000000
O O8 0.500000 0.612545 0.500000
O O9 0.750000 0.596363 0.569173
O O10 0.542289 0.500000 0.616426
O O11 0.529516 0.645431 0.663955
O O12 0.250000 0.688847 0.234114
O O13 0.046433 0.787572 0.281419
O O14 0.250000 0.888839 0.237906
O O15 0.037707 0.924778 0.348567
O O16 0.500000 0.000000 0.500000
O O17 0.750000 0.000000 0.571903
#
# Coordination Sequence:
#
# PCOD8214209 Si02
#       6
#     8   8   8   8   8   4
#     4   9  16  27  46  72  99 126 155 190 233 279
#     4   9  16  26  43  69  99 128 158 192 230 273
#     4   9  18  32  49  70  96 124 153 189 236 285
#     4   9  17  30  49  71  95 124 157 193 232 275
#     4   9  18  33  50  69  94 124 159 196 233 275
#     4  10  22  38  53  68  91 124 159 198 242 282
#
# _framework density 18.250826
#
# number of rings (size 3 to 8) (size 9 to 14) (size 15 to 20)
#    0.000    2.909    0.000    1.091    0.000    6.545 
#    0.000    0.455    0.000    0.545    0.000    0.000 
#    0.000    0.000    0.000    0.000    0.000    0.000 
#
# Total GULP energy -545568.810491 kJ/mol
# GULP energy per Si atom -12399.291148 kJ/mol
# Density = 1.820929 g / cm^3
# Si number density = 18.250826 Si / 1000 Ang^3
#
#
#
# Elastic Constant Matrix: (Units=GPa)
#
#
# Indices 1 2 3 4 5 6 
#
# 1 103.0722 36.3771 92.6767 0.0000 0.0000 0.0000
# 2 36.3771 65.5378 69.2440 0.0000 0.0000 0.0000
# 3 92.6767 69.2440 194.2894 0.0000 0.0000 0.0000
# 4 0.0000 0.0000 0.0000 -9.7899 0.0000 0.0000
# 5 0.0000 0.0000 0.0000 0.0000 42.0841 0.0000
# 6 0.0000 0.0000 0.0000 0.0000 0.0000 8.8065
#
#
#
# Elastic Compliance Matrix: (Units=1/GPa)
#
#
# Indices 1 2 3 4 5 6 
#
# 1 0.017068 -0.001398 -0.007643 0.000000 0.000000 0.000000
# 2 -0.001398 0.024589 -0.008096 0.000000 0.000000 0.000000
# 3 -0.007643 -0.008096 0.011678 0.000000 0.000000 0.000000
# 4 0.000000 0.000000 0.000000 -0.102146 0.000000 0.000000
# 5 0.000000 0.000000 0.000000 0.000000 0.023762 0.000000
# 6 0.000000 0.000000 0.000000 0.000000 0.000000 0.113553
#
#
# Mechanical properties :
#
#
# Convention : Reuss Voigt Hill
#
# Bulk Modulus (GPa) = 52.46789 84.38835 68.42812
# Shear Modulus (GPa) = 38.72035 19.19357 28.95696
#
# Velocity S-wave (km/s) = 4.61104 3.24644 3.98755
# Velocity P-wave (km/s) = 7.56040 7.77116 7.66650
#
# Compressibility (1/GPa) = 0.01905928
#
# Stress axis : x y z
#
# Youngs Moduli (GPa) = 58.59083 40.66920 85.63000
#
# Poissons Ratio (x) = 0.05687 0.65446
# Poissons Ratio (y) = 0.08193 0.69329
# Poissons Ratio (z) = 0.44781 0.32927
#
# Static dielectric constant tensor:
#      x y z
#    x 3.467330 0.000000 0.000000 
#    y 0.000000 3.146050 0.000000 
#    z 0.000000 0.000000 3.407560 
# 
# 
# High freq. dielectric constant tensor:
#      x y z
#    x 1.709460 0.000000 0.000000 
#    y 0.000000 1.678980 0.000000 
#    z 0.000000 0.000000 1.709830 
# 
# From -- ./inp_files/20922.got.cif
#   From: 2010.03.12/outbox.cif.g09.slc.cpg/sg51_11_cif.got.tgz:20922.got - 2010.04.16 13:43:02.
