data_PCOD8214781
_publ_section_title
;
Structure prediction by ZEFSAII (Michael W. Deem and Ramdas Pophale) SiO2 
 PCOD8214781
Probable space group: P M M A
;
_chemical_formula_sum "Si O2"
_cell_formula_units_Z 48
_cell_length_a 18.394132
_cell_length_b 9.729190
_cell_length_c 16.157660
_cell_angle_alpha 90.000000
_cell_angle_beta 90.000000
_cell_angle_gamma 90.000000
_cell_volume 2891.574916
_symmetry_space_group_name_H-M "P M M A"
_symmetry_group_IT_number 51
_symmetry_cell_setting 'orthorhombic'
loop_
_space_group_symop_operation_xyz
x,y,z
1/2-x,-y,z
1/2+x,-y,-z
-x,y,-z
-x,-y,-z
1/2+x,y,-z
1/2-x,y,z
x,-y,z
loop_
_atom_site_type_symbol
_atom_site_label
_atom_site_fract_x
_atom_site_fract_y
_atom_site_fract_z
Si Si1 0.402867 0.341734 0.839980
Si Si2 0.551313 0.341974 0.750473
Si Si3 0.830278 0.663590 0.327796
Si Si4 0.971557 0.663552 0.413566
Si Si5 0.833412 0.840765 0.025523
Si Si6 0.166073 0.157305 0.164485
O O1 0.385749 0.500000 0.861062
O O2 0.486987 0.322628 0.816629
O O3 0.352748 0.289329 0.764274
O O4 0.386894 0.250720 0.919876
O O5 0.575913 0.500000 0.746897
O O6 0.525106 0.291287 0.660138
O O7 0.620039 0.252306 0.775140
O O8 0.750000 0.721964 0.349449
O O9 0.830596 0.500000 0.329497
O O10 0.889676 0.718397 0.394166
O O11 0.969381 0.500000 0.418213
O O12 0.000000 0.727156 0.500000
O O13 0.750000 0.807859 0.048141
O O14 0.850596 0.000000 0.042037
O O15 0.848656 0.802536 0.930507
O O16 0.250000 0.180312 0.186649
O O17 0.143616 0.000000 0.179696
#
# Coordination Sequence:
#
# PCOD8214781 Si02
#       6
#     8   8   8   8   8   8
#     4   9  17  28  43  65  92 119 146 180 225 273
#     4   9  18  31  47  69  93 116 146 185 228 272
#     4   8  13  22  38  60  85 114 147 178 211 259
#     4   8  14  26  43  63  91 121 144 176 223 266
#     4   9  18  31  45  63  88 118 154 192 224 257
#     4   9  19  35  50  63  85 120 157 189 223 264
#
# _framework density 16.59995
#
# number of rings (size 3 to 8) (size 9 to 14) (size 15 to 20)
#    0.000    3.333    0.000    3.500    0.000    3.333 
#    0.000    5.833    0.000    3.500    0.000    0.000 
#    0.000   10.667    0.000    0.000    0.000    0.000 
#
# Total GULP energy -594996.726123 kJ/mol
# GULP energy per Si atom -12395.765128 kJ/mol
# Density = 1.656217 g / cm^3
# Si number density = 16.599950 Si / 1000 Ang^3
#
#
#
# Elastic Constant Matrix: (Units=GPa)
#
#
# Indices 1 2 3 4 5 6 
#
# 1 98.3673 37.7407 62.3618 0.0000 0.0000 0.0000
# 2 37.7407 43.4366 38.6047 0.0000 0.0000 0.0000
# 3 62.3618 38.6047 96.3988 0.0000 0.0000 0.0000
# 4 0.0000 0.0000 0.0000 -1.3985 0.0000 0.0000
# 5 0.0000 0.0000 0.0000 0.0000 24.6464 0.0000
# 6 0.0000 0.0000 0.0000 0.0000 0.0000 24.5851
#
#
#
# Elastic Compliance Matrix: (Units=1/GPa)
#
#
# Indices 1 2 3 4 5 6 
#
# 1 0.019158 -0.008742 -0.008892 0.000000 0.000000 0.000000
# 2 -0.008742 0.039734 -0.010257 0.000000 0.000000 0.000000
# 3 -0.008892 -0.010257 0.020234 0.000000 0.000000 0.000000
# 4 0.000000 0.000000 0.000000 -0.715056 0.000000 0.000000
# 5 0.000000 0.000000 0.000000 0.000000 0.040574 0.000000
# 6 0.000000 0.000000 0.000000 0.000000 0.000000 0.040675
#
#
# Mechanical properties :
#
#
# Convention : Reuss Voigt Hill
#
# Bulk Modulus (GPa) = 42.84043 57.29078 50.06560
# Shear Modulus (GPa) = -10.18082 16.19965 3.00942
#
# Velocity S-wave (km/s) = -2.47918 3.12731 1.34790
# Velocity P-wave (km/s) = 4.20339 6.90128 5.71384
#
# Compressibility (1/GPa) = 0.02334244
#
# Stress axis : x y z
#
# Youngs Moduli (GPa) = 52.19870 25.16765 49.42290
#
# Poissons Ratio (x) = 0.22002 0.43948
# Poissons Ratio (y) = 0.45634 0.50691
# Poissons Ratio (z) = 0.46417 0.25813
#
# Static dielectric constant tensor:
#      x y z
#    x 3.219790 0.000000 0.000000 
#    y 0.000000 2.728210 0.000000 
#    z 0.000000 0.000000 3.133870 
# 
# 
# High freq. dielectric constant tensor:
#      x y z
#    x 1.642230 0.000000 0.000000 
#    y 0.000000 1.601220 0.000000 
#    z 0.000000 0.000000 1.629890 
# 
# From -- ./inp_files/25048.got.cif
#   From: 2010.03.12/outbox.cif.g09.slc.cpg/sg51_13_cif.got.tgz:25048.got - 2010.04.16 13:43:02.
