data_PCOD8214121
_publ_section_title
;
Structure prediction by ZEFSAII (Michael W. Deem and Ramdas Pophale) SiO2 
 PCOD8214121
Probable space group: P M M A
;
_chemical_formula_sum "Si O2"
_cell_formula_units_Z 48
_cell_length_a 15.724406
_cell_length_b 8.667443
_cell_length_c 16.881476
_cell_angle_alpha 90.000000
_cell_angle_beta 90.000000
_cell_angle_gamma 90.000000
_cell_volume 2300.782994
_symmetry_space_group_name_H-M "P M M A"
_symmetry_group_IT_number 51
_symmetry_cell_setting 'orthorhombic'
loop_
_space_group_symop_operation_xyz
x,y,z
1/2-x,-y,z
1/2+x,-y,-z
-x,y,-z
-x,-y,-z
1/2+x,y,-z
1/2-x,y,z
x,-y,z
loop_
_atom_site_type_symbol
_atom_site_label
_atom_site_fract_x
_atom_site_fract_y
_atom_site_fract_z
Si Si1 0.075389 0.679387 0.658776
Si Si2 0.348979 0.175535 0.508433
Si Si3 0.500826 0.182062 0.088364
Si Si4 0.155161 0.677156 0.178467
Si Si5 0.345226 0.819852 0.803682
Si Si6 0.396592 0.180592 0.333915
O O1 0.053513 0.500000 0.666053
O O2 0.102893 0.714719 0.569342
O O3 0.148054 0.727878 0.720907
O O4 0.994494 0.781371 0.682165
O O5 0.250000 0.184592 0.526174
O O6 0.368754 0.237715 0.420740
O O7 0.382404 0.000000 0.518036
O O8 0.412913 0.223522 0.130662
O O9 0.584149 0.244982 0.134804
O O10 0.507620 0.000000 0.083713
O O11 0.500000 0.253617 0.000000
O O12 0.250000 0.701222 0.142741
O O13 0.127176 0.500000 0.173601
O O14 0.159227 0.729756 0.269709
O O15 0.250000 0.790962 0.837729
O O16 0.359839 0.000000 0.786297
O O17 0.379487 0.000000 0.324037
#
# Coordination Sequence:
#
# PCOD8214121 Si02
#       6
#     8   8   8   8   8   8
#     4  12  24  37  57  87 122 161 205 254 310 367
#     4  10  22  39  58  83 116 157 207 258 306 361
#     4  10  22  41  67  97 126 161 207 257 308 367
#     4  11  24  41  63  94 131 169 206 251 312 375
#     4  10  21  39  63  90 123 164 207 254 308 366
#     4  11  22  39  63  88 117 160 212 260 308 361
#
# _framework density 20.862463999999999
#
# number of rings (size 3 to 8) (size 9 to 14) (size 15 to 20)
#    0.000    1.333    1.667    4.000    0.000    9.000 
#    0.000    1.667    0.000    0.000    0.000    0.000 
#    0.000    0.000    0.000    0.000    0.000    0.000 
#
# Total GULP energy -595386.593675 kJ/mol
# GULP energy per Si atom -12403.887368 kJ/mol
# Density = 2.081498 g / cm^3
# Si number density = 20.862464 Si / 1000 Ang^3
#
#
#
# Elastic Constant Matrix: (Units=GPa)
#
#
# Indices 1 2 3 4 5 6 
#
# 1 103.6775 8.2432 31.3825 0.0000 0.0000 0.0000
# 2 8.2432 23.0668 11.8136 0.0000 0.0000 0.0000
# 3 31.3825 11.8136 116.5607 0.0000 0.0000 0.0000
# 4 0.0000 0.0000 0.0000 8.7924 0.0000 0.0000
# 5 0.0000 0.0000 0.0000 0.0000 21.8755 0.0000
# 6 0.0000 0.0000 0.0000 0.0000 0.0000 18.8654
#
#
#
# Elastic Compliance Matrix: (Units=1/GPa)
#
#
# Indices 1 2 3 4 5 6 
#
# 1 0.010632 -0.002461 -0.002613 0.000000 0.000000 0.000000
# 2 -0.002461 0.046296 -0.004030 0.000000 0.000000 0.000000
# 3 -0.002613 -0.004030 0.009691 0.000000 0.000000 0.000000
# 4 0.000000 0.000000 0.000000 0.113734 0.000000 0.000000
# 5 0.000000 0.000000 0.000000 0.000000 0.045713 0.000000
# 6 0.000000 0.000000 0.000000 0.000000 0.000000 0.053007
#
#
# Mechanical properties :
#
#
# Convention : Reuss Voigt Hill
#
# Bulk Modulus (GPa) = 20.65637 38.46487 29.56062
# Shear Modulus (GPa) = 15.95315 22.69772 19.32544
#
# Velocity S-wave (km/s) = 2.76829 3.30202 3.04686
# Velocity P-wave (km/s) = 4.48783 5.74588 5.15537
#
# Compressibility (1/GPa) = 0.04841122
#
# Stress axis : x y z
#
# Youngs Moduli (GPa) = 94.05625 21.60031 103.18690
#
# Poissons Ratio (x) = 0.05316 0.26963
# Poissons Ratio (y) = 0.23149 0.41579
# Poissons Ratio (z) = 0.24578 0.08704
#
# Static dielectric constant tensor:
#      x y z
#    x 3.854660 0.000000 0.000000 
#    y 0.000000 3.573010 0.000000 
#    z 0.000000 0.000000 3.925150 
# 
# 
# High freq. dielectric constant tensor:
#      x y z
#    x 1.828190 0.000000 0.000000 
#    y 0.000000 1.801740 0.000000 
#    z 0.000000 0.000000 1.815640 
# 
# From -- ./inp_files/24827.got.cif
#   From: 2010.03.12/outbox.cif.g09.slc.cpg/sg51_13_cif.got.tgz:24827.got - 2010.04.16 13:43:02.
