data_PCOD8214334
_publ_section_title
;
Structure prediction by ZEFSAII (Michael W. Deem and Ramdas Pophale) SiO2 
 PCOD8214334
Probable space group: P M M A
;
_chemical_formula_sum "Si O2"
_cell_formula_units_Z 64
_cell_length_a 8.975904
_cell_length_b 14.248098
_cell_length_c 26.163461
_cell_angle_alpha 90.000000
_cell_angle_beta 90.000000
_cell_angle_gamma 90.000000
_cell_volume 3346.033511
_symmetry_space_group_name_H-M "P M M A"
_symmetry_group_IT_number 51
_symmetry_cell_setting 'orthorhombic'
loop_
_space_group_symop_operation_xyz
x,y,z
1/2-x,-y,z
1/2+x,-y,-z
-x,y,-z
-x,-y,-z
1/2+x,y,-z
1/2-x,y,z
x,-y,z
loop_
_atom_site_type_symbol
_atom_site_label
_atom_site_fract_x
_atom_site_fract_y
_atom_site_fract_z
Si Si1 0.921873 0.610326 0.246603
Si Si2 0.924752 0.896926 0.304411
Si Si3 0.924936 0.391625 0.448514
Si Si4 0.426829 0.717355 0.948699
Si Si5 0.926438 0.709016 0.348575
Si Si6 0.921718 0.611158 0.856501
Si Si7 0.574494 0.892370 0.908382
Si Si8 0.587037 0.888835 0.795006
O O1 0.750000 0.638267 0.237586
O O2 0.940265 0.500000 0.253879
O O3 0.987772 0.657361 0.298045
O O4 0.016808 0.646943 0.198252
O O5 0.750000 0.907000 0.302547
O O6 0.971626 0.819590 0.346529
O O7 0.972863 0.857736 0.248900
O O8 0.995704 0.000000 0.316896
O O9 0.750000 0.375901 0.453808
O O10 0.965681 0.500000 0.439879
O O11 0.993247 0.334917 0.400378
O O12 0.000000 0.352691 0.500000
O O13 0.250000 0.711651 0.952378
O O14 0.482876 0.656949 0.901193
O O15 0.479403 0.825888 0.945197
O O16 0.500000 0.674452 0.000000
O O17 0.750000 0.694921 0.349554
O O18 0.750000 0.641968 0.861582
O O19 0.941409 0.500000 0.860606
O O20 0.750000 0.882001 0.919395
O O21 0.537171 0.854570 0.851068
O O22 0.523465 0.000000 0.916686
O O23 0.750000 0.848316 0.781103
O O24 0.596199 0.000000 0.798549
#
# Coordination Sequence:
#
# PCOD8214334 Si02
#       8
#     8   8   8   8   8   8   8   8
#     4   9  17  31  52  78 106 135 169 208 254 314
#     4   9  17  28  43  67 100 135 173 214 251 295
#     4   9  17  31  51  73  99 133 172 217 265 313
#     4  12  26  42  61  83 108 139 180 227 272 324
#     4   9  17  29  48  74 103 137 175 212 258 311
#     4  10  22  41  62  83 110 142 175 217 271 328
#     4   9  19  37  59  82 111 145 179 218 267 323
#     4   8  15  29  48  70  98 133 169 206 252 303
#
# _framework density 19.127124999999999
#
# number of rings (size 3 to 8) (size 9 to 14) (size 15 to 20)
#    0.000    2.625    0.000    2.625    1.750    3.500 
#    0.000    2.500    0.000    3.375    0.000    0.000 
#    0.000    0.000    0.000    0.000    0.000    0.000 
#
# Total GULP energy -793386.771961 kJ/mol
# GULP energy per Si atom -12396.668312 kJ/mol
# Density = 1.908359 g / cm^3
# Si number density = 19.127125 Si / 1000 Ang^3
#
#
#
# Elastic Constant Matrix: (Units=GPa)
#
#
# Indices 1 2 3 4 5 6 
#
# 1 67.3626 32.8685 47.4531 0.0000 0.0000 0.0000
# 2 32.8685 54.7678 59.4937 0.0000 0.0000 0.0000
# 3 47.4531 59.4937 153.1111 0.0000 0.0000 0.0000
# 4 0.0000 0.0000 0.0000 30.4353 0.0000 0.0000
# 5 0.0000 0.0000 0.0000 0.0000 29.5423 0.0000
# 6 0.0000 0.0000 0.0000 0.0000 0.0000 20.8326
#
#
#
# Elastic Compliance Matrix: (Units=1/GPa)
#
#
# Indices 1 2 3 4 5 6 
#
# 1 0.021703 -0.009895 -0.002882 0.000000 0.000000 0.000000
# 2 -0.009895 0.036106 -0.010963 0.000000 0.000000 0.000000
# 3 -0.002882 -0.010963 0.011684 0.000000 0.000000 0.000000
# 4 0.000000 0.000000 0.000000 0.032857 0.000000 0.000000
# 5 0.000000 0.000000 0.000000 0.000000 0.033850 0.000000
# 6 0.000000 0.000000 0.000000 0.000000 0.000000 0.048002
#
#
# Mechanical properties :
#
#
# Convention : Reuss Voigt Hill
#
# Bulk Modulus (GPa) = 45.42414 61.65246 53.53830
# Shear Modulus (GPa) = 20.91895 25.19043 23.05469
#
# Velocity S-wave (km/s) = 3.31067 3.63299 3.47557
# Velocity P-wave (km/s) = 6.19792 7.06407 6.64512
#
# Compressibility (1/GPa) = 0.02201473
#
# Stress axis : x y z
#
# Youngs Moduli (GPa) = 46.07684 27.69620 85.58636
#
# Poissons Ratio (x) = 0.27404 0.24662
# Poissons Ratio (y) = 0.45591 0.93828
# Poissons Ratio (z) = 0.13277 0.30363
#
# Static dielectric constant tensor:
#      x y z
#    x 3.410740 0.000000 0.000000 
#    y 0.000000 3.651020 0.000000 
#    z 0.000000 0.000000 3.629280 
# 
# 
# High freq. dielectric constant tensor:
#      x y z
#    x 1.721260 0.000000 0.000000 
#    y 0.000000 1.746480 0.000000 
#    z 0.000000 0.000000 1.734180 
# 
# From -- ./inp_files/34951.got.cif
#   From: 2010.03.12/outbox.cif.g09.slc.cpg/sg51_18_cif.got.tgz:34951.got - 2010.04.16 13:43:02.
