data_PCOD8214919
_publ_section_title
;
Structure prediction by ZEFSAII (Michael W. Deem and Ramdas Pophale) SiO2 
 PCOD8214919
Probable space group: P N N A
;
_chemical_formula_sum "Si O2"
_cell_formula_units_Z 48
_cell_length_a 12.184567
_cell_length_b 24.806392
_cell_length_c 5.376056
_cell_angle_alpha 90.000000
_cell_angle_beta 90.000000
_cell_angle_gamma 90.000000
_cell_volume 1624.940588
_symmetry_space_group_name_H-M "P N N A"
_symmetry_group_IT_number 52
_symmetry_cell_setting 'orthorhombic'
loop_
_space_group_symop_operation_xyz
x,y,z
1/2-x,-y,z
x,1/2-y,1/2-z
1/2-x,1/2+y,1/2-z
-x,-y,-z
1/2+x,y,-z
-x,1/2+y,1/2+z
1/2+x,1/2-y,1/2+z
loop_
_atom_site_type_symbol
_atom_site_label
_atom_site_fract_x
_atom_site_fract_y
_atom_site_fract_z
Si Si1 0.004783 0.101205 0.907453
Si Si2 0.529606 0.776880 0.000335
Si Si3 0.758263 0.061757 0.890477
Si Si4 0.504634 0.060785 0.591673
Si Si5 0.263627 0.768954 0.502382
Si Si6 0.737896 0.892890 0.392334
O O1 0.003593 0.161281 0.006383
O O2 0.884298 0.078465 0.839247
O O3 0.062334 0.065194 0.130646
O O4 0.062287 0.096383 0.630989
O O5 0.479792 0.750000 0.250000
O O6 0.659757 0.770982 0.002506
O O7 0.481438 0.750000 0.750000
O O8 0.705879 0.098367 0.117083
O O9 0.750000 0.000000 0.970374
O O10 0.703733 0.072423 0.615213
O O11 0.385051 0.085196 0.659990
O O12 0.500000 0.000000 0.500000
O O13 0.331323 0.750000 0.750000
O O14 0.232336 0.831479 0.514057
O O15 0.327677 0.750000 0.250000
#
# Coordination Sequence:
#
# PCOD8214919 Si02
#       6
#     8   8   8   8   8   8
#     4  10  19  30  42  64  90 114 143 174 204 250
#     4  10  16  25  41  60  83 115 132 156 210 262
#     4  10  18  29  43  58  83 121 148 172 206 240
#     4  10  18  29  43  58  83 121 148 172 206 240
#     4  10  16  25  41  60  83 115 132 156 210 262
#     4  10  19  30  42  64  90 114 143 174 204 250
#
# _framework density 29.539539999999999
#
# number of rings (size 3 to 8) (size 9 to 14) (size 15 to 20)
#    0.000    2.000    0.000   11.000    0.000    0.000 
#    0.000    0.000    0.000    0.000    0.000    0.000 
#    0.000    0.000    0.000 1464.000    0.000    0.000 
#
# Total GULP energy -595038.380112 kJ/mol
# GULP energy per Si atom -12396.632919 kJ/mol
# Density = 2.947231 g / cm^3
# Si number density = 29.539540 Si / 1000 Ang^3
#
#
#
# Elastic Constant Matrix: (Units=GPa)
#
#
# Indices 1 2 3 4 5 6 
#
# 1 76.0396 -6.1647 25.1745 0.0000 0.0000 0.0000
# 2 -6.1647 193.6539 93.6190 0.0000 0.0000 0.0000
# 3 25.1745 93.6190 367.4474 0.0000 0.0000 0.0000
# 4 0.0000 0.0000 0.0000 68.2036 0.0000 0.0000
# 5 0.0000 0.0000 0.0000 0.0000 53.4180 0.0000
# 6 0.0000 0.0000 0.0000 0.0000 0.0000 22.6440
#
#
#
# Elastic Compliance Matrix: (Units=1/GPa)
#
#
# Indices 1 2 3 4 5 6 
#
# 1 0.013627 0.001009 -0.001191 0.000000 0.000000 0.000000
# 2 0.001009 0.005964 -0.001589 0.000000 0.000000 0.000000
# 3 -0.001191 -0.001589 0.003208 0.000000 0.000000 0.000000
# 4 0.000000 0.000000 0.000000 0.014662 0.000000 0.000000
# 5 0.000000 0.000000 0.000000 0.000000 0.018720 0.000000
# 6 0.000000 0.000000 0.000000 0.000000 0.000000 0.044162
#
#
# Mechanical properties :
#
#
# Convention : Reuss Voigt Hill
#
# Bulk Modulus (GPa) = 51.92393 95.82205 73.87299
# Shear Modulus (GPa) = 45.32979 63.82059 54.57519
#
# Velocity S-wave (km/s) = 3.92158 4.65318 4.30295
# Velocity P-wave (km/s) = 6.17422 7.83444 7.05334
#
# Compressibility (1/GPa) = 0.01925894
#
# Stress axis : x y z
#
# Youngs Moduli (GPa) = 73.38299 167.67236 311.73702
#
# Poissons Ratio (x) = -0.16926 0.37122
# Poissons Ratio (y) = -0.07408 0.49525
# Poissons Ratio (z) = 0.08739 0.26638
#
# Static dielectric constant tensor:
#      x y z
#    x 5.968980 0.000000 0.000000 
#    y 0.000000 4.846660 0.000000 
#    z 0.000000 0.000000 7.193660 
# 
# 
# High freq. dielectric constant tensor:
#      x y z
#    x 2.280060 0.000000 0.000000 
#    y 0.000000 2.164810 0.000000 
#    z 0.000000 0.000000 2.264900 
# 
# From -- ./inp_files/4385.got.cif
#   From: 2010.06.25/outbox.cif.g09.slc.cpg/sg52_3_cif.got.tgz:4385.got - 2010.06.26 19:32:48.
