data_PCOD8214994
_publ_section_title
;
Structure prediction by ZEFSAII (Michael W. Deem and Ramdas Pophale) SiO2 
 PCOD8214994
Probable space group: P N N A
;
_chemical_formula_sum "Si O2"
_cell_formula_units_Z 64
_cell_length_a 9.043762
_cell_length_b 16.955919
_cell_length_c 28.466145
_cell_angle_alpha 90.000000
_cell_angle_beta 90.000000
_cell_angle_gamma 90.000000
_cell_volume 4365.149429
_symmetry_space_group_name_H-M "P N N A"
_symmetry_group_IT_number 52
_symmetry_cell_setting 'orthorhombic'
loop_
_space_group_symop_operation_xyz
x,y,z
1/2-x,-y,z
x,1/2-y,1/2-z
1/2-x,1/2+y,1/2-z
-x,-y,-z
1/2+x,y,-z
-x,1/2+y,1/2+z
1/2+x,1/2-y,1/2+z
loop_
_atom_site_type_symbol
_atom_site_label
_atom_site_fract_x
_atom_site_fract_y
_atom_site_fract_z
Si Si1 0.907498 0.590632 0.453810
Si Si2 0.165353 0.307062 0.709657
Si Si3 0.410479 0.981291 0.197598
Si Si4 0.938462 0.407760 0.450729
Si Si5 0.941442 0.131010 0.863069
Si Si6 0.551660 0.778462 0.302793
Si Si7 0.347535 0.433274 0.765672
Si Si8 0.891426 0.833598 0.863957
O O1 0.956977 0.501005 0.443161
O O2 0.734481 0.608256 0.456232
O O3 0.979114 0.619830 0.502166
O O4 0.968338 0.641134 0.410800
O O5 0.103559 0.250000 0.750000
O O6 0.293524 0.260935 0.681497
O O7 0.239071 0.386644 0.729995
O O8 0.024619 0.320975 0.677206
O O9 0.532786 0.986083 0.237710
O O10 0.422491 0.893362 0.178176
O O11 0.250000 0.000000 0.220151
O O12 0.434119 0.040556 0.153937
O O13 0.010577 0.357461 0.408839
O O14 0.781835 0.167033 0.875231
O O15 0.508110 0.750000 0.250000
O O16 0.571422 0.873673 0.301887
O O17 0.434178 0.752443 0.342573
O O18 0.250000 0.500000 0.792588
#
# Coordination Sequence:
#
# PCOD8214994 Si02
#       8
#     8   8   8   8   8   8   8   8
#     4  10  20  30  44  63  81 116 149 189 221 257
#     4   9  18  30  42  63  84 112 148 186 222 267
#     4  10  19  27  40  64  85 116 153 186 220 266
#     4  10  20  31  44  60  88 112 150 188 225 258
#     4  11  20  28  45  63  86 116 155 185 221 261
#     4   9  18  30  44  61  84 116 151 185 232 274
#     4  10  17  30  47  61  86 112 156 193 227 267
#     4  11  19  31  42  60  89 119 146 191 224 269
#
# _framework density 14.661581999999999
#
# number of rings (size 3 to 8) (size 9 to 14) (size 15 to 20)
#    0.000    2.250    5.000    1.500    0.000    1.500 
#    0.000    0.000    0.000    0.000    0.000    0.000 
#    0.000    0.000    0.000   18.000    0.000    4.000 
#
# Total GULP energy -793153.866436 kJ/mol
# GULP energy per Si atom -12393.029163 kJ/mol
# Density = 1.462821 g / cm^3
# Si number density = 14.661582 Si / 1000 Ang^3
#
#
#
# Elastic Constant Matrix: (Units=GPa)
#
#
# Indices 1 2 3 4 5 6 
#
# 1 90.4293 34.0761 52.4652 0.0000 0.0000 0.0000
# 2 34.0761 60.7040 32.9508 0.0000 0.0000 0.0000
# 3 52.4652 32.9508 70.9955 0.0000 0.0000 0.0000
# 4 0.0000 0.0000 0.0000 18.4676 0.0000 0.0000
# 5 0.0000 0.0000 0.0000 0.0000 24.6286 0.0000
# 6 0.0000 0.0000 0.0000 0.0000 0.0000 20.7541
#
#
#
# Elastic Compliance Matrix: (Units=1/GPa)
#
#
# Indices 1 2 3 4 5 6 
#
# 1 0.020172 -0.004320 -0.012902 0.000000 0.000000 0.000000
# 2 -0.004320 0.022946 -0.007457 0.000000 0.000000 0.000000
# 3 -0.012902 -0.007457 0.027081 0.000000 0.000000 0.000000
# 4 0.000000 0.000000 0.000000 0.054149 0.000000 0.000000
# 5 0.000000 0.000000 0.000000 0.000000 0.040603 0.000000
# 6 0.000000 0.000000 0.000000 0.000000 0.000000 0.048183
#
#
# Mechanical properties :
#
#
# Convention : Reuss Voigt Hill
#
# Bulk Modulus (GPa) = 47.98364 51.23478 49.60921
# Shear Modulus (GPa) = 18.55706 19.61250 19.08478
#
# Velocity S-wave (km/s) = 3.56152 3.66140 3.61180
# Velocity P-wave (km/s) = 7.05061 7.27291 7.16262
#
# Compressibility (1/GPa) = 0.02084044
#
# Stress axis : x y z
#
# Youngs Moduli (GPa) = 49.57487 43.57964 36.92661
#
# Poissons Ratio (x) = 0.18827 0.47641
# Poissons Ratio (y) = 0.21417 0.27538
# Poissons Ratio (z) = 0.63959 0.32499
#
# Static dielectric constant tensor:
#      x y z
#    x 2.945490 0.000000 0.000000 
#    y 0.000000 2.683340 0.000000 
#    z 0.000000 0.000000 2.625700 
# 
# 
# High freq. dielectric constant tensor:
#      x y z
#    x 1.575760 0.000000 0.000000 
#    y 0.000000 1.526040 0.000000 
#    z 0.000000 0.000000 1.531360 
# 
# From -- ./inp_files/42420.got.cif
#   From: 2010.06.25/outbox.cif.g09.slc.cpg/sg52_22_cif.got.tgz:42420.got - 2010.06.26 19:32:48.
