data_PCOD8214697
_publ_section_title
;
Structure prediction by ZEFSAII (Michael W. Deem and Ramdas Pophale) SiO2 
 PCOD8214697
Probable space group: P M M A
;
_chemical_formula_sum "Si O2"
_cell_formula_units_Z 56
_cell_length_a 9.577045
_cell_length_b 18.912645
_cell_length_c 19.164876
_cell_angle_alpha 90.000000
_cell_angle_beta 90.000000
_cell_angle_gamma 90.000000
_cell_volume 3471.281329
_symmetry_space_group_name_H-M "P M M A"
_symmetry_group_IT_number 51
_symmetry_cell_setting 'orthorhombic'
loop_
_space_group_symop_operation_xyz
x,y,z
1/2-x,-y,z
1/2+x,-y,-z
-x,y,-z
-x,-y,-z
1/2+x,y,-z
1/2-x,y,z
x,-y,z
loop_
_atom_site_type_symbol
_atom_site_label
_atom_site_fract_x
_atom_site_fract_y
_atom_site_fract_z
Si Si1 0.910477 0.352895 0.565306
Si Si2 0.910098 0.813605 0.564585
Si Si3 0.083722 0.421358 0.291074
Si Si4 0.414821 0.787238 0.068963
Si Si5 0.584198 0.077710 0.845471
Si Si6 0.915135 0.706282 0.796397
Si Si7 0.916073 0.160233 0.715100
O O1 0.750000 0.372155 0.550610
O O2 0.929836 0.269597 0.576182
O O3 0.966981 0.392080 0.634236
O O4 0.000000 0.380449 0.500000
O O5 0.750000 0.832775 0.549024
O O6 0.965920 0.851745 0.635381
O O7 0.000000 0.842254 0.500000
O O8 0.250000 0.422740 0.290290
O O9 0.022789 0.500000 0.278721
O O10 0.027383 0.370176 0.228795
O O11 0.250000 0.788158 0.053013
O O12 0.465660 0.863270 0.099260
O O13 0.454159 0.725037 0.123756
O O14 0.500000 0.770002 0.000000
O O15 0.750000 0.076369 0.846384
O O16 0.534172 0.097480 0.766787
O O17 0.523491 0.000000 0.864851
O O18 0.750000 0.707398 0.788530
O O19 0.977484 0.766294 0.745282
O O20 0.750000 0.165885 0.714722
#
# Coordination Sequence:
#
# PCOD8214697 Si02
#       7
#     8   8   8   8   8   8   8
#     4   9  16  25  37  55  80 106 132 164 203 243
#     4   9  15  23  37  56  77 102 132 167 204 237
#     4   9  15  23  38  59  80 103 135 174 207 232
#     4   9  17  28  45  66  87 109 130 156 194 236
#     4   8  14  24  40  64  87 105 131 165 195 227
#     4   8  13  24  40  58  78 102 134 168 197 229
#     4   8  12  21  38  55  74 103 136 168 199 229
#
# _framework density 16.132372
#
# number of rings (size 3 to 8) (size 9 to 14) (size 15 to 20)
#    0.000    3.429    1.429    1.714    0.000    0.571 
#    0.000    0.000    0.000    5.143    0.000    0.000 
#    0.000    0.000    0.000    0.000    0.000    0.000 
#
# Total GULP energy -693804.495520 kJ/mol
# GULP energy per Si atom -12389.365991 kJ/mol
# Density = 1.609565 g / cm^3
# Si number density = 16.132372 Si / 1000 Ang^3
#
#
#
# Elastic Constant Matrix: (Units=GPa)
#
#
# Indices 1 2 3 4 5 6 
#
# 1 23.8420 11.5585 33.4985 0.0000 0.0000 0.0000
# 2 11.5585 69.5778 47.0536 0.0000 0.0000 0.0000
# 3 33.4985 47.0536 136.1254 0.0000 0.0000 0.0000
# 4 0.0000 0.0000 0.0000 20.2545 0.0000 0.0000
# 5 0.0000 0.0000 0.0000 0.0000 24.7890 0.0000
# 6 0.0000 0.0000 0.0000 0.0000 0.0000 7.1177
#
#
#
# Elastic Compliance Matrix: (Units=1/GPa)
#
#
# Indices 1 2 3 4 5 6 
#
# 1 0.064109 0.000025 -0.015785 0.000000 0.000000 0.000000
# 2 0.000025 0.018757 -0.006490 0.000000 0.000000 0.000000
# 3 -0.015785 -0.006490 0.013474 0.000000 0.000000 0.000000
# 4 0.000000 0.000000 0.000000 0.049372 0.000000 0.000000
# 5 0.000000 0.000000 0.000000 0.000000 0.040340 0.000000
# 6 0.000000 0.000000 0.000000 0.000000 0.000000 0.140494
#
#
# Mechanical properties :
#
#
# Convention : Reuss Voigt Hill
#
# Bulk Modulus (GPa) = 19.28998 45.97403 32.63200
# Shear Modulus (GPa) = 12.87580 19.59457 16.23519
#
# Velocity S-wave (km/s) = 2.82819 3.48891 3.17578
# Velocity P-wave (km/s) = 4.75901 6.69252 5.80681
#
# Compressibility (1/GPa) = 0.05184039
#
# Stress axis : x y z
#
# Youngs Moduli (GPa) = 15.59848 53.31310 74.21764
#
# Poissons Ratio (x) = -0.00133 1.17152
# Poissons Ratio (y) = -0.00039 0.48166
# Poissons Ratio (z) = 0.24622 0.34599
#
# Static dielectric constant tensor:
#      x y z
#    x 2.679090 0.000000 0.000000 
#    y 0.000000 3.310330 0.000000 
#    z 0.000000 0.000000 3.190130 
# 
# 
# High freq. dielectric constant tensor:
#      x y z
#    x 1.556430 0.000000 0.000000 
#    y 0.000000 1.603320 0.000000 
#    z 0.000000 0.000000 1.624770 
# 
# From -- ./inp_files/29157.got.cif
#   From: 2010.03.12/outbox.cif.g09.slc.cpg/sg51_15_cif.got.tgz:29157.got - 2010.04.16 13:43:02.
