data_PCOD8214024
_publ_section_title
;
Structure prediction by ZEFSAII (Michael W. Deem and Ramdas Pophale) SiO2 
 PCOD8214024
Probable space group: P M M A
;
_chemical_formula_sum "Si O2"
_cell_formula_units_Z 48
_cell_length_a 27.634583
_cell_length_b 8.986576
_cell_length_c 9.621289
_cell_angle_alpha 90.000000
_cell_angle_beta 90.000000
_cell_angle_gamma 90.000000
_cell_volume 2389.353608
_symmetry_space_group_name_H-M "P M M A"
_symmetry_group_IT_number 51
_symmetry_cell_setting 'orthorhombic'
loop_
_space_group_symop_operation_xyz
x,y,z
1/2-x,-y,z
1/2+x,-y,-z
-x,y,-z
-x,-y,-z
1/2+x,y,-z
1/2-x,y,z
x,-y,z
loop_
_atom_site_type_symbol
_atom_site_label
_atom_site_fract_x
_atom_site_fract_y
_atom_site_fract_z
Si Si1 0.544168 0.675254 0.900063
Si Si2 0.544321 0.826200 0.600980
Si Si3 0.305054 0.171974 0.710425
Si Si4 0.138318 0.171896 0.985770
Si Si5 0.361497 0.669193 0.478709
Si Si6 0.196034 0.666422 0.201112
O O1 0.547892 0.500000 0.876395
O O2 0.537031 0.748288 0.749497
O O3 0.592219 0.728881 0.977912
O O4 0.500000 0.719502 0.000000
O O5 0.500000 0.791067 0.500000
O O6 0.590305 0.766983 0.515748
O O7 0.550656 0.000000 0.629727
O O8 0.250000 0.213640 0.753608
O O9 0.320430 0.270394 0.580401
O O10 0.308036 0.000000 0.667901
O O11 0.342974 0.207778 0.832055
O O12 0.182601 0.212225 0.086450
O O13 0.124485 0.000000 0.004059
O O14 0.373972 0.500000 0.518968
O O15 0.341652 0.681084 0.324305
O O16 0.250000 0.700503 0.255297
O O17 0.193040 0.500000 0.137419
#
# Coordination Sequence:
#
# PCOD8214024 Si02
#       6
#     8   8   8   8   8   8
#     4  11  25  44  66  95 128 164 209 257 314 378
#     4  11  25  44  67  96 127 163 209 257 313 376
#     4  10  23  42  62  90 129 170 213 259 310 371
#     4  11  23  40  64  92 125 165 212 260 313 371
#     4  11  23  40  64  93 127 165 210 258 312 372
#     4  10  21  38  61  90 124 161 203 255 312 372
#
# _framework density 20.089117000000002
#
# number of rings (size 3 to 8) (size 9 to 14) (size 15 to 20)
#    0.000    1.333    1.667    3.000    2.333    6.667 
#    0.000    0.000    0.000    0.000    0.000    0.000 
#    0.000    0.000    0.000    0.000    0.000    0.000 
#
# Total GULP energy -595377.576149 kJ/mol
# GULP energy per Si atom -12403.699503 kJ/mol
# Density = 2.004339 g / cm^3
# Si number density = 20.089117 Si / 1000 Ang^3
#
#
#
# Elastic Constant Matrix: (Units=GPa)
#
#
# Indices 1 2 3 4 5 6 
#
# 1 123.2579 51.5322 33.8716 0.0000 0.0000 0.0000
# 2 51.5322 89.2621 52.4278 0.0000 0.0000 0.0000
# 3 33.8716 52.4278 87.1003 0.0000 0.0000 0.0000
# 4 0.0000 0.0000 0.0000 29.8097 0.0000 0.0000
# 5 0.0000 0.0000 0.0000 0.0000 36.6289 0.0000
# 6 0.0000 0.0000 0.0000 0.0000 0.0000 33.2427
#
#
#
# Elastic Compliance Matrix: (Units=1/GPa)
#
#
# Indices 1 2 3 4 5 6 
#
# 1 0.010721 -0.005786 -0.000686 0.000000 0.000000 0.000000
# 2 -0.005786 0.020453 -0.010061 0.000000 0.000000 0.000000
# 3 -0.000686 -0.010061 0.017804 0.000000 0.000000 0.000000
# 4 0.000000 0.000000 0.000000 0.033546 0.000000 0.000000
# 5 0.000000 0.000000 0.000000 0.000000 0.027301 0.000000
# 6 0.000000 0.000000 0.000000 0.000000 0.000000 0.030082
#
#
# Mechanical properties :
#
#
# Convention : Reuss Voigt Hill
#
# Bulk Modulus (GPa) = 62.85104 63.92042 63.38573
# Shear Modulus (GPa) = 28.04644 30.72217 29.38430
#
# Velocity S-wave (km/s) = 3.74050 3.91486 3.82867
# Velocity P-wave (km/s) = 7.07171 7.23342 7.15302
#
# Compressibility (1/GPa) = 0.01591064
#
# Stress axis : x y z
#
# Youngs Moduli (GPa) = 93.27690 48.89365 56.16806
#
# Poissons Ratio (x) = 0.28291 0.03855
# Poissons Ratio (y) = 0.53972 0.56509
# Poissons Ratio (z) = 0.06401 0.49191
#
# Static dielectric constant tensor:
#      x y z
#    x 3.794790 0.000000 0.000000 
#    y 0.000000 3.755200 0.000000 
#    z 0.000000 0.000000 3.589590 
# 
# 
# High freq. dielectric constant tensor:
#      x y z
#    x 1.800060 0.000000 0.000000 
#    y 0.000000 1.792460 0.000000 
#    z 0.000000 0.000000 1.785890 
# 
# From -- ./inp_files/12838.got.cif
#   From: 2010.03.12/outbox.cif.g09.slc.cpg/sg51_7_cif.got.tgz:12838.got - 2010.04.16 13:43:02.
