data_PCOD8214606
_publ_section_title
;
Structure prediction by ZEFSAII (Michael W. Deem and Ramdas Pophale) SiO2 
 PCOD8214606
Probable space group: P M M A
;
_chemical_formula_sum "Si O2"
_cell_formula_units_Z 64
_cell_length_a 9.409591
_cell_length_b 14.554742
_cell_length_c 28.875000
_cell_angle_alpha 90.000000
_cell_angle_beta 90.000000
_cell_angle_gamma 90.000000
_cell_volume 3954.551639
_symmetry_space_group_name_H-M "P M M A"
_symmetry_group_IT_number 51
_symmetry_cell_setting 'orthorhombic'
loop_
_space_group_symop_operation_xyz
x,y,z
1/2-x,-y,z
1/2+x,-y,-z
-x,y,-z
-x,-y,-z
1/2+x,y,-z
1/2-x,y,z
x,-y,z
loop_
_atom_site_type_symbol
_atom_site_label
_atom_site_fract_x
_atom_site_fract_y
_atom_site_fract_z
Si Si1 0.080662 0.218374 0.771469
Si Si2 0.084200 0.715888 0.454243
Si Si3 0.092711 0.890820 0.958427
Si Si4 0.087330 0.102855 0.404742
Si Si5 0.912610 0.106797 0.315860
Si Si6 0.919811 0.896847 0.143239
Si Si7 0.587671 0.607776 0.378517
Si Si8 0.418482 0.600442 0.726474
O O1 0.250000 0.213672 0.773116
O O2 0.024237 0.158640 0.728519
O O3 0.019098 0.175436 0.819075
O O4 0.027057 0.323201 0.763316
O O5 0.250000 0.690799 0.460027
O O6 0.063317 0.825310 0.446281
O O7 0.000000 0.686547 0.500000
O O8 0.021311 0.660430 0.411256
O O9 0.250000 0.848760 0.963465
O O10 0.027245 0.865670 0.907914
O O11 0.099864 0.000000 0.962687
O O12 0.000000 0.847957 0.000000
O O13 0.250000 0.102732 0.388593
O O14 0.996613 0.137276 0.361272
O O15 0.040858 0.000000 0.420896
O O16 0.750000 0.134718 0.324599
O O17 0.930404 0.000000 0.305556
O O18 0.750000 0.898012 0.143051
O O19 0.974461 0.000000 0.155043
O O20 0.750000 0.640973 0.387186
O O21 0.575927 0.500000 0.388608
O O22 0.539789 0.629215 0.325781
O O23 0.250000 0.593801 0.728411
O O24 0.483264 0.500000 0.739243
#
# Coordination Sequence:
#
# PCOD8214606 Si02
#       8
#     8   8   8   8   8   8   8   8
#     4   9  14  20  34  56  83 109 130 161 202 238
#     4  11  23  36  51  70  90 112 138 170 207 246
#     4   8  13  21  33  48  68  98 135 171 204 237
#     4   9  19  35  50  64  86 115 143 170 203 242
#     4   9  16  25  41  65  85 104 136 171 198 231
#     4   8  13  20  30  48  75 104 133 165 202 241
#     4   9  18  34  54  72  91 114 137 164 201 246
#     4   8  14  24  39  60  83 107 134 160 190 232
#
# _framework density 16.183883999999999
#
# number of rings (size 3 to 8) (size 9 to 14) (size 15 to 20)
#    0.000    3.125    0.000    3.000    0.000    4.250 
#    0.000    0.000    0.000    0.750    0.000    3.500 
#    0.000    0.500    0.000    0.375    0.000    0.750 
#
# Total GULP energy -793153.330140 kJ/mol
# GULP energy per Si atom -12393.020783 kJ/mol
# Density = 1.614705 g / cm^3
# Si number density = 16.183884 Si / 1000 Ang^3
#
#
#
# Elastic Constant Matrix: (Units=GPa)
#
#
# Indices 1 2 3 4 5 6 
#
# 1 41.6004 23.0476 31.8688 0.0000 0.0000 0.0000
# 2 23.0476 71.4842 57.3374 0.0000 0.0000 0.0000
# 3 31.8688 57.3374 107.0012 0.0000 0.0000 0.0000
# 4 0.0000 0.0000 0.0000 17.3464 0.0000 0.0000
# 5 0.0000 0.0000 0.0000 0.0000 18.2123 0.0000
# 6 0.0000 0.0000 0.0000 0.0000 0.0000 13.1657
#
#
#
# Elastic Compliance Matrix: (Units=1/GPa)
#
#
# Indices 1 2 3 4 5 6 
#
# 1 0.032016 -0.004690 -0.007023 0.000000 0.000000 0.000000
# 2 -0.004690 0.025221 -0.012118 0.000000 0.000000 0.000000
# 3 -0.007023 -0.012118 0.017931 0.000000 0.000000 0.000000
# 4 0.000000 0.000000 0.000000 0.057649 0.000000 0.000000
# 5 0.000000 0.000000 0.000000 0.000000 0.054908 0.000000
# 6 0.000000 0.000000 0.000000 0.000000 0.000000 0.075955
#
#
# Mechanical properties :
#
#
# Convention : Reuss Voigt Hill
#
# Bulk Modulus (GPa) = 36.35398 49.39927 42.87662
# Shear Modulus (GPa) = 15.60014 16.93368 16.26691
#
# Velocity S-wave (km/s) = 3.10809 3.23821 3.17382
# Velocity P-wave (km/s) = 5.94913 6.67618 6.32311
#
# Compressibility (1/GPa) = 0.02750730
#
# Stress axis : x y z
#
# Youngs Moduli (GPa) = 31.23417 39.64941 55.76987
#
# Poissons Ratio (x) = 0.18595 0.39165
# Poissons Ratio (y) = 0.14648 0.67583
# Poissons Ratio (z) = 0.21934 0.48048
#
# Static dielectric constant tensor:
#      x y z
#    x 2.813500 0.000000 0.000000 
#    y 0.000000 3.189110 0.000000 
#    z 0.000000 0.000000 3.181410 
# 
# 
# High freq. dielectric constant tensor:
#      x y z
#    x 1.583320 0.000000 0.000000 
#    y 0.000000 1.609180 0.000000 
#    z 0.000000 0.000000 1.612280 
# 
# From -- ./inp_files/37542.got.cif
#   From: 2010.03.12/outbox.cif.g09.slc.cpg/sg51_19_cif.got.tgz:37542.got - 2010.04.16 13:43:02.
