data_PCOD8214134
_publ_section_title
;
Structure prediction by ZEFSAII (Michael W. Deem and Ramdas Pophale) SiO2 
 PCOD8214134
Probable space group: P M M A
;
_chemical_formula_sum "Si O2"
_cell_formula_units_Z 40
_cell_length_a 9.726656
_cell_length_b 14.019271
_cell_length_c 13.572246
_cell_angle_alpha 90.000000
_cell_angle_beta 90.000000
_cell_angle_gamma 90.000000
_cell_volume 1850.719966
_symmetry_space_group_name_H-M "P M M A"
_symmetry_group_IT_number 51
_symmetry_cell_setting 'orthorhombic'
loop_
_space_group_symop_operation_xyz
x,y,z
1/2-x,-y,z
1/2+x,-y,-z
-x,y,-z
-x,-y,-z
1/2+x,y,-z
1/2-x,y,z
x,-y,z
loop_
_atom_site_type_symbol
_atom_site_label
_atom_site_fract_x
_atom_site_fract_y
_atom_site_fract_z
Si Si1 0.750000 0.887439 0.429889
Si Si2 0.401968 0.386603 0.416369
Si Si3 0.464998 0.112710 0.728811
Si Si4 0.750000 0.113351 0.648963
Si Si5 0.591511 0.239721 0.089532
Si Si6 0.090789 0.388334 0.195366
O O1 0.883597 0.855253 0.368880
O O2 0.750000 0.841498 0.539025
O O3 0.750000 0.000000 0.442820
O O4 0.500000 0.341894 0.500000
O O5 0.250000 0.345071 0.434816
O O6 0.398240 0.500000 0.424813
O O7 0.451402 0.358476 0.306782
O O8 0.619708 0.148823 0.711038
O O9 0.404313 0.161339 0.825171
O O10 0.453419 0.000000 0.745331
O O11 0.750000 0.000000 0.640263
O O12 0.750000 0.261742 0.058531
O O13 0.514722 0.336098 0.123065
O O14 0.500000 0.197715 0.000000
O O15 0.250000 0.360449 0.174834
O O16 0.069948 0.500000 0.178558
#
# Coordination Sequence:
#
# PCOD8214134 Si02
#       6
#     4   8   8   4   8   8
#     4   9  16  34  61  91 130 169 207 249 299 363
#     4   8  14  27  51  83 117 154 191 231 287 353
#     4  10  21  39  63  94 131 168 208 252 302 368
#     4   9  18  32  61  97 128 169 207 245 303 365
#     4  12  27  44  65  89 119 162 210 266 320 365
#     4   9  20  41  67  91 120 159 203 257 317 374
#
# _framework density 21.613212000000001
#
# number of rings (size 3 to 8) (size 9 to 14) (size 15 to 20)
#    0.000    2.400    1.000    2.400    2.800    4.400 
#    0.000    4.000    0.000    0.000    0.000    0.000 
#    0.000    0.000    0.000    0.000    0.000    0.000 
#
# Total GULP energy -495925.920568 kJ/mol
# GULP energy per Si atom -12398.148014 kJ/mol
# Density = 2.156402 g / cm^3
# Si number density = 21.613212 Si / 1000 Ang^3
#
#
#
# Elastic Constant Matrix: (Units=GPa)
#
#
# Indices 1 2 3 4 5 6 
#
# 1 146.7187 19.0781 39.6553 0.0000 0.0000 0.0000
# 2 19.0781 41.7868 16.0560 0.0000 0.0000 0.0000
# 3 39.6553 16.0560 93.0983 0.0000 0.0000 0.0000
# 4 0.0000 0.0000 0.0000 18.7780 0.0000 0.0000
# 5 0.0000 0.0000 0.0000 0.0000 2.4950 0.0000
# 6 0.0000 0.0000 0.0000 0.0000 0.0000 22.8954
#
#
#
# Elastic Compliance Matrix: (Units=1/GPa)
#
#
# Indices 1 2 3 4 5 6 
#
# 1 0.007937 -0.002490 -0.002951 0.000000 0.000000 0.000000
# 2 -0.002490 0.026410 -0.003494 0.000000 0.000000 0.000000
# 3 -0.002951 -0.003494 0.012601 0.000000 0.000000 0.000000
# 4 0.000000 0.000000 0.000000 0.053254 0.000000 0.000000
# 5 0.000000 0.000000 0.000000 0.000000 0.400804 0.000000
# 6 0.000000 0.000000 0.000000 0.000000 0.000000 0.043677
#
#
# Mechanical properties :
#
#
# Convention : Reuss Voigt Hill
#
# Bulk Modulus (GPa) = 34.39063 47.90916 41.14989
# Shear Modulus (GPa) = 8.73749 22.62131 15.67940
#
# Velocity S-wave (km/s) = 2.01282 3.23870 2.69635
# Velocity P-wave (km/s) = 4.62042 6.01667 5.36417
#
# Compressibility (1/GPa) = 0.02907769
#
# Stress axis : x y z
#
# Youngs Moduli (GPa) = 125.98837 37.86394 79.35771
#
# Poissons Ratio (x) = 0.09427 0.23422
# Poissons Ratio (y) = 0.31368 0.27730
# Poissons Ratio (z) = 0.37185 0.13231
#
# Static dielectric constant tensor:
#      x y z
#    x 4.187710 0.000000 0.000000 
#    y 0.000000 3.521970 0.000000 
#    z 0.000000 0.000000 3.980560 
# 
# 
# High freq. dielectric constant tensor:
#      x y z
#    x 1.854770 0.000000 0.000000 
#    y 0.000000 1.837030 0.000000 
#    z 0.000000 0.000000 1.844680 
# 
# From -- ./inp_files/20552.got.cif
#   From: 2010.03.12/outbox.cif.g09.slc.cpg/sg51_11_cif.got.tgz:20552.got - 2010.04.16 13:43:02.
