data_PCOD8214946
_publ_section_title
;
Structure prediction by ZEFSAII (Michael W. Deem and Ramdas Pophale) SiO2 
 PCOD8214946
Probable space group: P N N A
;
_chemical_formula_sum "Si O2"
_cell_formula_units_Z 40
_cell_length_a 5.280380
_cell_length_b 25.453815
_cell_length_c 14.359734
_cell_angle_alpha 90.000000
_cell_angle_beta 90.000000
_cell_angle_gamma 90.000000
_cell_volume 1930.031761
_symmetry_space_group_name_H-M "P N N A"
_symmetry_group_IT_number 52
_symmetry_cell_setting 'orthorhombic'
loop_
_space_group_symop_operation_xyz
x,y,z
1/2-x,-y,z
x,1/2-y,1/2-z
1/2-x,1/2+y,1/2-z
-x,-y,-z
1/2+x,y,-z
-x,1/2+y,1/2+z
1/2+x,1/2-y,1/2+z
loop_
_atom_site_type_symbol
_atom_site_label
_atom_site_fract_x
_atom_site_fract_y
_atom_site_fract_z
Si Si1 0.750004 0.784273 0.522959
Si Si2 0.250001 0.605060 0.948072
Si Si3 0.250000 0.062181 0.945387
Si Si4 0.250002 0.811241 0.271037
Si Si5 0.749999 0.125898 0.241244
O O1 0.500003 0.749305 0.500000
O O2 0.750001 0.831264 0.447437
O O3 0.750005 0.815996 0.618264
O O4 0.250000 0.592037 0.837636
O O5 0.500001 0.582118 1.000000
O O6 0.249999 0.084611 0.841652
O O7 0.250000 0.000000 0.935519
O O8 0.500000 0.081707 1.000000
O O9 0.249999 0.750000 0.250000
O O10 0.500431 0.838109 0.230209
O O11 0.999574 0.838109 0.230210
#
# Coordination Sequence:
#
# PCOD8214946 Si02
#       5
#     8   8   8   8   8
#     4  10  16  32  51  72 106 152 199 219 271 349
#     4  10  16  30  56  82 106 148 193 221 276 359
#     4  10  23  45  70  91 119 159 210 266 333 388
#     4  12  23  35  53  89 124 161 204 247 296 366
#     4  12  21  38  64  86 117 158 207 253 301 374
#
# _framework density 20.725047
#
# number of rings (size 3 to 8) (size 9 to 14) (size 15 to 20)
#    0.000    1.200    8.000    1.800    0.000    0.000 
#    0.000    6.000    0.000    1.200    0.000    0.000 
#    0.000    0.000    0.000    0.000    0.000    0.000 
#
# Total GULP energy -495652.262327 kJ/mol
# GULP energy per Si atom -12391.306558 kJ/mol
# Density = 2.067788 g / cm^3
# Si number density = 20.725047 Si / 1000 Ang^3
#
#
#
# Elastic Constant Matrix: (Units=GPa)
#
#
# Indices 1 2 3 4 5 6 
#
# 1 236.8863 26.9370 62.6988 0.0000 0.0000 0.0000
# 2 26.9370 23.8486 31.7976 0.0000 0.0000 0.0000
# 3 62.6988 31.7976 150.6913 0.0000 0.0000 0.0000
# 4 0.0000 0.0000 0.0000 14.3985 0.0000 0.0000
# 5 0.0000 0.0000 0.0000 0.0000 27.0872 0.0000
# 6 0.0000 0.0000 0.0000 0.0000 0.0000 11.9122
#
#
#
# Elastic Compliance Matrix: (Units=1/GPa)
#
#
# Indices 1 2 3 4 5 6 
#
# 1 0.005004 -0.004002 -0.001238 0.000000 0.000000 0.000000
# 2 -0.004002 0.061547 -0.011322 0.000000 0.000000 0.000000
# 3 -0.001238 -0.011322 0.009540 0.000000 0.000000 0.000000
# 4 0.000000 0.000000 0.000000 0.069452 0.000000 0.000000
# 5 0.000000 0.000000 0.000000 0.000000 0.036918 0.000000
# 6 0.000000 0.000000 0.000000 0.000000 0.000000 0.083948
#
#
# Mechanical properties :
#
#
# Convention : Reuss Voigt Hill
#
# Bulk Modulus (GPa) = 23.27301 72.69923 47.98612
# Shear Modulus (GPa) = 15.93092 30.01242 22.97167
#
# Velocity S-wave (km/s) = 2.77552 3.80955 3.33288
# Velocity P-wave (km/s) = 4.63952 7.38270 6.16561
#
# Compressibility (1/GPa) = 0.04296823
#
# Stress axis : x y z
#
# Youngs Moduli (GPa) = 199.83693 16.24763 104.82056
#
# Poissons Ratio (x) = 0.06502 0.12973
# Poissons Ratio (y) = 0.79975 1.18679
# Poissons Ratio (z) = 0.24732 0.18396
#
# Static dielectric constant tensor:
#      x y z
#    x 4.867530 0.000000 0.000000 
#    y 0.000000 3.030290 0.000000 
#    z 0.000000 0.000000 1.888820 
# 
# 
# High freq. dielectric constant tensor:
#      x y z
#    x 1.853290 0.000000 0.000000 
#    y 0.000000 1.735520 0.000000 
#    z 0.000000 0.000000 1.821820 
# 
# From -- ./inp_files/16046.got.cif
#   From: 2010.06.25/outbox.cif.g09.slc.cpg/sg52_9_cif.got.tgz:16046.got - 2010.06.26 19:32:48.
