data_PCOD8214771
_publ_section_title
;
Structure prediction by ZEFSAII (Michael W. Deem and Ramdas Pophale) SiO2 
 PCOD8214771
Probable space group: P M M A
;
_chemical_formula_sum "Si O2"
_cell_formula_units_Z 40
_cell_length_a 9.677445
_cell_length_b 9.730093
_cell_length_c 25.556432
_cell_angle_alpha 90.000000
_cell_angle_beta 90.000000
_cell_angle_gamma 90.000000
_cell_volume 2406.455991
_symmetry_space_group_name_H-M "P M M A"
_symmetry_group_IT_number 51
_symmetry_cell_setting 'orthorhombic'
loop_
_space_group_symop_operation_xyz
x,y,z
1/2-x,-y,z
1/2+x,-y,-z
-x,y,-z
-x,-y,-z
1/2+x,y,-z
1/2-x,y,z
x,-y,z
loop_
_atom_site_type_symbol
_atom_site_label
_atom_site_fract_x
_atom_site_fract_y
_atom_site_fract_z
Si Si1 0.590440 0.658428 0.549256
Si Si2 0.090514 0.158766 0.352894
Si Si3 0.414464 0.347100 0.839720
Si Si4 0.903678 0.663631 0.045439
Si Si5 0.589552 0.159112 0.254135
O O1 0.500000 0.705133 0.500000
O O2 0.750000 0.683986 0.535014
O O3 0.562483 0.500000 0.563755
O O4 0.543855 0.750445 0.598019
O O5 0.250000 0.185551 0.338380
O O6 0.997375 0.205726 0.304334
O O7 0.064218 0.000000 0.367137
O O8 0.250000 0.351080 0.840734
O O9 0.472059 0.500000 0.827556
O O10 0.464052 0.296046 0.897214
O O11 0.468263 0.243595 0.795376
O O12 0.750000 0.724540 0.037569
O O13 0.897976 0.500000 0.041662
O O14 0.000000 0.726588 0.000000
O O15 0.750000 0.191280 0.265305
O O16 0.565513 0.000000 0.241287
#
# Coordination Sequence:
#
# PCOD8214771 Si02
#       5
#     8   8   8   8   8
#     4   9  18  32  48  66  89 115 141 170 206 247
#     4   9  18  32  47  63  86 115 142 169 207 251
#     4   8  14  25  41  61  84 109 137 170 209 250
#     4   8  13  22  37  56  78 104 133 166 204 244
#     4   9  17  29  45  64  84 108 141 177 208 242
#
# _framework density 16.621953999999999
#
# number of rings (size 3 to 8) (size 9 to 14) (size 15 to 20)
#    0.000    3.400    0.000    1.200    0.000    2.000 
#    0.000    1.000    0.000    1.800    0.000    0.000 
#    0.000    0.000    0.000    0.000    0.000    0.000 
#
# Total GULP energy -495868.451319 kJ/mol
# GULP energy per Si atom -12396.711283 kJ/mol
# Density = 1.658412 g / cm^3
# Si number density = 16.621954 Si / 1000 Ang^3
#
#
#
# Elastic Constant Matrix: (Units=GPa)
#
#
# Indices 1 2 3 4 5 6 
#
# 1 55.9883 32.1124 70.3682 0.0000 0.0000 0.0000
# 2 32.1124 57.1409 75.1335 0.0000 0.0000 0.0000
# 3 70.3682 75.1335 184.6155 0.0000 0.0000 0.0000
# 4 0.0000 0.0000 0.0000 13.1539 0.0000 0.0000
# 5 0.0000 0.0000 0.0000 0.0000 32.3322 0.0000
# 6 0.0000 0.0000 0.0000 0.0000 0.0000 14.6917
#
#
#
# Elastic Compliance Matrix: (Units=1/GPa)
#
#
# Indices 1 2 3 4 5 6 
#
# 1 0.034828 -0.004555 -0.011421 0.000000 0.000000 0.000000
# 2 -0.004555 0.038241 -0.013827 0.000000 0.000000 0.000000
# 3 -0.011421 -0.013827 0.015397 0.000000 0.000000 0.000000
# 4 0.000000 0.000000 0.000000 0.076023 0.000000 0.000000
# 5 0.000000 0.000000 0.000000 0.000000 0.030929 0.000000
# 6 0.000000 0.000000 0.000000 0.000000 0.000000 0.068065
#
#
# Mechanical properties :
#
#
# Convention : Reuss Voigt Hill
#
# Bulk Modulus (GPa) = 34.65034 72.55254 53.60144
# Shear Modulus (GPa) = 15.02805 20.04427 17.53616
#
# Velocity S-wave (km/s) = 3.01010 3.47636 3.25160
# Velocity P-wave (km/s) = 5.74215 7.73672 6.81283
#
# Compressibility (1/GPa) = 0.02885975
#
# Stress axis : x y z
#
# Youngs Moduli (GPa) = 28.71221 26.14973 64.94713
#
# Poissons Ratio (x) = 0.11912 0.74178
# Poissons Ratio (y) = 0.13080 0.89801
# Poissons Ratio (z) = 0.32793 0.36157
#
# Static dielectric constant tensor:
#      x y z
#    x 3.036410 0.000000 0.000000 
#    y 0.000000 3.005060 0.000000 
#    z 0.000000 0.000000 3.353460 
# 
# 
# High freq. dielectric constant tensor:
#      x y z
#    x 1.618260 0.000000 0.000000 
#    y 0.000000 1.616790 0.000000 
#    z 0.000000 0.000000 1.648210 
# 
# From -- ./inp_files/28796.got.cif
#   From: 2010.03.12/outbox.cif.g09.slc.cpg/sg51_15_cif.got.tgz:28796.got - 2010.04.16 13:43:02.
