data_PCOD8214087
_publ_section_title
;
Structure prediction by ZEFSAII (Michael W. Deem and Ramdas Pophale) SiO2 
 PCOD8214087
Probable space group: P M M A
;
_chemical_formula_sum "Si O2"
_cell_formula_units_Z 64
_cell_length_a 23.834206
_cell_length_b 8.954644
_cell_length_c 14.886239
_cell_angle_alpha 90.000000
_cell_angle_beta 90.000000
_cell_angle_gamma 90.000000
_cell_volume 3177.122797
_symmetry_space_group_name_H-M "P M M A"
_symmetry_group_IT_number 51
_symmetry_cell_setting 'orthorhombic'
loop_
_space_group_symop_operation_xyz
x,y,z
1/2-x,-y,z
1/2+x,-y,-z
-x,y,-z
-x,-y,-z
1/2+x,y,-z
1/2-x,y,z
x,-y,z
loop_
_atom_site_type_symbol
_atom_site_label
_atom_site_fract_x
_atom_site_fract_y
_atom_site_fract_z
Si Si1 0.813576 0.328903 0.711857
Si Si2 0.612849 0.175229 0.854244
Si Si3 0.999884 0.676121 0.898273
Si Si4 0.185192 0.825027 0.975348
Si Si5 0.990054 0.662947 0.604736
Si Si6 0.900793 0.824495 0.359537
Si Si7 0.380527 0.323498 0.819854
Si Si8 0.874652 0.327902 0.541598
O O1 0.750000 0.292756 0.737189
O O2 0.829376 0.500000 0.735433
O O3 0.852060 0.216826 0.766832
O O4 0.820405 0.302865 0.604051
O O5 0.552169 0.251744 0.846117
O O6 0.603782 0.000000 0.857561
O O7 0.647029 0.231126 0.941821
O O8 0.992079 0.500000 0.895819
O O9 0.057683 0.726760 0.852201
O O10 0.000000 0.736385 0.000000
O O11 0.250000 0.787245 0.996550
O O12 0.166545 0.736712 0.887047
O O13 0.176820 0.000000 0.958179
O O14 0.998952 0.500000 0.651927
O O15 0.925646 0.716827 0.610403
O O16 0.000000 0.645280 0.500000
O O17 0.033390 0.780157 0.646831
O O18 0.868151 0.747207 0.277579
O O19 0.872497 0.772900 0.452837
O O20 0.894953 0.000000 0.351169
O O21 0.374982 0.500000 0.813780
O O22 0.881552 0.500000 0.510216
#
# Coordination Sequence:
#
# PCOD8214087 Si02
#       8
#     8   8   8   8   8   8   8   8
#     4  10  22  40  62  88 118 156 204 253 297 351
#     4  11  23  38  61  91 125 160 196 240 299 366
#     4  10  21  39  61  88 122 159 201 249 300 354
#     4  10  22  41  62  85 118 157 195 241 295 350
#     4   8  15  30  51  75 105 144 185 227 280 341
#     4  11  22  35  55  84 118 152 191 240 297 357
#     4  11  23  39  61  87 120 160 203 249 295 350
#     4   9  19  37  58  80 110 150 196 243 295 346
#
# _framework density 20.144010999999999
#
# number of rings (size 3 to 8) (size 9 to 14) (size 15 to 20)
#    0.000    2.000    1.250    3.000    1.750    5.500 
#    0.000    0.625    0.000    2.250    0.000    0.000 
#    0.000    0.000    0.000    0.000    0.000    0.000 
#
# Total GULP energy -793603.387284 kJ/mol
# GULP energy per Si atom -12400.052926 kJ/mol
# Density = 2.009816 g / cm^3
# Si number density = 20.144011 Si / 1000 Ang^3
#
#
#
# Elastic Constant Matrix: (Units=GPa)
#
#
# Indices 1 2 3 4 5 6 
#
# 1 69.8127 24.9556 13.9609 0.0000 0.0000 0.0000
# 2 24.9556 66.1274 28.7995 0.0000 0.0000 0.0000
# 3 13.9609 28.7995 83.8636 0.0000 0.0000 0.0000
# 4 0.0000 0.0000 0.0000 27.1913 0.0000 0.0000
# 5 0.0000 0.0000 0.0000 0.0000 28.4194 0.0000
# 6 0.0000 0.0000 0.0000 0.0000 0.0000 -2.8496
#
#
#
# Elastic Compliance Matrix: (Units=1/GPa)
#
#
# Indices 1 2 3 4 5 6 
#
# 1 0.016595 -0.005949 -0.000720 0.000000 0.000000 0.000000
# 2 -0.005949 0.019915 -0.005848 0.000000 0.000000 0.000000
# 3 -0.000720 -0.005848 0.014052 0.000000 0.000000 0.000000
# 4 0.000000 0.000000 0.000000 0.036776 0.000000 0.000000
# 5 0.000000 0.000000 0.000000 0.000000 0.035187 0.000000
# 6 0.000000 0.000000 0.000000 0.000000 0.000000 -0.350929
#
#
# Mechanical properties :
#
#
# Convention : Reuss Voigt Hill
#
# Bulk Modulus (GPa) = 39.17409 39.47064 39.32236
# Shear Modulus (GPa) = -25.65941 20.69140 -2.48400
#
# Velocity S-wave (km/s) = -3.57290 3.20843 -1.11167
# Velocity P-wave (km/s) = 1.57111 5.77600 4.23264
#
# Compressibility (1/GPa) = 0.02552708
#
# Stress axis : x y z
#
# Youngs Moduli (GPa) = 60.26066 50.21446 71.16267
#
# Poissons Ratio (x) = 0.29874 0.05120
# Poissons Ratio (y) = 0.35850 0.41619
# Poissons Ratio (z) = 0.04336 0.29368
#
# Static dielectric constant tensor:
#      x y z
#    x 4.046960 0.000000 0.000000 
#    y 0.000000 3.464530 0.000000 
#    z 0.000000 0.000000 3.636190 
# 
# 
# High freq. dielectric constant tensor:
#      x y z
#    x 1.776700 0.000000 0.000000 
#    y 0.000000 1.774070 0.000000 
#    z 0.000000 0.000000 1.790760 
# 
# From -- ./inp_files/26216.got.cif
#   From: 2010.03.12/outbox.cif.g09.slc.cpg/sg51_14_cif.got.tgz:26216.got - 2010.04.16 13:43:02.
