data_PCOD8214310
_publ_section_title
;
Structure prediction by ZEFSAII (Michael W. Deem and Ramdas Pophale) SiO2 
 PCOD8214310
Probable space group: P M M A
;
_chemical_formula_sum "Si O2"
_cell_formula_units_Z 64
_cell_length_a 8.748786
_cell_length_b 15.367495
_cell_length_c 23.925779
_cell_angle_alpha 90.000000
_cell_angle_beta 90.000000
_cell_angle_gamma 90.000000
_cell_volume 3216.747417
_symmetry_space_group_name_H-M "P M M A"
_symmetry_group_IT_number 51
_symmetry_cell_setting 'orthorhombic'
loop_
_space_group_symop_operation_xyz
x,y,z
1/2-x,-y,z
1/2+x,-y,-z
-x,y,-z
-x,-y,-z
1/2+x,y,-z
1/2-x,y,z
x,-y,z
loop_
_atom_site_type_symbol
_atom_site_label
_atom_site_fract_x
_atom_site_fract_y
_atom_site_fract_z
Si Si1 0.572996 0.900336 0.865958
Si Si2 0.070579 0.663667 0.744871
Si Si3 0.929235 0.150255 0.742408
Si Si4 0.930490 0.753618 0.060862
Si Si5 0.426090 0.403082 0.361605
Si Si6 0.068825 0.403970 0.864684
Si Si7 0.570568 0.752788 0.560668
Si Si8 0.924553 0.902177 0.368294
O O1 0.750000 0.874383 0.872454
O O2 0.518835 0.886195 0.802405
O O3 0.473511 0.840904 0.906484
O O4 0.544715 0.000000 0.883252
O O5 0.250000 0.686024 0.745822
O O6 0.017338 0.617726 0.801860
O O7 0.971530 0.749487 0.736708
O O8 0.030152 0.600783 0.693698
O O9 0.750000 0.137221 0.733018
O O10 0.017582 0.096675 0.695340
O O11 0.750000 0.748718 0.056088
O O12 0.996994 0.668863 0.093170
O O13 0.000000 0.755958 0.000000
O O14 0.250000 0.383724 0.345760
O O15 0.444080 0.500000 0.387078
O O16 0.486316 0.333132 0.406565
O O17 0.250000 0.404013 0.868037
O O18 0.005161 0.500000 0.880895
O O19 0.500000 0.752901 0.500000
O O20 0.750000 0.752072 0.553758
O O21 0.524576 0.839087 0.593765
O O22 0.750000 0.869870 0.369848
O O23 0.939237 0.000000 0.392074
#
# Coordination Sequence:
#
# PCOD8214310 Si02
#       8
#     8   8   8   8   8   8   8   8
#     4  10  22  40  62  88 119 155 195 240 293 354
#     4  11  20  34  60  91 123 159 199 241 294 356
#     4  11  21  36  61  91 125 160 194 239 299 359
#     4  11  23  40  61  85 115 154 199 248 297 348
#     4  10  22  40  61  89 124 160 199 245 299 357
#     4   9  19  36  58  86 120 155 193 239 292 349
#     4  11  24  42  64  88 119 161 204 253 302 351
#     4  11  24  41  63  92 124 158 199 247 297 356
#
# _framework density 19.895873999999999
#
# number of rings (size 3 to 8) (size 9 to 14) (size 15 to 20)
#    0.000    1.500    2.500    2.625    0.000    4.500 
#    0.000    0.000    0.000    3.375    0.000    0.000 
#    0.000    0.000    0.000    0.000    0.000    0.000 
#
# Total GULP energy -793814.807774 kJ/mol
# GULP energy per Si atom -12403.356371 kJ/mol
# Density = 1.985059 g / cm^3
# Si number density = 19.895874 Si / 1000 Ang^3
#
#
#
# Elastic Constant Matrix: (Units=GPa)
#
#
# Indices 1 2 3 4 5 6 
#
# 1 44.4425 26.3271 39.1662 0.0000 0.0000 0.0000
# 2 26.3271 131.0193 57.2308 0.0000 0.0000 0.0000
# 3 39.1662 57.2308 144.6154 0.0000 0.0000 0.0000
# 4 0.0000 0.0000 0.0000 1.9501 0.0000 0.0000
# 5 0.0000 0.0000 0.0000 0.0000 -13.0228 0.0000
# 6 0.0000 0.0000 0.0000 0.0000 0.0000 25.1613
#
#
#
# Elastic Compliance Matrix: (Units=1/GPa)
#
#
# Indices 1 2 3 4 5 6 
#
# 1 0.030531 -0.003050 -0.007062 0.000000 0.000000 0.000000
# 2 -0.003050 0.009532 -0.002946 0.000000 0.000000 0.000000
# 3 -0.007062 -0.002946 0.009993 0.000000 0.000000 0.000000
# 4 0.000000 0.000000 0.000000 0.512793 0.000000 0.000000
# 5 0.000000 0.000000 0.000000 0.000000 -0.076789 0.000000
# 6 0.000000 0.000000 0.000000 0.000000 0.000000 0.039744
#
#
# Mechanical properties :
#
#
# Convention : Reuss Voigt Hill
#
# Bulk Modulus (GPa) = 41.77023 62.83613 52.30318
# Shear Modulus (GPa) = 8.93015 15.97461 12.45238
#
# Velocity S-wave (km/s) = 2.12089 2.83664 2.50447
# Velocity P-wave (km/s) = 5.19977 6.50997 5.89141
#
# Compressibility (1/GPa) = 0.02394049
#
# Stress axis : x y z
#
# Youngs Moduli (GPa) = 32.75337 104.90580 100.06654
#
# Poissons Ratio (x) = 0.32000 0.70663
# Poissons Ratio (y) = 0.09991 0.29482
# Poissons Ratio (z) = 0.23129 0.30908
#
# Static dielectric constant tensor:
#      x y z
#    x 3.504850 0.000000 0.000000 
#    y 0.000000 3.822780 0.000000 
#    z 0.000000 0.000000 3.656450 
# 
# 
# High freq. dielectric constant tensor:
#      x y z
#    x 1.767670 0.000000 0.000000 
#    y 0.000000 1.790460 0.000000 
#    z 0.000000 0.000000 1.773790 
# 
# From -- ./inp_files/34838.got.cif
#   From: 2010.03.12/outbox.cif.g09.slc.cpg/sg51_18_cif.got.tgz:34838.got - 2010.04.16 13:43:02.
