data_PCOD8214894
_publ_section_title
;
Structure prediction by ZEFSAII (Michael W. Deem and Ramdas Pophale) SiO2 
 PCOD8214894
Probable space group: P M M A
;
_chemical_formula_sum "Si O2"
_cell_formula_units_Z 64
_cell_length_a 21.975029
_cell_length_b 13.963277
_cell_length_c 12.621752
_cell_angle_alpha 90.000000
_cell_angle_beta 90.000000
_cell_angle_gamma 90.000000
_cell_volume 3872.901512
_symmetry_space_group_name_H-M "P M M A"
_symmetry_group_IT_number 51
_symmetry_cell_setting 'orthorhombic'
loop_
_space_group_symop_operation_xyz
x,y,z
1/2-x,-y,z
1/2+x,-y,-z
-x,y,-z
-x,-y,-z
1/2+x,y,-z
1/2-x,y,z
x,-y,z
loop_
_atom_site_type_symbol
_atom_site_label
_atom_site_fract_x
_atom_site_fract_y
_atom_site_fract_z
Si Si1 0.179493 0.606053 0.354318
Si Si2 0.892483 0.388651 0.850554
Si Si3 0.182739 0.763337 0.768932
Si Si4 0.426327 0.106634 0.778246
Si Si5 0.870915 0.611819 0.089936
Si Si6 0.066056 0.893611 0.529256
Si Si7 0.179191 0.235964 0.524443
Si Si8 0.990252 0.274390 0.119751
O O1 0.250000 0.603673 0.331136
O O2 0.154767 0.500000 0.382047
O O3 0.151550 0.643079 0.244024
O O4 0.164120 0.671795 0.454122
O O5 0.910616 0.500000 0.845786
O O6 0.951845 0.325782 0.831175
O O7 0.861746 0.367260 0.964708
O O8 0.250000 0.806608 0.778646
O O9 0.137888 0.845786 0.811447
O O10 0.179098 0.668594 0.841774
O O11 0.169012 0.735336 0.646820
O O12 0.430570 0.099092 0.653937
O O13 0.479961 0.175357 0.818263
O O14 0.431142 0.000000 0.828588
O O15 0.864805 0.500000 0.115370
O O16 0.936112 0.649132 0.129703
O O17 0.127246 0.839945 0.488591
O O18 0.000000 0.845566 0.500000
O O19 0.068149 0.000000 0.478263
O O20 0.250000 0.200458 0.506165
O O21 0.000000 0.243368 0.000000
#
# Coordination Sequence:
#
# PCOD8214894 Si02
#       8
#     8   8   8   8   8   8   8   8
#     4   9  18  31  46  66  92 122 158 193 223 267
#     4   9  17  29  47  68  90 122 157 188 228 271
#     4   9  18  31  46  67  91 119 156 190 227 276
#     4   9  18  31  46  67  92 118 149 187 232 277
#     4   9  17  29  45  67  95 121 150 192 233 270
#     4   9  18  31  48  71  95 119 150 194 242 280
#     4   9  18  32  49  68  93 127 159 190 231 279
#     4   9  17  29  46  68  92 120 152 188 228 275
#
# _framework density 16.525078000000001
#
# number of rings (size 3 to 8) (size 9 to 14) (size 15 to 20)
#    0.000    3.000    0.000    0.375    1.750    3.500 
#    0.000    5.000    0.000    0.375    0.000    0.000 
#    0.000    2.250    0.000    0.000    0.000    0.000 
#
# Total GULP energy -793146.537361 kJ/mol
# GULP energy per Si atom -12392.914646 kJ/mol
# Density = 1.648747 g / cm^3
# Si number density = 16.525078 Si / 1000 Ang^3
#
#
#
# Elastic Constant Matrix: (Units=GPa)
#
#
# Indices 1 2 3 4 5 6 
#
# 1 82.2827 44.4499 29.2862 0.0000 0.0000 0.0000
# 2 44.4499 92.4561 37.5663 0.0000 0.0000 0.0000
# 3 29.2862 37.5663 50.5913 0.0000 0.0000 0.0000
# 4 0.0000 0.0000 0.0000 20.4214 0.0000 0.0000
# 5 0.0000 0.0000 0.0000 0.0000 26.2018 0.0000
# 6 0.0000 0.0000 0.0000 0.0000 0.0000 20.2533
#
#
#
# Elastic Compliance Matrix: (Units=1/GPa)
#
#
# Indices 1 2 3 4 5 6 
#
# 1 0.017438 -0.006132 -0.005541 0.000000 0.000000 0.000000
# 2 -0.006132 0.017646 -0.009553 0.000000 0.000000 0.000000
# 3 -0.005541 -0.009553 0.030067 0.000000 0.000000 0.000000
# 4 0.000000 0.000000 0.000000 0.048968 0.000000 0.000000
# 5 0.000000 0.000000 0.000000 0.000000 0.038165 0.000000
# 6 0.000000 0.000000 0.000000 0.000000 0.000000 0.049375
#
#
# Mechanical properties :
#
#
# Convention : Reuss Voigt Hill
#
# Bulk Modulus (GPa) = 44.05545 49.77056 46.91301
# Shear Modulus (GPa) = 19.86667 20.97714 20.42190
#
# Velocity S-wave (km/s) = 3.47106 3.56675 3.51923
# Velocity P-wave (km/s) = 6.54079 6.86628 6.70551
#
# Compressibility (1/GPa) = 0.02269867
#
# Stress axis : x y z
#
# Youngs Moduli (GPa) = 57.34558 56.67133 33.25872
#
# Poissons Ratio (x) = 0.34752 0.18429
# Poissons Ratio (y) = 0.35166 0.31771
# Poissons Ratio (z) = 0.31776 0.54137
#
# Static dielectric constant tensor:
#      x y z
#    x 3.236750 0.000000 0.000000 
#    y 0.000000 3.273430 0.000000 
#    z 0.000000 0.000000 3.062590 
# 
# 
# High freq. dielectric constant tensor:
#      x y z
#    x 1.637540 0.000000 0.000000 
#    y 0.000000 1.626260 0.000000 
#    z 0.000000 0.000000 1.627690 
# 
# From -- ./inp_files/18880.got.cif
#   From: 2010.03.12/outbox.cif.g09.slc.cpg/sg51_10_cif.got.tgz:18880.got - 2010.04.16 13:43:02.
