data_PCOD8214273
_publ_section_title
;
Structure prediction by ZEFSAII (Michael W. Deem and Ramdas Pophale) SiO2 
 PCOD8214273
Probable space group: P M M A
;
_chemical_formula_sum "Si O2"
_cell_formula_units_Z 64
_cell_length_a 15.025184
_cell_length_b 22.591968
_cell_length_c 8.803754
_cell_angle_alpha 90.000000
_cell_angle_beta 90.000000
_cell_angle_gamma 90.000000
_cell_volume 2988.420879
_symmetry_space_group_name_H-M "P M M A"
_symmetry_group_IT_number 51
_symmetry_cell_setting 'orthorhombic'
loop_
_space_group_symop_operation_xyz
x,y,z
1/2-x,-y,z
1/2+x,-y,-z
-x,y,-z
-x,-y,-z
1/2+x,y,-z
1/2-x,y,z
x,-y,z
loop_
_atom_site_type_symbol
_atom_site_label
_atom_site_fract_x
_atom_site_fract_y
_atom_site_fract_z
Si Si1 0.847325 0.883960 0.270451
Si Si2 0.016517 0.066577 0.169514
Si Si3 0.593583 0.851327 0.580037
Si Si4 0.348047 0.259686 0.253752
Si Si5 0.899775 0.225290 0.057501
Si Si6 0.649487 0.566366 0.846747
Si Si7 0.852199 0.355000 0.140377
Si Si8 0.020043 0.363672 0.326211
O O1 0.750000 0.902763 0.210793
O O2 0.918424 0.935845 0.243318
O O3 0.840412 0.876776 0.452628
O O4 0.879461 0.825596 0.179717
O O5 0.083313 0.106962 0.269902
O O6 0.055551 0.000000 0.163076
O O7 0.000000 0.092855 0.000000
O O8 0.500000 0.841426 0.500000
O O9 0.633453 0.787968 0.617599
O O10 0.250000 0.289033 0.281959
O O11 0.428018 0.307204 0.254220
O O12 0.341294 0.223887 0.095101
O O13 0.874869 0.286032 0.139623
O O14 0.000000 0.221490 0.000000
O O15 0.750000 0.571663 0.787263
O O16 0.630571 0.500000 0.907458
O O17 0.584498 0.580488 0.705395
O O18 0.631547 0.614045 0.978772
O O19 0.750000 0.365746 0.194597
O O20 0.924594 0.380930 0.255392
O O21 0.000000 0.352040 0.500000
#
# Coordination Sequence:
#
# PCOD8214273 Si02
#       8
#     8   8   8   8   8   8   8   8
#     4  11  23  37  59  93 127 164 208 265 332 394
#     4  10  22  42  67  90 119 167 221 269 315 380
#     4  10  22  39  59  88 124 165 206 257 320 395
#     4  12  23  38  60  88 126 168 214 267 326 389
#     4  12  21  38  62  88 126 166 214 270 324 385
#     4  10  22  45  73  97 125 168 223 278 328 389
#     4  11  23  41  64  93 126 168 221 274 325 386
#     4  12  26  40  60  95 135 176 214 268 332 403
#
# _framework density 21.415993
#
# number of rings (size 3 to 8) (size 9 to 14) (size 15 to 20)
#    0.000    1.000    2.500    5.250    1.750    4.750 
#    0.000    0.625    0.000    4.125    0.000    0.000 
#    0.000    0.000    0.000    0.000    0.000    0.000 
#
# Total GULP energy -793112.729736 kJ/mol
# GULP energy per Si atom -12392.386402 kJ/mol
# Density = 2.136725 g / cm^3
# Si number density = 21.415993 Si / 1000 Ang^3
#
#
#
# Elastic Constant Matrix: (Units=GPa)
#
#
# Indices 1 2 3 4 5 6 
#
# 1 135.2099 23.7878 34.6266 0.0000 0.0000 0.0000
# 2 23.7878 68.6100 22.9067 0.0000 0.0000 0.0000
# 3 34.6266 22.9067 110.2183 0.0000 0.0000 0.0000
# 4 0.0000 0.0000 0.0000 15.2477 0.0000 0.0000
# 5 0.0000 0.0000 0.0000 0.0000 19.5053 0.0000
# 6 0.0000 0.0000 0.0000 0.0000 0.0000 -18.0416
#
#
#
# Elastic Compliance Matrix: (Units=1/GPa)
#
#
# Indices 1 2 3 4 5 6 
#
# 1 0.008332 -0.002165 -0.002168 0.000000 0.000000 0.000000
# 2 -0.002165 0.016224 -0.002692 0.000000 0.000000 0.000000
# 3 -0.002168 -0.002692 0.010313 0.000000 0.000000 0.000000
# 4 0.000000 0.000000 0.000000 0.065583 0.000000 0.000000
# 5 0.000000 0.000000 0.000000 0.000000 0.051268 0.000000
# 6 0.000000 0.000000 0.000000 0.000000 0.000000 -0.055427
#
#
# Mechanical properties :
#
#
# Convention : Reuss Voigt Hill
#
# Bulk Modulus (GPa) = 48.02881 52.96451 50.49666
# Shear Modulus (GPa) = 42.63190 18.85676 30.74433
#
# Velocity S-wave (km/s) = 4.46652 2.97054 3.79301
# Velocity P-wave (km/s) = 7.00536 6.04570 6.54314
#
# Compressibility (1/GPa) = 0.02082084
#
# Stress axis : x y z
#
# Youngs Moduli (GPa) = 120.02016 61.63529 96.96202
#
# Poissons Ratio (x) = 0.13344 0.21018
# Poissons Ratio (y) = 0.25985 0.26100
# Poissons Ratio (z) = 0.26016 0.16591
#
# Static dielectric constant tensor:
#      x y z
#    x 4.103920 0.000000 0.000000 
#    y 0.000000 3.720050 0.000000 
#    z 0.000000 0.000000 3.994550 
# 
# 
# High freq. dielectric constant tensor:
#      x y z
#    x 1.849840 0.000000 0.000000 
#    y 0.000000 1.825340 0.000000 
#    z 0.000000 0.000000 1.835180 
# 
# From -- ./inp_files/8742.got.cif
#   From: 2010.03.12/outbox.cif.g09.slc.cpg/sg51_5_cif.got.tgz:8742.got - 2010.04.16 13:43:02.
