data_PCOD8214528
_publ_section_title
;
Structure prediction by ZEFSAII (Michael W. Deem and Ramdas Pophale) SiO2 
 PCOD8214528
Probable space group: P M M A
;
_chemical_formula_sum "Si O2"
_cell_formula_units_Z 48
_cell_length_a 17.144154
_cell_length_b 14.970005
_cell_length_c 9.149743
_cell_angle_alpha 90.000000
_cell_angle_beta 90.000000
_cell_angle_gamma 90.000000
_cell_volume 2348.263892
_symmetry_space_group_name_H-M "P M M A"
_symmetry_group_IT_number 51
_symmetry_cell_setting 'orthorhombic'
loop_
_space_group_symop_operation_xyz
x,y,z
1/2-x,-y,z
1/2+x,-y,-z
-x,y,-z
-x,-y,-z
1/2+x,y,-z
1/2-x,y,z
x,-y,z
loop_
_atom_site_type_symbol
_atom_site_label
_atom_site_fract_x
_atom_site_fract_y
_atom_site_fract_z
Si Si1 0.106031 0.000000 0.123206
Si Si2 0.440379 0.334417 0.121545
Si Si3 0.916944 0.156391 0.428942
Si Si4 0.338933 0.821960 0.267002
Si Si5 0.072573 0.000000 0.786819
Si Si6 0.338385 0.500000 0.017727
Si Si7 0.164086 0.500000 0.671988
Si Si8 0.053180 0.346667 0.637838
O O1 0.150881 0.087136 0.177932
O O2 0.020338 0.000000 0.193584
O O3 0.109880 0.000000 0.947459
O O4 0.395546 0.253177 0.198924
O O5 0.380971 0.409469 0.066341
O O6 0.498849 0.383323 0.233094
O O7 0.500000 0.295451 0.000000
O O8 0.855418 0.161256 0.561576
O O9 0.914140 0.247518 0.334652
O O10 0.000000 0.133582 0.500000
O O11 0.896561 0.083622 0.306813
O O12 0.250000 0.789213 0.250764
O O13 0.250000 0.500000 0.080521
O O14 0.336165 0.500000 0.844961
O O15 0.250000 0.500000 0.606163
O O16 0.123992 0.412464 0.607932
O O17 0.000000 0.339667 0.500000
#
# Coordination Sequence:
#
# PCOD8214528 Si02
#       8
#     4   8   8   8   4   4   4   8
#     4  11  24  39  67 102 136 165 221 273 320 382
#     4  12  23  42  71  95 126 174 224 264 318 391
#     4  11  21  42  66  97 128 171 220 264 322 393
#     4  12  26  44  66  97 136 173 214 275 335 383
#     4  11  22  38  72 101 124 174 225 269 314 387
#     4  11  24  42  63  97 136 169 211 270 335 386
#     4  11  24  41  63  94 132 171 209 266 332 385
#     4  11  22  42  65  95 128 164 221 268 313 384
#
# _framework density 20.440632999999998
#
# number of rings (size 3 to 8) (size 9 to 14) (size 15 to 20)
#    0.000    0.667    6.667    2.500    4.667    0.667 
#    0.000    2.500    0.000    0.000    0.000    0.000 
#    0.000    0.000    0.000    0.000    0.000    0.000 
#
# Total GULP energy -595146.586986 kJ/mol
# GULP energy per Si atom -12398.887229 kJ/mol
# Density = 2.039411 g / cm^3
# Si number density = 20.440633 Si / 1000 Ang^3
#
#
#
# Elastic Constant Matrix: (Units=GPa)
#
#
# Indices 1 2 3 4 5 6 
#
# 1 105.6795 54.5074 15.3706 0.0000 0.0000 0.0000
# 2 54.5074 145.5807 42.7218 0.0000 0.0000 0.0000
# 3 15.3706 42.7218 71.3546 0.0000 0.0000 0.0000
# 4 0.0000 0.0000 0.0000 43.0687 0.0000 0.0000
# 5 0.0000 0.0000 0.0000 0.0000 21.1528 0.0000
# 6 0.0000 0.0000 0.0000 0.0000 0.0000 28.6938
#
#
#
# Elastic Compliance Matrix: (Units=1/GPa)
#
#
# Indices 1 2 3 4 5 6 
#
# 1 0.011728 -0.004428 0.000125 0.000000 0.000000 0.000000
# 2 -0.004428 0.010005 -0.005036 0.000000 0.000000 0.000000
# 3 0.000125 -0.005036 0.017003 0.000000 0.000000 0.000000
# 4 0.000000 0.000000 0.000000 0.023219 0.000000 0.000000
# 5 0.000000 0.000000 0.000000 0.000000 0.047275 0.000000
# 6 0.000000 0.000000 0.000000 0.000000 0.000000 0.034851
#
#
# Mechanical properties :
#
#
# Convention : Reuss Voigt Hill
#
# Bulk Modulus (GPa) = 49.85765 60.86826 55.36295
# Shear Modulus (GPa) = 29.50808 32.58408 31.04608
#
# Velocity S-wave (km/s) = 3.80359 3.99693 3.90146
# Velocity P-wave (km/s) = 6.61318 7.15145 6.88758
#
# Compressibility (1/GPa) = 0.02005710
#
# Stress axis : x y z
#
# Youngs Moduli (GPa) = 85.26451 99.95188 58.81304
#
# Poissons Ratio (x) = 0.44256 -0.00733
# Poissons Ratio (y) = 0.37753 0.29620
# Poissons Ratio (z) = -0.01063 0.50339
#
# Static dielectric constant tensor:
#      x y z
#    x 3.798050 0.000000 0.000000 
#    y 0.000000 3.469620 0.000000 
#    z 0.000000 0.000000 3.636240 
# 
# 
# High freq. dielectric constant tensor:
#      x y z
#    x 1.790690 0.000000 0.000000 
#    y 0.000000 1.809380 0.000000 
#    z 0.000000 0.000000 1.807760 
# 
# From -- ./inp_files/9746.got.cif
#   From: 2010.03.12/outbox.cif.g09.slc.cpg/sg51_5_cif.got.tgz:9746.got - 2010.04.16 13:43:02.
