data_PCOD8214964
_publ_section_title
;
Structure prediction by ZEFSAII (Michael W. Deem and Ramdas Pophale) SiO2 
 PCOD8214964
Probable space group: P N N A
;
_chemical_formula_sum "Si O2"
_cell_formula_units_Z 56
_cell_length_a 14.585524
_cell_length_b 19.898378
_cell_length_c 9.293556
_cell_angle_alpha 90.000000
_cell_angle_beta 90.000000
_cell_angle_gamma 90.000000
_cell_volume 2697.252679
_symmetry_space_group_name_H-M "P N N A"
_symmetry_group_IT_number 52
_symmetry_cell_setting 'orthorhombic'
loop_
_space_group_symop_operation_xyz
x,y,z
1/2-x,-y,z
x,1/2-y,1/2-z
1/2-x,1/2+y,1/2-z
-x,-y,-z
1/2+x,y,-z
-x,1/2+y,1/2+z
1/2+x,1/2-y,1/2+z
loop_
_atom_site_type_symbol
_atom_site_label
_atom_site_fract_x
_atom_site_fract_y
_atom_site_fract_z
Si Si1 0.347346 0.250000 0.750000
Si Si2 0.003032 0.165762 0.363731
Si Si3 0.415783 0.034680 0.598800
Si Si4 0.733438 0.574915 0.899798
Si Si5 0.250000 0.000000 0.805146
Si Si6 0.314878 0.680414 0.301683
Si Si7 0.102341 0.390633 0.895120
Si Si8 0.791813 0.642484 0.377785
O O1 0.415336 0.214794 0.634986
O O2 0.286366 0.307973 0.680878
O O3 0.079867 0.183202 0.247998
O O4 0.046885 0.168265 0.524020
O O5 0.977750 0.088670 0.319127
O O6 0.369216 0.074881 0.464605
O O7 0.338534 0.003425 0.704586
O O8 0.461289 0.959575 0.571957
O O9 0.750000 0.500000 0.843439
O O10 0.749513 0.622828 0.763431
O O11 0.799878 0.597821 0.028801
O O12 0.252494 0.932729 0.902678
O O13 0.268297 0.750000 0.250000
O O14 0.323744 0.673547 0.472627
O O15 0.122080 0.364598 0.733328
#
# Coordination Sequence:
#
# PCOD8214964 Si02
#       8
#     4   8   8   8   4   8   8   8
#     4  12  24  38  70  88 122 174 204 266 314 380
#     4  11  22  38  61  92 127 160 204 257 324 370
#     4  10  16  36  67  91 119 157 217 254 298 367
#     4   9  17  36  62  89 117 162 209 249 296 370
#     4  10  18  38  64 100 122 158 220 266 290 378
#     4  11  26  40  58  89 133 163 202 260 322 376
#     4   9  19  38  64  91 118 161 207 259 306 373
#     4  11  24  41  68  91 124 170 214 252 321 377
#
# _framework density 20.761866999999999
#
# number of rings (size 3 to 8) (size 9 to 14) (size 15 to 20)
#    0.000    1.714    5.714    0.429    7.000    0.000 
#    0.000    4.286    3.143    0.000    0.000    0.000 
#    0.000    0.000    0.000    0.000    0.000    0.000 
#
# Total GULP energy -693828.497316 kJ/mol
# GULP energy per Si atom -12389.794595 kJ/mol
# Density = 2.071461 g / cm^3
# Si number density = 20.761867 Si / 1000 Ang^3
#
#
#
# Elastic Constant Matrix: (Units=GPa)
#
#
# Indices 1 2 3 4 5 6 
#
# 1 65.0683 44.4559 31.3844 0.0000 0.0000 0.0000
# 2 44.4559 144.0082 63.2175 0.0000 0.0000 0.0000
# 3 31.3844 63.2175 130.9993 0.0000 0.0000 0.0000
# 4 0.0000 0.0000 0.0000 26.6199 0.0000 0.0000
# 5 0.0000 0.0000 0.0000 0.0000 7.1727 0.0000
# 6 0.0000 0.0000 0.0000 0.0000 0.0000 36.0888
#
#
#
# Elastic Compliance Matrix: (Units=1/GPa)
#
#
# Indices 1 2 3 4 5 6 
#
# 1 0.020008 -0.005167 -0.002300 0.000000 0.000000 0.000000
# 2 -0.005167 0.010145 -0.003658 0.000000 0.000000 0.000000
# 3 -0.002300 -0.003658 0.009950 0.000000 0.000000 0.000000
# 4 0.000000 0.000000 0.000000 0.037566 0.000000 0.000000
# 5 0.000000 0.000000 0.000000 0.000000 0.139417 0.000000
# 6 0.000000 0.000000 0.000000 0.000000 0.000000 0.027709
#
#
# Mechanical properties :
#
#
# Convention : Reuss Voigt Hill
#
# Bulk Modulus (GPa) = 56.01235 68.68793 62.35014
# Shear Modulus (GPa) = 18.31531 27.37748 22.84639
#
# Velocity S-wave (km/s) = 2.97334 3.63525 3.32083
# Velocity P-wave (km/s) = 6.23095 7.12570 6.69329
#
# Compressibility (1/GPa) = 0.01785321
#
# Stress axis : x y z
#
# Youngs Moduli (GPa) = 49.98022 98.57266 100.50411
#
# Poissons Ratio (x) = 0.50931 0.23116
# Poissons Ratio (y) = 0.25824 0.36763
# Poissons Ratio (z) = 0.11496 0.36056
#
# Static dielectric constant tensor:
#      x y z
#    x 3.898150 0.000000 0.000000 
#    y 0.000000 4.442110 0.000000 
#    z 0.000000 0.000000 3.490070 
# 
# 
# High freq. dielectric constant tensor:
#      x y z
#    x 1.811610 0.000000 0.000000 
#    y 0.000000 1.838040 0.000000 
#    z 0.000000 0.000000 1.777890 
# 
# From -- ./inp_files/10847.got.cif
#   From: 2010.06.25/outbox.cif.g09.slc.cpg/sg52_6_cif.got.tgz:10847.got - 2010.06.26 19:32:48.
