data_PCOD8214413
_publ_section_title
;
Structure prediction by ZEFSAII (Michael W. Deem and Ramdas Pophale) SiO2 
 PCOD8214413
Probable space group: P M M A
;
_chemical_formula_sum "Si O2"
_cell_formula_units_Z 48
_cell_length_a 19.750620
_cell_length_b 9.938242
_cell_length_c 13.492634
_cell_angle_alpha 90.000000
_cell_angle_beta 90.000000
_cell_angle_gamma 90.000000
_cell_volume 2648.421110
_symmetry_space_group_name_H-M "P M M A"
_symmetry_group_IT_number 51
_symmetry_cell_setting 'orthorhombic'
loop_
_space_group_symop_operation_xyz
x,y,z
1/2-x,-y,z
1/2+x,-y,-z
-x,y,-z
-x,-y,-z
1/2+x,y,-z
1/2-x,y,z
x,-y,z
loop_
_atom_site_type_symbol
_atom_site_label
_atom_site_fract_x
_atom_site_fract_y
_atom_site_fract_z
Si Si1 0.053430 0.500000 0.367241
Si Si2 0.898903 0.500000 0.422689
Si Si3 0.329277 0.763718 0.654398
Si Si4 0.454654 0.000000 0.343954
Si Si5 0.905035 0.840622 0.157609
Si Si6 0.949478 0.252941 0.774419
Si Si7 0.079624 0.346702 0.017639
Si Si8 0.403395 0.000000 0.565114
O O1 0.108353 0.500000 0.457365
O O2 0.064192 0.371621 0.300539
O O3 0.978048 0.500000 0.406523
O O4 0.865427 0.374833 0.368997
O O5 0.250000 0.745580 0.641288
O O6 0.344634 0.817838 0.764794
O O7 0.356997 0.869794 0.575309
O O8 0.423052 0.876655 0.283867
O O9 0.432815 0.000000 0.456498
O O10 0.537612 0.000000 0.349307
O O11 0.972025 0.771559 0.201224
O O12 0.915126 0.000000 0.133390
O O13 0.885164 0.756855 0.058757
O O14 0.906820 0.285066 0.873373
O O15 0.108681 0.500000 0.008003
O O16 0.000000 0.351631 0.000000
#
# Coordination Sequence:
#
# PCOD8214413 Si02
#       8
#     4   4   8   4   8   8   8   4
#     4  11  20  34  58  78 116 149 180 227 287 343
#     4  11  23  36  53  85 110 149 189 229 276 333
#     4  12  23  38  56  78 113 149 187 233 274 329
#     4  11  20  32  58  82 116 145 184 233 279 345
#     4  11  21  34  51  79 111 146 185 222 272 337
#     4  11  18  33  52  82 113 147 175 221 283 339
#     4   9  20  31  50  75 112 145 173 213 269 330
#     4  11  21  38  53  81 112 153 187 227 284 331
#
# _framework density 18.124006999999999
#
# number of rings (size 3 to 8) (size 9 to 14) (size 15 to 20)
#    0.000    1.167    5.833    1.500    3.500    3.667 
#    0.000    0.000    0.000    0.000    0.000    7.000 
#    0.000    0.000    0.000    0.000    0.000    0.000 
#
# Total GULP energy -595039.426244 kJ/mol
# GULP energy per Si atom -12396.654713 kJ/mol
# Density = 1.808276 g / cm^3
# Si number density = 18.124007 Si / 1000 Ang^3
#
#
#
# Elastic Constant Matrix: (Units=GPa)
#
#
# Indices 1 2 3 4 5 6 
#
# 1 40.7346 12.3253 11.5054 0.0000 0.0000 0.0000
# 2 12.3253 152.7172 57.1151 0.0000 0.0000 0.0000
# 3 11.5054 57.1151 118.3308 0.0000 0.0000 0.0000
# 4 0.0000 0.0000 0.0000 61.1597 0.0000 0.0000
# 5 0.0000 0.0000 0.0000 0.0000 14.5684 0.0000
# 6 0.0000 0.0000 0.0000 0.0000 0.0000 61.8835
#
#
#
# Elastic Compliance Matrix: (Units=1/GPa)
#
#
# Indices 1 2 3 4 5 6 
#
# 1 0.025478 -0.001379 -0.001812 0.000000 0.000000 0.000000
# 2 -0.001379 0.008065 -0.003759 0.000000 0.000000 0.000000
# 3 -0.001812 -0.003759 0.010441 0.000000 0.000000 0.000000
# 4 0.000000 0.000000 0.000000 0.016351 0.000000 0.000000
# 5 0.000000 0.000000 0.000000 0.000000 0.068642 0.000000
# 6 0.000000 0.000000 0.000000 0.000000 0.000000 0.016159
#
#
# Mechanical properties :
#
#
# Convention : Reuss Voigt Hill
#
# Bulk Modulus (GPa) = 33.23808 52.63047 42.93428
# Shear Modulus (GPa) = 29.57477 42.91145 36.24311
#
# Velocity S-wave (km/s) = 4.04394 4.87114 4.47668
# Velocity P-wave (km/s) = 6.33906 7.79355 7.10363
#
# Compressibility (1/GPa) = 0.03008597
#
# Stress axis : x y z
#
# Youngs Moduli (GPa) = 39.24952 123.99166 95.77352
#
# Poissons Ratio (x) = 0.17094 0.17353
# Poissons Ratio (y) = 0.05411 0.35999
# Poissons Ratio (z) = 0.07111 0.46605
#
# Static dielectric constant tensor:
#      x y z
#    x 2.853840 0.000000 0.000000 
#    y 0.000000 3.660720 0.000000 
#    z 0.000000 0.000000 3.737360 
# 
# 
# High freq. dielectric constant tensor:
#      x y z
#    x 1.634420 0.000000 0.000000 
#    y 0.000000 1.727260 0.000000 
#    z 0.000000 0.000000 1.718640 
# 
# From -- ./inp_files/25029.got.cif
#   From: 2010.03.12/outbox.cif.g09.slc.cpg/sg51_13_cif.got.tgz:25029.got - 2010.04.16 13:43:02.
