data_PCOD8214307
_publ_section_title
;
Structure prediction by ZEFSAII (Michael W. Deem and Ramdas Pophale) SiO2 
 PCOD8214307
Probable space group: P M M A
;
_chemical_formula_sum "Si O2"
_cell_formula_units_Z 56
_cell_length_a 14.608412
_cell_length_b 7.709228
_cell_length_c 23.722830
_cell_angle_alpha 90.000000
_cell_angle_beta 90.000000
_cell_angle_gamma 90.000000
_cell_volume 2671.655123
_symmetry_space_group_name_H-M "P M M A"
_symmetry_group_IT_number 51
_symmetry_cell_setting 'orthorhombic'
loop_
_space_group_symop_operation_xyz
x,y,z
1/2-x,-y,z
1/2+x,-y,-z
-x,y,-z
-x,-y,-z
1/2+x,y,-z
1/2-x,y,z
x,-y,z
loop_
_atom_site_type_symbol
_atom_site_label
_atom_site_fract_x
_atom_site_fract_y
_atom_site_fract_z
Si Si1 0.472647 0.202136 0.328882
Si Si2 0.855176 0.197093 0.403808
Si Si3 0.512422 0.793306 0.799071
Si Si4 0.649930 0.198391 0.129894
Si Si5 0.145673 0.701545 0.989077
Si Si6 0.851397 0.797113 0.891603
Si Si7 0.639659 0.500000 0.612692
Si Si8 0.357087 0.500000 0.514094
O O1 0.576231 0.226288 0.351629
O O2 0.472895 0.267922 0.264612
O O3 0.399506 0.323643 0.360193
O O4 0.442155 0.000000 0.334703
O O5 0.750000 0.236664 0.384622
O O6 0.887604 0.326198 0.453205
O O7 0.862825 0.000000 0.426641
O O8 0.416977 0.717171 0.823557
O O9 0.592023 0.717505 0.839388
O O10 0.510874 0.000000 0.802318
O O11 0.750000 0.291757 0.131617
O O12 0.662677 0.000000 0.145753
O O13 0.604389 0.211652 0.067349
O O14 0.250000 0.765541 0.993793
O O15 0.134780 0.500000 0.980476
O O16 0.098615 0.757143 0.048191
O O17 0.750000 0.711655 0.890050
O O18 0.844142 0.000000 0.883094
O O19 0.750000 0.500000 0.617758
O O20 0.601465 0.500000 0.548517
O O21 0.250000 0.500000 0.506861
#
# Coordination Sequence:
#
# PCOD8214307 Si02
#       8
#     8   8   8   8   8   8   4   4
#     4  10  22  40  60  86 121 158 201 247 288 342
#     4   9  18  34  60  93 126 160 194 234 289 347
#     4   9  19  35  53  76 104 135 179 228 269 322
#     4   9  17  31  52  75 101 135 171 212 270 337
#     4   9  17  30  47  70 100 128 163 215 273 332
#     4   9  17  31  51  70  91 127 173 220 272 325
#     4  11  25  43  62  88 119 158 201 244 295 343
#     4   9  19  37  61  88 123 157 194 243 288 341
#
# _framework density 20.960791
#
# number of rings (size 3 to 8) (size 9 to 14) (size 15 to 20)
#    0.000    2.714    0.000    0.857    0.000    5.429 
#    2.571   10.000    0.000    0.000    0.000    0.000 
#    0.000    0.000    0.000    0.000    0.000    0.000 
#
# Total GULP energy -693931.069780 kJ/mol
# GULP energy per Si atom -12391.626246 kJ/mol
# Density = 2.091308 g / cm^3
# Si number density = 20.960791 Si / 1000 Ang^3
#
#
#
# Elastic Constant Matrix: (Units=GPa)
#
#
# Indices 1 2 3 4 5 6 
#
# 1 74.1063 24.6946 29.7162 0.0000 0.0000 0.0000
# 2 24.6946 68.9518 34.6317 0.0000 0.0000 0.0000
# 3 29.7162 34.6317 130.9630 0.0000 0.0000 0.0000
# 4 0.0000 0.0000 0.0000 -8.5201 0.0000 0.0000
# 5 0.0000 0.0000 0.0000 0.0000 34.2652 0.0000
# 6 0.0000 0.0000 0.0000 0.0000 0.0000 17.5047
#
#
#
# Elastic Compliance Matrix: (Units=1/GPa)
#
#
# Indices 1 2 3 4 5 6 
#
# 1 0.015969 -0.004496 -0.002434 0.000000 0.000000 0.000000
# 2 -0.004496 0.017990 -0.003737 0.000000 0.000000 0.000000
# 3 -0.002434 -0.003737 0.009176 0.000000 0.000000 0.000000
# 4 0.000000 0.000000 0.000000 -0.117370 0.000000 0.000000
# 5 0.000000 0.000000 0.000000 0.000000 0.029184 0.000000
# 6 0.000000 0.000000 0.000000 0.000000 0.000000 0.057127
#
#
# Mechanical properties :
#
#
# Convention : Reuss Voigt Hill
#
# Bulk Modulus (GPa) = 45.87238 50.23400 48.05319
# Shear Modulus (GPa) = 122.91297 20.98187 71.94742
#
# Velocity S-wave (km/s) = 7.66595 3.16730 5.86509
# Velocity P-wave (km/s) = 10.01439 6.11502 8.29703
#
# Compressibility (1/GPa) = 0.02179961
#
# Stress axis : x y z
#
# Youngs Moduli (GPa) = 62.62277 55.58578 108.97597
#
# Poissons Ratio (x) = 0.24993 0.26529
# Poissons Ratio (y) = 0.28158 0.40725
# Poissons Ratio (z) = 0.15245 0.20773
#
# Static dielectric constant tensor:
#      x y z
#    x 3.996920 0.000000 0.000000 
#    y 0.000000 3.602890 0.000000 
#    z 0.000000 0.000000 4.001040 
# 
# 
# High freq. dielectric constant tensor:
#      x y z
#    x 1.814260 0.000000 0.000000 
#    y 0.000000 1.807130 0.000000 
#    z 0.000000 0.000000 1.816270 
# 
# From -- ./inp_files/33618.got.cif
#   From: 2010.03.12/outbox.cif.g09.slc.cpg/sg51_17_cif.got.tgz:33618.got - 2010.04.16 13:43:02.
