data_PCOD8214791
_publ_section_title
;
Structure prediction by ZEFSAII (Michael W. Deem and Ramdas Pophale) SiO2 
 PCOD8214791
Probable space group: P M M A
;
_chemical_formula_sum "Si O2"
_cell_formula_units_Z 64
_cell_length_a 9.172555
_cell_length_b 19.397537
_cell_length_c 20.968339
_cell_angle_alpha 90.000000
_cell_angle_beta 90.000000
_cell_angle_gamma 90.000000
_cell_volume 3730.791192
_symmetry_space_group_name_H-M "P M M A"
_symmetry_group_IT_number 51
_symmetry_cell_setting 'orthorhombic'
loop_
_space_group_symop_operation_xyz
x,y,z
1/2-x,-y,z
1/2+x,-y,-z
-x,y,-z
-x,-y,-z
1/2+x,y,-z
1/2-x,y,z
x,-y,z
loop_
_atom_site_type_symbol
_atom_site_label
_atom_site_fract_x
_atom_site_fract_y
_atom_site_fract_z
Si Si1 0.420129 0.078801 0.436943
Si Si2 0.080028 0.673463 0.323523
Si Si3 0.078945 0.676256 0.183783
Si Si4 0.422932 0.170197 0.317742
Si Si5 0.083396 0.666821 0.938177
Si Si6 0.922994 0.820770 0.195946
Si Si7 0.421999 0.420892 0.435926
Si Si8 0.088865 0.168575 0.941437
O O1 0.500000 0.106191 0.500000
O O2 0.250000 0.086723 0.449387
O O3 0.470699 0.124850 0.377755
O O4 0.463864 0.000000 0.422202
O O5 0.250000 0.677376 0.336373
O O6 0.051072 0.640631 0.252936
O O7 0.020726 0.751675 0.329851
O O8 0.012017 0.624020 0.377491
O O9 0.250000 0.679324 0.166890
O O10 0.994564 0.637791 0.126083
O O11 0.017443 0.752150 0.192306
O O12 0.250000 0.166287 0.304459
O O13 0.511396 0.138611 0.256799
O O14 0.250000 0.641322 0.939411
O O15 0.072288 0.749115 0.937792
O O16 0.000000 0.636891 0.000000
O O17 0.750000 0.805287 0.203069
O O18 0.952046 0.861297 0.128871
O O19 0.500000 0.394996 0.500000
O O20 0.250000 0.410964 0.444484
O O21 0.461855 0.500000 0.421471
O O22 0.250000 0.146711 0.959180
O O23 0.000000 0.136279 0.000000
#
# Coordination Sequence:
#
# PCOD8214791 Si02
#       8
#     8   8   8   8   8   8   8   8
#     4   9  18  32  48  65  85 109 137 169 206 249
#     4   8  15  27  42  60  82 109 139 169 205 249
#     4   9  15  24  37  52  75 107 139 172 211 252
#     4   9  17  29  44  61  83 111 140 170 206 249
#     4   9  15  22  32  49  74 105 141 175 208 249
#     4   9  16  25  36  54  80 107 138 174 209 247
#     4   9  17  30  46  62  82 108 137 170 207 247
#     4   8  14  21  30  46  70 101 134 166 197 234
#
# _framework density 17.154537999999999
#
# number of rings (size 3 to 8) (size 9 to 14) (size 15 to 20)
#    0.000    3.250    0.000    2.625    0.000    4.500 
#    0.000    3.125    0.000    0.000    0.000    0.000 
#    0.000    1.000    0.000    2.000    0.000    5.750 
#
# Total GULP energy -792900.775025 kJ/mol
# GULP energy per Si atom -12389.074610 kJ/mol
# Density = 1.711549 g / cm^3
# Si number density = 17.154538 Si / 1000 Ang^3
#
#
#
# Elastic Constant Matrix: (Units=GPa)
#
#
# Indices 1 2 3 4 5 6 
#
# 1 77.9853 17.8060 73.5247 0.0000 0.0000 0.0000
# 2 17.8060 31.7392 47.4557 0.0000 0.0000 0.0000
# 3 73.5247 47.4557 200.3135 0.0000 0.0000 0.0000
# 4 0.0000 0.0000 0.0000 2.3203 0.0000 0.0000
# 5 0.0000 0.0000 0.0000 0.0000 36.7665 0.0000
# 6 0.0000 0.0000 0.0000 0.0000 0.0000 8.1160
#
#
#
# Elastic Compliance Matrix: (Units=1/GPa)
#
#
# Indices 1 2 3 4 5 6 
#
# 1 0.019611 -0.000371 -0.007110 0.000000 0.000000 0.000000
# 2 -0.000371 0.048796 -0.011424 0.000000 0.000000 0.000000
# 3 -0.007110 -0.011424 0.010308 0.000000 0.000000 0.000000
# 4 0.000000 0.000000 0.000000 0.430973 0.000000 0.000000
# 5 0.000000 0.000000 0.000000 0.000000 0.027199 0.000000
# 6 0.000000 0.000000 0.000000 0.000000 0.000000 0.123214
#
#
# Mechanical properties :
#
#
# Convention : Reuss Voigt Hill
#
# Bulk Modulus (GPa) = 24.44683 65.29008 44.86846
# Shear Modulus (GPa) = 7.02695 20.85733 13.94214
#
# Velocity S-wave (km/s) = 2.02612 3.49069 2.85395
# Velocity P-wave (km/s) = 4.44471 7.37490 6.08870
#
# Compressibility (1/GPa) = 0.04090510
#
# Stress axis : x y z
#
# Youngs Moduli (GPa) = 50.99085 20.49368 97.00751
#
# Poissons Ratio (x) = 0.00760 0.68977
# Poissons Ratio (y) = 0.01890 1.10821
# Poissons Ratio (z) = 0.36257 0.23412
#
# Static dielectric constant tensor:
#      x y z
#    x 3.171140 0.000000 0.000000 
#    y 0.000000 2.717640 0.000000 
#    z 0.000000 0.000000 3.873470 
# 
# 
# High freq. dielectric constant tensor:
#      x y z
#    x 1.656090 0.000000 0.000000 
#    y 0.000000 1.587320 0.000000 
#    z 0.000000 0.000000 1.688600 
# 
# From -- ./inp_files/32595.got.cif
#   From: 2010.03.12/outbox.cif.g09.slc.cpg/sg51_17_cif.got.tgz:32595.got - 2010.04.16 13:43:02.
