data_PCOD8214822
_publ_section_title
;
Structure prediction by ZEFSAII (Michael W. Deem and Ramdas Pophale) SiO2 
 PCOD8214822
Probable space group: P M M A
;
_chemical_formula_sum "Si O2"
_cell_formula_units_Z 64
_cell_length_a 15.487688
_cell_length_b 9.492039
_cell_length_c 23.593998
_cell_angle_alpha 90.000000
_cell_angle_beta 90.000000
_cell_angle_gamma 90.000000
_cell_volume 3468.547477
_symmetry_space_group_name_H-M "P M M A"
_symmetry_group_IT_number 51
_symmetry_cell_setting 'orthorhombic'
loop_
_space_group_symop_operation_xyz
x,y,z
1/2-x,-y,z
1/2+x,-y,-z
-x,y,-z
-x,-y,-z
1/2+x,y,-z
1/2-x,y,z
x,-y,z
loop_
_atom_site_type_symbol
_atom_site_label
_atom_site_fract_x
_atom_site_fract_y
_atom_site_fract_z
Si Si1 0.515164 0.165991 0.310166
Si Si2 0.148269 0.658494 0.487818
Si Si3 0.150771 0.835058 0.378165
Si Si4 0.928992 0.658128 0.084125
Si Si5 0.379780 0.657752 0.035358
Si Si6 0.149444 0.834966 0.595681
Si Si7 0.841838 0.841567 0.866462
Si Si8 0.018436 0.833286 0.815468
O O1 0.417876 0.208731 0.329585
O O2 0.590393 0.218182 0.352269
O O3 0.536393 0.226393 0.247614
O O4 0.518505 0.000000 0.305803
O O5 0.250000 0.647636 0.490966
O O6 0.108334 0.500000 0.486908
O O7 0.121509 0.744633 0.432248
O O8 0.115632 0.745262 0.542256
O O9 0.250000 0.800828 0.359414
O O10 0.142537 0.000000 0.393783
O O11 0.905510 0.500000 0.103916
O O12 0.023598 0.663521 0.058306
O O13 0.918513 0.760241 0.138514
O O14 0.869811 0.705716 0.030700
O O15 0.343432 0.500000 0.040713
O O16 0.325485 0.759152 0.075185
O O17 0.250000 0.805459 0.609945
O O18 0.135009 0.000000 0.582466
O O19 0.750000 0.833023 0.832780
O O20 0.919493 0.785637 0.827605
O O21 0.864490 0.000000 0.884147
O O22 0.032812 0.000000 0.819546
#
# Coordination Sequence:
#
# PCOD8214822 Si02
#       8
#     8   8   8   8   8   8   8   8
#     4   9  18  31  47  69  93 119 158 198 225 262
#     4   9  17  30  48  70  96 121 146 184 234 283
#     4   9  17  30  48  68  92 124 157 187 222 267
#     4   8  14  26  43  62  83 106 137 179 220 257
#     4   8  14  25  42  62  82 107 140 176 215 259
#     4   9  17  31  51  70  88 114 149 190 234 277
#     4   9  17  27  40  62  91 118 144 179 222 264
#     4   9  17  29  44  62  86 117 151 184 219 261
#
# _framework density 18.451528
#
# number of rings (size 3 to 8) (size 9 to 14) (size 15 to 20)
#    0.000    3.250    0.000    1.125    0.000    3.250 
#    0.000    9.375    0.000    0.750    0.000    3.500 
#    0.000    0.000    0.000    0.000    0.000    0.000 
#
# Total GULP energy -792844.965008 kJ/mol
# GULP energy per Si atom -12388.202578 kJ/mol
# Density = 1.840953 g / cm^3
# Si number density = 18.451528 Si / 1000 Ang^3
#
#
#
# Elastic Constant Matrix: (Units=GPa)
#
#
# Indices 1 2 3 4 5 6 
#
# 1 36.5781 6.6125 13.4954 0.0000 0.0000 0.0000
# 2 6.6125 55.4976 40.6413 0.0000 0.0000 0.0000
# 3 13.4954 40.6413 126.5320 0.0000 0.0000 0.0000
# 4 0.0000 0.0000 0.0000 12.3280 0.0000 0.0000
# 5 0.0000 0.0000 0.0000 0.0000 13.8230 0.0000
# 6 0.0000 0.0000 0.0000 0.0000 0.0000 2.7311
#
#
#
# Elastic Compliance Matrix: (Units=1/GPa)
#
#
# Indices 1 2 3 4 5 6 
#
# 1 0.028558 -0.001533 -0.002554 0.000000 0.000000 0.000000
# 2 -0.001533 0.023643 -0.007430 0.000000 0.000000 0.000000
# 3 -0.002554 -0.007430 0.010562 0.000000 0.000000 0.000000
# 4 0.000000 0.000000 0.000000 0.081116 0.000000 0.000000
# 5 0.000000 0.000000 0.000000 0.000000 0.072343 0.000000
# 6 0.000000 0.000000 0.000000 0.000000 0.000000 0.366154
#
#
# Mechanical properties :
#
#
# Convention : Reuss Voigt Hill
#
# Bulk Modulus (GPa) = 25.17025 37.78958 31.47992
# Shear Modulus (GPa) = 8.08208 16.30033 12.19120
#
# Velocity S-wave (km/s) = 2.09516 2.97545 2.57323
# Velocity P-wave (km/s) = 4.41857 5.68589 5.09181
#
# Compressibility (1/GPa) = 0.03972944
#
# Stress axis : x y z
#
# Youngs Moduli (GPa) = 35.01650 42.29624 94.67803
#
# Poissons Ratio (x) = 0.06483 0.24177
# Poissons Ratio (y) = 0.05367 0.70350
# Poissons Ratio (z) = 0.08942 0.31428
#
# Static dielectric constant tensor:
#      x y z
#    x 3.331420 0.000000 0.000000 
#    y 0.000000 3.394030 0.000000 
#    z 0.000000 0.000000 3.672260 
# 
# 
# High freq. dielectric constant tensor:
#      x y z
#    x 1.696980 0.000000 0.000000 
#    y 0.000000 1.694410 0.000000 
#    z 0.000000 0.000000 1.707670 
# 
# From -- ./inp_files/33916.got.cif
#   From: 2010.03.12/outbox.cif.g09.slc.cpg/sg51_17_cif.got.tgz:33916.got - 2010.04.16 13:43:02.
