data_PCOD8214386
_publ_section_title
;
Structure prediction by ZEFSAII (Michael W. Deem and Ramdas Pophale) SiO2 
 PCOD8214386
Probable space group: P M M A
;
_chemical_formula_sum "Si O2"
_cell_formula_units_Z 56
_cell_length_a 9.110692
_cell_length_b 20.316682
_cell_length_c 15.393929
_cell_angle_alpha 90.000000
_cell_angle_beta 90.000000
_cell_angle_gamma 90.000000
_cell_volume 2849.401359
_symmetry_space_group_name_H-M "P M M A"
_symmetry_group_IT_number 51
_symmetry_cell_setting 'orthorhombic'
loop_
_space_group_symop_operation_xyz
x,y,z
1/2-x,-y,z
1/2+x,-y,-z
-x,y,-z
-x,-y,-z
1/2+x,y,-z
1/2-x,y,z
x,-y,z
loop_
_atom_site_type_symbol
_atom_site_label
_atom_site_fract_x
_atom_site_fract_y
_atom_site_fract_z
Si Si1 0.074875 0.571287 0.228068
Si Si2 0.923787 0.836136 0.911754
Si Si3 0.581232 0.075615 0.227535
Si Si4 0.915138 0.394871 0.582367
Si Si5 0.083069 0.248405 0.369032
Si Si6 0.576473 0.709474 0.818064
Si Si7 0.577945 0.121482 0.416842
O O1 0.250000 0.573666 0.229388
O O2 0.020477 0.500000 0.191066
O O3 0.016947 0.579064 0.326879
O O4 0.016054 0.633854 0.170563
O O5 0.750000 0.844010 0.920921
O O6 0.970052 0.759539 0.894630
O O7 0.976701 0.881150 0.832771
O O8 0.000000 0.859807 0.000000
O O9 0.750000 0.097754 0.214207
O O10 0.534636 0.084437 0.327982
O O11 0.559664 0.000000 0.201178
O O12 0.750000 0.420410 0.574702
O O13 0.922684 0.316014 0.578277
O O14 0.000000 0.424749 0.500000
O O15 0.250000 0.220815 0.366708
O O16 0.020012 0.260092 0.272123
O O17 0.975828 0.196728 0.413996
O O18 0.750000 0.705085 0.811295
O O19 0.500000 0.086853 0.500000
O O20 0.750000 0.119612 0.433155
#
# Coordination Sequence:
#
# PCOD8214386 Si02
#       7
#     8   8   8   8   8   8   8
#     4   8  14  26  45  69  97 134 179 222 266 317
#     4  11  22  38  63  91 117 144 180 225 278 337
#     4  10  23  43  62  83 115 150 186 230 276 325
#     4   9  17  26  39  62  94 131 173 223 272 317
#     4   9  16  30  49  70 100 136 179 229 275 320
#     4   8  15  29  51  77 105 138 176 223 271 320
#     4  11  22  34  53  80 110 146 188 230 274 322
#
# _framework density 19.653251000000001
#
# number of rings (size 3 to 8) (size 9 to 14) (size 15 to 20)
#    0.000    2.571    1.429    3.000    0.000    3.429 
#    0.000    0.000    0.000    0.429    0.000    0.000 
#    0.000    0.000    0.000    0.000    0.000    0.143 
#
# Total GULP energy -693953.084907 kJ/mol
# GULP energy per Si atom -12392.019373 kJ/mol
# Density = 1.960852 g / cm^3
# Si number density = 19.653251 Si / 1000 Ang^3
#
#
#
# Elastic Constant Matrix: (Units=GPa)
#
#
# Indices 1 2 3 4 5 6 
#
# 1 64.0293 31.8884 44.1945 0.0000 0.0000 0.0000
# 2 31.8884 101.4257 34.8165 0.0000 0.0000 0.0000
# 3 44.1945 34.8165 92.5894 0.0000 0.0000 0.0000
# 4 0.0000 0.0000 0.0000 7.9476 0.0000 0.0000
# 5 0.0000 0.0000 0.0000 0.0000 25.8945 0.0000
# 6 0.0000 0.0000 0.0000 0.0000 0.0000 13.3364
#
#
#
# Elastic Compliance Matrix: (Units=1/GPa)
#
#
# Indices 1 2 3 4 5 6 
#
# 1 0.024817 -0.004290 -0.010232 0.000000 0.000000 0.000000
# 2 -0.004290 0.012062 -0.002488 0.000000 0.000000 0.000000
# 3 -0.010232 -0.002488 0.016620 0.000000 0.000000 0.000000
# 4 0.000000 0.000000 0.000000 0.125824 0.000000 0.000000
# 5 0.000000 0.000000 0.000000 0.000000 0.038618 0.000000
# 6 0.000000 0.000000 0.000000 0.000000 0.000000 0.074983
#
#
# Mechanical properties :
#
#
# Convention : Reuss Voigt Hill
#
# Bulk Modulus (GPa) = 51.33903 53.31589 52.32746
# Shear Modulus (GPa) = 14.99527 19.24536 17.12032
#
# Velocity S-wave (km/s) = 2.76523 3.13268 2.95467
# Velocity P-wave (km/s) = 6.03112 6.34603 6.19058
#
# Compressibility (1/GPa) = 0.01947836
#
# Stress axis : x y z
#
# Youngs Moduli (GPa) = 40.29490 82.90274 60.16822
#
# Poissons Ratio (x) = 0.35566 0.61567
# Poissons Ratio (y) = 0.17287 0.14970
# Poissons Ratio (z) = 0.41231 0.20627
#
# Static dielectric constant tensor:
#      x y z
#    x 3.255190 0.000000 0.000000 
#    y 0.000000 3.842130 0.000000 
#    z 0.000000 0.000000 3.508480 
# 
# 
# High freq. dielectric constant tensor:
#      x y z
#    x 1.729150 0.000000 0.000000 
#    y 0.000000 1.770180 0.000000 
#    z 0.000000 0.000000 1.747180 
# 
# From -- ./inp_files/21866.got.cif
#   From: 2010.03.12/outbox.cif.g09.slc.cpg/sg51_11_cif.got.tgz:21866.got - 2010.04.16 13:43:02.
