data_PCOD8214431
_publ_section_title
;
Structure prediction by ZEFSAII (Michael W. Deem and Ramdas Pophale) SiO2 
 PCOD8214431
Probable space group: P M M A
;
_chemical_formula_sum "Si O2"
_cell_formula_units_Z 64
_cell_length_a 30.730101
_cell_length_b 8.570506
_cell_length_c 13.968179
_cell_angle_alpha 90.000000
_cell_angle_beta 90.000000
_cell_angle_gamma 90.000000
_cell_volume 3678.834433
_symmetry_space_group_name_H-M "P M M A"
_symmetry_group_IT_number 51
_symmetry_cell_setting 'orthorhombic'
loop_
_space_group_symop_operation_xyz
x,y,z
1/2-x,-y,z
1/2+x,-y,-z
-x,y,-z
-x,-y,-z
1/2+x,y,-z
1/2-x,y,z
x,-y,z
loop_
_atom_site_type_symbol
_atom_site_label
_atom_site_fract_x
_atom_site_fract_y
_atom_site_fract_z
Si Si1 0.082776 0.814266 0.678153
Si Si2 0.075087 0.182946 0.273489
Si Si3 0.126754 0.318083 0.115703
Si Si4 0.490105 0.682789 0.810660
Si Si5 0.146883 0.830073 0.823588
Si Si6 0.547932 0.183510 0.521570
Si Si7 0.066337 0.173275 0.964027
Si Si8 0.201008 0.186205 0.991787
O O1 0.044211 0.719961 0.727644
O O2 0.129713 0.755438 0.722815
O O3 0.080976 0.777196 0.565197
O O4 0.076657 0.000000 0.697043
O O5 0.117049 0.264806 0.224626
O O6 0.068220 0.252635 0.380627
O O7 0.033050 0.219450 0.210251
O O8 0.084050 0.000000 0.275734
O O9 0.134179 0.500000 0.110023
O O10 0.084862 0.270682 0.052890
O O11 0.171323 0.238830 0.079989
O O12 0.500565 0.500000 0.811700
O O13 0.474084 0.736376 0.915898
O O14 0.103323 0.843761 0.884961
O O15 0.182773 0.741762 0.889885
O O16 0.166296 0.000000 0.799518
O O17 0.500000 0.255128 0.500000
O O18 0.542168 0.000000 0.536269
O O19 0.052338 0.000000 0.998450
O O20 0.250000 0.246520 0.007551
O O21 0.198459 0.000000 0.986114
#
# Coordination Sequence:
#
# PCOD8214431 Si02
#       8
#     8   8   8   8   8   8   8   8
#     4   9  15  28  47  66  92 128 167 207 248 289
#     4  11  21  34  49  64  90 130 175 214 248 288
#     4  11  22  35  49  71 101 125 156 203 252 299
#     4  11  20  29  43  68  96 125 163 207 253 291
#     4   7  12  23  44  71  94 117 149 190 233 278
#     4   9  16  28  48  70  88 120 178 227 249 274
#     4   9  17  32  50  66  89 127 168 198 236 290
#     4   9  17  32  54  78 102 129 160 189 227 294
#
# _framework density 17.396813999999999
#
# number of rings (size 3 to 8) (size 9 to 14) (size 15 to 20)
#    0.000    2.500    1.250    4.500    0.000    0.750 
#    0.000    4.375    0.000    0.000    0.000    0.875 
#    0.000    5.000    0.000    0.000    0.000    0.625 
#
# Total GULP energy -792951.952926 kJ/mol
# GULP energy per Si atom -12389.874264 kJ/mol
# Density = 1.735722 g / cm^3
# Si number density = 17.396814 Si / 1000 Ang^3
#
#
#
# Elastic Constant Matrix: (Units=GPa)
#
#
# Indices 1 2 3 4 5 6 
#
# 1 82.4494 4.5597 62.4332 0.0000 0.0000 0.0000
# 2 4.5597 39.5436 15.5330 0.0000 0.0000 0.0000
# 3 62.4332 15.5330 120.3986 0.0000 0.0000 0.0000
# 4 0.0000 0.0000 0.0000 11.8099 0.0000 0.0000
# 5 0.0000 0.0000 0.0000 0.0000 18.8334 0.0000
# 6 0.0000 0.0000 0.0000 0.0000 0.0000 10.0926
#
#
#
# Elastic Compliance Matrix: (Units=1/GPa)
#
#
# Indices 1 2 3 4 5 6 
#
# 1 0.020101 0.001871 -0.010665 0.000000 0.000000 0.000000
# 2 0.001871 0.026813 -0.004430 0.000000 0.000000 0.000000
# 3 -0.010665 -0.004430 0.014408 0.000000 0.000000 0.000000
# 4 0.000000 0.000000 0.000000 0.084675 0.000000 0.000000
# 5 0.000000 0.000000 0.000000 0.000000 0.053097 0.000000
# 6 0.000000 0.000000 0.000000 0.000000 0.000000 0.099082
#
#
# Mechanical properties :
#
#
# Convention : Reuss Voigt Hill
#
# Bulk Modulus (GPa) = 28.67375 45.27148 36.97262
# Shear Modulus (GPa) = 14.87005 18.80491 16.83748
#
# Velocity S-wave (km/s) = 2.92680 3.29133 3.11440
# Velocity P-wave (km/s) = 5.28578 6.36578 5.85075
#
# Compressibility (1/GPa) = 0.03487510
#
# Stress axis : x y z
#
# Youngs Moduli (GPa) = 49.74905 37.29566 69.40821
#
# Poissons Ratio (x) = -0.06980 0.74023
# Poissons Ratio (y) = -0.09310 0.30745
# Poissons Ratio (z) = 0.53057 0.16521
#
# Static dielectric constant tensor:
#      x y z
#    x 3.145420 0.000000 0.000000 
#    y 0.000000 2.984490 0.000000 
#    z 0.000000 0.000000 3.550010 
# 
# 
# High freq. dielectric constant tensor:
#      x y z
#    x 1.633510 0.000000 0.000000 
#    y 0.000000 1.649160 0.000000 
#    z 0.000000 0.000000 1.671310 
# 
# From -- ./inp_files/26732.got.cif
#   From: 2010.03.12/outbox.cif.g09.slc.cpg/sg51_14_cif.got.tgz:26732.got - 2010.04.16 13:43:02.
