data_PCOD8214072
_publ_section_title
;
Structure prediction by ZEFSAII (Michael W. Deem and Ramdas Pophale) SiO2 
 PCOD8214072
Probable space group: P M M A
;
_chemical_formula_sum "Si O2"
_cell_formula_units_Z 40
_cell_length_a 14.290170
_cell_length_b 8.879558
_cell_length_c 17.188500
_cell_angle_alpha 90.000000
_cell_angle_beta 90.000000
_cell_angle_gamma 90.000000
_cell_volume 2181.055526
_symmetry_space_group_name_H-M "P M M A"
_symmetry_group_IT_number 51
_symmetry_cell_setting 'orthorhombic'
loop_
_space_group_symop_operation_xyz
x,y,z
1/2-x,-y,z
1/2+x,-y,-z
-x,y,-z
-x,-y,-z
1/2+x,y,-z
1/2-x,y,z
x,-y,z
loop_
_atom_site_type_symbol
_atom_site_label
_atom_site_fract_x
_atom_site_fract_y
_atom_site_fract_z
Si Si1 0.250000 0.322250 0.476205
Si Si2 0.250000 0.678467 0.653231
Si Si3 0.014012 0.321834 0.874362
Si Si4 0.563806 0.824433 0.570933
Si Si5 0.935072 0.175922 0.284775
Si Si6 0.353719 0.678153 0.011812
O O1 0.250000 0.500000 0.476718
O O2 0.250000 0.259295 0.564740
O O3 0.160264 0.265167 0.429613
O O4 0.250000 0.500000 0.654808
O O5 0.340269 0.735795 0.698586
O O6 0.016801 0.500000 0.857372
O O7 0.021579 0.228415 0.796020
O O8 0.916475 0.272491 0.914718
O O9 0.098699 0.271908 0.930941
O O10 0.500000 0.767262 0.500000
O O11 0.511742 0.785214 0.650462
O O12 0.586289 0.000000 0.562030
O O13 0.911890 0.000000 0.283260
O O14 0.250000 0.750512 0.018286
O O15 0.347390 0.500000 0.011765
#
# Coordination Sequence:
#
# PCOD8214072 Si02
#       6
#     4   4   8   8   8   8
#     4  11  23  37  59  87 110 139 188 247 289 322
#     4  11  23  37  57  85 114 143 180 233 289 334
#     4   9  18  33  55  82 110 142 184 229 274 327
#     4  10  21  39  60  78 109 157 193 221 271 341
#     4  11  23  38  57  83 114 149 188 230 275 332
#     4   8  15  31  55  80 108 145 185 222 270 336
#
# _framework density 18.339745000000001
#
# number of rings (size 3 to 8) (size 9 to 14) (size 15 to 20)
#    0.000    2.200    2.000    2.400    1.400    2.800 
#    1.800    2.000    0.000    1.200    0.000    0.000 
#    0.000    0.000    0.000    0.000    0.000    0.000 
#
# Total GULP energy -496067.860357 kJ/mol
# GULP energy per Si atom -12401.696509 kJ/mol
# Density = 1.829800 g / cm^3
# Si number density = 18.339745 Si / 1000 Ang^3
#
#
#
# Elastic Constant Matrix: (Units=GPa)
#
#
# Indices 1 2 3 4 5 6 
#
# 1 163.6419 40.0823 71.9932 0.0000 0.0000 0.0000
# 2 40.0823 46.8788 41.4036 0.0000 0.0000 0.0000
# 3 71.9932 41.4036 145.5468 0.0000 0.0000 0.0000
# 4 0.0000 0.0000 0.0000 30.2048 0.0000 0.0000
# 5 0.0000 0.0000 0.0000 0.0000 21.1747 0.0000
# 6 0.0000 0.0000 0.0000 0.0000 0.0000 14.7645
#
#
#
# Elastic Compliance Matrix: (Units=1/GPa)
#
#
# Indices 1 2 3 4 5 6 
#
# 1 0.008541 -0.004770 -0.002868 0.000000 0.000000 0.000000
# 2 -0.004770 0.031153 -0.006503 0.000000 0.000000 0.000000
# 3 -0.002868 -0.006503 0.010139 0.000000 0.000000 0.000000
# 4 0.000000 0.000000 0.000000 0.033107 0.000000 0.000000
# 5 0.000000 0.000000 0.000000 0.000000 0.047226 0.000000
# 6 0.000000 0.000000 0.000000 0.000000 0.000000 0.067730
#
#
# Mechanical properties :
#
#
# Convention : Reuss Voigt Hill
#
# Bulk Modulus (GPa) = 46.39871 73.66951 60.03411
# Shear Modulus (GPa) = 21.42600 26.73471 24.08036
#
# Velocity S-wave (km/s) = 3.42172 3.82219 3.62749
# Velocity P-wave (km/s) = 6.40042 7.72886 7.09580
#
# Compressibility (1/GPa) = 0.02155233
#
# Stress axis : x y z
#
# Youngs Moduli (GPa) = 117.08395 32.09947 98.62891
#
# Poissons Ratio (x) = 0.15311 0.28285
# Poissons Ratio (y) = 0.55846 0.64136
# Poissons Ratio (z) = 0.33577 0.20874
#
# Static dielectric constant tensor:
#      x y z
#    x 3.754360 0.000000 0.000000 
#    y 0.000000 3.124060 0.000000 
#    z 0.000000 0.000000 3.389870 
# 
# 
# High freq. dielectric constant tensor:
#      x y z
#    x 1.721340 0.000000 0.000000 
#    y 0.000000 1.690590 0.000000 
#    z 0.000000 0.000000 1.712970 
# 
# From -- ./inp_files/23762.got.cif
#   From: 2010.03.12/outbox.cif.g09.slc.cpg/sg51_12_cif.got.tgz:23762.got - 2010.04.16 13:43:02.
