data_PCOD8214925
_publ_section_title
;
Structure prediction by ZEFSAII (Michael W. Deem and Ramdas Pophale) SiO2 
 PCOD8214925
Probable space group: P N N A
;
_chemical_formula_sum "Si O2"
_cell_formula_units_Z 48
_cell_length_a 5.209975
_cell_length_b 17.472621
_cell_length_c 27.364209
_cell_angle_alpha 90.000000
_cell_angle_beta 90.000000
_cell_angle_gamma 90.000000
_cell_volume 2491.016446
_symmetry_space_group_name_H-M "P N N A"
_symmetry_group_IT_number 52
_symmetry_cell_setting 'orthorhombic'
loop_
_space_group_symop_operation_xyz
x,y,z
1/2-x,-y,z
x,1/2-y,1/2-z
1/2-x,1/2+y,1/2-z
-x,-y,-z
1/2+x,y,-z
-x,1/2+y,1/2+z
1/2+x,1/2-y,1/2+z
loop_
_atom_site_type_symbol
_atom_site_label
_atom_site_fract_x
_atom_site_fract_y
_atom_site_fract_z
Si Si1 0.787275 0.334084 0.771254
Si Si2 0.276143 0.699473 0.019923
Si Si3 0.788545 0.411916 0.268342
Si Si4 0.726415 0.237137 0.630643
Si Si5 0.223885 0.336176 0.632139
Si Si6 0.206863 0.129851 0.977823
O O1 0.741418 0.250000 0.750000
O O2 0.571870 0.389655 0.749576
O O3 0.756703 0.330490 0.829932
O O4 0.072496 0.362599 0.759136
O O5 0.230480 0.701835 0.077469
O O6 0.539690 0.655460 0.006173
O O7 0.323469 0.782440 0.995183
O O8 0.750000 0.500000 0.255878
O O9 0.769851 0.399289 0.326439
O O10 0.442508 0.271771 0.635176
O O11 0.942710 0.300854 0.640672
O O12 0.237944 0.377952 0.580097
O O13 0.446246 0.088451 0.004283
#
# Coordination Sequence:
#
# PCOD8214925 Si02
#       6
#     8   8   8   8   8   8
#     4  12  23  40  62  88 116 145 202 257 294 340
#     4  10  16  27  44  76 116 147 164 223 299 329
#     4  12  26  43  59  82 120 163 198 242 299 353
#     4  12  20  30  55  86 112 144 188 238 292 331
#     4  12  19  32  55  80 110 154 192 229 282 344
#     4  10  16  27  45  75 108 151 176 223 290 319
#
# _framework density 19.269241999999998
#
# number of rings (size 3 to 8) (size 9 to 14) (size 15 to 20)
#    0.000    0.667   10.000    2.000    0.000    0.000 
#    0.000    0.000    0.000    1.000    0.000    0.000 
#    0.000   13.333    0.000    0.000    0.000    0.000 
#
# Total GULP energy -595147.555350 kJ/mol
# GULP energy per Si atom -12398.907403 kJ/mol
# Density = 1.922538 g / cm^3
# Si number density = 19.269242 Si / 1000 Ang^3
#
#
#
# Elastic Constant Matrix: (Units=GPa)
#
#
# Indices 1 2 3 4 5 6 
#
# 1 119.4218 3.2260 1.6390 0.0000 0.0000 0.0000
# 2 3.2260 34.4205 26.6271 0.0000 0.0000 0.0000
# 3 1.6390 26.6271 90.9576 0.0000 0.0000 0.0000
# 4 0.0000 0.0000 0.0000 8.5540 0.0000 0.0000
# 5 0.0000 0.0000 0.0000 0.0000 33.6957 0.0000
# 6 0.0000 0.0000 0.0000 0.0000 0.0000 14.5358
#
#
#
# Elastic Compliance Matrix: (Units=1/GPa)
#
#
# Indices 1 2 3 4 5 6 
#
# 1 0.008396 -0.000866 0.000102 0.000000 0.000000 0.000000
# 2 -0.000866 0.037647 -0.011005 0.000000 0.000000 0.000000
# 3 0.000102 -0.011005 0.014214 0.000000 0.000000 0.000000
# 4 0.000000 0.000000 0.000000 0.116905 0.000000 0.000000
# 5 0.000000 0.000000 0.000000 0.000000 0.029677 0.000000
# 6 0.000000 0.000000 0.000000 0.000000 0.000000 0.068796
#
#
# Mechanical properties :
#
#
# Convention : Reuss Voigt Hill
#
# Bulk Modulus (GPa) = 27.23404 34.19824 30.71614
# Shear Modulus (GPa) = 16.05590 25.57761 20.81676
#
# Velocity S-wave (km/s) = 2.88972 3.64728 3.29037
# Velocity P-wave (km/s) = 5.02972 5.96011 5.51457
#
# Compressibility (1/GPa) = 0.03671876
#
# Stress axis : x y z
#
# Youngs Moduli (GPa) = 119.10899 26.56249 70.35327
#
# Poissons Ratio (x) = 0.02300 -0.00719
# Poissons Ratio (y) = 0.10314 0.77426
# Poissons Ratio (z) = -0.01217 0.29233
#
# Static dielectric constant tensor:
#      x y z
#    x 4.599220 0.000000 0.000000 
#    y 0.000000 2.840080 0.000000 
#    z 0.000000 0.000000 3.830570 
# 
# 
# High freq. dielectric constant tensor:
#      x y z
#    x 1.789500 0.000000 0.000000 
#    y 0.000000 1.666190 0.000000 
#    z 0.000000 0.000000 1.768190 
# 
# From -- ./inp_files/41694.got.cif
#   From: 2010.06.25/outbox.cif.g09.slc.cpg/sg52_21_cif.got.tgz:41694.got - 2010.06.26 19:32:48.
