data_PCOD8214936
_publ_section_title
;
Structure prediction by ZEFSAII (Michael W. Deem and Ramdas Pophale) SiO2 
 PCOD8214936
Probable space group: P N N A
;
_chemical_formula_sum "Si O2"
_cell_formula_units_Z 40
_cell_length_a 8.534711
_cell_length_b 19.529224
_cell_length_c 14.206250
_cell_angle_alpha 90.000000
_cell_angle_beta 90.000000
_cell_angle_gamma 90.000000
_cell_volume 2367.844944
_symmetry_space_group_name_H-M "P N N A"
_symmetry_group_IT_number 52
_symmetry_cell_setting 'orthorhombic'
loop_
_space_group_symop_operation_xyz
x,y,z
1/2-x,-y,z
x,1/2-y,1/2-z
1/2-x,1/2+y,1/2-z
-x,-y,-z
1/2+x,y,-z
-x,1/2+y,1/2+z
1/2+x,1/2-y,1/2+z
loop_
_atom_site_type_symbol
_atom_site_label
_atom_site_fract_x
_atom_site_fract_y
_atom_site_fract_z
Si Si1 0.500202 0.156155 0.690829
Si Si2 0.380257 0.449587 0.954271
Si Si3 0.619475 0.700461 0.378978
Si Si4 0.570946 0.235783 0.046423
Si Si5 0.291033 0.325926 0.083889
O O1 0.449458 0.088950 0.635624
O O2 0.409023 0.220543 0.647568
O O3 0.451813 0.149623 0.800400
O O4 0.689443 0.164769 0.679929
O O5 0.250000 0.500000 0.913387
O O6 0.500000 0.500000 0.000000
O O7 0.326258 0.398717 0.037054
O O8 0.809360 0.691088 0.388827
O O9 0.528184 0.685793 0.477136
O O10 0.448603 0.282468 0.106324
O O11 0.680835 0.286488 0.988590
#
# Coordination Sequence:
#
# PCOD8214936 Si02
#       5
#     8   8   8   8   8
#     4  10  19  32  46  73 104 138 174 210 256 310
#     4  12  20  29  50  74 106 148 167 201 255 321
#     4   9  18  31  51  69 103 131 171 225 251 313
#     4   9  15  30  52  68  96 135 164 211 270 305
#     4  10  16  30  48  70 105 133 170 199 257 318
#
# _framework density 16.892999
#
# number of rings (size 3 to 8) (size 9 to 14) (size 15 to 20)
#    0.000    2.000    8.000    0.000    0.000    0.000 
#    0.000   12.000    0.000    0.000    0.000    1.400 
#    0.000    0.000    0.000    0.000    0.000    0.000 
#
# Total GULP energy -495580.064853 kJ/mol
# GULP energy per Si atom -12389.501621 kJ/mol
# Density = 1.685455 g / cm^3
# Si number density = 16.892999 Si / 1000 Ang^3
#
#
#
# Elastic Constant Matrix: (Units=GPa)
#
#
# Indices 1 2 3 4 5 6 
#
# 1 139.9708 30.1155 53.5190 0.0000 0.0000 0.0000
# 2 30.1155 52.1932 35.0457 0.0000 0.0000 0.0000
# 3 53.5190 35.0457 79.3448 0.0000 0.0000 0.0000
# 4 0.0000 0.0000 0.0000 24.1443 0.0000 0.0000
# 5 0.0000 0.0000 0.0000 0.0000 24.2465 0.0000
# 6 0.0000 0.0000 0.0000 0.0000 0.0000 20.7678
#
#
#
# Elastic Compliance Matrix: (Units=1/GPa)
#
#
# Indices 1 2 3 4 5 6 
#
# 1 0.009734 -0.001717 -0.005807 0.000000 0.000000 0.000000
# 2 -0.001717 0.027541 -0.011006 0.000000 0.000000 0.000000
# 3 -0.005807 -0.011006 0.021382 0.000000 0.000000 0.000000
# 4 0.000000 0.000000 0.000000 0.041418 0.000000 0.000000
# 5 0.000000 0.000000 0.000000 0.000000 0.041243 0.000000
# 6 0.000000 0.000000 0.000000 0.000000 0.000000 0.048151
#
#
# Mechanical properties :
#
#
# Convention : Reuss Voigt Hill
#
# Bulk Modulus (GPa) = 46.30683 56.54102 51.42393
# Shear Modulus (GPa) = 21.39233 24.02030 22.70631
#
# Velocity S-wave (km/s) = 3.56243 3.77491 3.67021
# Velocity P-wave (km/s) = 6.66278 7.24863 6.96187
#
# Compressibility (1/GPa) = 0.02159509
#
# Stress axis : x y z
#
# Youngs Moduli (GPa) = 102.72900 36.30999 46.76895
#
# Poissons Ratio (x) = 0.06235 0.27161
# Poissons Ratio (y) = 0.17641 0.51474
# Poissons Ratio (z) = 0.59659 0.39963
#
# Static dielectric constant tensor:
#      x y z
#    x 3.827550 0.000000 0.000000 
#    y 0.000000 2.810850 0.000000 
#    z 0.000000 0.000000 3.141470 
# 
# 
# High freq. dielectric constant tensor:
#      x y z
#    x 1.676900 0.000000 0.000000 
#    y 0.000000 1.601130 0.000000 
#    z 0.000000 0.000000 1.622190 
# 
# From -- ./inp_files/24556.got.cif
#   From: 2010.06.25/outbox.cif.g09.slc.cpg/sg52_13_cif.got.tgz:24556.got - 2010.06.26 19:32:48.
