data_PCOD8214670
_publ_section_title
;
Structure prediction by ZEFSAII (Michael W. Deem and Ramdas Pophale) SiO2 
 PCOD8214670
Probable space group: P M M A
;
_chemical_formula_sum "Si O2"
_cell_formula_units_Z 32
_cell_length_a 9.976885
_cell_length_b 11.316867
_cell_length_c 13.487834
_cell_angle_alpha 90.000000
_cell_angle_beta 90.000000
_cell_angle_gamma 90.000000
_cell_volume 1522.871961
_symmetry_space_group_name_H-M "P M M A"
_symmetry_group_IT_number 51
_symmetry_cell_setting 'orthorhombic'
loop_
_space_group_symop_operation_xyz
x,y,z
1/2-x,-y,z
1/2+x,-y,-z
-x,y,-z
-x,-y,-z
1/2+x,y,-z
1/2-x,y,z
x,-y,z
loop_
_atom_site_type_symbol
_atom_site_label
_atom_site_fract_x
_atom_site_fract_y
_atom_site_fract_z
Si Si1 0.467418 0.500000 0.825697
Si Si2 0.750000 0.500000 0.341503
Si Si3 0.750000 0.753403 0.649082
Si Si4 0.250000 0.245119 0.579273
Si Si5 0.023613 0.138713 0.712350
Si Si6 0.901346 0.749018 0.085439
Si Si7 0.250000 0.500000 0.271227
O O1 0.383078 0.500000 0.724703
O O2 0.431924 0.386442 0.889965
O O3 0.623462 0.500000 0.801239
O O4 0.750000 0.613699 0.411445
O O5 0.750000 0.791864 0.535039
O O6 0.622216 0.804825 0.705285
O O7 0.750000 0.612352 0.656979
O O8 0.117014 0.192554 0.627597
O O9 0.083897 0.168121 0.819189
O O10 0.015516 0.000000 0.696722
O O11 0.750000 0.759824 0.045799
O O12 0.000000 0.795336 0.000000
#
# Coordination Sequence:
#
# PCOD8214670 Si02
#       7
#     4   2   4   4   8   8   2
#     4  12  21  42  70  96 143 181 220 279 352 410
#     4  12  19  44  71 100 134 184 217 286 355 408
#     4  12  26  44  69 109 135 181 231 287 339 408
#     4  12  24  44  75  99 139 181 233 281 349 404
#     4  12  26  47  69  97 143 188 230 282 335 404
#     4  12  26  45  72 104 137 179 229 283 348 409
#     4  12  23  40  71 102 142 176 219 284 355 400
#
# _framework density 21.012929
#
# number of rings (size 3 to 8) (size 9 to 14) (size 15 to 20)
#    0.000    0.000    7.500    2.250    3.500    3.500 
#    0.000    3.750    0.000    0.000    0.000    0.000 
#    0.000    0.000    0.000    0.000    0.000    0.000 
#
# Total GULP energy -397085.517418 kJ/mol
# GULP energy per Si atom -12408.922419 kJ/mol
# Density = 2.096510 g / cm^3
# Si number density = 21.012929 Si / 1000 Ang^3
#
#
#
# Elastic Constant Matrix: (Units=GPa)
#
#
# Indices 1 2 3 4 5 6 
#
# 1 184.0649 30.4033 37.3632 0.0000 0.0000 0.0000
# 2 30.4033 142.0151 12.3344 0.0000 0.0000 0.0000
# 3 37.3632 12.3344 90.2813 0.0000 0.0000 0.0000
# 4 0.0000 0.0000 0.0000 -9.6206 0.0000 0.0000
# 5 0.0000 0.0000 0.0000 0.0000 43.6495 0.0000
# 6 0.0000 0.0000 0.0000 0.0000 0.0000 19.3126
#
#
#
# Elastic Compliance Matrix: (Units=1/GPa)
#
#
# Indices 1 2 3 4 5 6 
#
# 1 0.006096 -0.001099 -0.002373 0.000000 0.000000 0.000000
# 2 -0.001099 0.007324 -0.000546 0.000000 0.000000 0.000000
# 3 -0.002373 -0.000546 0.012133 0.000000 0.000000 0.000000
# 4 0.000000 0.000000 0.000000 -0.103943 0.000000 0.000000
# 5 0.000000 0.000000 0.000000 0.000000 0.022910 0.000000
# 6 0.000000 0.000000 0.000000 0.000000 0.000000 0.051780
#
#
# Mechanical properties :
#
#
# Convention : Reuss Voigt Hill
#
# Bulk Modulus (GPa) = 57.08357 64.06257 60.57307
# Shear Modulus (GPa) = 491.44769 33.08566 262.26667
#
# Velocity S-wave (km/s) = 15.30968 3.97235 11.18405
# Velocity P-wave (km/s) = 18.43204 7.18281 13.98808
#
# Compressibility (1/GPa) = 0.01751818
#
# Stress axis : x y z
#
# Youngs Moduli (GPa) = 164.04123 136.53387 82.41976
#
# Poissons Ratio (x) = 0.15005 0.19556
# Poissons Ratio (y) = 0.18028 0.04499
# Poissons Ratio (z) = 0.38922 0.07452
#
# Static dielectric constant tensor:
#      x y z
#    x 4.162830 0.000000 0.000000 
#    y 0.000000 3.896780 0.000000 
#    z 0.000000 0.000000 3.696050 
# 
# 
# High freq. dielectric constant tensor:
#      x y z
#    x 1.846410 0.000000 0.000000 
#    y 0.000000 1.829180 0.000000 
#    z 0.000000 0.000000 1.819290 
# 
# From -- ./inp_files/20189.got.cif
#   From: 2010.03.12/outbox.cif.g09.slc.cpg/sg51_11_cif.got.tgz:20189.got - 2010.04.16 13:43:02.
