data_PCOD8214436
_publ_section_title
;
Structure prediction by ZEFSAII (Michael W. Deem and Ramdas Pophale) SiO2 
 PCOD8214436
Probable space group: P M M A
;
_chemical_formula_sum "Si O2"
_cell_formula_units_Z 64
_cell_length_a 18.976557
_cell_length_b 9.039324
_cell_length_c 21.885593
_cell_angle_alpha 90.000000
_cell_angle_beta 90.000000
_cell_angle_gamma 90.000000
_cell_volume 3754.150604
_symmetry_space_group_name_H-M "P M M A"
_symmetry_group_IT_number 51
_symmetry_cell_setting 'orthorhombic'
loop_
_space_group_symop_operation_xyz
x,y,z
1/2-x,-y,z
1/2+x,-y,-z
-x,y,-z
-x,-y,-z
1/2+x,y,-z
1/2-x,y,z
x,-y,z
loop_
_atom_site_type_symbol
_atom_site_label
_atom_site_fract_x
_atom_site_fract_y
_atom_site_fract_z
Si Si1 0.455216 0.171902 0.817909
Si Si2 0.572048 0.668693 0.873801
Si Si3 0.956103 0.337374 0.438550
Si Si4 0.670796 0.827906 0.102424
Si Si5 0.329378 0.674667 0.018704
Si Si6 0.556262 0.332436 0.740732
Si Si7 0.668612 0.674467 0.518631
Si Si8 0.422318 0.175063 0.378683
O O1 0.503480 0.225360 0.875469
O O2 0.375018 0.207091 0.837126
O O3 0.478545 0.263899 0.757417
O O4 0.467394 0.000000 0.804498
O O5 0.550246 0.500000 0.889885
O O6 0.627723 0.730849 0.922347
O O7 0.602605 0.673662 0.803609
O O8 0.952694 0.500000 0.407258
O O9 0.876975 0.283920 0.457664
O O10 0.000000 0.349945 0.500000
O O11 0.997136 0.223936 0.394597
O O12 0.750000 0.775020 0.117314
O O13 0.667334 0.000000 0.086542
O O14 0.639827 0.742997 0.043573
O O15 0.250000 0.731455 0.028218
O O16 0.333001 0.500000 0.013005
O O17 0.546870 0.500000 0.717173
O O18 0.594585 0.235617 0.688973
O O19 0.750000 0.721044 0.508391
O O20 0.661571 0.500000 0.531790
O O21 0.636891 0.760284 0.576494
O O22 0.417656 0.000000 0.380464
#
# Coordination Sequence:
#
# PCOD8214436 Si02
#       8
#     8   8   8   8   8   8   8   8
#     4   9  17  30  48  68  90 118 153 193 237 283
#     4   8  17  31  46  65  90 119 152 193 238 276
#     4   8  15  29  49  72  97 128 164 197 232 278
#     4   9  18  31  46  67  94 121 148 183 235 294
#     4   9  17  30  47  66  89 119 156 193 229 278
#     4   9  18  33  50  67  90 120 157 199 237 276
#     4   9  18  33  52  74 102 135 167 199 237 279
#     4  11  20  30  49  75 102 130 164 202 239 282
#
# _framework density 17.047796999999999
#
# number of rings (size 3 to 8) (size 9 to 14) (size 15 to 20)
#    0.750    2.250    0.000    2.250    0.000    4.500 
#    0.000    3.125    0.000    3.000    0.000    0.000 
#    0.000    0.000    0.000    0.000    0.000    0.000 
#
# Total GULP energy -792841.032161 kJ/mol
# GULP energy per Si atom -12388.141128 kJ/mol
# Density = 1.700900 g / cm^3
# Si number density = 17.047797 Si / 1000 Ang^3
#
#
#
# Elastic Constant Matrix: (Units=GPa)
#
#
# Indices 1 2 3 4 5 6 
#
# 1 74.0228 21.4625 10.6638 0.0000 0.0000 0.0000
# 2 21.4625 60.9717 11.8939 0.0000 0.0000 0.0000
# 3 10.6638 11.8939 25.6474 0.0000 0.0000 0.0000
# 4 0.0000 0.0000 0.0000 24.7224 0.0000 0.0000
# 5 0.0000 0.0000 0.0000 0.0000 18.7472 0.0000
# 6 0.0000 0.0000 0.0000 0.0000 0.0000 20.4988
#
#
#
# Elastic Compliance Matrix: (Units=1/GPa)
#
#
# Indices 1 2 3 4 5 6 
#
# 1 0.015463 -0.004606 -0.004294 0.000000 0.000000 0.000000
# 2 -0.004606 0.019404 -0.007084 0.000000 0.000000 0.000000
# 3 -0.004294 -0.007084 0.044061 0.000000 0.000000 0.000000
# 4 0.000000 0.000000 0.000000 0.040449 0.000000 0.000000
# 5 0.000000 0.000000 0.000000 0.000000 0.053341 0.000000
# 6 0.000000 0.000000 0.000000 0.000000 0.000000 0.048783
#
#
# Mechanical properties :
#
#
# Convention : Reuss Voigt Hill
#
# Bulk Modulus (GPa) = 21.29368 27.63135 24.46251
# Shear Modulus (GPa) = 18.57898 20.56847 19.57372
#
# Velocity S-wave (km/s) = 3.30482 3.47726 3.39214
# Velocity P-wave (km/s) = 5.20386 5.68904 5.45185
#
# Compressibility (1/GPa) = 0.04696229
#
# Stress axis : x y z
#
# Youngs Moduli (GPa) = 64.66943 51.53553 22.69601
#
# Poissons Ratio (x) = 0.23735 0.09745
# Poissons Ratio (y) = 0.29784 0.16077
# Poissons Ratio (z) = 0.27766 0.36506
#
# Static dielectric constant tensor:
#      x y z
#    x 3.263360 0.000000 0.000000 
#    y 0.000000 3.121540 0.000000 
#    z 0.000000 0.000000 3.049270 
# 
# 
# High freq. dielectric constant tensor:
#      x y z
#    x 1.635280 0.000000 0.000000 
#    y 0.000000 1.657330 0.000000 
#    z 0.000000 0.000000 1.639390 
# 
# From -- ./inp_files/34080.got.cif
#   From: 2010.03.12/outbox.cif.g09.slc.cpg/sg51_18_cif.got.tgz:34080.got - 2010.04.16 13:43:02.
