data_PCOD8214658
_publ_section_title
;
Structure prediction by ZEFSAII (Michael W. Deem and Ramdas Pophale) SiO2 
 PCOD8214658
Probable space group: P M M A
;
_chemical_formula_sum "Si O2"
_cell_formula_units_Z 56
_cell_length_a 15.536196
_cell_length_b 19.309081
_cell_length_c 8.805159
_cell_angle_alpha 90.000000
_cell_angle_beta 90.000000
_cell_angle_gamma 90.000000
_cell_volume 2641.456716
_symmetry_space_group_name_H-M "P M M A"
_symmetry_group_IT_number 51
_symmetry_cell_setting 'orthorhombic'
loop_
_space_group_symop_operation_xyz
x,y,z
1/2-x,-y,z
1/2+x,-y,-z
-x,y,-z
-x,-y,-z
1/2+x,y,-z
1/2-x,y,z
x,-y,z
loop_
_atom_site_type_symbol
_atom_site_label
_atom_site_fract_x
_atom_site_fract_y
_atom_site_fract_z
Si Si1 0.847573 0.835107 0.150294
Si Si2 0.939533 0.703618 0.122941
Si Si3 0.653133 0.574766 0.117002
Si Si4 0.652778 0.576385 0.474795
Si Si5 0.151606 0.834868 0.212027
Si Si6 0.437485 0.293088 0.375296
Si Si7 0.995840 0.080872 0.323363
O O1 0.750000 0.853501 0.202785
O O2 0.870718 0.756382 0.196999
O O3 0.915125 0.884697 0.235409
O O4 0.854695 0.833604 0.969076
O O5 0.895777 0.638374 0.037074
O O6 0.999794 0.673159 0.252603
O O7 0.000000 0.743374 0.000000
O O8 0.750000 0.575274 0.056366
O O9 0.611409 0.500000 0.076998
O O10 0.650266 0.589141 0.295752
O O11 0.750000 0.575575 0.532931
O O12 0.611939 0.500000 0.512842
O O13 0.608904 0.640314 0.557524
O O14 0.250000 0.851407 0.261483
O O15 0.124500 0.763429 0.295891
O O16 0.087804 0.896162 0.258565
O O17 0.500000 0.256058 0.500000
O O18 0.000000 0.100263 0.500000
O O19 0.984651 0.000000 0.295888
#
# Coordination Sequence:
#
# PCOD8214658 Si02
#       7
#     8   8   8   8   8   8   8
#     4  11  24  44  69  95 131 176 216 257 316 385
#     4  12  22  38  60  86 126 164 210 269 326 385
#     4   9  19  36  56  81 116 162 215 268 326 393
#     4   9  19  36  56  82 118 160 211 271 331 391
#     4  11  24  43  67  97 132 172 217 264 318 381
#     4  12  22  37  61  91 126 163 215 275 327 385
#     4  11  25  46  70 101 138 170 210 262 311 368
#
# _framework density 21.200424999999999
#
# number of rings (size 3 to 8) (size 9 to 14) (size 15 to 20)
#    0.000    1.286    4.286    2.571    0.000    3.429 
#    0.000    2.857    0.000    1.714    0.000    0.000 
#    0.000    0.000    0.000    0.000    0.000    0.000 
#
# Total GULP energy -693786.363670 kJ/mol
# GULP energy per Si atom -12389.042208 kJ/mol
# Density = 2.115217 g / cm^3
# Si number density = 21.200425 Si / 1000 Ang^3
#
#
#
# Elastic Constant Matrix: (Units=GPa)
#
#
# Indices 1 2 3 4 5 6 
#
# 1 155.3714 64.3981 43.8153 0.0000 0.0000 0.0000
# 2 64.3981 129.0061 23.9744 0.0000 0.0000 0.0000
# 3 43.8153 23.9744 63.5680 0.0000 0.0000 0.0000
# 4 0.0000 0.0000 0.0000 25.4236 0.0000 0.0000
# 5 0.0000 0.0000 0.0000 0.0000 30.2816 0.0000
# 6 0.0000 0.0000 0.0000 0.0000 0.0000 21.5584
#
#
#
# Elastic Compliance Matrix: (Units=1/GPa)
#
#
# Indices 1 2 3 4 5 6 
#
# 1 0.009428 -0.003762 -0.005079 0.000000 0.000000 0.000000
# 2 -0.003762 0.009837 -0.001117 0.000000 0.000000 0.000000
# 3 -0.005079 -0.001117 0.019653 0.000000 0.000000 0.000000
# 4 0.000000 0.000000 0.000000 0.039334 0.000000 0.000000
# 5 0.000000 0.000000 0.000000 0.000000 0.033023 0.000000
# 6 0.000000 0.000000 0.000000 0.000000 0.000000 0.046386
#
#
# Mechanical properties :
#
#
# Convention : Reuss Voigt Hill
#
# Bulk Modulus (GPa) = 52.62746 68.03568 60.33157
# Shear Modulus (GPa) = 27.18686 29.83656 28.51171
#
# Velocity S-wave (km/s) = 3.58491 3.75555 3.67122
# Velocity P-wave (km/s) = 6.48175 7.13911 6.81835
#
# Compressibility (1/GPa) = 0.01900149
#
# Stress axis : x y z
#
# Youngs Moduli (GPa) = 106.06643 101.65436 50.88155
#
# Poissons Ratio (x) = 0.38246 0.25845
# Poissons Ratio (y) = 0.39906 0.05682
# Poissons Ratio (z) = 0.53876 0.11353
#
# Static dielectric constant tensor:
#      x y z
#    x 4.153480 0.000000 0.000000 
#    y 0.000000 3.810430 0.000000 
#    z 0.000000 0.000000 3.887270 
# 
# 
# High freq. dielectric constant tensor:
#      x y z
#    x 1.840110 0.000000 0.000000 
#    y 0.000000 1.831820 0.000000 
#    z 0.000000 0.000000 1.823470 
# 
# From -- ./inp_files/8508.got.cif
#   From: 2010.03.12/outbox.cif.g09.slc.cpg/sg51_5_cif.got.tgz:8508.got - 2010.04.16 13:43:02.
