data_PCOD8214620
_publ_section_title
;
Structure prediction by ZEFSAII (Michael W. Deem and Ramdas Pophale) SiO2 
 PCOD8214620
Probable space group: P M M A
;
_chemical_formula_sum "Si O2"
_cell_formula_units_Z 32
_cell_length_a 14.602770
_cell_length_b 7.722640
_cell_length_c 13.618487
_cell_angle_alpha 90.000000
_cell_angle_beta 90.000000
_cell_angle_gamma 90.000000
_cell_volume 1535.783140
_symmetry_space_group_name_H-M "P M M A"
_symmetry_group_IT_number 51
_symmetry_cell_setting 'orthorhombic'
loop_
_space_group_symop_operation_xyz
x,y,z
1/2-x,-y,z
1/2+x,-y,-z
-x,y,-z
-x,-y,-z
1/2+x,y,-z
1/2-x,y,z
x,-y,z
loop_
_atom_site_type_symbol
_atom_site_label
_atom_site_fract_x
_atom_site_fract_y
_atom_site_fract_z
Si Si1 0.360188 0.000000 0.808880
Si Si2 0.153875 0.000000 0.597991
Si Si3 0.145218 0.797287 0.253463
Si Si4 0.897411 0.691517 0.530313
Si Si5 0.982514 0.697282 0.113777
O O1 0.406270 0.000000 0.697148
O O2 0.400831 0.825678 0.856112
O O3 0.250000 0.000000 0.824248
O O4 0.157278 0.167097 0.529530
O O5 0.250000 0.000000 0.653945
O O6 0.250000 0.748240 0.225672
O O7 0.117163 0.704272 0.354040
O O8 0.078397 0.733760 0.168145
O O9 0.134652 0.000000 0.269841
O O10 0.867222 0.500000 0.496137
O O11 0.000000 0.731347 0.500000
O O12 0.951394 0.500000 0.135950
O O13 0.000000 0.727242 0.000000
#
# Coordination Sequence:
#
# PCOD8214620 Si02
#       5
#     4   4   8   8   8
#     4  11  25  44  68  96 133 174 220 276 330 394
#     4  11  23  38  57  86 122 164 208 254 306 372
#     4  11  23  40  67 100 133 173 223 278 335 398
#     4  11  23  38  60  90 127 171 215 263 320 382
#     4  11  25  46  70  97 131 171 219 276 341 407
#
# _framework density 20.836275000000001
#
# number of rings (size 3 to 8) (size 9 to 14) (size 15 to 20)
#    0.000    1.000    2.500    3.750    0.000    8.000 
#    0.000    5.000    0.000    0.000    0.000    0.000 
#    0.000    0.000    0.000    0.000    0.000    0.000 
#
# Total GULP energy -396568.179132 kJ/mol
# GULP energy per Si atom -12392.755598 kJ/mol
# Density = 2.078885 g / cm^3
# Si number density = 20.836275 Si / 1000 Ang^3
#
#
#
# Elastic Constant Matrix: (Units=GPa)
#
#
# Indices 1 2 3 4 5 6 
#
# 1 138.2246 61.9351 57.4352 0.0000 0.0000 0.0000
# 2 61.9351 122.2146 34.9288 0.0000 0.0000 0.0000
# 3 57.4352 34.9288 107.0024 0.0000 0.0000 0.0000
# 4 0.0000 0.0000 0.0000 30.5793 0.0000 0.0000
# 5 0.0000 0.0000 0.0000 0.0000 12.2592 0.0000
# 6 0.0000 0.0000 0.0000 0.0000 0.0000 -4.3250
#
#
#
# Elastic Compliance Matrix: (Units=1/GPa)
#
#
# Indices 1 2 3 4 5 6 
#
# 1 0.011042 -0.004303 -0.004522 0.000000 0.000000 0.000000
# 2 -0.004303 0.010701 -0.001183 0.000000 0.000000 0.000000
# 3 -0.004522 -0.001183 0.012159 0.000000 0.000000 0.000000
# 4 0.000000 0.000000 0.000000 0.032702 0.000000 0.000000
# 5 0.000000 0.000000 0.000000 0.000000 0.081571 0.000000
# 6 0.000000 0.000000 0.000000 0.000000 0.000000 -0.231215
#
#
# Mechanical properties :
#
#
# Convention : Reuss Voigt Hill
#
# Bulk Modulus (GPa) = 72.02150 75.11552 73.56851
# Shear Modulus (GPa) = -85.62549 21.91222 -31.85664
#
# Velocity S-wave (km/s) = -6.41745 3.24641 -3.91436
# Velocity P-wave (km/s) = 4.50234 7.08385 3.86716
#
# Compressibility (1/GPa) = 0.01388474
#
# Stress axis : x y z
#
# Youngs Moduli (GPa) = 90.56456 93.44631 82.24216
#
# Poissons Ratio (x) = 0.40213 0.37191
# Poissons Ratio (y) = 0.38973 0.09732
# Poissons Ratio (z) = 0.40955 0.11058
#
# Static dielectric constant tensor:
#      x y z
#    x 3.889860 0.000000 0.000000 
#    y 0.000000 4.004370 0.000000 
#    z 0.000000 0.000000 4.090090 
# 
# 
# High freq. dielectric constant tensor:
#      x y z
#    x 1.821720 0.000000 0.000000 
#    y 0.000000 1.833700 0.000000 
#    z 0.000000 0.000000 1.822500 
# 
# From -- ./inp_files/15982.got.cif
#   From: 2010.03.12/outbox.cif.g09.slc.cpg/sg51_8_cif.got.tgz:15982.got - 2010.04.16 13:43:02.
