data_PCOD8214900
_publ_section_title
;
Structure prediction by ZEFSAII (Michael W. Deem and Ramdas Pophale) SiO2 
 PCOD8214900
Probable space group: P M M A
;
_chemical_formula_sum "Si O2"
_cell_formula_units_Z 64
_cell_length_a 10.314489
_cell_length_b 33.005346
_cell_length_c 9.639688
_cell_angle_alpha 90.000000
_cell_angle_beta 90.000000
_cell_angle_gamma 90.000000
_cell_volume 3281.670587
_symmetry_space_group_name_H-M "P M M A"
_symmetry_group_IT_number 51
_symmetry_cell_setting 'orthorhombic'
loop_
_space_group_symop_operation_xyz
x,y,z
1/2-x,-y,z
1/2+x,-y,-z
-x,y,-z
-x,-y,-z
1/2+x,y,-z
1/2-x,y,z
x,-y,z
loop_
_atom_site_type_symbol
_atom_site_label
_atom_site_fract_x
_atom_site_fract_y
_atom_site_fract_z
Si Si1 0.103439 0.742212 0.111250
Si Si2 0.396939 0.307561 0.385585
Si Si3 0.102651 0.546873 0.115147
Si Si4 0.396686 0.837057 0.112561
Si Si5 0.603390 0.952572 0.111914
Si Si6 0.102583 0.598898 0.384494
Si Si7 0.111210 0.848833 0.420732
Si Si8 0.111239 0.066376 0.582269
O O1 0.250000 0.733459 0.058569
O O2 0.074171 0.719254 0.252314
O O3 0.082615 0.789602 0.138229
O O4 0.000000 0.725987 0.000000
O O5 0.500000 0.293616 0.500000
O O6 0.250000 0.300471 0.440066
O O7 0.418123 0.354289 0.345028
O O8 0.250000 0.554685 0.062423
O O9 0.082165 0.500000 0.153319
O O10 0.071933 0.572726 0.250170
O O11 0.000000 0.561004 0.000000
O O12 0.250000 0.846382 0.059893
O O13 0.423620 0.858374 0.260785
O O14 0.500000 0.853766 0.000000
O O15 0.750000 0.944260 0.057686
O O16 0.576415 0.929252 0.255641
O O17 0.581230 0.000000 0.139379
O O18 0.500000 0.935972 0.000000
O O19 0.250000 0.591250 0.437326
O O20 0.000000 0.584986 0.500000
O O21 0.250000 0.825754 0.426090
O O22 0.120961 0.889990 0.509301
O O23 0.000000 0.822398 0.500000
O O24 0.250000 0.043770 0.568955
O O25 0.000000 0.041219 0.500000
#
# Coordination Sequence:
#
# PCOD8214900 Si02
#       8
#     8   8   8   8   8   8   8   8
#     4   9  18  32  49  71  98 125 156 195 237 283
#     4   9  18  32  48  68  96 127 158 193 234 283
#     4   9  18  32  48  67  92 121 155 196 240 285
#     4   9  18  33  52  73  97 126 160 198 240 285
#     4   9  18  33  53  77 103 131 165 203 242 286
#     4   9  18  32  48  67  93 124 157 194 236 282
#     4   9  18  33  51  71  97 128 162 199 239 283
#     4   9  18  33  51  72 100 131 163 199 238 282
#
# _framework density 19.502264
#
# number of rings (size 3 to 8) (size 9 to 14) (size 15 to 20)
#    0.000    3.000    0.000    0.000    0.000    3.500 
#    0.000    2.500    0.000   13.500    0.000    0.000 
#    0.000    0.000    0.000    0.000    0.000    0.000 
#
# Total GULP energy -793083.395268 kJ/mol
# GULP energy per Si atom -12391.928051 kJ/mol
# Density = 1.945788 g / cm^3
# Si number density = 19.502264 Si / 1000 Ang^3
#
#
#
# Elastic Constant Matrix: (Units=GPa)
#
#
# Indices 1 2 3 4 5 6 
#
# 1 171.5680 24.2694 111.5411 0.0000 0.0000 0.0000
# 2 24.2694 39.8597 37.1514 0.0000 0.0000 0.0000
# 3 111.5411 37.1514 157.4690 0.0000 0.0000 0.0000
# 4 0.0000 0.0000 0.0000 30.5248 0.0000 0.0000
# 5 0.0000 0.0000 0.0000 0.0000 46.4567 0.0000
# 6 0.0000 0.0000 0.0000 0.0000 0.0000 -2.3079
#
#
#
# Elastic Compliance Matrix: (Units=1/GPa)
#
#
# Indices 1 2 3 4 5 6 
#
# 1 0.010820 0.000712 -0.007832 0.000000 0.000000 0.000000
# 2 0.000712 0.032207 -0.008103 0.000000 0.000000 0.000000
# 3 -0.007832 -0.008103 0.013810 0.000000 0.000000 0.000000
# 4 0.000000 0.000000 0.000000 0.032760 0.000000 0.000000
# 5 0.000000 0.000000 0.000000 0.000000 0.021525 0.000000
# 6 0.000000 0.000000 0.000000 0.000000 0.000000 -0.433296
#
#
# Mechanical properties :
#
#
# Convention : Reuss Voigt Hill
#
# Bulk Modulus (GPa) = 37.89213 79.42449 58.65831
# Shear Modulus (GPa) = -17.67212 27.99704 5.16246
#
# Velocity S-wave (km/s) = -3.01351 3.79301 1.62876
# Velocity P-wave (km/s) = 2.71357 7.74576 5.80346
#
# Compressibility (1/GPa) = 0.02639071
#
# Stress axis : x y z
#
# Youngs Moduli (GPa) = 92.42462 31.04937 72.41241
#
# Poissons Ratio (x) = -0.02211 0.56713
# Poissons Ratio (y) = -0.06581 0.58675
# Poissons Ratio (z) = 0.72386 0.25159
#
# Static dielectric constant tensor:
#      x y z
#    x 7.495700 0.000000 0.000000 
#    y 0.000000 3.291070 0.000000 
#    z 0.000000 0.000000 3.546600 
# 
# 
# High freq. dielectric constant tensor:
#      x y z
#    x 1.782160 0.000000 0.000000 
#    y 0.000000 1.735550 0.000000 
#    z 0.000000 0.000000 1.752880 
# 
# From -- ./inp_files/7108.got.cif
#   From: 2010.03.12/outbox.cif.g09.slc.cpg/sg51_4_cif.got.tgz:7108.got - 2010.04.16 13:43:02.
