data_PCOD8214166
_publ_section_title
;
Structure prediction by ZEFSAII (Michael W. Deem and Ramdas Pophale) SiO2 
 PCOD8214166
Probable space group: P M M A
;
_chemical_formula_sum "Si O2"
_cell_formula_units_Z 40
_cell_length_a 26.617260
_cell_length_b 14.099210
_cell_length_c 5.239329
_cell_angle_alpha 90.000000
_cell_angle_beta 90.000000
_cell_angle_gamma 90.000000
_cell_volume 1966.227639
_symmetry_space_group_name_H-M "P M M A"
_symmetry_group_IT_number 51
_symmetry_cell_setting 'orthorhombic'
loop_
_space_group_symop_operation_xyz
x,y,z
1/2-x,-y,z
1/2+x,-y,-z
-x,y,-z
-x,-y,-z
1/2+x,y,-z
1/2-x,y,z
x,-y,z
loop_
_atom_site_type_symbol
_atom_site_label
_atom_site_fract_x
_atom_site_fract_y
_atom_site_fract_z
Si Si1 0.134209 0.391573 0.917935
Si Si2 0.968990 0.889154 0.750638
Si Si3 0.864553 0.784054 0.784414
Si Si4 0.808683 0.768931 0.275887
Si Si5 0.975893 0.390893 0.250064
O O1 0.146498 0.500000 0.989097
O O2 0.179332 0.344367 0.752798
O O3 0.084022 0.381515 0.747840
O O4 0.127290 0.330277 0.178979
O O5 0.917020 0.834241 0.745457
O O6 0.000000 0.860637 0.500000
O O7 0.956494 0.000000 0.754142
O O8 0.000000 0.858840 0.000000
O O9 0.829495 0.806932 0.543482
O O10 0.836660 0.823156 0.041225
O O11 0.750000 0.788314 0.262025
O O12 0.993455 0.500000 0.249254
O O13 0.000000 0.340766 0.500000
O O14 0.000000 0.341030 0.000000
#
# Coordination Sequence:
#
# PCOD8214166 Si02
#       5
#     8   8   8   8   8
#     4   9  22  38  56  84 116 160 211 253 301 355
#     4  10  21  40  68  99 128 157 193 239 297 369
#     4  10  22  39  60  90 119 160 195 257 301 365
#     4  10  22  40  59  82 116 161 208 260 308 344
#     4   9  18  31  47  68 102 143 181 227 283 343
#
# _framework density 20.343522
#
# number of rings (size 3 to 8) (size 9 to 14) (size 15 to 20)
#    1.200    1.200    0.000    1.800    2.800    2.000 
#    0.000    0.000    0.000    4.200    0.000    0.000 
#    0.000    0.000    0.000    0.000    0.000    0.000 
#
# Total GULP energy -495685.515125 kJ/mol
# GULP energy per Si atom -12392.137878 kJ/mol
# Density = 2.029722 g / cm^3
# Si number density = 20.343522 Si / 1000 Ang^3
#
#
#
# Elastic Constant Matrix: (Units=GPa)
#
#
# Indices 1 2 3 4 5 6 
#
# 1 136.0408 32.3948 69.2669 0.0000 0.0000 0.0000
# 2 32.3948 42.8214 17.8572 0.0000 0.0000 0.0000
# 3 69.2669 17.8572 181.9334 0.0000 0.0000 0.0000
# 4 0.0000 0.0000 0.0000 74.9815 0.0000 0.0000
# 5 0.0000 0.0000 0.0000 0.0000 36.1426 0.0000
# 6 0.0000 0.0000 0.0000 0.0000 0.0000 8.1568
#
#
#
# Elastic Compliance Matrix: (Units=1/GPa)
#
#
# Indices 1 2 3 4 5 6 
#
# 1 0.010671 -0.006650 -0.003410 0.000000 0.000000 0.000000
# 2 -0.006650 0.028494 -0.000265 0.000000 0.000000 0.000000
# 3 -0.003410 -0.000265 0.006821 0.000000 0.000000 0.000000
# 4 0.000000 0.000000 0.000000 0.013337 0.000000 0.000000
# 5 0.000000 0.000000 0.000000 0.000000 0.027668 0.000000
# 6 0.000000 0.000000 0.000000 0.000000 0.000000 0.122598
#
#
# Mechanical properties :
#
#
# Convention : Reuss Voigt Hill
#
# Bulk Modulus (GPa) = 39.47022 66.64816 53.05919
# Shear Modulus (GPa) = 20.94828 39.94130 30.44479
#
# Velocity S-wave (km/s) = 3.21242 4.43577 3.87270
# Velocity P-wave (km/s) = 5.76225 7.68552 6.79230
#
# Compressibility (1/GPa) = 0.02533556
#
# Stress axis : x y z
#
# Youngs Moduli (GPa) = 93.71628 35.09466 146.61240
#
# Poissons Ratio (x) = 0.23339 0.49992
# Poissons Ratio (y) = 0.62325 0.03882
# Poissons Ratio (z) = 0.31955 0.00929
#
# Static dielectric constant tensor:
#      x y z
#    x 3.444130 0.000000 0.000000 
#    y 0.000000 3.401430 0.000000 
#    z 0.000000 0.000000 3.936760 
# 
# 
# High freq. dielectric constant tensor:
#      x y z
#    x 1.787090 0.000000 0.000000 
#    y 0.000000 1.761130 0.000000 
#    z 0.000000 0.000000 1.807110 
# 
# From -- ./inp_files/2998.got.cif
#   From: 2010.03.12/outbox.cif.g09.slc.cpg/sg51_2_cif.got.tgz:2998.got - 2010.04.16 13:43:02.
