data_PCOD8214930
_publ_section_title
;
Structure prediction by ZEFSAII (Michael W. Deem and Ramdas Pophale) SiO2 
 PCOD8214930
Probable space group: P N N A
;
_chemical_formula_sum "Si O2"
_cell_formula_units_Z 48
_cell_length_a 13.718764
_cell_length_b 9.179674
_cell_length_c 25.499463
_cell_angle_alpha 90.000000
_cell_angle_beta 90.000000
_cell_angle_gamma 90.000000
_cell_volume 3211.243794
_symmetry_space_group_name_H-M "P N N A"
_symmetry_group_IT_number 52
_symmetry_cell_setting 'orthorhombic'
loop_
_space_group_symop_operation_xyz
x,y,z
1/2-x,-y,z
x,1/2-y,1/2-z
1/2-x,1/2+y,1/2-z
-x,-y,-z
1/2+x,y,-z
-x,1/2+y,1/2+z
1/2+x,1/2-y,1/2+z
loop_
_atom_site_type_symbol
_atom_site_label
_atom_site_fract_x
_atom_site_fract_y
_atom_site_fract_z
Si Si1 0.872795 0.092724 0.587748
Si Si2 0.168195 0.203578 0.440645
Si Si3 0.750000 0.500000 0.817967
Si Si4 0.146128 0.422443 0.346239
Si Si5 0.357112 0.543720 0.515011
Si Si6 0.462654 0.112860 0.077348
Si Si7 0.833036 0.750000 0.750000
O O1 0.781043 0.160441 0.557176
O O2 0.959610 0.211664 0.585617
O O3 0.901307 0.940350 0.559222
O O4 0.842967 0.044354 0.646595
O O5 0.154148 0.294172 0.387860
O O6 0.140410 0.294477 0.491538
O O7 0.766085 0.642241 0.783275
O O8 0.250000 0.500000 0.337053
O O9 0.069829 0.541185 0.367718
O O10 0.106629 0.350541 0.291571
O O11 0.250000 0.500000 0.535158
O O12 0.390107 0.429571 0.470363
O O13 0.429909 0.551012 0.564423
#
# Coordination Sequence:
#
# PCOD8214930 Si02
#       7
#     8   8   4   8   8   8   4
#     4  10  16  29  41  64  91 125 146 178 228 266
#     4   9  16  27  44  59  93 120 148 181 216 257
#     4  10  20  26  42  68  92 132 148 180 216 284
#     4  11  17  29  42  62  92 122 146 179 218 271
#     4  10  18  31  46  66  84 120 159 189 215 269
#     4  10  19  29  47  62  90 122 153 183 225 267
#     4  12  18  26  42  64  94 120 154 176 220 270
#
# _framework density 14.947480000000001
#
# number of rings (size 3 to 8) (size 9 to 14) (size 15 to 20)
#    0.000    2.000    7.500    1.000    0.000    0.667 
#    0.000    0.000    0.000    0.000    0.000    0.000 
#    5.000    0.000    0.000    0.000    0.000    0.000 
#
# Total GULP energy -594680.611078 kJ/mol
# GULP energy per Si atom -12389.179397 kJ/mol
# Density = 1.491346 g / cm^3
# Si number density = 14.947480 Si / 1000 Ang^3
#
#
#
# Elastic Constant Matrix: (Units=GPa)
#
#
# Indices 1 2 3 4 5 6 
#
# 1 61.3817 25.1515 27.3043 0.0000 0.0000 0.0000
# 2 25.1515 113.2998 31.7964 0.0000 0.0000 0.0000
# 3 27.3043 31.7964 65.8569 0.0000 0.0000 0.0000
# 4 0.0000 0.0000 0.0000 19.8109 0.0000 0.0000
# 5 0.0000 0.0000 0.0000 0.0000 7.1743 0.0000
# 6 0.0000 0.0000 0.0000 0.0000 0.0000 14.8793
#
#
#
# Elastic Compliance Matrix: (Units=1/GPa)
#
#
# Indices 1 2 3 4 5 6 
#
# 1 0.020577 -0.002514 -0.007317 0.000000 0.000000 0.000000
# 2 -0.002514 0.010517 -0.004035 0.000000 0.000000 0.000000
# 3 -0.007317 -0.004035 0.020166 0.000000 0.000000 0.000000
# 4 0.000000 0.000000 0.000000 0.050477 0.000000 0.000000
# 5 0.000000 0.000000 0.000000 0.000000 0.139386 0.000000
# 6 0.000000 0.000000 0.000000 0.000000 0.000000 0.067207
#
#
# Mechanical properties :
#
#
# Convention : Reuss Voigt Hill
#
# Bulk Modulus (GPa) = 42.50531 45.44919 43.97725
# Shear Modulus (GPa) = 14.53886 18.79200 16.66543
#
# Velocity S-wave (km/s) = 3.12214 3.54955 3.34268
# Velocity P-wave (km/s) = 6.44167 6.87539 6.66206
#
# Compressibility (1/GPa) = 0.02352647
#
# Stress axis : x y z
#
# Youngs Moduli (GPa) = 48.59879 95.08677 49.58763
#
# Poissons Ratio (x) = 0.23908 0.36284
# Poissons Ratio (y) = 0.12219 0.20009
# Poissons Ratio (z) = 0.35560 0.38369
#
# Static dielectric constant tensor:
#      x y z
#    x 2.492780 0.000000 0.000000 
#    y 0.000000 3.545270 0.000000 
#    z 0.000000 0.000000 2.871840 
# 
# 
# High freq. dielectric constant tensor:
#      x y z
#    x 1.510640 0.000000 0.000000 
#    y 0.000000 1.603390 0.000000 
#    z 0.000000 0.000000 1.551760 
# 
# From -- ./inp_files/40587.got.cif
#   From: 2010.06.25/outbox.cif.g09.slc.cpg/sg52_21_cif.got.tgz:40587.got - 2010.06.26 19:32:48.
