data_PCOD8214179
_publ_section_title
;
Structure prediction by ZEFSAII (Michael W. Deem and Ramdas Pophale) SiO2 
 PCOD8214179
Probable space group: P M M A
;
_chemical_formula_sum "Si O2"
_cell_formula_units_Z 48
_cell_length_a 16.994399
_cell_length_b 18.914395
_cell_length_c 7.945859
_cell_angle_alpha 90.000000
_cell_angle_beta 90.000000
_cell_angle_gamma 90.000000
_cell_volume 2554.107187
_symmetry_space_group_name_H-M "P M M A"
_symmetry_group_IT_number 51
_symmetry_cell_setting 'orthorhombic'
loop_
_space_group_symop_operation_xyz
x,y,z
1/2-x,-y,z
1/2+x,-y,-z
-x,y,-z
-x,-y,-z
1/2+x,y,-z
1/2-x,y,z
x,-y,z
loop_
_atom_site_type_symbol
_atom_site_label
_atom_site_fract_x
_atom_site_fract_y
_atom_site_fract_z
Si Si1 0.342078 0.830010 0.210256
Si Si2 0.843370 0.825555 0.170697
Si Si3 0.843614 0.079428 0.481826
Si Si4 0.426670 0.689414 0.888130
Si Si5 0.021721 0.577657 0.310804
Si Si6 0.659922 0.668964 0.793523
O O1 0.250000 0.841637 0.216619
O O2 0.379877 0.880394 0.354196
O O3 0.362680 0.749296 0.257442
O O4 0.369434 0.849014 0.019080
O O5 0.750000 0.810381 0.177798
O O6 0.869435 0.883841 0.306763
O O7 0.890786 0.754104 0.219677
O O8 0.750000 0.078930 0.491972
O O9 0.877436 0.000000 0.481365
O O10 0.454439 0.624932 0.773768
O O11 0.500000 0.717005 0.000000
O O12 0.357240 0.660138 0.007897
O O13 0.025690 0.500000 0.223017
O O14 0.106695 0.614679 0.308981
O O15 0.000000 0.566164 0.500000
O O16 0.750000 0.651270 0.753942
#
# Coordination Sequence:
#
# PCOD8214179 Si02
#       6
#     8   8   8   8   8   8
#     4   8  15  28  45  70 101 130 167 217 261 303
#     4   9  17  30  50  75 102 132 174 221 259 306
#     4   9  17  27  43  72 104 135 170 209 264 321
#     4   9  18  33  54  76  99 133 175 217 262 315
#     4  10  22  37  52  77 111 142 172 212 269 330
#     4   9  18  34  56  79 101 135 184 226 265 311
#
# _framework density 18.793261000000001
#
# number of rings (size 3 to 8) (size 9 to 14) (size 15 to 20)
#    0.000    3.000    0.000    1.500    2.333    4.000 
#    0.000    4.167    0.000    4.000    0.000   14.000 
#    0.000    0.000    0.000    0.000    0.000    0.000 
#
# Total GULP energy -594815.600755 kJ/mol
# GULP energy per Si atom -12391.991682 kJ/mol
# Density = 1.875049 g / cm^3
# Si number density = 18.793261 Si / 1000 Ang^3
#
#
#
# Elastic Constant Matrix: (Units=GPa)
#
#
# Indices 1 2 3 4 5 6 
#
# 1 44.4071 52.3949 27.5333 0.0000 0.0000 0.0000
# 2 52.3949 162.8077 86.2124 0.0000 0.0000 0.0000
# 3 27.5333 86.2124 109.5892 0.0000 0.0000 0.0000
# 4 0.0000 0.0000 0.0000 25.6817 0.0000 0.0000
# 5 0.0000 0.0000 0.0000 0.0000 16.1862 0.0000
# 6 0.0000 0.0000 0.0000 0.0000 0.0000 39.0217
#
#
#
# Elastic Compliance Matrix: (Units=1/GPa)
#
#
# Indices 1 2 3 4 5 6 
#
# 1 0.036305 -0.011747 0.000120 0.000000 0.000000 0.000000
# 2 -0.011747 0.014329 -0.008321 0.000000 0.000000 0.000000
# 3 0.000120 -0.008321 0.015641 0.000000 0.000000 0.000000
# 4 0.000000 0.000000 0.000000 0.038938 0.000000 0.000000
# 5 0.000000 0.000000 0.000000 0.000000 0.061781 0.000000
# 6 0.000000 0.000000 0.000000 0.000000 0.000000 0.025627
#
#
# Mechanical properties :
#
#
# Convention : Reuss Voigt Hill
#
# Bulk Modulus (GPa) = 37.90991 72.12057 55.01524
# Shear Modulus (GPa) = 20.72029 26.22217 23.47123
#
# Velocity S-wave (km/s) = 3.32405 3.73942 3.53784
# Velocity P-wave (km/s) = 5.91171 7.55668 6.78424
#
# Compressibility (1/GPa) = 0.02637833
#
# Stress axis : x y z
#
# Youngs Moduli (GPa) = 27.54462 69.78850 63.93508
#
# Poissons Ratio (x) = 0.81982 -0.00768
# Poissons Ratio (y) = 0.32357 0.53201
# Poissons Ratio (z) = -0.00331 0.58071
#
# Static dielectric constant tensor:
#      x y z
#    x 3.396400 0.000000 0.000000 
#    y 0.000000 3.660680 0.000000 
#    z 0.000000 0.000000 3.648010 
# 
# 
# High freq. dielectric constant tensor:
#      x y z
#    x 1.702490 0.000000 0.000000 
#    y 0.000000 1.724320 0.000000 
#    z 0.000000 0.000000 1.727150 
# 
# From -- ./inp_files/9658.got.cif
#   From: 2010.03.12/outbox.cif.g09.slc.cpg/sg51_5_cif.got.tgz:9658.got - 2010.04.16 13:43:02.
