data_PCOD8214076
_publ_section_title
;
Structure prediction by ZEFSAII (Michael W. Deem and Ramdas Pophale) SiO2 
 PCOD8214076
Probable space group: P M M A
;
_chemical_formula_sum "Si O2"
_cell_formula_units_Z 48
_cell_length_a 15.626819
_cell_length_b 8.888611
_cell_length_c 16.974463
_cell_angle_alpha 90.000000
_cell_angle_beta 90.000000
_cell_angle_gamma 90.000000
_cell_volume 2357.765052
_symmetry_space_group_name_H-M "P M M A"
_symmetry_group_IT_number 51
_symmetry_cell_setting 'orthorhombic'
loop_
_space_group_symop_operation_xyz
x,y,z
1/2-x,-y,z
1/2+x,-y,-z
-x,y,-z
-x,-y,-z
1/2+x,y,-z
1/2-x,y,z
x,-y,z
loop_
_atom_site_type_symbol
_atom_site_label
_atom_site_fract_x
_atom_site_fract_y
_atom_site_fract_z
Si Si1 0.119845 0.164300 0.650886
Si Si2 0.250000 0.823189 0.927648
Si Si3 0.410676 0.321249 0.196122
Si Si4 0.750000 0.821227 0.890479
Si Si5 0.593608 0.821426 0.176106
Si Si6 0.154486 0.664844 0.498934
Si Si7 0.919823 0.834390 0.643278
O O1 0.136796 0.220118 0.739919
O O2 0.158437 0.279888 0.588902
O O3 0.019874 0.150603 0.639946
O O4 0.162022 0.000000 0.637578
O O5 0.338102 0.761942 0.888347
O O6 0.250000 0.000000 0.913907
O O7 0.250000 0.776921 0.018038
O O8 0.408600 0.500000 0.188389
O O9 0.335615 0.249430 0.144844
O O10 0.502273 0.260784 0.165233
O O11 0.391704 0.276828 0.286827
O O12 0.750000 0.000000 0.877320
O O13 0.575467 0.000000 0.170656
O O14 0.250000 0.654332 0.466043
O O15 0.111039 0.500000 0.497193
O O16 0.104302 0.776311 0.442706
O O17 0.878757 0.000000 0.657350
#
# Coordination Sequence:
#
# PCOD8214076 Si02
#       7
#     8   4   8   4   8   8   8
#     4   9  19  35  58  83 110 146 194 243 289 341
#     4   9  20  39  67  96 121 156 203 253 298 349
#     4  11  23  40  62  90 125 162 198 245 306 367
#     4  11  23  41  65  92 121 158 203 249 300 359
#     4   9  19  39  65  93 122 157 204 253 299 353
#     4  11  24  36  49  78 119 156 192 236 290 348
#     4  10  21  39  61  83 108 147 199 248 292 345
#
# _framework density 20.358262
#
# number of rings (size 3 to 8) (size 9 to 14) (size 15 to 20)
#    0.000    2.000    0.000    4.250    2.333    7.333 
#    0.000    5.417    0.000    0.000    0.000    0.000 
#    0.000    0.000    0.000    0.000    0.000    0.000 
#
# Total GULP energy -595059.529837 kJ/mol
# GULP energy per Si atom -12397.073538 kJ/mol
# Density = 2.031193 g / cm^3
# Si number density = 20.358262 Si / 1000 Ang^3
#
#
#
# Elastic Constant Matrix: (Units=GPa)
#
#
# Indices 1 2 3 4 5 6 
#
# 1 84.5767 54.7846 70.4340 0.0000 0.0000 0.0000
# 2 54.7846 121.3743 49.7906 0.0000 0.0000 0.0000
# 3 70.4340 49.7906 122.6665 0.0000 0.0000 0.0000
# 4 0.0000 0.0000 0.0000 281.4027 0.0000 0.0000
# 5 0.0000 0.0000 0.0000 0.0000 35.6779 0.0000
# 6 0.0000 0.0000 0.0000 0.0000 0.0000 23.0805
#
#
#
# Elastic Compliance Matrix: (Units=1/GPa)
#
#
# Indices 1 2 3 4 5 6 
#
# 1 0.026773 -0.006933 -0.012559 0.000000 0.000000 0.000000
# 2 -0.006933 0.011680 -0.000760 0.000000 0.000000 0.000000
# 3 -0.012559 -0.000760 0.015672 0.000000 0.000000 0.000000
# 4 0.000000 0.000000 0.000000 0.003554 0.000000 0.000000
# 5 0.000000 0.000000 0.000000 0.000000 0.028029 0.000000
# 6 0.000000 0.000000 0.000000 0.000000 0.000000 0.043327
#
#
# Mechanical properties :
#
#
# Convention : Reuss Voigt Hill
#
# Bulk Modulus (GPa) = 73.41344 75.40398 74.40871
# Shear Modulus (GPa) = 28.72283 78.27279 53.49781
#
# Velocity S-wave (km/s) = 3.76023 6.20735 5.13179
# Velocity P-wave (km/s) = 7.41562 9.40711 8.47010
#
# Compressibility (1/GPa) = 0.01362148
#
# Stress axis : x y z
#
# Youngs Moduli (GPa) = 37.35118 85.61624 63.80817
#
# Poissons Ratio (x) = 0.59354 0.80136
# Poissons Ratio (y) = 0.25894 0.04852
# Poissons Ratio (z) = 0.46909 0.06510
#
# Static dielectric constant tensor:
#      x y z
#    x 3.648490 0.000000 0.000000 
#    y 0.000000 3.864140 0.000000 
#    z 0.000000 0.000000 3.991230 
# 
# 
# High freq. dielectric constant tensor:
#      x y z
#    x 1.801440 0.000000 0.000000 
#    y 0.000000 1.786710 0.000000 
#    z 0.000000 0.000000 1.794710 
# 
# From -- ./inp_files/29641.got.cif
#   From: 2010.03.12/outbox.cif.g09.slc.cpg/sg51_15_cif.got.tgz:29641.got - 2010.04.16 13:43:02.
