data_PCOD8214094
_publ_section_title
;
Structure prediction by ZEFSAII (Michael W. Deem and Ramdas Pophale) SiO2 
 PCOD8214094
Probable space group: P M M A
;
_chemical_formula_sum "Si O2"
_cell_formula_units_Z 48
_cell_length_a 17.305348
_cell_length_b 17.339269
_cell_length_c 7.720695
_cell_angle_alpha 90.000000
_cell_angle_beta 90.000000
_cell_angle_gamma 90.000000
_cell_volume 2316.687832
_symmetry_space_group_name_H-M "P M M A"
_symmetry_group_IT_number 51
_symmetry_cell_setting 'orthorhombic'
loop_
_space_group_symop_operation_xyz
x,y,z
1/2-x,-y,z
1/2+x,-y,-z
-x,y,-z
-x,-y,-z
1/2+x,y,-z
1/2-x,y,z
x,-y,z
loop_
_atom_site_type_symbol
_atom_site_label
_atom_site_fract_x
_atom_site_fract_y
_atom_site_fract_z
Si Si1 0.911806 0.191287 0.956482
Si Si2 0.160450 0.088778 0.755278
Si Si3 0.916460 0.650038 0.558040
Si Si4 0.086955 0.820207 0.454690
Si Si5 0.160601 0.500000 0.557975
Si Si6 0.840668 0.658772 0.903120
Si Si7 0.158863 0.500000 0.928367
O O1 0.897998 0.169538 0.752379
O O2 0.857997 0.264802 0.015918
O O3 0.886874 0.121985 0.081674
O O4 0.000000 0.211426 0.000000
O O5 0.250000 0.099900 0.796235
O O6 0.143034 0.126790 0.568064
O O7 0.136816 0.000000 0.739632
O O8 0.898499 0.732622 0.469817
O O9 0.857602 0.579561 0.536602
O O10 0.905638 0.670858 0.757320
O O11 0.000000 0.619635 0.500000
O O12 0.000000 0.844538 0.500000
O O13 0.250000 0.500000 0.587977
O O14 0.117755 0.500000 0.742067
O O15 0.750000 0.656349 0.847282
O O16 0.868021 0.578510 0.984230
O O17 0.250000 0.500000 0.914220
#
# Coordination Sequence:
#
# PCOD8214094 Si02
#       7
#     8   8   8   8   4   8   4
#     4  11  23  42  69  98 133 172 218 265 323 389
#     4  11  26  45  68 100 134 169 212 269 331 388
#     4  10  22  38  60  87 123 160 210 265 319 374
#     4  10  22  43  67  97 129 171 217 269 323 393
#     4  11  22  35  55  86 123 167 216 260 311 375
#     4  10  21  39  62  87 122 168 214 262 316 376
#     4   9  21  35  52  84 118 157 208 257 307 363
#
# _framework density 20.719235000000001
#
# number of rings (size 3 to 8) (size 9 to 14) (size 15 to 20)
#    0.000    1.667    1.667    1.750    2.333    6.000 
#    0.000    2.917    0.000    0.000    0.000    0.000 
#    0.000    0.000    0.000    0.000    0.000    0.000 
#
# Total GULP energy -594628.184060 kJ/mol
# GULP energy per Si atom -12388.087168 kJ/mol
# Density = 2.067208 g / cm^3
# Si number density = 20.719235 Si / 1000 Ang^3
#
#
#
# Elastic Constant Matrix: (Units=GPa)
#
#
# Indices 1 2 3 4 5 6 
#
# 1 58.6499 39.7398 25.9901 0.0000 0.0000 0.0000
# 2 39.7398 144.1576 46.4076 0.0000 0.0000 0.0000
# 3 25.9901 46.4076 101.9452 0.0000 0.0000 0.0000
# 4 0.0000 0.0000 0.0000 30.8847 0.0000 0.0000
# 5 0.0000 0.0000 0.0000 0.0000 26.1733 0.0000
# 6 0.0000 0.0000 0.0000 0.0000 0.0000 21.4734
#
#
#
# Elastic Compliance Matrix: (Units=1/GPa)
#
#
# Indices 1 2 3 4 5 6 
#
# 1 0.021885 -0.004964 -0.003320 0.000000 0.000000 0.000000
# 2 -0.004964 0.009254 -0.002947 0.000000 0.000000 0.000000
# 3 -0.003320 -0.002947 0.011997 0.000000 0.000000 0.000000
# 4 0.000000 0.000000 0.000000 0.032378 0.000000 0.000000
# 5 0.000000 0.000000 0.000000 0.000000 0.038207 0.000000
# 6 0.000000 0.000000 0.000000 0.000000 0.000000 0.046569
#
#
# Mechanical properties :
#
#
# Convention : Reuss Voigt Hill
#
# Bulk Modulus (GPa) = 48.36921 58.78087 53.57504
# Shear Modulus (GPa) = 26.36515 28.54729 27.45622
#
# Velocity S-wave (km/s) = 3.57108 3.71592 3.64422
# Velocity P-wave (km/s) = 6.35604 6.84416 6.60461
#
# Compressibility (1/GPa) = 0.02067431
#
# Stress axis : x y z
#
# Youngs Moduli (GPa) = 45.69315 108.06016 83.35403
#
# Poissons Ratio (x) = 0.53646 0.27670
# Poissons Ratio (y) = 0.22684 0.24565
# Poissons Ratio (z) = 0.15168 0.31846
#
# Static dielectric constant tensor:
#      x y z
#    x 3.633520 0.000000 0.000000 
#    y 0.000000 4.392800 0.000000 
#    z 0.000000 0.000000 3.916550 
# 
# 
# High freq. dielectric constant tensor:
#      x y z
#    x 1.802060 0.000000 0.000000 
#    y 0.000000 1.824280 0.000000 
#    z 0.000000 0.000000 1.808870 
# 
# From -- ./inp_files/8348.got.cif
#   From: 2010.03.12/outbox.cif.g09.slc.cpg/sg51_5_cif.got.tgz:8348.got - 2010.04.16 13:43:02.
