data_PCOD8214849
_publ_section_title
;
Structure prediction by ZEFSAII (Michael W. Deem and Ramdas Pophale) SiO2 
 PCOD8214849
Probable space group: P M M A
;
_chemical_formula_sum "Si O2"
_cell_formula_units_Z 48
_cell_length_a 20.703463
_cell_length_b 9.547109
_cell_length_c 15.224175
_cell_angle_alpha 90.000000
_cell_angle_beta 90.000000
_cell_angle_gamma 90.000000
_cell_volume 3009.183300
_symmetry_space_group_name_H-M "P M M A"
_symmetry_group_IT_number 51
_symmetry_cell_setting 'orthorhombic'
loop_
_space_group_symop_operation_xyz
x,y,z
1/2-x,-y,z
1/2+x,-y,-z
-x,y,-z
-x,-y,-z
1/2+x,y,-z
1/2-x,y,z
x,-y,z
loop_
_atom_site_type_symbol
_atom_site_label
_atom_site_fract_x
_atom_site_fract_y
_atom_site_fract_z
Si Si1 0.679913 0.165841 0.512278
Si Si2 0.845333 0.156976 0.704769
Si Si3 0.948890 0.832875 0.428475
Si Si4 0.008141 0.842439 0.251207
Si Si5 0.038691 0.664602 0.085507
Si Si6 0.179894 0.661183 0.131086
O O1 0.750000 0.207897 0.472241
O O2 0.675973 0.222295 0.611824
O O3 0.622191 0.226775 0.452699
O O4 0.671289 0.000000 0.516722
O O5 0.921972 0.154799 0.705845
O O6 0.815854 0.252223 0.780060
O O7 0.817942 0.000000 0.717659
O O8 0.000000 0.773670 0.500000
O O9 0.962694 0.781736 0.328891
O O10 0.952297 0.000000 0.429384
O O11 0.005495 0.741876 0.167272
O O12 0.987786 0.000000 0.222246
O O13 0.029611 0.500000 0.100128
O O14 0.115518 0.704771 0.075605
O O15 0.000000 0.715849 0.000000
O O16 0.250000 0.684502 0.081665
O O17 0.172127 0.500000 0.157455
#
# Coordination Sequence:
#
# PCOD8214849 Si02
#       6
#     8   8   8   8   8   8
#     4   9  15  21  33  56  84 112 143 177 206 237
#     4   9  15  24  39  61  86 110 137 168 204 247
#     4   9  14  23  38  57  83 114 145 171 200 242
#     4   9  16  26  44  66  85 110 142 176 210 245
#     4   9  18  32  48  64  84 110 139 173 214 256
#     4   9  17  28  42  61  85 109 132 163 207 258
#
# _framework density 15.951173000000001
#
# number of rings (size 3 to 8) (size 9 to 14) (size 15 to 20)
#    0.000    3.000    1.667    0.500    0.000    1.333 
#    0.000    0.000    0.000    2.500    0.000    0.000 
#    0.000    0.000    0.000    0.000    0.000    0.000 
#
# Total GULP energy -594663.374905 kJ/mol
# GULP energy per Si atom -12388.820311 kJ/mol
# Density = 1.591487 g / cm^3
# Si number density = 15.951173 Si / 1000 Ang^3
#
#
#
# Elastic Constant Matrix: (Units=GPa)
#
#
# Indices 1 2 3 4 5 6 
#
# 1 129.5881 20.4718 72.9215 0.0000 0.0000 0.0000
# 2 20.4718 25.1436 26.3190 0.0000 0.0000 0.0000
# 3 72.9215 26.3190 101.2965 0.0000 0.0000 0.0000
# 4 0.0000 0.0000 0.0000 -4.1668 0.0000 0.0000
# 5 0.0000 0.0000 0.0000 0.0000 18.6002 0.0000
# 6 0.0000 0.0000 0.0000 0.0000 0.0000 9.3043
#
#
#
# Elastic Compliance Matrix: (Units=1/GPa)
#
#
# Indices 1 2 3 4 5 6 
#
# 1 0.012993 -0.001083 -0.009072 0.000000 0.000000 0.000000
# 2 -0.001083 0.054719 -0.013438 0.000000 0.000000 0.000000
# 3 -0.009072 -0.013438 0.019894 0.000000 0.000000 0.000000
# 4 0.000000 0.000000 0.000000 -0.239993 0.000000 0.000000
# 5 0.000000 0.000000 0.000000 0.000000 0.053763 0.000000
# 6 0.000000 0.000000 0.000000 0.000000 0.000000 0.107478
#
#
# Mechanical properties :
#
#
# Convention : Reuss Voigt Hill
#
# Bulk Modulus (GPa) = 24.73954 55.05032 39.89493
# Shear Modulus (GPa) = 71.93081 13.83526 42.88303
#
# Velocity S-wave (km/s) = 6.72252 2.94828 5.19060
# Velocity P-wave (km/s) = 8.70629 6.79533 7.80948
#
# Compressibility (1/GPa) = 0.04042112
#
# Stress axis : x y z
#
# Youngs Moduli (GPa) = 76.96605 18.27522 50.26597
#
# Poissons Ratio (x) = 0.01978 0.45601
# Poissons Ratio (y) = 0.08332 0.67546
# Poissons Ratio (z) = 0.69823 0.24558
#
# Static dielectric constant tensor:
#      x y z
#    x 3.377090 0.000000 0.000000 
#    y 0.000000 2.742010 0.000000 
#    z 0.000000 0.000000 2.872430 
# 
# 
# High freq. dielectric constant tensor:
#      x y z
#    x 1.623280 0.000000 0.000000 
#    y 0.000000 1.574900 0.000000 
#    z 0.000000 0.000000 1.583710 
# 
# From -- ./inp_files/18093.got.cif
#   From: 2010.03.12/outbox.cif.g09.slc.cpg/sg51_10_cif.got.tgz:18093.got - 2010.04.16 13:43:02.
