data_PCOD8214548
_publ_section_title
;
Structure prediction by ZEFSAII (Michael W. Deem and Ramdas Pophale) SiO2 
 PCOD8214548
Probable space group: P M M A
;
_chemical_formula_sum "Si O2"
_cell_formula_units_Z 40
_cell_length_a 25.946809
_cell_length_b 7.845176
_cell_length_c 10.229895
_cell_angle_alpha 90.000000
_cell_angle_beta 90.000000
_cell_angle_gamma 90.000000
_cell_volume 2082.369634
_symmetry_space_group_name_H-M "P M M A"
_symmetry_group_IT_number 51
_symmetry_cell_setting 'orthorhombic'
loop_
_space_group_symop_operation_xyz
x,y,z
1/2-x,-y,z
1/2+x,-y,-z
-x,y,-z
-x,-y,-z
1/2+x,y,-z
1/2-x,y,z
x,-y,z
loop_
_atom_site_type_symbol
_atom_site_label
_atom_site_fract_x
_atom_site_fract_y
_atom_site_fract_z
Si Si1 0.541278 0.192094 0.262701
Si Si2 0.808495 0.500000 0.422242
Si Si3 0.100478 0.689289 0.978786
Si Si4 0.380007 0.194259 0.516998
Si Si5 0.191344 0.500000 0.888122
Si Si6 0.928730 0.693405 0.740250
O O1 0.571396 0.194338 0.125438
O O2 0.578340 0.259785 0.377285
O O3 0.490599 0.306541 0.259462
O O4 0.524047 0.000000 0.292542
O O5 0.750000 0.500000 0.470924
O O6 0.833090 0.673211 0.479056
O O7 0.812077 0.500000 0.266906
O O8 0.074730 0.500000 0.975675
O O9 0.161508 0.668904 0.942436
O O10 0.093135 0.768661 0.122897
O O11 0.405929 0.192087 0.374824
O O12 0.361677 0.000000 0.548609
O O13 0.250000 0.500000 0.938883
O O14 0.909700 0.500000 0.720296
#
# Coordination Sequence:
#
# PCOD8214548 Si02
#       6
#     8   4   8   8   4   8
#     4  11  22  35  54  83 119 159 199 239 288 348
#     4  11  22  41  68  90 109 150 197 243 308 346
#     4   9  19  36  55  84 113 148 195 239 291 345
#     4  11  23  40  59  89 122 152 199 244 287 348
#     4   9  18  37  64  86 107 142 195 249 296 348
#     4  11  22  34  56  85 120 162 194 234 287 356
#
# _framework density 19.208884999999999
#
# number of rings (size 3 to 8) (size 9 to 14) (size 15 to 20)
#    0.600    1.000    3.000    2.400    1.400    6.800 
#    0.000    2.000    0.000    0.600    0.000    0.000 
#    0.000    0.000    0.000    0.000    0.000    0.000 
#
# Total GULP energy -495952.131380 kJ/mol
# GULP energy per Si atom -12398.803284 kJ/mol
# Density = 1.916516 g / cm^3
# Si number density = 19.208885 Si / 1000 Ang^3
#
#
#
# Elastic Constant Matrix: (Units=GPa)
#
#
# Indices 1 2 3 4 5 6 
#
# 1 134.4801 35.3092 50.3303 0.0000 0.0000 0.0000
# 2 35.3092 66.7360 18.5842 0.0000 0.0000 0.0000
# 3 50.3303 18.5842 134.7684 0.0000 0.0000 0.0000
# 4 0.0000 0.0000 0.0000 10.6816 0.0000 0.0000
# 5 0.0000 0.0000 0.0000 0.0000 11.3182 0.0000
# 6 0.0000 0.0000 0.0000 0.0000 0.0000 11.7230
#
#
#
# Elastic Compliance Matrix: (Units=1/GPa)
#
#
# Indices 1 2 3 4 5 6 
#
# 1 0.009695 -0.004286 -0.003030 0.000000 0.000000 0.000000
# 2 -0.004286 0.017477 -0.000809 0.000000 0.000000 0.000000
# 3 -0.003030 -0.000809 0.008663 0.000000 0.000000 0.000000
# 4 0.000000 0.000000 0.000000 0.093619 0.000000 0.000000
# 5 0.000000 0.000000 0.000000 0.000000 0.088354 0.000000
# 6 0.000000 0.000000 0.000000 0.000000 0.000000 0.085303
#
#
# Mechanical properties :
#
#
# Convention : Reuss Voigt Hill
#
# Bulk Modulus (GPa) = 51.05782 60.49245 55.77514
# Shear Modulus (GPa) = 15.34258 22.19525 18.76892
#
# Velocity S-wave (km/s) = 2.82923 3.40291 3.12924
# Velocity P-wave (km/s) = 6.10825 6.85565 6.49272
#
# Compressibility (1/GPa) = 0.01958564
#
# Stress axis : x y z
#
# Youngs Moduli (GPa) = 103.14297 57.21648 115.43010
#
# Poissons Ratio (x) = 0.24523 0.34973
# Poissons Ratio (y) = 0.44207 0.09344
# Poissons Ratio (z) = 0.31250 0.04632
#
# Static dielectric constant tensor:
#      x y z
#    x 3.368170 0.000000 0.000000 
#    y 0.000000 3.224280 0.000000 
#    z 0.000000 0.000000 3.565860 
# 
# 
# High freq. dielectric constant tensor:
#      x y z
#    x 1.723840 0.000000 0.000000 
#    y 0.000000 1.734300 0.000000 
#    z 0.000000 0.000000 1.758090 
# 
# From -- ./inp_files/12146.got.cif
#   From: 2010.03.12/outbox.cif.g09.slc.cpg/sg51_7_cif.got.tgz:12146.got - 2010.04.16 13:43:02.
