data_PCOD8214696
_publ_section_title
;
Structure prediction by ZEFSAII (Michael W. Deem and Ramdas Pophale) SiO2 
 PCOD8214696
Probable space group: P M M A
;
_chemical_formula_sum "Si O2"
_cell_formula_units_Z 64
_cell_length_a 23.371754
_cell_length_b 9.779436
_cell_length_c 17.302293
_cell_angle_alpha 90.000000
_cell_angle_beta 90.000000
_cell_angle_gamma 90.000000
_cell_volume 3954.656597
_symmetry_space_group_name_H-M "P M M A"
_symmetry_group_IT_number 51
_symmetry_cell_setting 'orthorhombic'
loop_
_space_group_symop_operation_xyz
x,y,z
1/2-x,-y,z
1/2+x,-y,-z
-x,y,-z
-x,-y,-z
1/2+x,y,-z
1/2-x,y,z
x,-y,z
loop_
_atom_site_type_symbol
_atom_site_label
_atom_site_fract_x
_atom_site_fract_y
_atom_site_fract_z
Si Si1 0.614656 0.662277 0.086364
Si Si2 0.490061 0.840752 0.587460
Si Si3 0.989417 0.347539 0.180115
Si Si4 0.686341 0.156527 0.792896
Si Si5 0.410133 0.349400 0.670858
Si Si6 0.815261 0.341381 0.940397
Si Si7 0.687531 0.661936 0.225760
Si Si8 0.068175 0.842362 0.271710
O O1 0.618922 0.500000 0.090605
O O2 0.548168 0.703182 0.105332
O O3 0.656090 0.727034 0.151388
O O4 0.638335 0.711600 0.003357
O O5 0.500000 0.794549 0.500000
O O6 0.433186 0.761639 0.611601
O O7 0.543187 0.799993 0.643947
O O8 0.476724 0.000000 0.592935
O O9 0.014929 0.500000 0.164663
O O10 0.946153 0.354491 0.250968
O O11 0.040413 0.243964 0.201327
O O12 0.750000 0.187077 0.758158
O O13 0.673554 0.253614 0.864587
O O14 0.636903 0.182932 0.728587
O O15 0.683157 0.000000 0.821752
O O16 0.411145 0.500000 0.631897
O O17 0.346202 0.304987 0.694923
O O18 0.750000 0.320528 0.970808
O O19 0.825611 0.500000 0.920068
O O20 0.750000 0.728762 0.232751
O O21 0.691374 0.500000 0.214747
O O22 0.053301 0.000000 0.255146
#
# Coordination Sequence:
#
# PCOD8214696 Si02
#       8
#     8   8   8   8   8   8   8   8
#     4   8  13  22  37  59  86 112 140 175 210 241
#     4   9  17  29  46  66  85 104 127 160 203 248
#     4   8  14  25  41  61  85 111 137 167 203 240
#     4   9  18  32  47  61  79 105 137 173 210 246
#     4   8  14  24  39  61  86 109 135 165 194 229
#     4   9  16  26  42  63  84 108 142 182 217 245
#     4   8  12  19  35  59  84 111 142 171 197 229
#     4   9  17  30  47  64  81 104 135 167 202 248
#
# _framework density 16.183453
#
# number of rings (size 3 to 8) (size 9 to 14) (size 15 to 20)
#    0.000    3.500    0.000    1.875    0.000    2.250 
#    0.000    1.250    0.000    5.625    0.000    1.750 
#    0.000    0.000    0.000    0.000    0.000    0.000 
#
# Total GULP energy -792862.278221 kJ/mol
# GULP energy per Si atom -12388.473097 kJ/mol
# Density = 1.614662 g / cm^3
# Si number density = 16.183453 Si / 1000 Ang^3
#
#
#
# Elastic Constant Matrix: (Units=GPa)
#
#
# Indices 1 2 3 4 5 6 
#
# 1 101.4160 28.0844 42.0110 0.0000 0.0000 0.0000
# 2 28.0844 35.1682 26.0741 0.0000 0.0000 0.0000
# 3 42.0110 26.0741 67.3739 0.0000 0.0000 0.0000
# 4 0.0000 0.0000 0.0000 17.7422 0.0000 0.0000
# 5 0.0000 0.0000 0.0000 0.0000 19.2131 0.0000
# 6 0.0000 0.0000 0.0000 0.0000 0.0000 14.9017
#
#
#
# Elastic Compliance Matrix: (Units=1/GPa)
#
#
# Indices 1 2 3 4 5 6 
#
# 1 0.014359 -0.006771 -0.006333 0.000000 0.000000 0.000000
# 2 -0.006771 0.043070 -0.012446 0.000000 0.000000 0.000000
# 3 -0.006333 -0.012446 0.023608 0.000000 0.000000 0.000000
# 4 0.000000 0.000000 0.000000 0.056363 0.000000 0.000000
# 5 0.000000 0.000000 0.000000 0.000000 0.052048 0.000000
# 6 0.000000 0.000000 0.000000 0.000000 0.000000 0.067106
#
#
# Mechanical properties :
#
#
# Convention : Reuss Voigt Hill
#
# Bulk Modulus (GPa) = 33.40432 44.03302 38.71867
# Shear Modulus (GPa) = 15.74144 17.55731 16.64937
#
# Velocity S-wave (km/s) = 3.12218 3.29734 3.21096
# Velocity P-wave (km/s) = 5.80372 6.46254 6.14197
#
# Compressibility (1/GPa) = 0.02993624
#
# Stress axis : x y z
#
# Youngs Moduli (GPa) = 69.64316 23.21818 42.35836
#
# Poissons Ratio (x) = 0.15722 0.26825
# Poissons Ratio (y) = 0.47158 0.52719
# Poissons Ratio (z) = 0.44105 0.28897
#
# Static dielectric constant tensor:
#      x y z
#    x 3.391040 0.000000 0.000000 
#    y 0.000000 2.913900 0.000000 
#    z 0.000000 0.000000 2.926290 
# 
# 
# High freq. dielectric constant tensor:
#      x y z
#    x 1.624360 0.000000 0.000000 
#    y 0.000000 1.596310 0.000000 
#    z 0.000000 0.000000 1.590560 
# 
# From -- ./inp_files/30875.got.cif
#   From: 2010.03.12/outbox.cif.g09.slc.cpg/sg51_16_cif.got.tgz:30875.got - 2010.04.16 13:43:02.
