data_PCOD8214656
_publ_section_title
;
Structure prediction by ZEFSAII (Michael W. Deem and Ramdas Pophale) SiO2 
 PCOD8214656
Probable space group: P M M A
;
_chemical_formula_sum "Si O2"
_cell_formula_units_Z 40
_cell_length_a 16.466956
_cell_length_b 12.632865
_cell_length_c 10.114959
_cell_angle_alpha 90.000000
_cell_angle_beta 90.000000
_cell_angle_gamma 90.000000
_cell_volume 2104.162648
_symmetry_space_group_name_H-M "P M M A"
_symmetry_group_IT_number 51
_symmetry_cell_setting 'orthorhombic'
loop_
_space_group_symop_operation_xyz
x,y,z
1/2-x,-y,z
1/2+x,-y,-z
-x,y,-z
-x,-y,-z
1/2+x,y,-z
1/2-x,y,z
x,-y,z
loop_
_atom_site_type_symbol
_atom_site_label
_atom_site_fract_x
_atom_site_fract_y
_atom_site_fract_z
Si Si1 0.156131 0.377826 0.047074
Si Si2 0.558499 0.800334 0.379731
Si Si3 0.947557 0.190328 0.870233
Si Si4 0.154460 0.000000 0.212888
Si Si5 0.153825 0.000000 0.519673
Si Si6 0.655728 0.381602 0.257506
O O1 0.250000 0.356635 0.084355
O O2 0.134074 0.500000 0.074828
O O3 0.096427 0.305059 0.133880
O O4 0.140332 0.348383 0.894261
O O5 0.500000 0.775328 0.500000
O O6 0.506114 0.826718 0.252347
O O7 0.617905 0.897349 0.409504
O O8 0.611068 0.695777 0.357316
O O9 0.877737 0.102660 0.863229
O O10 0.000000 0.173218 0.000000
O O11 0.127462 0.000000 0.366421
O O12 0.250000 0.000000 0.200012
O O13 0.250000 0.000000 0.537747
O O14 0.750000 0.376806 0.290568
O O15 0.622529 0.500000 0.280873
#
# Coordination Sequence:
#
# PCOD8214656 Si02
#       6
#     8   8   8   4   4   8
#     4   9  19  38  62  89 123 161 199 240 295 360
#     4  12  23  40  62  89 123 156 199 246 299 360
#     4  12  23  39  62  93 123 154 194 251 303 351
#     4  11  24  43  63  86 120 159 201 248 302 357
#     4  11  24  44  65  83 116 165 205 240 298 367
#     4   9  19  38  62  88 121 161 203 244 291 353
#
# _framework density 19.009936
#
# number of rings (size 3 to 8) (size 9 to 14) (size 15 to 20)
#    0.000    1.400    4.000    3.600    0.000    1.600 
#    0.000    1.000    0.000    2.400    0.000    0.000 
#    0.000    0.000    0.000    0.000    0.000    0.000 
#
# Total GULP energy -496129.908233 kJ/mol
# GULP energy per Si atom -12403.247706 kJ/mol
# Density = 1.896667 g / cm^3
# Si number density = 19.009936 Si / 1000 Ang^3
#
#
#
# Elastic Constant Matrix: (Units=GPa)
#
#
# Indices 1 2 3 4 5 6 
#
# 1 95.5857 66.2932 55.3236 0.0000 0.0000 0.0000
# 2 66.2932 132.8517 39.5327 0.0000 0.0000 0.0000
# 3 55.3236 39.5327 84.9062 0.0000 0.0000 0.0000
# 4 0.0000 0.0000 0.0000 42.2667 0.0000 0.0000
# 5 0.0000 0.0000 0.0000 0.0000 33.8915 0.0000
# 6 0.0000 0.0000 0.0000 0.0000 0.0000 32.0801
#
#
#
# Elastic Compliance Matrix: (Units=1/GPa)
#
#
# Indices 1 2 3 4 5 6 
#
# 1 0.022133 -0.007839 -0.010772 0.000000 0.000000 0.000000
# 2 -0.007839 0.011514 -0.000253 0.000000 0.000000 0.000000
# 3 -0.010772 -0.000253 0.018914 0.000000 0.000000 0.000000
# 4 0.000000 0.000000 0.000000 0.023659 0.000000 0.000000
# 5 0.000000 0.000000 0.000000 0.000000 0.029506 0.000000
# 6 0.000000 0.000000 0.000000 0.000000 0.000000 0.031172
#
#
# Mechanical properties :
#
#
# Convention : Reuss Voigt Hill
#
# Bulk Modulus (GPa) = 67.41460 70.62696 69.02078
# Shear Modulus (GPa) = 27.84409 31.79393 29.81901
#
# Velocity S-wave (km/s) = 3.83131 4.09405 3.96485
# Velocity P-wave (km/s) = 7.42373 7.71891 7.57276
#
# Compressibility (1/GPa) = 0.01483358
#
# Stress axis : x y z
#
# Youngs Moduli (GPa) = 45.18130 86.84864 52.87024
#
# Poissons Ratio (x) = 0.68082 0.56950
# Poissons Ratio (y) = 0.35418 0.01339
# Poissons Ratio (z) = 0.48668 0.02200
#
# Static dielectric constant tensor:
#      x y z
#    x 3.552570 0.000000 0.000000 
#    y 0.000000 3.609160 0.000000 
#    z 0.000000 0.000000 3.293240 
# 
# 
# High freq. dielectric constant tensor:
#      x y z
#    x 1.753810 0.000000 0.000000 
#    y 0.000000 1.750390 0.000000 
#    z 0.000000 0.000000 1.725710 
# 
# From -- ./inp_files/8031.got.cif
#   From: 2010.03.12/outbox.cif.g09.slc.cpg/sg51_5_cif.got.tgz:8031.got - 2010.04.16 13:43:02.
