data_PCOD8214664
_publ_section_title
;
Structure prediction by ZEFSAII (Michael W. Deem and Ramdas Pophale) SiO2 
 PCOD8214664
Probable space group: P M M A
;
_chemical_formula_sum "Si O2"
_cell_formula_units_Z 56
_cell_length_a 14.640676
_cell_length_b 7.817660
_cell_length_c 22.904712
_cell_angle_alpha 90.000000
_cell_angle_beta 90.000000
_cell_angle_gamma 90.000000
_cell_volume 2621.577757
_symmetry_space_group_name_H-M "P M M A"
_symmetry_group_IT_number 51
_symmetry_cell_setting 'orthorhombic'
loop_
_space_group_symop_operation_xyz
x,y,z
1/2-x,-y,z
1/2+x,-y,-z
-x,y,-z
-x,-y,-z
1/2+x,y,-z
1/2-x,y,z
x,-y,z
loop_
_atom_site_type_symbol
_atom_site_label
_atom_site_fract_x
_atom_site_fract_y
_atom_site_fract_z
Si Si1 0.985318 0.810923 0.152233
Si Si2 0.357052 0.305623 0.945562
Si Si3 0.853891 0.684995 0.532927
Si Si4 0.091895 0.000000 0.536336
Si Si5 0.851505 0.702875 0.924749
Si Si6 0.351965 0.701800 0.340146
Si Si7 0.531597 0.695179 0.276350
Si Si8 0.639754 0.000000 0.332003
O O1 0.908013 0.803126 0.102992
O O2 0.965240 0.685622 0.206056
O O3 0.083257 0.775552 0.124297
O O4 0.985383 0.000000 0.178893
O O5 0.250000 0.292330 0.933877
O O6 0.391717 0.500000 0.939656
O O7 0.380756 0.234989 0.010294
O O8 0.750000 0.647713 0.546847
O O9 0.898837 0.500000 0.514784
O O10 0.859684 0.823727 0.481908
O O11 0.891607 0.753777 0.595369
O O12 0.088782 0.000000 0.605676
O O13 0.000000 0.000000 0.500000
O O14 0.750000 0.769817 0.910363
O O15 0.853243 0.500000 0.924560
O O16 0.250000 0.781799 0.326944
O O17 0.342312 0.500000 0.336641
O O18 0.430243 0.762636 0.295067
O O19 0.550310 0.500000 0.299068
O O20 0.608780 0.826229 0.299319
O O21 0.750000 0.000000 0.337923
#
# Coordination Sequence:
#
# PCOD8214664 Si02
#       8
#     8   8   8   4   8   8   8   4
#     4  12  24  38  58  87 124 161 209 264 316 377
#     4   9  19  37  61  88 116 153 206 259 313 377
#     4   9  18  35  59  89 123 155 192 239 296 368
#     4  12  24  38  64  96 127 159 199 253 319 383
#     4   9  19  37  61  90 124 160 200 251 312 385
#     4   8  16  34  63  96 128 163 205 257 318 387
#     4  11  24  45  67  88 123 171 221 270 320 374
#     4  12  28  48  65  92 132 169 222 277 315 369
#
# _framework density 21.361180999999998
#
# number of rings (size 3 to 8) (size 9 to 14) (size 15 to 20)
#    0.000    2.000    0.714    4.929    0.000    5.143 
#    0.000    3.929    0.000    0.000    0.000    0.000 
#    0.000    0.000    0.000    0.000    0.000    0.000 
#
# Total GULP energy -693984.288776 kJ/mol
# GULP energy per Si atom -12392.576585 kJ/mol
# Density = 2.131256 g / cm^3
# Si number density = 21.361181 Si / 1000 Ang^3
#
#
#
# Elastic Constant Matrix: (Units=GPa)
#
#
# Indices 1 2 3 4 5 6 
#
# 1 87.3311 25.8922 41.9517 0.0000 0.0000 0.0000
# 2 25.8922 92.4595 36.2065 0.0000 0.0000 0.0000
# 3 41.9517 36.2065 118.6402 0.0000 0.0000 0.0000
# 4 0.0000 0.0000 0.0000 29.3835 0.0000 0.0000
# 5 0.0000 0.0000 0.0000 0.0000 -10.8164 0.0000
# 6 0.0000 0.0000 0.0000 0.0000 0.0000 21.3781
#
#
#
# Elastic Compliance Matrix: (Units=1/GPa)
#
#
# Indices 1 2 3 4 5 6 
#
# 1 0.014206 -0.002284 -0.004326 0.000000 0.000000 0.000000
# 2 -0.002284 0.012651 -0.003053 0.000000 0.000000 0.000000
# 3 -0.004326 -0.003053 0.010890 0.000000 0.000000 0.000000
# 4 0.000000 0.000000 0.000000 0.034033 0.000000 0.000000
# 5 0.000000 0.000000 0.000000 0.000000 -0.092452 0.000000
# 6 0.000000 0.000000 0.000000 0.000000 0.000000 0.046777
#
#
# Mechanical properties :
#
#
# Convention : Reuss Voigt Hill
#
# Bulk Modulus (GPa) = 54.28792 56.28128 55.28460
# Shear Modulus (GPa) = 96.95246 20.94773 58.95010
#
# Velocity S-wave (km/s) = 6.74431 3.13492 5.25897
# Velocity P-wave (km/s) = 9.27993 6.28556 7.92545
#
# Compressibility (1/GPa) = 0.01842030
#
# Stress axis : x y z
#
# Youngs Moduli (GPa) = 70.39224 79.04674 91.82417
#
# Poissons Ratio (x) = 0.18055 0.39726
# Poissons Ratio (y) = 0.16078 0.28035
# Poissons Ratio (z) = 0.30454 0.24134
#
# Static dielectric constant tensor:
#      x y z
#    x 4.634470 0.000000 0.000000 
#    y 0.000000 3.678000 0.000000 
#    z 0.000000 0.000000 3.871750 
# 
# 
# High freq. dielectric constant tensor:
#      x y z
#    x 1.834200 0.000000 0.000000 
#    y 0.000000 1.832390 0.000000 
#    z 0.000000 0.000000 1.832010 
# 
# From -- ./inp_files/33501.got.cif
#   From: 2010.03.12/outbox.cif.g09.slc.cpg/sg51_17_cif.got.tgz:33501.got - 2010.04.16 13:43:02.
