data_PCOD8214102
_publ_section_title
;
Structure prediction by ZEFSAII (Michael W. Deem and Ramdas Pophale) SiO2 
 PCOD8214102
Probable space group: P M M A
;
_chemical_formula_sum "Si O2"
_cell_formula_units_Z 40
_cell_length_a 15.789461
_cell_length_b 8.598102
_cell_length_c 14.554669
_cell_angle_alpha 90.000000
_cell_angle_beta 90.000000
_cell_angle_gamma 90.000000
_cell_volume 1975.933075
_symmetry_space_group_name_H-M "P M M A"
_symmetry_group_IT_number 51
_symmetry_cell_setting 'orthorhombic'
loop_
_space_group_symop_operation_xyz
x,y,z
1/2-x,-y,z
1/2+x,-y,-z
-x,y,-z
-x,-y,-z
1/2+x,y,-z
1/2-x,y,z
x,-y,z
loop_
_atom_site_type_symbol
_atom_site_label
_atom_site_fract_x
_atom_site_fract_y
_atom_site_fract_z
Si Si1 0.907678 0.816634 0.029113
Si Si2 0.250000 0.682936 0.079958
Si Si3 0.575684 0.680606 0.396811
Si Si4 0.394735 0.183057 0.414965
Si Si5 0.847521 0.175831 0.225248
Si Si6 0.250000 0.684220 0.290643
O O1 0.898661 0.769735 0.135670
O O2 0.899242 0.000000 0.016036
O O3 0.835094 0.741478 0.967804
O O4 0.000000 0.754798 0.000000
O O5 0.250000 0.500000 0.074200
O O6 0.250000 0.739812 0.185292
O O7 0.553190 0.500000 0.406532
O O8 0.626185 0.737151 0.487138
O O9 0.490112 0.778750 0.385042
O O10 0.633592 0.708261 0.308469
O O11 0.333371 0.247986 0.337566
O O12 0.382153 0.000000 0.425066
O O13 0.750000 0.187149 0.198256
O O14 0.872104 0.000000 0.253936
O O15 0.250000 0.500000 0.300055
#
# Coordination Sequence:
#
# PCOD8214102 Si02
#       6
#     8   4   8   8   8   4
#     4  10  22  42  68  95 124 164 212 262 313 369
#     4  11  25  43  64  93 130 165 205 260 316 381
#     4  11  23  40  63  91 128 164 201 254 312 367
#     4  11  23  42  65  91 121 162 211 254 301 365
#     4  10  21  39  62  91 126 162 208 259 307 368
#     4  11  25  43  62  91 128 163 203 252 314 367
#
# _framework density 20.243601999999999
#
# number of rings (size 3 to 8) (size 9 to 14) (size 15 to 20)
#    0.000    1.400    1.000    5.400    4.200    3.200 
#    0.000    0.000    0.000    0.000    0.000    0.000 
#    0.000    0.000    0.000    0.000    0.000    0.000 
#
# Total GULP energy -496185.143676 kJ/mol
# GULP energy per Si atom -12404.628592 kJ/mol
# Density = 2.019753 g / cm^3
# Si number density = 20.243602 Si / 1000 Ang^3
#
#
#
# Elastic Constant Matrix: (Units=GPa)
#
#
# Indices 1 2 3 4 5 6 
#
# 1 105.0534 25.5363 66.6139 0.0000 0.0000 0.0000
# 2 25.5363 82.7179 49.3939 0.0000 0.0000 0.0000
# 3 66.6139 49.3939 148.5308 0.0000 0.0000 0.0000
# 4 0.0000 0.0000 0.0000 32.2719 0.0000 0.0000
# 5 0.0000 0.0000 0.0000 0.0000 63.7178 0.0000
# 6 0.0000 0.0000 0.0000 0.0000 0.0000 26.1261
#
#
#
# Elastic Compliance Matrix: (Units=1/GPa)
#
#
# Indices 1 2 3 4 5 6 
#
# 1 0.013332 -0.000681 -0.005753 0.000000 0.000000 0.000000
# 2 -0.000681 0.015120 -0.004723 0.000000 0.000000 0.000000
# 3 -0.005753 -0.004723 0.010883 0.000000 0.000000 0.000000
# 4 0.000000 0.000000 0.000000 0.030987 0.000000 0.000000
# 5 0.000000 0.000000 0.000000 0.000000 0.015694 0.000000
# 6 0.000000 0.000000 0.000000 0.000000 0.000000 0.038276
#
#
# Mechanical properties :
#
#
# Convention : Reuss Voigt Hill
#
# Bulk Modulus (GPa) = 58.74589 68.82114 63.78352
# Shear Modulus (GPa) = 32.83447 37.40704 35.12076
#
# Velocity S-wave (km/s) = 4.03174 4.30332 4.16974
# Velocity P-wave (km/s) = 7.12430 7.66562 7.39991
#
# Compressibility (1/GPa) = 0.01702247
#
# Stress axis : x y z
#
# Youngs Moduli (GPa) = 75.00529 66.13966 91.88360
#
# Poissons Ratio (x) = 0.04501 0.52861
# Poissons Ratio (y) = 0.05104 0.43395
# Poissons Ratio (z) = 0.43151 0.31236
#
# Static dielectric constant tensor:
#      x y z
#    x 3.674970 0.000000 0.000000 
#    y 0.000000 3.650540 0.000000 
#    z 0.000000 0.000000 3.819310 
# 
# 
# High freq. dielectric constant tensor:
#      x y z
#    x 1.794700 0.000000 0.000000 
#    y 0.000000 1.792190 0.000000 
#    z 0.000000 0.000000 1.803840 
# 
# From -- ./inp_files/23781.got.cif
#   From: 2010.03.12/outbox.cif.g09.slc.cpg/sg51_12_cif.got.tgz:23781.got - 2010.04.16 13:43:02.
