data_PCOD8214619
_publ_section_title
;
Structure prediction by ZEFSAII (Michael W. Deem and Ramdas Pophale) SiO2 
 PCOD8214619
Probable space group: P M M A
;
_chemical_formula_sum "Si O2"
_cell_formula_units_Z 64
_cell_length_a 14.678484
_cell_length_b 9.133753
_cell_length_c 23.763444
_cell_angle_alpha 90.000000
_cell_angle_beta 90.000000
_cell_angle_gamma 90.000000
_cell_volume 3185.956555
_symmetry_space_group_name_H-M "P M M A"
_symmetry_group_IT_number 51
_symmetry_cell_setting 'orthorhombic'
loop_
_space_group_symop_operation_xyz
x,y,z
1/2-x,-y,z
1/2+x,-y,-z
-x,y,-z
-x,-y,-z
1/2+x,y,-z
1/2-x,y,z
x,-y,z
loop_
_atom_site_type_symbol
_atom_site_label
_atom_site_fract_x
_atom_site_fract_y
_atom_site_fract_z
Si Si1 0.141344 0.161791 0.467273
Si Si2 0.482384 0.673293 0.133387
Si Si3 0.144410 0.166360 0.049140
Si Si4 0.851656 0.825491 0.655263
Si Si5 0.142028 0.661116 0.571416
Si Si6 0.854360 0.168259 0.081447
Si Si7 0.514111 0.174335 0.752830
Si Si8 0.644940 0.672149 0.303658
O O1 0.250000 0.157605 0.471702
O O2 0.115502 0.232929 0.406416
O O3 0.098131 0.247011 0.520381
O O4 0.100371 0.000000 0.471423
O O5 0.480960 0.500000 0.141528
O O6 0.413744 0.718413 0.084128
O O7 0.584341 0.724908 0.118691
O O8 0.449437 0.752872 0.190121
O O9 0.250000 0.191691 0.062833
O O10 0.116138 0.000000 0.064755
O O11 0.124230 0.195378 0.983893
O O12 0.750000 0.766976 0.669110
O O13 0.919513 0.769708 0.703290
O O14 0.849685 0.000000 0.652447
O O15 0.250000 0.653050 0.564460
O O16 0.099745 0.500000 0.567101
O O17 0.119907 0.726963 0.633092
O O18 0.750000 0.206254 0.094927
O O19 0.875760 0.000000 0.097095
O O20 0.413045 0.233268 0.740189
O O21 0.513517 0.000000 0.758963
O O22 0.750000 0.703990 0.290055
O O23 0.623808 0.500000 0.297206
#
# Coordination Sequence:
#
# PCOD8214619 Si02
#       8
#     8   8   8   8   8   8   8   8
#     4   8  13  24  46  74 100 126 161 209 263 318
#     4  12  25  38  55  82 118 155 187 226 276 328
#     4   9  19  38  64  91 118 149 185 226 271 318
#     4   8  16  33  55  77 102 134 173 220 274 324
#     4   8  14  26  46  72 100 131 167 206 257 325
#     4   9  19  38  64  91 117 147 186 229 270 318
#     4  11  23  38  57  79 103 139 190 237 271 315
#     4   9  19  37  57  75 103 142 177 218 276 332
#
# _framework density 20.088159000000001
#
# number of rings (size 3 to 8) (size 9 to 14) (size 15 to 20)
#    0.000    2.750    0.000    4.125    0.000    4.250 
#    0.000    5.625    0.000    6.375    0.000    0.000 
#    0.000    0.000    0.000    0.000    0.000    0.000 
#
# Total GULP energy -793433.622998 kJ/mol
# GULP energy per Si atom -12397.400359 kJ/mol
# Density = 2.004244 g / cm^3
# Si number density = 20.088159 Si / 1000 Ang^3
#
#
#
# Elastic Constant Matrix: (Units=GPa)
#
#
# Indices 1 2 3 4 5 6 
#
# 1 42.0837 18.0466 13.3219 0.0000 0.0000 0.0000
# 2 18.0466 78.5181 28.5891 0.0000 0.0000 0.0000
# 3 13.3219 28.5891 67.2074 0.0000 0.0000 0.0000
# 4 0.0000 0.0000 0.0000 21.4688 0.0000 0.0000
# 5 0.0000 0.0000 0.0000 0.0000 26.1733 0.0000
# 6 0.0000 0.0000 0.0000 0.0000 0.0000 19.6843
#
#
#
# Elastic Compliance Matrix: (Units=1/GPa)
#
#
# Indices 1 2 3 4 5 6 
#
# 1 0.026930 -0.005024 -0.003201 0.000000 0.000000 0.000000
# 2 -0.005024 0.016007 -0.005813 0.000000 0.000000 0.000000
# 3 -0.003201 -0.005813 0.017987 0.000000 0.000000 0.000000
# 4 0.000000 0.000000 0.000000 0.046579 0.000000 0.000000
# 5 0.000000 0.000000 0.000000 0.000000 0.038207 0.000000
# 6 0.000000 0.000000 0.000000 0.000000 0.000000 0.050802
#
#
# Mechanical properties :
#
#
# Convention : Reuss Voigt Hill
#
# Bulk Modulus (GPa) = 30.44403 34.19161 32.31782
# Shear Modulus (GPa) = 21.22801 21.98872 21.60836
#
# Velocity S-wave (km/s) = 3.25428 3.31208 3.28331
# Velocity P-wave (km/s) = 5.41374 5.62887 5.52236
#
# Compressibility (1/GPa) = 0.03284717
#
# Stress axis : x y z
#
# Youngs Moduli (GPa) = 37.13350 62.47126 55.59646
#
# Poissons Ratio (x) = 0.31386 0.17796
# Poissons Ratio (y) = 0.18656 0.32321
# Poissons Ratio (z) = 0.11886 0.36317
#
# Static dielectric constant tensor:
#      x y z
#    x 3.484030 0.000000 0.000000 
#    y 0.000000 3.469210 0.000000 
#    z 0.000000 0.000000 3.800530 
# 
# 
# High freq. dielectric constant tensor:
#      x y z
#    x 1.774480 0.000000 0.000000 
#    y 0.000000 1.758670 0.000000 
#    z 0.000000 0.000000 1.791720 
# 
# From -- ./inp_files/35637.got.cif
#   From: 2010.03.12/outbox.cif.g09.slc.cpg/sg51_18_cif.got.tgz:35637.got - 2010.04.16 13:43:02.
