data_PCOD8214621
_publ_section_title
;
Structure prediction by ZEFSAII (Michael W. Deem and Ramdas Pophale) SiO2 
 PCOD8214621
Probable space group: P M M A
;
_chemical_formula_sum "Si O2"
_cell_formula_units_Z 48
_cell_length_a 28.837340
_cell_length_b 8.724317
_cell_length_c 9.817634
_cell_angle_alpha 90.000000
_cell_angle_beta 90.000000
_cell_angle_gamma 90.000000
_cell_volume 2469.980206
_symmetry_space_group_name_H-M "P M M A"
_symmetry_group_IT_number 51
_symmetry_cell_setting 'orthorhombic'
loop_
_space_group_symop_operation_xyz
x,y,z
1/2-x,-y,z
1/2+x,-y,-z
-x,y,-z
-x,-y,-z
1/2+x,y,-z
1/2-x,y,z
x,-y,z
loop_
_atom_site_type_symbol
_atom_site_label
_atom_site_fract_x
_atom_site_fract_y
_atom_site_fract_z
Si Si1 0.802324 0.180928 0.990345
Si Si2 0.030737 0.827181 0.633112
Si Si3 0.879187 0.320551 0.481749
Si Si4 0.802086 0.678381 0.270746
Si Si5 0.120859 0.180992 0.221864
Si Si6 0.526274 0.678310 0.863402
O O1 0.750000 0.243528 0.962866
O O2 0.836638 0.238613 0.871898
O O3 0.802388 0.000000 0.994092
O O4 0.821299 0.238869 0.135659
O O5 0.081654 0.770788 0.597926
O O6 0.000000 0.822688 0.500000
O O7 0.008505 0.712618 0.740851
O O8 0.033077 0.000000 0.691804
O O9 0.890949 0.500000 0.479422
O O10 0.831877 0.280438 0.403321
O O11 0.874283 0.267021 0.635932
O O12 0.750000 0.734211 0.302862
O O13 0.804127 0.500000 0.238399
O O14 0.072841 0.222671 0.148460
O O15 0.122110 0.000000 0.247928
O O16 0.539669 0.500000 0.862004
O O17 0.500000 0.726497 0.000000
#
# Coordination Sequence:
#
# PCOD8214621 Si02
#       6
#     8   8   8   8   8   8
#     4   9  20  39  61  86 117 153 193 238 290 346
#     4  11  23  40  62  87 117 155 195 238 288 346
#     4  11  23  38  60  88 118 155 195 241 291 345
#     4   9  20  39  61  87 118 151 192 239 288 346
#     4  11  23  39  59  87 119 154 196 241 289 345
#     4  11  25  42  61  87 118 154 195 241 290 347
#
# _framework density 19.433354000000001
#
# number of rings (size 3 to 8) (size 9 to 14) (size 15 to 20)
#    0.000    1.667    1.667    2.000    2.333    5.333 
#    0.000    0.000    0.000    0.000    0.000    0.000 
#    0.000    0.000    0.000    0.000    0.000    0.000 
#
# Total GULP energy -595371.834496 kJ/mol
# GULP energy per Si atom -12403.579885 kJ/mol
# Density = 1.938912 g / cm^3
# Si number density = 19.433354 Si / 1000 Ang^3
#
#
#
# Elastic Constant Matrix: (Units=GPa)
#
#
# Indices 1 2 3 4 5 6 
#
# 1 110.4474 20.9734 60.6558 0.0000 0.0000 0.0000
# 2 20.9734 35.2650 20.9340 0.0000 0.0000 0.0000
# 3 60.6558 20.9340 100.9961 0.0000 0.0000 0.0000
# 4 0.0000 0.0000 0.0000 30.9050 0.0000 0.0000
# 5 0.0000 0.0000 0.0000 0.0000 38.4169 0.0000
# 6 0.0000 0.0000 0.0000 0.0000 0.0000 31.9851
#
#
#
# Elastic Compliance Matrix: (Units=1/GPa)
#
#
# Indices 1 2 3 4 5 6 
#
# 1 0.013940 -0.003787 -0.007587 0.000000 0.000000 0.000000
# 2 -0.003787 0.033364 -0.004641 0.000000 0.000000 0.000000
# 3 -0.007587 -0.004641 0.015420 0.000000 0.000000 0.000000
# 4 0.000000 0.000000 0.000000 0.032357 0.000000 0.000000
# 5 0.000000 0.000000 0.000000 0.000000 0.026030 0.000000
# 6 0.000000 0.000000 0.000000 0.000000 0.000000 0.031265
#
#
# Mechanical properties :
#
#
# Convention : Reuss Voigt Hill
#
# Bulk Modulus (GPa) = 32.58004 50.20390 41.39197
# Shear Modulus (GPa) = 25.68883 29.87109 27.77996
#
# Velocity S-wave (km/s) = 3.63973 3.92485 3.78497
# Velocity P-wave (km/s) = 5.87068 6.81390 6.35980
#
# Compressibility (1/GPa) = 0.03069364
#
# Stress axis : x y z
#
# Youngs Moduli (GPa) = 71.73695 29.97244 64.85087
#
# Poissons Ratio (x) = 0.11350 0.49202
# Poissons Ratio (y) = 0.27165 0.30100
# Poissons Ratio (z) = 0.54427 0.13911
#
# Static dielectric constant tensor:
#      x y z
#    x 3.845470 0.000000 0.000000 
#    y 0.000000 3.597360 0.000000 
#    z 0.000000 0.000000 3.608420 
# 
# 
# High freq. dielectric constant tensor:
#      x y z
#    x 1.765480 0.000000 0.000000 
#    y 0.000000 1.761460 0.000000 
#    z 0.000000 0.000000 1.762150 
# 
# From -- ./inp_files/12841.got.cif
#   From: 2010.03.12/outbox.cif.g09.slc.cpg/sg51_7_cif.got.tgz:12841.got - 2010.04.16 13:43:02.
