data_PCOD8214899
_publ_section_title
;
Structure prediction by ZEFSAII (Michael W. Deem and Ramdas Pophale) SiO2 
 PCOD8214899
Probable space group: P M M A
;
_chemical_formula_sum "Si O2"
_cell_formula_units_Z 40
_cell_length_a 18.969958
_cell_length_b 13.376969
_cell_length_c 8.493803
_cell_angle_alpha 90.000000
_cell_angle_beta 90.000000
_cell_angle_gamma 90.000000
_cell_volume 2155.392037
_symmetry_space_group_name_H-M "P M M A"
_symmetry_group_IT_number 51
_symmetry_cell_setting 'orthorhombic'
loop_
_space_group_symop_operation_xyz
x,y,z
1/2-x,-y,z
1/2+x,-y,-z
-x,y,-z
-x,-y,-z
1/2+x,y,-z
1/2-x,y,z
x,-y,z
loop_
_atom_site_type_symbol
_atom_site_label
_atom_site_fract_x
_atom_site_fract_y
_atom_site_fract_z
Si Si1 0.073198 0.299143 0.955948
Si Si2 0.565451 0.112781 0.829091
Si Si3 0.831454 0.610955 0.794998
Si Si4 0.949774 0.777191 0.365694
Si Si5 0.332805 0.197566 0.401396
O O1 0.078333 0.300480 0.766154
O O2 0.070507 0.184427 0.019493
O O3 0.134799 0.361100 0.037021
O O4 0.000000 0.353107 0.000000
O O5 0.498787 0.139221 0.717228
O O6 0.638694 0.122394 0.731774
O O7 0.557725 0.000000 0.890315
O O8 0.750000 0.614704 0.832686
O O9 0.855315 0.500000 0.740908
O O10 0.850171 0.689081 0.657100
O O11 0.878096 0.822131 0.440735
O O12 0.000000 0.726264 0.500000
O O13 0.250000 0.179472 0.433001
#
# Coordination Sequence:
#
# PCOD8214899 Si02
#       5
#     8   8   8   8   8
#     4   9  18  32  51  74  97 124 162 203 239 279
#     4   9  18  33  52  71  95 129 166 200 236 284
#     4   9  18  34  54  73  95 127 164 198 237 286
#     4   9  18  31  48  71 100 128 157 192 240 289
#     4   9  18  32  50  72  99 129 160 198 242 287
#
# _framework density 18.558109000000002
#
# number of rings (size 3 to 8) (size 9 to 14) (size 15 to 20)
#    0.000    3.000    0.000    1.200    0.000    8.800 
#    0.000    1.000    0.000   24.000    0.000    5.600 
#    0.000    0.000    0.000    0.000    0.000    0.000 
#
# Total GULP energy -495558.440547 kJ/mol
# GULP energy per Si atom -12388.961014 kJ/mol
# Density = 1.851587 g / cm^3
# Si number density = 18.558109 Si / 1000 Ang^3
#
#
#
# Elastic Constant Matrix: (Units=GPa)
#
#
# Indices 1 2 3 4 5 6 
#
# 1 94.7182 14.7248 33.9833 0.0000 0.0000 0.0000
# 2 14.7248 80.0379 5.1222 0.0000 0.0000 0.0000
# 3 33.9833 5.1222 93.0541 0.0000 0.0000 0.0000
# 4 0.0000 0.0000 0.0000 7.5521 0.0000 0.0000
# 5 0.0000 0.0000 0.0000 0.0000 29.8206 0.0000
# 6 0.0000 0.0000 0.0000 0.0000 0.0000 17.5021
#
#
#
# Elastic Compliance Matrix: (Units=1/GPa)
#
#
# Indices 1 2 3 4 5 6 
#
# 1 0.012463 -0.002009 -0.004441 0.000000 0.000000 0.000000
# 2 -0.002009 0.012862 0.000026 0.000000 0.000000 0.000000
# 3 -0.004441 0.000026 0.012367 0.000000 0.000000 0.000000
# 4 0.000000 0.000000 0.000000 0.132413 0.000000 0.000000
# 5 0.000000 0.000000 0.000000 0.000000 0.033534 0.000000
# 6 0.000000 0.000000 0.000000 0.000000 0.000000 0.057136
#
#
# Mechanical properties :
#
#
# Convention : Reuss Voigt Hill
#
# Bulk Modulus (GPa) = 40.25134 41.71898 40.98516
# Shear Modulus (GPa) = 17.73648 25.24030 21.48839
#
# Velocity S-wave (km/s) = 3.09484 3.69191 3.40648
# Velocity P-wave (km/s) = 5.87428 6.37986 6.13228
#
# Compressibility (1/GPa) = 0.02484389
#
# Stress axis : x y z
#
# Youngs Moduli (GPa) = 80.23584 77.74850 80.86114
#
# Poissons Ratio (x) = 0.15617 0.35910
# Poissons Ratio (y) = 0.16117 -0.00207
# Poissons Ratio (z) = 0.35633 -0.00199
#
# Static dielectric constant tensor:
#      x y z
#    x 3.548770 0.000000 0.000000 
#    y 0.000000 3.251550 0.000000 
#    z 0.000000 0.000000 3.470660 
# 
# 
# High freq. dielectric constant tensor:
#      x y z
#    x 1.728470 0.000000 0.000000 
#    y 0.000000 1.683260 0.000000 
#    z 0.000000 0.000000 1.716210 
# 
# From -- ./inp_files/9428.got.cif
#   From: 2010.03.12/outbox.cif.g09.slc.cpg/sg51_5_cif.got.tgz:9428.got - 2010.04.16 13:43:02.
