data_PCOD8214092
_publ_section_title
;
Structure prediction by ZEFSAII (Michael W. Deem and Ramdas Pophale) SiO2 
 PCOD8214092
Probable space group: P M M A
;
_chemical_formula_sum "Si O2"
_cell_formula_units_Z 48
_cell_length_a 16.532389
_cell_length_b 8.742696
_cell_length_c 15.715986
_cell_angle_alpha 90.000000
_cell_angle_beta 90.000000
_cell_angle_gamma 90.000000
_cell_volume 2271.551702
_symmetry_space_group_name_H-M "P M M A"
_symmetry_group_IT_number 51
_symmetry_cell_setting 'orthorhombic'
loop_
_space_group_symop_operation_xyz
x,y,z
1/2-x,-y,z
1/2+x,-y,-z
-x,y,-z
-x,-y,-z
1/2+x,y,-z
1/2-x,y,z
x,-y,z
loop_
_atom_site_type_symbol
_atom_site_label
_atom_site_fract_x
_atom_site_fract_y
_atom_site_fract_z
Si Si1 0.250000 0.319242 0.231456
Si Si2 0.250000 0.317956 0.421987
Si Si3 0.092924 0.319979 0.132438
Si Si4 0.843090 0.176420 0.028266
Si Si5 0.072123 0.319261 0.441476
Si Si6 0.337050 0.180530 0.782372
Si Si7 0.496923 0.178445 0.277070
O O1 0.250000 0.500000 0.236533
O O2 0.250000 0.250304 0.326587
O O3 0.172565 0.261037 0.180872
O O4 0.250000 0.500000 0.419323
O O5 0.164405 0.263343 0.466111
O O6 0.078240 0.500000 0.140222
O O7 0.022401 0.228053 0.180484
O O8 0.098662 0.273042 0.033873
O O9 0.750000 0.198436 0.000565
O O10 0.855158 0.245070 0.123047
O O11 0.868938 0.000000 0.022180
O O12 0.068766 0.500000 0.448920
O O13 0.054809 0.274406 0.344258
O O14 0.000000 0.246688 0.500000
O O15 0.250000 0.243779 0.748766
O O16 0.407313 0.220473 0.714524
O O17 0.331170 0.000000 0.794504
O O18 0.480672 0.000000 0.291998
#
# Coordination Sequence:
#
# PCOD8214092 Si02
#       7
#     4   4   8   8   8   8   8
#     4   9  16  28  50  74 103 144 183 213 258 330
#     4   9  16  34  60  82 107 148 183 209 264 336
#     4  11  20  32  51  78 112 148 185 225 280 333
#     4   9  17  31  52  77 104 140 192 240 271 317
#     4  10  21  39  62  86 115 148 181 221 276 341
#     4   8  17  36  57  74 102 149 193 228 277 337
#     4  11  22  36  57  83 110 141 183 234 280 326
#
# _framework density 21.130931
#
# number of rings (size 3 to 8) (size 9 to 14) (size 15 to 20)
#    0.000    2.333    2.500    2.000    0.000    1.000 
#    1.500    6.250    0.000    3.500    0.000    0.000 
#    0.000    0.000    0.000    0.000    0.000    0.000 
#
# Total GULP energy -594746.044331 kJ/mol
# GULP energy per Si atom -12390.542590 kJ/mol
# Density = 2.108284 g / cm^3
# Si number density = 21.130931 Si / 1000 Ang^3
#
#
#
# Elastic Constant Matrix: (Units=GPa)
#
#
# Indices 1 2 3 4 5 6 
#
# 1 151.7193 18.3409 34.1451 0.0000 0.0000 0.0000
# 2 18.3409 21.1705 5.3855 0.0000 0.0000 0.0000
# 3 34.1451 5.3855 36.8489 0.0000 0.0000 0.0000
# 4 0.0000 0.0000 0.0000 21.4855 0.0000 0.0000
# 5 0.0000 0.0000 0.0000 0.0000 32.3364 0.0000
# 6 0.0000 0.0000 0.0000 0.0000 0.0000 18.3206
#
#
#
# Elastic Compliance Matrix: (Units=1/GPa)
#
#
# Indices 1 2 3 4 5 6 
#
# 1 0.008982 -0.005883 -0.007463 0.000000 0.000000 0.000000
# 2 -0.005883 0.052913 -0.002282 0.000000 0.000000 0.000000
# 3 -0.007463 -0.002282 0.034387 0.000000 0.000000 0.000000
# 4 0.000000 0.000000 0.000000 0.046543 0.000000 0.000000
# 5 0.000000 0.000000 0.000000 0.000000 0.030925 0.000000
# 6 0.000000 0.000000 0.000000 0.000000 0.000000 0.054583
#
#
# Mechanical properties :
#
#
# Convention : Reuss Voigt Hill
#
# Bulk Modulus (GPa) = 15.37861 36.16464 25.77162
# Shear Modulus (GPa) = 17.77692 24.55300 21.16496
#
# Velocity S-wave (km/s) = 2.90362 3.41243 3.16826
# Velocity P-wave (km/s) = 4.30522 5.71646 5.06028
#
# Compressibility (1/GPa) = 0.06502538
#
# Stress axis : x y z
#
# Youngs Moduli (GPa) = 111.33553 18.89905 29.08097
#
# Poissons Ratio (x) = 0.11118 0.21703
# Poissons Ratio (y) = 0.65497 0.06637
# Poissons Ratio (z) = 0.83090 0.04313
#
# Static dielectric constant tensor:
#      x y z
#    x 4.542010 0.000000 0.000000 
#    y 0.000000 3.254580 0.000000 
#    z 0.000000 0.000000 3.616920 
# 
# 
# High freq. dielectric constant tensor:
#      x y z
#    x 1.848460 0.000000 0.000000 
#    y 0.000000 1.781880 0.000000 
#    z 0.000000 0.000000 1.805420 
# 
# From -- ./inp_files/24846.got.cif
#   From: 2010.03.12/outbox.cif.g09.slc.cpg/sg51_13_cif.got.tgz:24846.got - 2010.04.16 13:43:02.
