data_PCOD8214410
_publ_section_title
;
Structure prediction by ZEFSAII (Michael W. Deem and Ramdas Pophale) SiO2 
 PCOD8214410
Probable space group: P M M A
;
_chemical_formula_sum "Si O2"
_cell_formula_units_Z 38
_cell_length_a 16.050893
_cell_length_b 11.643203
_cell_length_c 9.250322
_cell_angle_alpha 90.000000
_cell_angle_beta 90.000000
_cell_angle_gamma 90.000000
_cell_volume 1728.735378
_symmetry_space_group_name_H-M "P M M A"
_symmetry_group_IT_number 51
_symmetry_cell_setting 'orthorhombic'
loop_
_space_group_symop_operation_xyz
x,y,z
1/2-x,-y,z
1/2+x,-y,-z
-x,y,-z
-x,-y,-z
1/2+x,y,-z
1/2-x,y,z
x,-y,z
loop_
_atom_site_type_symbol
_atom_site_label
_atom_site_fract_x
_atom_site_fract_y
_atom_site_fract_z
Si Si1 0.000000 0.795950 0.500000
Si Si2 0.750000 0.368015 0.464648
Si Si3 0.250000 0.756790 0.840120
Si Si4 0.750000 0.000000 0.261781
Si Si5 0.403124 0.367241 0.324946
Si Si6 0.845393 0.000000 0.839252
Si Si7 0.597066 0.241309 0.957953
Si Si8 0.881315 0.000000 0.502703
O O1 0.982521 0.712032 0.635581
O O2 0.925168 0.880598 0.467637
O O3 0.750000 0.500000 0.416243
O O4 0.750000 0.291500 0.321882
O O5 0.669698 0.339280 0.561125
O O6 0.162867 0.722436 0.917494
O O7 0.250000 0.893530 0.844916
O O8 0.824430 0.000000 0.368366
O O9 0.429001 0.500000 0.328932
O O10 0.375949 0.331382 0.165440
O O11 0.750000 0.000000 0.888321
O O12 0.846735 0.000000 0.664726
O O13 0.892077 0.111173 0.901633
O O14 0.500000 0.259255 0.000000
#
# Coordination Sequence:
#
# PCOD8214410 Si02
#       8
#     4   4   4   2   8   4   8   4
#     4  11  23  40  66 110 135 177 230 296 354 411
#     4  10  25  46  76 102 134 189 240 304 359 411
#     4  12  27  46  71 105 154 179 238 302 362 429
#     4  12  26  40  68 110 140 174 230 298 370 420
#     4  11  25  47  73 100 140 188 243 295 356 424
#     4  12  23  46  72 100 140 193 235 289 359 435
#     4  12  28  46  72 105 146 196 235 292 361 442
#     4  11  24  39  74 104 137 182 237 294 355 433
#
# _framework density 21.981387000000002
#
# number of rings (size 3 to 8) (size 9 to 14) (size 15 to 20)
#    0.000    0.632    3.684    3.158    5.895    1.263 
#    0.000    0.000    0.000    0.000    0.000    0.000 
#    0.000    0.000    0.000    0.000    0.000    0.000 
#
# Total GULP energy -470960.492120 kJ/mol
# GULP energy per Si atom -12393.697161 kJ/mol
# Density = 2.193136 g / cm^3
# Si number density = 21.981387 Si / 1000 Ang^3
#
#
#
# Elastic Constant Matrix: (Units=GPa)
#
#
# Indices 1 2 3 4 5 6 
#
# 1 120.6467 46.2003 58.4171 0.0000 0.0000 0.0000
# 2 46.2003 151.1856 54.4953 0.0000 0.0000 0.0000
# 3 58.4171 54.4953 135.8702 0.0000 0.0000 0.0000
# 4 0.0000 0.0000 0.0000 28.5442 0.0000 0.0000
# 5 0.0000 0.0000 0.0000 0.0000 6.8564 0.0000
# 6 0.0000 0.0000 0.0000 0.0000 0.0000 26.0007
#
#
#
# Elastic Compliance Matrix: (Units=1/GPa)
#
#
# Indices 1 2 3 4 5 6 
#
# 1 0.010926 -0.001924 -0.003926 0.000000 0.000000 0.000000
# 2 -0.001924 0.008071 -0.002410 0.000000 0.000000 0.000000
# 3 -0.003926 -0.002410 0.010015 0.000000 0.000000 0.000000
# 4 0.000000 0.000000 0.000000 0.035033 0.000000 0.000000
# 5 0.000000 0.000000 0.000000 0.000000 0.145849 0.000000
# 6 0.000000 0.000000 0.000000 0.000000 0.000000 0.038460
#
#
# Mechanical properties :
#
#
# Convention : Reuss Voigt Hill
#
# Bulk Modulus (GPa) = 80.05076 80.65866 80.35471
# Shear Modulus (GPa) = 18.58465 28.85292 23.71878
#
# Velocity S-wave (km/s) = 2.91086 3.62692 3.28844
# Velocity P-wave (km/s) = 6.91332 7.36975 7.14518
#
# Compressibility (1/GPa) = 0.01249207
#
# Stress axis : x y z
#
# Youngs Moduli (GPa) = 91.52136 123.90108 99.85378
#
# Poissons Ratio (x) = 0.23835 0.39205
# Poissons Ratio (y) = 0.17606 0.24065
# Poissons Ratio (z) = 0.35933 0.29860
#
# Static dielectric constant tensor:
#      x y z
#    x 4.058440 0.000000 0.000000 
#    y 0.000000 4.221210 0.000000 
#    z 0.000000 0.000000 4.021370 
# 
# 
# High freq. dielectric constant tensor:
#      x y z
#    x 1.869330 0.000000 0.000000 
#    y 0.000000 1.875700 0.000000 
#    z 0.000000 0.000000 1.875670 
# 
# From -- ./inp_files/9356.got.cif
#   From: 2010.03.12/outbox.cif.g09.slc.cpg/sg51_5_cif.got.tgz:9356.got - 2010.04.16 13:43:02.
