data_PCOD8214481
_publ_section_title
;
Structure prediction by ZEFSAII (Michael W. Deem and Ramdas Pophale) SiO2 
 PCOD8214481
Probable space group: P M M A
;
_chemical_formula_sum "Si O2"
_cell_formula_units_Z 64
_cell_length_a 9.033195
_cell_length_b 18.362969
_cell_length_c 26.537922
_cell_angle_alpha 90.000000
_cell_angle_beta 90.000000
_cell_angle_gamma 90.000000
_cell_volume 4402.011774
_symmetry_space_group_name_H-M "P M M A"
_symmetry_group_IT_number 51
_symmetry_cell_setting 'orthorhombic'
loop_
_space_group_symop_operation_xyz
x,y,z
1/2-x,-y,z
1/2+x,-y,-z
-x,y,-z
-x,-y,-z
1/2+x,y,-z
1/2-x,y,z
x,-y,z
loop_
_atom_site_type_symbol
_atom_site_label
_atom_site_fract_x
_atom_site_fract_y
_atom_site_fract_z
Si Si1 0.083373 0.293980 0.099443
Si Si2 0.575896 0.584102 0.350807
Si Si3 0.924052 0.663726 0.251694
Si Si4 0.926735 0.835985 0.051435
Si Si5 0.424170 0.583715 0.849176
Si Si6 0.086677 0.212452 0.205121
Si Si7 0.576947 0.083536 0.858770
Si Si8 0.416891 0.413261 0.450995
O O1 0.250000 0.303194 0.078066
O O2 0.085986 0.254786 0.152758
O O3 0.986116 0.245729 0.061408
O O4 0.007797 0.372892 0.106421
O O5 0.750000 0.594081 0.358237
O O6 0.535708 0.500000 0.341154
O O7 0.513992 0.629658 0.303369
O O8 0.497130 0.614974 0.400649
O O9 0.750000 0.667091 0.254366
O O10 0.975610 0.612553 0.205604
O O11 0.981303 0.746556 0.244763
O O12 0.750000 0.835238 0.047569
O O13 0.976717 0.892048 0.094545
O O14 0.000000 0.864741 0.000000
O O15 0.250000 0.595357 0.856174
O O16 0.470439 0.500000 0.853559
O O17 0.250000 0.211758 0.229116
O O18 0.034356 0.130201 0.191449
O O19 0.750000 0.097345 0.872256
O O20 0.544207 0.000000 0.846077
O O21 0.500000 0.381551 0.500000
O O22 0.250000 0.383662 0.451415
O O23 0.421103 0.500000 0.452317
#
# Coordination Sequence:
#
# PCOD8214481 Si02
#       8
#     8   8   8   8   8   8   8   8
#     4   9  17  30  45  61  81 105 134 163 193 232
#     4   9  16  25  36  51  73 101 134 172 210 243
#     4   9  16  25  38  56  79 107 135 164 199 238
#     4  11  21  33  49  67  86 107 131 158 191 230
#     4   9  16  26  41  61  83 106 133 165 201 240
#     4   8  15  27  42  59  79 104 131 159 190 226
#     4   9  18  33  50  67  88 111 134 160 189 223
#     4   9  16  25  36  49  66  92 128 169 211 251
#
# _framework density 14.538805999999999
#
# number of rings (size 3 to 8) (size 9 to 14) (size 15 to 20)
#    0.000    2.875    0.000    3.000    0.000    7.250 
#    0.000    0.000    0.000    2.625    0.000    0.000 
#    0.000    0.000    0.000    0.000    0.000    0.625 
#
# Total GULP energy -793363.953210 kJ/mol
# GULP energy per Si atom -12396.311769 kJ/mol
# Density = 1.450572 g / cm^3
# Si number density = 14.538806 Si / 1000 Ang^3
#
#
#
# Elastic Constant Matrix: (Units=GPa)
#
#
# Indices 1 2 3 4 5 6 
#
# 1 64.9545 30.7438 28.1655 0.0000 0.0000 0.0000
# 2 30.7438 89.6525 33.2414 0.0000 0.0000 0.0000
# 3 28.1655 33.2414 58.0066 0.0000 0.0000 0.0000
# 4 0.0000 0.0000 0.0000 11.5414 0.0000 0.0000
# 5 0.0000 0.0000 0.0000 0.0000 21.7910 0.0000
# 6 0.0000 0.0000 0.0000 0.0000 0.0000 19.6991
#
#
#
# Elastic Compliance Matrix: (Units=1/GPa)
#
#
# Indices 1 2 3 4 5 6 
#
# 1 0.020722 -0.004286 -0.007605 0.000000 0.000000 0.000000
# 2 -0.004286 0.015050 -0.006544 0.000000 0.000000 0.000000
# 3 -0.007605 -0.006544 0.024682 0.000000 0.000000 0.000000
# 4 0.000000 0.000000 0.000000 0.086645 0.000000 0.000000
# 5 0.000000 0.000000 0.000000 0.000000 0.045890 0.000000
# 6 0.000000 0.000000 0.000000 0.000000 0.000000 0.050764
#
#
# Mechanical properties :
#
#
# Convention : Reuss Voigt Hill
#
# Bulk Modulus (GPa) = 42.40151 44.10167 43.25159
# Shear Modulus (GPa) = 17.33194 18.63718 17.98456
#
# Velocity S-wave (km/s) = 3.45645 3.58424 3.52092
# Velocity P-wave (km/s) = 6.71990 6.89410 6.80756
#
# Compressibility (1/GPa) = 0.02358406
#
# Stress axis : x y z
#
# Youngs Moduli (GPa) = 48.25813 66.44444 40.51509
#
# Poissons Ratio (x) = 0.28478 0.30814
# Poissons Ratio (y) = 0.20684 0.26511
# Poissons Ratio (z) = 0.36703 0.43478
#
# Static dielectric constant tensor:
#      x y z
#    x 2.901030 0.000000 0.000000 
#    y 0.000000 2.809450 0.000000 
#    z 0.000000 0.000000 2.778040 
# 
# 
# High freq. dielectric constant tensor:
#      x y z
#    x 1.561870 0.000000 0.000000 
#    y 0.000000 1.527040 0.000000 
#    z 0.000000 0.000000 1.528760 
# 
# From -- ./inp_files/36418.got.cif
#   From: 2010.03.12/outbox.cif.g09.slc.cpg/sg51_19_cif.got.tgz:36418.got - 2010.04.16 13:43:02.
