data_PCOD8214553
_publ_section_title
;
Structure prediction by ZEFSAII (Michael W. Deem and Ramdas Pophale) SiO2 
 PCOD8214553
Probable space group: P M M A
;
_chemical_formula_sum "Si O2"
_cell_formula_units_Z 56
_cell_length_a 9.077133
_cell_length_b 13.721217
_cell_length_c 29.607235
_cell_angle_alpha 90.000000
_cell_angle_beta 90.000000
_cell_angle_gamma 90.000000
_cell_volume 3687.560739
_symmetry_space_group_name_H-M "P M M A"
_symmetry_group_IT_number 51
_symmetry_cell_setting 'orthorhombic'
loop_
_space_group_symop_operation_xyz
x,y,z
1/2-x,-y,z
1/2+x,-y,-z
-x,y,-z
-x,-y,-z
1/2+x,y,-z
1/2-x,y,z
x,-y,z
loop_
_atom_site_type_symbol
_atom_site_label
_atom_site_fract_x
_atom_site_fract_y
_atom_site_fract_z
Si Si1 0.425585 0.610093 0.763559
Si Si2 0.582904 0.615733 0.042755
Si Si3 0.425044 0.214189 0.546217
Si Si4 0.078929 0.611465 0.409529
Si Si5 0.086777 0.384418 0.860593
Si Si6 0.418118 0.290777 0.316398
Si Si7 0.080511 0.110583 0.374309
O O1 0.250000 0.612234 0.765114
O O2 0.480480 0.500000 0.752737
O O3 0.489227 0.646135 0.812856
O O4 0.480442 0.684305 0.725843
O O5 0.750000 0.652614 0.040766
O O6 0.576572 0.500000 0.038658
O O7 0.509866 0.647252 0.091623
O O8 0.500000 0.663935 0.000000
O O9 0.500000 0.179486 0.500000
O O10 0.250000 0.212898 0.541516
O O11 0.479030 0.323269 0.557850
O O12 0.474975 0.138161 0.584389
O O13 0.250000 0.632896 0.420223
O O14 0.036840 0.500000 0.418657
O O15 0.044795 0.636637 0.357556
O O16 0.250000 0.339159 0.861885
O O17 0.099414 0.500000 0.859447
O O18 0.250000 0.303221 0.301117
O O19 0.452593 0.179937 0.331564
O O20 0.250000 0.126030 0.389820
O O21 0.049423 0.000000 0.359358
#
# Coordination Sequence:
#
# PCOD8214553 Si02
#       7
#     8   8   8   8   8   8   8
#     4   9  16  25  38  56  79 109 141 167 193 232
#     4   8  12  18  28  40  56  82 119 163 204 235
#     4  11  22  35  51  71  94 115 137 166 199 237
#     4   9  18  33  50  66  88 118 147 172 199 234
#     4   7  11  20  31  43  63  94 130 163 194 230
#     4   9  17  29  45  65  85 104 129 163 203 239
#     4   9  19  37  56  69  84 108 136 165 199 242
#
# _framework density 15.18619
#
# number of rings (size 3 to 8) (size 9 to 14) (size 15 to 20)
#    0.000    3.143    0.000    4.286    0.000    4.286 
#    0.000    0.714    0.000    2.571    0.000    0.000 
#    0.000    0.000    0.000    0.000    0.000    0.714 
#
# Total GULP energy -693767.805817 kJ/mol
# GULP energy per Si atom -12388.710818 kJ/mol
# Density = 1.515163 g / cm^3
# Si number density = 15.186190 Si / 1000 Ang^3
#
#
#
# Elastic Constant Matrix: (Units=GPa)
#
#
# Indices 1 2 3 4 5 6 
#
# 1 58.0632 20.8651 44.1251 0.0000 0.0000 0.0000
# 2 20.8651 66.8291 30.7243 0.0000 0.0000 0.0000
# 3 44.1251 30.7243 123.9599 0.0000 0.0000 0.0000
# 4 0.0000 0.0000 0.0000 8.2865 0.0000 0.0000
# 5 0.0000 0.0000 0.0000 0.0000 23.4514 0.0000
# 6 0.0000 0.0000 0.0000 0.0000 0.0000 15.4786
#
#
#
# Elastic Compliance Matrix: (Units=1/GPa)
#
#
# Indices 1 2 3 4 5 6 
#
# 1 0.024575 -0.004120 -0.007727 0.000000 0.000000 0.000000
# 2 -0.004120 0.017579 -0.002890 0.000000 0.000000 0.000000
# 3 -0.007727 -0.002890 0.011534 0.000000 0.000000 0.000000
# 4 0.000000 0.000000 0.000000 0.120678 0.000000 0.000000
# 5 0.000000 0.000000 0.000000 0.000000 0.042641 0.000000
# 6 0.000000 0.000000 0.000000 0.000000 0.000000 0.064605
#
#
# Mechanical properties :
#
#
# Convention : Reuss Voigt Hill
#
# Bulk Modulus (GPa) = 41.29987 48.92012 45.11000
# Shear Modulus (GPa) = 15.66621 19.65250 17.65935
#
# Velocity S-wave (km/s) = 3.21535 3.60127 3.41377
# Velocity P-wave (km/s) = 6.40620 7.04100 6.73109
#
# Compressibility (1/GPa) = 0.02421315
#
# Stress axis : x y z
#
# Youngs Moduli (GPa) = 40.69165 56.88668 86.70130
#
# Poissons Ratio (x) = 0.23440 0.66990
# Poissons Ratio (y) = 0.16767 0.25059
# Poissons Ratio (z) = 0.31440 0.16442
#
# Static dielectric constant tensor:
#      x y z
#    x 2.781640 0.000000 0.000000 
#    y 0.000000 2.629380 0.000000 
#    z 0.000000 0.000000 3.270010 
# 
# 
# High freq. dielectric constant tensor:
#      x y z
#    x 1.565630 0.000000 0.000000 
#    y 0.000000 1.531440 0.000000 
#    z 0.000000 0.000000 1.590000 
# 
# From -- ./inp_files/37495.got.cif
#   From: 2010.03.12/outbox.cif.g09.slc.cpg/sg51_19_cif.got.tgz:37495.got - 2010.04.16 13:43:02.
