data_PCOD8214155
_publ_section_title
;
Structure prediction by ZEFSAII (Michael W. Deem and Ramdas Pophale) SiO2 
 PCOD8214155
Probable space group: P M M A
;
_chemical_formula_sum "Si O2"
_cell_formula_units_Z 48
_cell_length_a 16.183098
_cell_length_b 9.168506
_cell_length_c 15.770734
_cell_angle_alpha 90.000000
_cell_angle_beta 90.000000
_cell_angle_gamma 90.000000
_cell_volume 2339.979994
_symmetry_space_group_name_H-M "P M M A"
_symmetry_group_IT_number 51
_symmetry_cell_setting 'orthorhombic'
loop_
_space_group_symop_operation_xyz
x,y,z
1/2-x,-y,z
1/2+x,-y,-z
-x,y,-z
-x,-y,-z
1/2+x,y,-z
1/2-x,y,z
x,-y,z
loop_
_atom_site_type_symbol
_atom_site_label
_atom_site_fract_x
_atom_site_fract_y
_atom_site_fract_z
Si Si1 0.844058 0.831902 0.216198
Si Si2 0.989911 0.334283 0.280545
Si Si3 0.250000 0.171795 0.416920
Si Si4 0.250000 0.826810 0.225918
Si Si5 0.431482 0.173066 0.432841
Si Si6 0.607332 0.665994 0.868500
Si Si7 0.154421 0.167357 0.977521
O O1 0.750000 0.807653 0.244490
O O2 0.899245 0.736891 0.279835
O O3 0.856667 0.782072 0.119203
O O4 0.869349 0.000000 0.226503
O O5 0.983782 0.500000 0.312748
O O6 0.050164 0.246971 0.342955
O O7 0.022394 0.326229 0.183845
O O8 0.250000 0.233238 0.321666
O O9 0.337285 0.220056 0.461421
O O10 0.250000 0.000000 0.413094
O O11 0.330059 0.767911 0.180448
O O12 0.250000 0.000000 0.220954
O O13 0.500000 0.228016 0.500000
O O14 0.437238 0.000000 0.420621
O O15 0.639565 0.500000 0.874564
O O16 0.596760 0.731240 0.963208
O O17 0.250000 0.186158 0.005024
O O18 0.127057 0.000000 0.988343
#
# Coordination Sequence:
#
# PCOD8214155 Si02
#       7
#     8   8   4   4   8   8   8
#     4   9  20  40  62  82 108 149 204 252 291 342
#     4  11  24  39  57  84 121 155 189 237 294 359
#     4   9  18  35  61  91 116 149 192 237 295 350
#     4  11  19  31  55  81 112 151 194 241 285 344
#     4  10  21  40  65  91 121 154 195 246 294 348
#     4  11  22  33  50  82 119 154 193 237 290 350
#     4   9  18  33  54  80 110 149 198 248 292 339
#
# _framework density 20.512995
#
# number of rings (size 3 to 8) (size 9 to 14) (size 15 to 20)
#    0.000    2.000    2.500    2.250    0.000    4.000 
#    1.500    5.417    0.000    0.000    0.000    0.000 
#    0.000    0.000    0.000    0.000    0.000    0.000 
#
# Total GULP energy -595039.107700 kJ/mol
# GULP energy per Si atom -12396.648077 kJ/mol
# Density = 2.046631 g / cm^3
# Si number density = 20.512995 Si / 1000 Ang^3
#
#
#
# Elastic Constant Matrix: (Units=GPa)
#
#
# Indices 1 2 3 4 5 6 
#
# 1 122.0784 36.7177 38.7077 0.0000 0.0000 0.0000
# 2 36.7177 76.0428 21.1700 0.0000 0.0000 0.0000
# 3 38.7077 21.1700 44.7114 0.0000 0.0000 0.0000
# 4 0.0000 0.0000 0.0000 15.5088 0.0000 0.0000
# 5 0.0000 0.0000 0.0000 0.0000 29.7435 0.0000
# 6 0.0000 0.0000 0.0000 0.0000 0.0000 18.6402
#
#
#
# Elastic Compliance Matrix: (Units=1/GPa)
#
#
# Indices 1 2 3 4 5 6 
#
# 1 0.011984 -0.003338 -0.008794 0.000000 0.000000 0.000000
# 2 -0.003338 0.016077 -0.004722 0.000000 0.000000 0.000000
# 3 -0.008794 -0.004722 0.032215 0.000000 0.000000 0.000000
# 4 0.000000 0.000000 0.000000 0.064480 0.000000 0.000000
# 5 0.000000 0.000000 0.000000 0.000000 0.033621 0.000000
# 6 0.000000 0.000000 0.000000 0.000000 0.000000 0.053648
#
#
# Mechanical properties :
#
#
# Convention : Reuss Voigt Hill
#
# Bulk Modulus (GPa) = 37.64124 48.44706 43.04415
# Shear Modulus (GPa) = 19.63955 22.52765 21.08360
#
# Velocity S-wave (km/s) = 3.09758 3.31753 3.20944
# Velocity P-wave (km/s) = 5.58418 6.19222 5.89605
#
# Compressibility (1/GPa) = 0.02656660
#
# Stress axis : x y z
#
# Youngs Moduli (GPa) = 83.44541 62.20067 31.04159
#
# Poissons Ratio (x) = 0.20764 0.27298
# Poissons Ratio (y) = 0.27856 0.14658
# Poissons Ratio (z) = 0.73383 0.29372
#
# Static dielectric constant tensor:
#      x y z
#    x 3.892260 0.000000 0.000000 
#    y 0.000000 3.553760 0.000000 
#    z 0.000000 0.000000 3.586380 
# 
# 
# High freq. dielectric constant tensor:
#      x y z
#    x 1.804690 0.000000 0.000000 
#    y 0.000000 1.786510 0.000000 
#    z 0.000000 0.000000 1.784940 
# 
# From -- ./inp_files/29637.got.cif
#   From: 2010.03.12/outbox.cif.g09.slc.cpg/sg51_15_cif.got.tgz:29637.got - 2010.04.16 13:43:02.
