data_PCOD8214264
_publ_section_title
;
Structure prediction by ZEFSAII (Michael W. Deem and Ramdas Pophale) SiO2 
 PCOD8214264
Probable space group: P M M A
;
_chemical_formula_sum "Si O2"
_cell_formula_units_Z 64
_cell_length_a 31.230608
_cell_length_b 8.603454
_cell_length_c 12.046883
_cell_angle_alpha 90.000000
_cell_angle_beta 90.000000
_cell_angle_gamma 90.000000
_cell_volume 3236.890237
_symmetry_space_group_name_H-M "P M M A"
_symmetry_group_IT_number 51
_symmetry_cell_setting 'orthorhombic'
loop_
_space_group_symop_operation_xyz
x,y,z
1/2-x,-y,z
1/2+x,-y,-z
-x,y,-z
-x,-y,-z
1/2+x,y,-z
1/2-x,y,z
x,-y,z
loop_
_atom_site_type_symbol
_atom_site_label
_atom_site_fract_x
_atom_site_fract_y
_atom_site_fract_z
Si Si1 0.548799 0.816763 0.021662
Si Si2 0.202460 0.317571 0.985543
Si Si3 0.122045 0.320193 0.119840
Si Si4 0.397175 0.677544 0.365966
Si Si5 0.486879 0.820609 0.377153
Si Si6 0.630188 0.818186 0.415288
Si Si7 0.701467 0.821185 0.246646
Si Si8 0.560631 0.680510 0.255579
O O1 0.568587 0.735235 0.130188
O O2 0.549464 0.000000 0.039843
O O3 0.500000 0.759636 0.000000
O O4 0.579553 0.771039 0.919521
O O5 0.250000 0.245625 0.011490
O O6 0.205039 0.500000 0.001977
O O7 0.189068 0.280213 0.859829
O O8 0.165429 0.249543 0.065384
O O9 0.115950 0.500000 0.086333
O O10 0.128555 0.300545 0.251562
O O11 0.412620 0.500000 0.380355
O O12 0.436998 0.792951 0.362555
O O13 0.367502 0.724935 0.469357
O O14 0.500000 0.768949 0.500000
O O15 0.511509 0.715221 0.287501
O O16 0.497710 0.000000 0.354104
O O17 0.672426 0.767876 0.348865
O O18 0.588919 0.776233 0.342548
O O19 0.628818 0.000000 0.441847
O O20 0.750000 0.791840 0.283891
O O21 0.692947 0.000000 0.215365
O O22 0.571584 0.500000 0.265663
#
# Coordination Sequence:
#
# PCOD8214264 Si02
#       8
#     8   8   8   8   8   8   8   8
#     4  11  24  40  58  82 114 151 191 234 284 341
#     4   9  18  35  60  87 114 145 183 229 283 342
#     4  10  22  39  58  83 115 151 192 237 287 341
#     4  11  23  38  57  82 114 151 192 236 282 335
#     4  11  22  37  57  80 110 147 190 236 280 330
#     4  11  22  37  57  82 112 146 186 230 278 333
#     4   9  19  36  58  84 113 143 178 226 281 334
#     4  12  24  37  58  84 113 146 185 233 282 332
#
# _framework density 19.772062999999999
#
# number of rings (size 3 to 8) (size 9 to 14) (size 15 to 20)
#    0.000    1.500    1.250    4.125    0.000    8.000 
#    0.000    0.625    0.000    0.750    0.000    0.000 
#    0.000    0.000    0.000    0.000    0.000    0.000 
#
# Total GULP energy -793847.317038 kJ/mol
# GULP energy per Si atom -12403.864329 kJ/mol
# Density = 1.972706 g / cm^3
# Si number density = 19.772063 Si / 1000 Ang^3
#
#
#
# Elastic Constant Matrix: (Units=GPa)
#
#
# Indices 1 2 3 4 5 6 
#
# 1 117.1011 21.3047 59.0159 0.0000 0.0000 0.0000
# 2 21.3047 47.0224 26.9193 0.0000 0.0000 0.0000
# 3 59.0159 26.9193 127.1755 0.0000 0.0000 0.0000
# 4 0.0000 0.0000 0.0000 24.2052 0.0000 0.0000
# 5 0.0000 0.0000 0.0000 0.0000 35.7339 0.0000
# 6 0.0000 0.0000 0.0000 0.0000 0.0000 20.2964
#
#
#
# Elastic Compliance Matrix: (Units=1/GPa)
#
#
# Indices 1 2 3 4 5 6 
#
# 1 0.011385 -0.002428 -0.004769 0.000000 0.000000 0.000000
# 2 -0.002428 0.024717 -0.004105 0.000000 0.000000 0.000000
# 3 -0.004769 -0.004105 0.010945 0.000000 0.000000 0.000000
# 4 0.000000 0.000000 0.000000 0.041313 0.000000 0.000000
# 5 0.000000 0.000000 0.000000 0.000000 0.027985 0.000000
# 6 0.000000 0.000000 0.000000 0.000000 0.000000 0.049270
#
#
# Mechanical properties :
#
#
# Convention : Reuss Voigt Hill
#
# Bulk Modulus (GPa) = 40.91286 56.19767 48.55526
# Shear Modulus (GPa) = 25.46258 28.31771 26.89014
#
# Velocity S-wave (km/s) = 3.59249 3.78856 3.69183
# Velocity P-wave (km/s) = 6.15997 6.90087 6.54092
#
# Compressibility (1/GPa) = 0.02444219
#
# Stress axis : x y z
#
# Youngs Moduli (GPa) = 87.83534 40.45868 91.36374
#
# Poissons Ratio (x) = 0.09823 0.43574
# Poissons Ratio (y) = 0.21326 0.37506
# Poissons Ratio (z) = 0.41891 0.16609
#
# Static dielectric constant tensor:
#      x y z
#    x 3.735480 0.000000 0.000000 
#    y 0.000000 3.504960 0.000000 
#    z 0.000000 0.000000 3.728730 
# 
# 
# High freq. dielectric constant tensor:
#      x y z
#    x 1.765290 0.000000 0.000000 
#    y 0.000000 1.768280 0.000000 
#    z 0.000000 0.000000 1.773290 
# 
# From -- ./inp_files/19550.got.cif
#   From: 2010.03.12/outbox.cif.g09.slc.cpg/sg51_10_cif.got.tgz:19550.got - 2010.04.16 13:43:02.
