data_PCOD8214013
_publ_section_title
;
Structure prediction by ZEFSAII (Michael W. Deem and Ramdas Pophale) SiO2 
 PCOD8214013
Probable space group: P M M A
;
_chemical_formula_sum "Si O2"
_cell_formula_units_Z 28
_cell_length_a 8.999003
_cell_length_b 7.378101
_cell_length_c 20.119862
_cell_angle_alpha 90.000000
_cell_angle_beta 90.000000
_cell_angle_gamma 90.000000
_cell_volume 1335.869364
_symmetry_space_group_name_H-M "P M M A"
_symmetry_group_IT_number 51
_symmetry_cell_setting 'orthorhombic'
loop_
_space_group_symop_operation_xyz
x,y,z
1/2-x,-y,z
1/2+x,-y,-z
-x,y,-z
-x,-y,-z
1/2+x,y,-z
1/2-x,y,z
x,-y,z
loop_
_atom_site_type_symbol
_atom_site_label
_atom_site_fract_x
_atom_site_fract_y
_atom_site_fract_z
Si Si1 0.573035 0.000000 0.428461
Si Si2 0.077870 0.712656 0.338124
Si Si3 0.084449 0.715072 0.792548
Si Si4 0.575939 0.706481 0.063250
O O1 0.500000 0.000000 0.500000
O O2 0.519869 0.181169 0.391408
O O3 0.750000 0.000000 0.434399
O O4 0.250000 0.761586 0.347700
O O5 0.047432 0.500000 0.348483
O O6 0.029474 0.776992 0.264420
O O7 0.250000 0.786644 0.774563
O O8 0.089976 0.500000 0.798469
O O9 0.033704 0.794016 0.864756
O O10 0.750000 0.720565 0.052929
O O11 0.519698 0.500000 0.064135
O O12 0.500000 0.807251 0.000000
#
# Coordination Sequence:
#
# PCOD8214013 Si02
#       4
#     4   8   8   8
#     4  12  26  44  66  90 119 152 187 230 278 336
#     4  10  21  38  61  89 120 153 191 236 284 336
#     4   8  14  26  44  68 101 142 187 232 279 332
#     4   8  13  20  32  55  91 134 179 228 278 326
#
# _framework density 20.960135000000001
#
# number of rings (size 3 to 8) (size 9 to 14) (size 15 to 20)
#    0.000    2.857    0.000    3.857    0.000    3.429 
#    0.000    5.714    0.000    0.000    0.000    1.000 
#    0.000    0.000    0.000    0.000    0.000    0.000 
#
# Total GULP energy -346958.963599 kJ/mol
# GULP energy per Si atom -12391.391557 kJ/mol
# Density = 2.091243 g / cm^3
# Si number density = 20.960135 Si / 1000 Ang^3
#
#
#
# Elastic Constant Matrix: (Units=GPa)
#
#
# Indices 1 2 3 4 5 6 
#
# 1 126.8765 33.8227 89.6015 0.0000 0.0000 0.0000
# 2 33.8227 58.9528 40.5062 0.0000 0.0000 0.0000
# 3 89.6015 40.5062 199.1769 0.0000 0.0000 0.0000
# 4 0.0000 0.0000 0.0000 303.3313 0.0000 0.0000
# 5 0.0000 0.0000 0.0000 0.0000 45.9548 0.0000
# 6 0.0000 0.0000 0.0000 0.0000 0.0000 16.7778
#
#
#
# Elastic Compliance Matrix: (Units=1/GPa)
#
#
# Indices 1 2 3 4 5 6 
#
# 1 0.012229 -0.003762 -0.004736 0.000000 0.000000 0.000000
# 2 -0.003762 0.020875 -0.002553 0.000000 0.000000 0.000000
# 3 -0.004736 -0.002553 0.007671 0.000000 0.000000 0.000000
# 4 0.000000 0.000000 0.000000 0.003297 0.000000 0.000000
# 5 0.000000 0.000000 0.000000 0.000000 0.021761 0.000000
# 6 0.000000 0.000000 0.000000 0.000000 0.000000 0.059603
#
#
# Mechanical properties :
#
#
# Convention : Reuss Voigt Hill
#
# Bulk Modulus (GPa) = 53.55488 79.20743 66.38115
# Shear Modulus (GPa) = 32.51777 87.95118 60.23448
#
# Velocity S-wave (km/s) = 3.94307 6.48477 5.36657
# Velocity P-wave (km/s) = 6.80710 9.69233 8.37490
#
# Compressibility (1/GPa) = 0.01867244
#
# Stress axis : x y z
#
# Youngs Moduli (GPa) = 81.76958 47.90376 130.36780
#
# Poissons Ratio (x) = 0.18021 0.61748
# Poissons Ratio (y) = 0.30761 0.33283
# Poissons Ratio (z) = 0.38730 0.12230
#
# Static dielectric constant tensor:
#      x y z
#    x 3.723650 0.000000 0.000000 
#    y 0.000000 3.448180 0.000000 
#    z 0.000000 0.000000 4.282320 
# 
# 
# High freq. dielectric constant tensor:
#      x y z
#    x 1.809640 0.000000 0.000000 
#    y 0.000000 1.793580 0.000000 
#    z 0.000000 0.000000 1.835530 
# 
# From -- ./inp_files/31048.got.cif
#   From: 2010.03.12/outbox.cif.g09.slc.cpg/sg51_16_cif.got.tgz:31048.got - 2010.04.16 13:43:02.
