data_PCOD8214066
_publ_section_title
;
Structure prediction by ZEFSAII (Michael W. Deem and Ramdas Pophale) SiO2 
 PCOD8214066
Probable space group: P M M A
;
_chemical_formula_sum "Si O2"
_cell_formula_units_Z 52
_cell_length_a 10.114567
_cell_length_b 10.235450
_cell_length_c 28.535939
_cell_angle_alpha 90.000000
_cell_angle_beta 90.000000
_cell_angle_gamma 90.000000
_cell_volume 2954.244289
_symmetry_space_group_name_H-M "P M M A"
_symmetry_group_IT_number 51
_symmetry_cell_setting 'orthorhombic'
loop_
_space_group_symop_operation_xyz
x,y,z
1/2-x,-y,z
1/2+x,-y,-z
-x,y,-z
-x,-y,-z
1/2+x,y,-z
1/2-x,y,z
x,-y,z
loop_
_atom_site_type_symbol
_atom_site_label
_atom_site_fract_x
_atom_site_fract_y
_atom_site_fract_z
Si Si1 0.493881 0.257962 0.097354
Si Si2 0.750000 0.141685 0.940442
Si Si3 0.404173 0.349686 0.804802
Si Si4 0.750000 0.843765 0.044239
Si Si5 0.103020 0.845284 0.358238
Si Si6 0.902917 0.848139 0.278557
Si Si7 0.101761 0.155314 0.462429
Si Si8 0.101312 0.500000 0.041340
O O1 0.379538 0.150521 0.092305
O O2 0.519654 0.292554 0.150935
O O3 0.623652 0.213669 0.070449
O O4 0.421858 0.378018 0.073827
O O5 0.750000 0.000000 0.962544
O O6 0.750000 0.217537 0.991160
O O7 0.250000 0.346324 0.816445
O O8 0.447203 0.500000 0.793474
O O9 0.439111 0.250778 0.763016
O O10 0.750000 0.000000 0.049283
O O11 0.250000 0.795119 0.343519
O O12 0.066991 0.792395 0.410217
O O13 0.992267 0.798687 0.321716
O O14 0.104998 0.000000 0.360008
O O15 0.750000 0.833683 0.293213
O O16 0.932793 0.000000 0.264554
O O17 0.250000 0.198900 0.476282
O O18 0.000000 0.217012 0.500000
O O19 0.091076 0.000000 0.463000
O O20 0.250000 0.500000 0.021701
O O21 0.000000 0.500000 0.000000
#
# Coordination Sequence:
#
# PCOD8214066 Si02
#       8
#     8   4   8   4   8   8   8   4
#     4  12  23  40  61  83 111 142 177 215 263 315
#     4  11  24  41  57  83 117 144 171 213 260 309
#     4  10  21  39  58  79 107 138 173 215 269 321
#     4  11  24  41  63  87 113 148 181 211 256 319
#     4   8  14  26  42  63  95 132 169 211 260 310
#     4   9  18  32  52  75  97 127 174 222 258 303
#     4   8  13  20  32  54  88 130 170 206 247 299
#     4  12  26  40  62  88 112 140 178 218 255 312
#
# _framework density 17.601794999999999
#
# number of rings (size 3 to 8) (size 9 to 14) (size 15 to 20)
#    0.000    2.154    2.308    2.769    1.077    3.077 
#    1.385    3.077    0.000    0.000    0.000    0.000 
#    0.000    0.615    0.000    1.385    0.000    2.769 
#
# Total GULP energy -644339.479444 kJ/mol
# GULP energy per Si atom -12391.143835 kJ/mol
# Density = 1.756173 g / cm^3
# Si number density = 17.601795 Si / 1000 Ang^3
#
#
#
# Elastic Constant Matrix: (Units=GPa)
#
#
# Indices 1 2 3 4 5 6 
#
# 1 138.4276 34.1847 90.0635 0.0000 0.0000 0.0000
# 2 34.1847 56.9523 39.7113 0.0000 0.0000 0.0000
# 3 90.0635 39.7113 148.9202 0.0000 0.0000 0.0000
# 4 0.0000 0.0000 0.0000 -22.8478 0.0000 0.0000
# 5 0.0000 0.0000 0.0000 0.0000 34.2344 0.0000
# 6 0.0000 0.0000 0.0000 0.0000 0.0000 11.8024
#
#
#
# Elastic Compliance Matrix: (Units=1/GPa)
#
#
# Indices 1 2 3 4 5 6 
#
# 1 0.012236 -0.002683 -0.006684 0.000000 0.000000 0.000000
# 2 -0.002683 0.022158 -0.004286 0.000000 0.000000 0.000000
# 3 -0.006684 -0.004286 0.011900 0.000000 0.000000 0.000000
# 4 0.000000 0.000000 0.000000 -0.043768 0.000000 0.000000
# 5 0.000000 0.000000 0.000000 0.000000 0.029210 0.000000
# 6 0.000000 0.000000 0.000000 0.000000 0.000000 0.084728
#
#
# Mechanical properties :
#
#
# Convention : Reuss Voigt Hill
#
# Bulk Modulus (GPa) = 52.66845 74.69103 63.67974
# Shear Modulus (GPa) = 33.31120 16.66051 24.98585
#
# Velocity S-wave (km/s) = 4.35499 3.07990 3.77172
# Velocity P-wave (km/s) = 7.43472 7.42789 7.43131
#
# Compressibility (1/GPa) = 0.01898670
#
# Stress axis : x y z
#
# Youngs Moduli (GPa) = 81.72909 45.13129 84.03166
#
# Poissons Ratio (x) = 0.12111 0.56168
# Poissons Ratio (y) = 0.21932 0.36013
# Poissons Ratio (z) = 0.54629 0.19342
#
# Static dielectric constant tensor:
#      x y z
#    x 3.455710 0.000000 0.000000 
#    y 0.000000 3.100620 0.000000 
#    z 0.000000 0.000000 3.414020 
# 
# 
# High freq. dielectric constant tensor:
#      x y z
#    x 1.688530 0.000000 0.000000 
#    y 0.000000 1.651050 0.000000 
#    z 0.000000 0.000000 1.675740 
# 
# From -- ./inp_files/36268.got.cif
#   From: 2010.03.12/outbox.cif.g09.slc.cpg/sg51_19_cif.got.tgz:36268.got - 2010.04.16 13:43:02.
