data_PCOD8214501
_publ_section_title
;
Structure prediction by ZEFSAII (Michael W. Deem and Ramdas Pophale) SiO2 
 PCOD8214501
Probable space group: P M M A
;
_chemical_formula_sum "Si O2"
_cell_formula_units_Z 48
_cell_length_a 8.593480
_cell_length_b 31.558528
_cell_length_c 9.236700
_cell_angle_alpha 90.000000
_cell_angle_beta 90.000000
_cell_angle_gamma 90.000000
_cell_volume 2504.970680
_symmetry_space_group_name_H-M "P M M A"
_symmetry_group_IT_number 51
_symmetry_cell_setting 'orthorhombic'
loop_
_space_group_symop_operation_xyz
x,y,z
1/2-x,-y,z
1/2+x,-y,-z
-x,y,-z
-x,-y,-z
1/2+x,y,-z
1/2-x,y,z
x,-y,z
loop_
_atom_site_type_symbol
_atom_site_label
_atom_site_fract_x
_atom_site_fract_y
_atom_site_fract_z
Si Si1 0.434181 0.625052 0.159177
Si Si2 0.933749 0.779123 0.838504
Si Si3 0.066864 0.452754 0.347926
Si Si4 0.565858 0.701810 0.340104
Si Si5 0.566980 0.955196 0.159138
Si Si6 0.434388 0.135272 0.839298
O O1 0.250000 0.631345 0.157767
O O2 0.484099 0.579118 0.221001
O O3 0.509983 0.660170 0.259049
O O4 0.500000 0.629738 0.000000
O O5 0.750000 0.774536 0.843310
O O6 0.004575 0.742930 0.740641
O O7 0.982738 0.824281 0.765130
O O8 0.000000 0.775104 0.000000
O O9 0.250000 0.453355 0.364297
O O10 0.003356 0.500000 0.310937
O O11 0.000000 0.436368 0.500000
O O12 0.500000 0.701151 0.500000
O O13 0.750000 0.702845 0.344862
O O14 0.750000 0.954637 0.141849
O O15 0.520569 0.910345 0.237328
O O16 0.515597 0.000000 0.238263
O O17 0.500000 0.955683 0.000000
O O18 0.250000 0.143092 0.840850
O O19 0.500000 0.132814 0.000000
#
# Coordination Sequence:
#
# PCOD8214501 Si02
#       6
#     8   8   8   8   8   8
#     4  11  23  39  59  85 116 149 186 227 272 319
#     4  11  21  35  54  77 105 138 176 218 266 317
#     4   9  19  36  58  84 115 151 190 230 272 319
#     4  12  25  42  61  82 108 138 175 218 268 323
#     4   8  13  20  31  50  80 119 161 203 248 300
#     4   9  15  24  39  61  90 126 167 210 257 308
#
# _framework density 19.161899999999999
#
# number of rings (size 3 to 8) (size 9 to 14) (size 15 to 20)
#    0.000    2.000    0.000    6.000    0.000    3.667 
#    0.000    0.000    0.000    0.000    0.000    0.000 
#    0.000    0.667    0.000    1.833    0.000    8.500 
#
# Total GULP energy -594658.044027 kJ/mol
# GULP energy per Si atom -12388.709251 kJ/mol
# Density = 1.911829 g / cm^3
# Si number density = 19.161900 Si / 1000 Ang^3
#
#
#
# Elastic Constant Matrix: (Units=GPa)
#
#
# Indices 1 2 3 4 5 6 
#
# 1 101.8580 67.0015 39.5743 0.0000 0.0000 0.0000
# 2 67.0015 186.4258 69.0811 0.0000 0.0000 0.0000
# 3 39.5743 69.0811 86.8138 0.0000 0.0000 0.0000
# 4 0.0000 0.0000 0.0000 -85.5440 0.0000 0.0000
# 5 0.0000 0.0000 0.0000 0.0000 25.5502 0.0000
# 6 0.0000 0.0000 0.0000 0.0000 0.0000 32.0242
#
#
#
# Elastic Compliance Matrix: (Units=1/GPa)
#
#
# Indices 1 2 3 4 5 6 
#
# 1 0.013473 -0.003639 -0.003245 0.000000 0.000000 0.000000
# 2 -0.003639 0.008590 -0.005177 0.000000 0.000000 0.000000
# 3 -0.003245 -0.005177 0.017118 0.000000 0.000000 0.000000
# 4 0.000000 0.000000 0.000000 -0.011690 0.000000 0.000000
# 5 0.000000 0.000000 0.000000 0.000000 0.039139 0.000000
# 6 0.000000 0.000000 0.000000 0.000000 0.000000 0.031226
#
#
# Mechanical properties :
#
#
# Convention : Reuss Voigt Hill
#
# Bulk Modulus (GPa) = 66.41233 80.71239 73.56236
# Shear Modulus (GPa) = 39.37085 7.70214 23.53649
#
# Velocity S-wave (km/s) = 4.53773 2.00705 3.50851
# Velocity P-wave (km/s) = 7.88597 6.89809 7.40851
#
# Compressibility (1/GPa) = 0.01505745
#
# Stress axis : x y z
#
# Youngs Moduli (GPa) = 74.22525 116.41068 58.41945
#
# Poissons Ratio (x) = 0.42366 0.18960
# Poissons Ratio (y) = 0.27013 0.30241
# Poissons Ratio (z) = 0.24090 0.60261
#
# Static dielectric constant tensor:
#      x y z
#    x 3.299020 0.000000 0.000000 
#    y 0.000000 5.219720 0.000000 
#    z 0.000000 0.000000 3.104060 
# 
# 
# High freq. dielectric constant tensor:
#      x y z
#    x 1.756010 0.000000 0.000000 
#    y 0.000000 1.785140 0.000000 
#    z 0.000000 0.000000 1.690660 
# 
# From -- ./inp_files/6069.got.cif
#   From: 2010.03.12/outbox.cif.g09.slc.cpg/sg51_4_cif.got.tgz:6069.got - 2010.04.16 13:43:02.
