data_PCOD8214529
_publ_section_title
;
Structure prediction by ZEFSAII (Michael W. Deem and Ramdas Pophale) SiO2 
 PCOD8214529
Probable space group: P M M A
;
_chemical_formula_sum "Si O2"
_cell_formula_units_Z 48
_cell_length_a 14.788210
_cell_length_b 9.161677
_cell_length_c 19.638568
_cell_angle_alpha 90.000000
_cell_angle_beta 90.000000
_cell_angle_gamma 90.000000
_cell_volume 2660.727525
_symmetry_space_group_name_H-M "P M M A"
_symmetry_group_IT_number 51
_symmetry_cell_setting 'orthorhombic'
loop_
_space_group_symop_operation_xyz
x,y,z
1/2-x,-y,z
1/2+x,-y,-z
-x,y,-z
-x,-y,-z
1/2+x,y,-z
1/2-x,y,z
x,-y,z
loop_
_atom_site_type_symbol
_atom_site_label
_atom_site_fract_x
_atom_site_fract_y
_atom_site_fract_z
Si Si1 0.354888 0.166836 0.436192
Si Si2 0.443535 0.326131 0.935484
Si Si3 0.488363 0.327085 0.338302
Si Si4 0.438695 0.326253 0.188903
Si Si5 0.750000 0.673905 0.867863
Si Si6 0.250000 0.673738 0.978134
Si Si7 0.646479 0.831246 0.407298
O O1 0.250000 0.191583 0.419913
O O2 0.411710 0.273940 0.389594
O O3 0.375873 0.205179 0.514402
O O4 0.382820 0.000000 0.421231
O O5 0.445525 0.500000 0.936538
O O6 0.489037 0.266558 0.866255
O O7 0.339960 0.269121 0.939598
O O8 0.500000 0.266507 0.000000
O O9 0.490798 0.500000 0.340290
O O10 0.466000 0.267566 0.263028
O O11 0.586180 0.267620 0.358661
O O12 0.438116 0.500000 0.187607
O O13 0.338822 0.266658 0.170737
O O14 0.750000 0.500000 0.868810
O O15 0.750000 0.733931 0.944840
O O16 0.250000 0.500000 0.980112
O O17 0.750000 0.793851 0.390815
O O18 0.625808 0.000000 0.392732
#
# Coordination Sequence:
#
# PCOD8214529 Si02
#       7
#     8   8   8   8   4   4   8
#     4   9  19  36  57  78  98 127 172 218 252 290
#     4   9  14  23  37  55  80 116 166 206 234 281
#     4  11  22  32  47  76 111 141 163 196 255 316
#     4   9  18  28  38  59  95 132 160 192 242 303
#     4   9  14  24  40  56  81 124 169 200 234 287
#     4   9  14  20  38  58  72 110 169 216 240 267
#     4   9  19  38  60  75  92 128 176 218 253 293
#
# _framework density 18.040178000000001
#
# number of rings (size 3 to 8) (size 9 to 14) (size 15 to 20)
#    0.000    2.667    1.667    2.000    1.167    3.333 
#    1.500    1.667    0.000    0.000    0.000    0.000 
#    0.000    2.667    0.000    5.000    0.000    2.667 
#
# Total GULP energy -595117.735452 kJ/mol
# GULP energy per Si atom -12398.286155 kJ/mol
# Density = 1.799912 g / cm^3
# Si number density = 18.040178 Si / 1000 Ang^3
#
#
#
# Elastic Constant Matrix: (Units=GPa)
#
#
# Indices 1 2 3 4 5 6 
#
# 1 164.6780 32.7551 94.1985 0.0000 0.0000 0.0000
# 2 32.7551 32.8278 35.0648 0.0000 0.0000 0.0000
# 3 94.1985 35.0648 135.1995 0.0000 0.0000 0.0000
# 4 0.0000 0.0000 0.0000 -1.3454 0.0000 0.0000
# 5 0.0000 0.0000 0.0000 0.0000 20.3521 0.0000
# 6 0.0000 0.0000 0.0000 0.0000 0.0000 22.0605
#
#
#
# Elastic Compliance Matrix: (Units=1/GPa)
#
#
# Indices 1 2 3 4 5 6 
#
# 1 0.010403 -0.003649 -0.006302 0.000000 0.000000 0.000000
# 2 -0.003649 0.043414 -0.008718 0.000000 0.000000 0.000000
# 3 -0.006302 -0.008718 0.014048 0.000000 0.000000 0.000000
# 4 0.000000 0.000000 0.000000 -0.743282 0.000000 0.000000
# 5 0.000000 0.000000 0.000000 0.000000 0.049135 0.000000
# 6 0.000000 0.000000 0.000000 0.000000 0.000000 0.045330
#
#
# Mechanical properties :
#
#
# Convention : Reuss Voigt Hill
#
# Bulk Modulus (GPa) = 32.75556 72.97135 52.86346
# Shear Modulus (GPa) = -9.37314 19.59258 5.10972
#
# Velocity S-wave (km/s) = -2.28188 3.29911 1.68480
# Velocity P-wave (km/s) = 3.35467 7.41952 5.75774
#
# Compressibility (1/GPa) = 0.03052917
#
# Stress axis : x y z
#
# Youngs Moduli (GPa) = 96.12686 23.03395 71.18377
#
# Poissons Ratio (x) = 0.08404 0.44859
# Poissons Ratio (y) = 0.35073 0.62055
# Poissons Ratio (z) = 0.60577 0.20080
#
# Static dielectric constant tensor:
#      x y z
#    x 3.580740 0.000000 0.000000 
#    y 0.000000 2.748470 0.000000 
#    z 0.000000 0.000000 3.469390 
# 
# 
# High freq. dielectric constant tensor:
#      x y z
#    x 1.717560 0.000000 0.000000 
#    y 0.000000 1.638250 0.000000 
#    z 0.000000 0.000000 1.698150 
# 
# From -- ./inp_files/29650.got.cif
#   From: 2010.03.12/outbox.cif.g09.slc.cpg/sg51_15_cif.got.tgz:29650.got - 2010.04.16 13:43:02.
