data_PCOD8214845
_publ_section_title
;
Structure prediction by ZEFSAII (Michael W. Deem and Ramdas Pophale) SiO2 
 PCOD8214845
Probable space group: P M M A
;
_chemical_formula_sum "Si O2"
_cell_formula_units_Z 30
_cell_length_a 13.740445
_cell_length_b 20.608779
_cell_length_c 6.364003
_cell_angle_alpha 90.000000
_cell_angle_beta 90.000000
_cell_angle_gamma 90.000000
_cell_volume 1802.118877
_symmetry_space_group_name_H-M "P M M A"
_symmetry_group_IT_number 51
_symmetry_cell_setting 'orthorhombic'
loop_
_space_group_symop_operation_xyz
x,y,z
1/2-x,-y,z
1/2+x,-y,-z
-x,y,-z
-x,-y,-z
1/2+x,y,-z
1/2-x,y,z
x,-y,z
loop_
_atom_site_type_symbol
_atom_site_label
_atom_site_fract_x
_atom_site_fract_y
_atom_site_fract_z
Si Si1 0.250000 0.590106 0.255318
Si Si2 0.250000 0.076575 0.241800
Si Si3 0.750000 0.500000 0.124216
Si Si4 0.750000 0.834413 0.377957
Si Si5 0.750000 0.743177 0.757186
Si Si6 0.614831 0.500000 0.503714
Si Si7 0.885170 0.167171 0.998175
O O1 0.250000 0.666667 0.252630
O O2 0.154244 0.563826 0.375761
O O3 0.250000 0.564645 0.016933
O O4 0.250000 0.100445 0.482358
O O5 0.250000 0.000000 0.234611
O O6 0.154161 0.103771 0.124340
O O7 0.653058 0.500000 0.265369
O O8 0.750000 0.770228 0.520832
O O9 0.653010 0.833919 0.236685
O O10 0.654374 0.768592 0.880067
O O11 0.500000 0.500000 0.500000
O O12 0.000000 0.167372 0.000000
#
# Coordination Sequence:
#
# PCOD8214845 Si02
#       7
#     4   4   2   4   4   4   8
#     4   9  19  35  52  76 106 137 175 215 262 316
#     4   9  19  33  52  76 102 137 177 211 258 316
#     4   8  18  36  56  66 112 138 160 222 264 298
#     4   8  18  35  53  67 110 136 162 221 263 300
#     4   9  19  35  50  78 104 135 177 209 264 314
#     4   9  19  35  52  78 104 137 177 215 262 310
#     4   9  19  35  52  75 105 137 172 216 261 310
#
# _framework density 16.647071
#
# number of rings (size 3 to 8) (size 9 to 14) (size 15 to 20)
#    0.000    4.000    0.000    0.000    0.000   13.333 
#    9.600    1.333    0.000    0.000    0.000    0.000 
#    0.000    0.000    0.000    0.000    0.000    0.000 
#
# Total GULP energy -371867.949754 kJ/mol
# GULP energy per Si atom -12395.598325 kJ/mol
# Density = 1.660918 g / cm^3
# Si number density = 16.647071 Si / 1000 Ang^3
#
#
#
# Elastic Constant Matrix: (Units=GPa)
#
#
# Indices 1 2 3 4 5 6 
#
# 1 189.4135 57.4752 66.4463 0.0000 0.0000 0.0000
# 2 57.4752 187.9118 63.7853 0.0000 0.0000 0.0000
# 3 66.4463 63.7853 148.1692 0.0000 0.0000 0.0000
# 4 0.0000 0.0000 0.0000 13.4252 0.0000 0.0000
# 5 0.0000 0.0000 0.0000 0.0000 11.1698 0.0000
# 6 0.0000 0.0000 0.0000 0.0000 0.0000 13.5074
#
#
#
# Elastic Compliance Matrix: (Units=1/GPa)
#
#
# Indices 1 2 3 4 5 6 
#
# 1 0.006476 -0.001165 -0.002402 0.000000 0.000000 0.000000
# 2 -0.001165 0.006442 -0.002251 0.000000 0.000000 0.000000
# 3 -0.002402 -0.002251 0.008795 0.000000 0.000000 0.000000
# 4 0.000000 0.000000 0.000000 0.074487 0.000000 0.000000
# 5 0.000000 0.000000 0.000000 0.000000 0.089527 0.000000
# 6 0.000000 0.000000 0.000000 0.000000 0.000000 0.074034
#
#
# Mechanical properties :
#
#
# Convention : Reuss Voigt Hill
#
# Bulk Modulus (GPa) = 99.24141 100.10088 99.67115
# Shear Modulus (GPa) = 18.19797 30.13966 24.16882
#
# Velocity S-wave (km/s) = 3.30989 4.25962 3.81443
# Velocity P-wave (km/s) = 8.62273 9.18990 8.91083
#
# Compressibility (1/GPa) = 0.01007644
#
# Stress axis : x y z
#
# Youngs Moduli (GPa) = 154.42093 155.23085 113.69688
#
# Poissons Ratio (x) = 0.18088 0.27315
# Poissons Ratio (y) = 0.17993 0.25590
# Poissons Ratio (z) = 0.37099 0.34938
#
# Static dielectric constant tensor:
#      x y z
#    x 2.910770 0.000000 0.000000 
#    y 0.000000 2.912940 0.000000 
#    z 0.000000 0.000000 3.325320 
# 
# 
# High freq. dielectric constant tensor:
#      x y z
#    x 1.628110 0.000000 0.000000 
#    y 0.000000 1.628290 0.000000 
#    z 0.000000 0.000000 1.661460 
# 
# From -- ./inp_files/1382.got.cif
#   From: 2010.03.12/outbox.cif.g09.slc.cpg/sg51_1_cif.got.tgz:1382.got - 2010.04.16 13:43:02.
