data_PCOD8214700
_publ_section_title
;
Structure prediction by ZEFSAII (Michael W. Deem and Ramdas Pophale) SiO2 
 PCOD8214700
Probable space group: P M M A
;
_chemical_formula_sum "Si O2"
_cell_formula_units_Z 48
_cell_length_a 9.991572
_cell_length_b 9.400159
_cell_length_c 30.932558
_cell_angle_alpha 90.000000
_cell_angle_beta 90.000000
_cell_angle_gamma 90.000000
_cell_volume 2905.259017
_symmetry_space_group_name_H-M "P M M A"
_symmetry_group_IT_number 51
_symmetry_cell_setting 'orthorhombic'
loop_
_space_group_symop_operation_xyz
x,y,z
1/2-x,-y,z
1/2+x,-y,-z
-x,y,-z
-x,-y,-z
1/2+x,y,-z
1/2-x,y,z
x,-y,z
loop_
_atom_site_type_symbol
_atom_site_label
_atom_site_fract_x
_atom_site_fract_y
_atom_site_fract_z
Si Si1 0.399232 0.669679 0.796980
Si Si2 0.100300 0.330699 0.035503
Si Si3 0.095847 0.665200 0.539224
Si Si4 0.909270 0.658493 0.298438
Si Si5 0.399817 0.669248 0.131769
Si Si6 0.409029 0.840395 0.622455
O O1 0.250000 0.729144 0.806023
O O2 0.396293 0.500000 0.798901
O O3 0.450029 0.715885 0.749206
O O4 0.498437 0.734753 0.833045
O O5 0.250000 0.276174 0.025222
O O6 0.097140 0.500000 0.033269
O O7 0.056880 0.280972 0.083627
O O8 0.000000 0.264139 0.000000
O O9 0.250000 0.700247 0.527109
O O10 0.079913 0.500000 0.551126
O O11 0.045492 0.755010 0.580119
O O12 0.000000 0.709195 0.500000
O O13 0.750000 0.651371 0.301196
O O14 0.967584 0.500000 0.306350
O O15 0.968266 0.763310 0.334937
O O16 0.250000 0.723914 0.142060
O O17 0.402780 0.500000 0.134126
O O18 0.250000 0.842861 0.625174
O O19 0.467177 0.000000 0.620286
#
# Coordination Sequence:
#
# PCOD8214700 Si02
#       6
#     8   8   8   8   8   8
#     4   8  13  20  31  47  63  81 109 144 181 219
#     4   8  13  19  25  34  50  75 107 141 177 216
#     4   9  17  29  45  64  85 109 136 165 197 232
#     4   8  13  22  36  53  73  96 124 160 197 230
#     4   8  13  20  28  39  58  82 108 143 185 222
#     4   9  16  25  39  60  83 106 133 163 195 233
#
# _framework density 16.521764000000001
#
# number of rings (size 3 to 8) (size 9 to 14) (size 15 to 20)
#    0.000    3.667    0.000    2.500    0.000    3.000 
#    0.000    3.333    0.000    1.000    0.000    4.667 
#    0.000    0.000    0.000    0.000    0.000    0.833 
#
# Total GULP energy -594808.692694 kJ/mol
# GULP energy per Si atom -12391.847764 kJ/mol
# Density = 1.648416 g / cm^3
# Si number density = 16.521764 Si / 1000 Ang^3
#
#
#
# Elastic Constant Matrix: (Units=GPa)
#
#
# Indices 1 2 3 4 5 6 
#
# 1 64.8539 21.6776 76.8315 0.0000 0.0000 0.0000
# 2 21.6776 43.7511 49.1000 0.0000 0.0000 0.0000
# 3 76.8315 49.1000 179.6652 0.0000 0.0000 0.0000
# 4 0.0000 0.0000 0.0000 2.2136 0.0000 0.0000
# 5 0.0000 0.0000 0.0000 0.0000 26.6806 0.0000
# 6 0.0000 0.0000 0.0000 0.0000 0.0000 5.1626
#
#
#
# Elastic Compliance Matrix: (Units=1/GPa)
#
#
# Indices 1 2 3 4 5 6 
#
# 1 0.031267 -0.000702 -0.013179 0.000000 0.000000 0.000000
# 2 -0.000702 0.032983 -0.008714 0.000000 0.000000 0.000000
# 3 -0.013179 -0.008714 0.013583 0.000000 0.000000 0.000000
# 4 0.000000 0.000000 0.000000 0.451762 0.000000 0.000000
# 5 0.000000 0.000000 0.000000 0.000000 0.037480 0.000000
# 6 0.000000 0.000000 0.000000 0.000000 0.000000 0.193700
#
#
# Mechanical properties :
#
#
# Convention : Reuss Voigt Hill
#
# Bulk Modulus (GPa) = 30.63321 64.83203 47.73262
# Shear Modulus (GPa) = 6.12110 16.18876 11.15493
#
# Velocity S-wave (km/s) = 1.92689 3.13364 2.60121
# Velocity P-wave (km/s) = 4.85097 7.24006 6.16240
#
# Compressibility (1/GPa) = 0.03264431
#
# Stress axis : x y z
#
# Youngs Moduli (GPa) = 31.98258 30.31828 73.62028
#
# Poissons Ratio (x) = 0.02127 0.97026
# Poissons Ratio (y) = 0.02244 0.64152
# Poissons Ratio (z) = 0.42151 0.26419
#
# Static dielectric constant tensor:
#      x y z
#    x 2.996360 0.000000 0.000000 
#    y 0.000000 2.723380 0.000000 
#    z 0.000000 0.000000 3.467390 
# 
# 
# High freq. dielectric constant tensor:
#      x y z
#    x 1.598970 0.000000 0.000000 
#    y 0.000000 1.578960 0.000000 
#    z 0.000000 0.000000 1.651830 
# 
# From -- ./inp_files/35302.got.cif
#   From: 2010.03.12/outbox.cif.g09.slc.cpg/sg51_18_cif.got.tgz:35302.got - 2010.04.16 13:43:02.
