data_PCOD8214174
_publ_section_title
;
Structure prediction by ZEFSAII (Michael W. Deem and Ramdas Pophale) SiO2 
 PCOD8214174
Probable space group: P M M A
;
_chemical_formula_sum "Si O2"
_cell_formula_units_Z 48
_cell_length_a 14.128442
_cell_length_b 13.224510
_cell_length_c 14.366575
_cell_angle_alpha 90.000000
_cell_angle_beta 90.000000
_cell_angle_gamma 90.000000
_cell_volume 2684.275620
_symmetry_space_group_name_H-M "P M M A"
_symmetry_group_IT_number 51
_symmetry_cell_setting 'orthorhombic'
loop_
_space_group_symop_operation_xyz
x,y,z
1/2-x,-y,z
1/2+x,-y,-z
-x,y,-z
-x,-y,-z
1/2+x,y,-z
1/2-x,y,z
x,-y,z
loop_
_atom_site_type_symbol
_atom_site_label
_atom_site_fract_x
_atom_site_fract_y
_atom_site_fract_z
Si Si1 0.510993 0.384612 0.354012
Si Si2 0.861695 0.113925 0.066646
Si Si3 0.356034 0.118675 0.143914
Si Si4 0.532412 0.204684 0.231770
Si Si5 0.139945 0.309761 0.490783
Si Si6 0.358091 0.113504 0.600216
O O1 0.492545 0.500000 0.325758
O O2 0.537616 0.322114 0.261543
O O3 0.597771 0.379129 0.426771
O O4 0.415842 0.335014 0.396597
O O5 0.750000 0.120646 0.077876
O O6 0.909844 0.192421 0.136485
O O7 0.896510 0.000000 0.090655
O O8 0.890703 0.141662 0.961309
O O9 0.250000 0.160165 0.159703
O O10 0.423527 0.174342 0.216663
O O11 0.358790 0.000000 0.162344
O O12 0.575238 0.134229 0.312130
O O13 0.250000 0.335466 0.477413
O O14 0.122177 0.191751 0.516176
O O15 0.250000 0.126048 0.634719
O O16 0.377025 0.000000 0.562887
#
# Coordination Sequence:
#
# PCOD8214174 Si02
#       6
#     8   8   8   8   8   8
#     4  10  22  36  49  71  95 117 160 212 246 277
#     4   9  17  30  50  75 100 126 156 188 225 276
#     4   9  18  31  47  71 102 131 158 187 221 273
#     4  11  19  29  48  71  96 129 159 191 237 283
#     4   9  18  35  56  72  91 125 161 193 236 284
#     4   9  17  29  47  74 104 127 151 187 231 283
#
# _framework density 17.881919
#
# number of rings (size 3 to 8) (size 9 to 14) (size 15 to 20)
#    0.000    2.500    0.000    4.500    0.000    5.333 
#    0.000    8.333    0.000    4.000    0.000    2.333 
#    0.000    0.000    0.000    0.000    0.000    0.000 
#
# Total GULP energy -595190.346145 kJ/mol
# GULP energy per Si atom -12399.798878 kJ/mol
# Density = 1.784122 g / cm^3
# Si number density = 17.881919 Si / 1000 Ang^3
#
#
#
# Elastic Constant Matrix: (Units=GPa)
#
#
# Indices 1 2 3 4 5 6 
#
# 1 80.5930 39.3104 32.0651 0.0000 0.0000 0.0000
# 2 39.3104 118.7447 47.9263 0.0000 0.0000 0.0000
# 3 32.0651 47.9263 59.9309 0.0000 0.0000 0.0000
# 4 0.0000 0.0000 0.0000 17.9921 0.0000 0.0000
# 5 0.0000 0.0000 0.0000 0.0000 29.7683 0.0000
# 6 0.0000 0.0000 0.0000 0.0000 0.0000 18.0899
#
#
#
# Elastic Compliance Matrix: (Units=1/GPa)
#
#
# Indices 1 2 3 4 5 6 
#
# 1 0.016363 -0.002781 -0.006531 0.000000 0.000000 0.000000
# 2 -0.002781 0.012908 -0.008834 0.000000 0.000000 0.000000
# 3 -0.006531 -0.008834 0.027245 0.000000 0.000000 0.000000
# 4 0.000000 0.000000 0.000000 0.055580 0.000000 0.000000
# 5 0.000000 0.000000 0.000000 0.000000 0.033593 0.000000
# 6 0.000000 0.000000 0.000000 0.000000 0.000000 0.055280
#
#
# Mechanical properties :
#
#
# Convention : Reuss Voigt Hill
#
# Bulk Modulus (GPa) = 49.44797 55.31913 52.38355
# Shear Modulus (GPa) = 20.49178 22.50118 21.49648
#
# Velocity S-wave (km/s) = 3.38886 3.55113 3.47094
# Velocity P-wave (km/s) = 6.55935 6.91498 6.73951
#
# Compressibility (1/GPa) = 0.02022328
#
# Stress axis : x y z
#
# Youngs Moduli (GPa) = 61.11404 77.47339 36.70445
#
# Poissons Ratio (x) = 0.21546 0.23970
# Poissons Ratio (y) = 0.16996 0.32425
# Poissons Ratio (z) = 0.39912 0.68441
#
# Static dielectric constant tensor:
#      x y z
#    x 3.503430 0.000000 0.000000 
#    y 0.000000 3.137990 0.000000 
#    z 0.000000 0.000000 3.133070 
# 
# 
# High freq. dielectric constant tensor:
#      x y z
#    x 1.709240 0.000000 0.000000 
#    y 0.000000 1.662420 0.000000 
#    z 0.000000 0.000000 1.672200 
# 
# From -- ./inp_files/24005.got.cif
#   From: 2010.03.12/outbox.cif.g09.slc.cpg/sg51_13_cif.got.tgz:24005.got - 2010.04.16 13:43:02.
