data_PCOD8214840
_publ_section_title
;
Structure prediction by ZEFSAII (Michael W. Deem and Ramdas Pophale) SiO2 
 PCOD8214840
Probable space group: P M M A
;
_chemical_formula_sum "Si O2"
_cell_formula_units_Z 40
_cell_length_a 19.546224
_cell_length_b 9.649860
_cell_length_c 12.725043
_cell_angle_alpha 90.000000
_cell_angle_beta 90.000000
_cell_angle_gamma 90.000000
_cell_volume 2400.176298
_symmetry_space_group_name_H-M "P M M A"
_symmetry_group_IT_number 51
_symmetry_cell_setting 'orthorhombic'
loop_
_space_group_symop_operation_xyz
x,y,z
1/2-x,-y,z
1/2+x,-y,-z
-x,y,-z
-x,-y,-z
1/2+x,y,-z
1/2-x,y,z
x,-y,z
loop_
_atom_site_type_symbol
_atom_site_label
_atom_site_fract_x
_atom_site_fract_y
_atom_site_fract_z
Si Si1 0.329717 0.339433 0.273359
Si Si2 0.579465 0.835816 0.881675
Si Si3 0.170597 0.837807 0.698390
Si Si4 0.668796 0.653236 0.492001
Si Si5 0.574955 0.163686 0.117241
O O1 0.250000 0.305536 0.261223
O O2 0.344182 0.500000 0.247874
O O3 0.369490 0.242243 0.194140
O O4 0.355708 0.303724 0.391359
O O5 0.501990 0.791245 0.853045
O O6 0.590019 0.000000 0.869067
O O7 0.595323 0.785434 0.000695
O O8 0.250000 0.804488 0.719262
O O9 0.142309 0.762424 0.594026
O O10 0.128362 0.777606 0.797362
O O11 0.158018 0.000000 0.681527
O O12 0.750000 0.649380 0.492987
O O13 0.640711 0.500000 0.463504
O O14 0.578528 0.000000 0.116040
#
# Coordination Sequence:
#
# PCOD8214840 Si02
#       5
#     8   8   8   8   8
#     4   9  18  32  48  67  93 120 146 185 232 267
#     4   9  17  31  50  67  88 122 157 184 216 268
#     4   9  16  27  46  69  90 114 147 186 224 264
#     4   8  15  29  46  63  88 120 147 177 224 272
#     4   8  16  31  47  66  94 122 147 183 230 266
#
# _framework density 16.665441999999999
#
# number of rings (size 3 to 8) (size 9 to 14) (size 15 to 20)
#    0.000    3.400    0.000    2.400    0.000    2.000 
#    0.000    9.000    0.000    8.400    0.000    0.000 
#    0.000    0.000    0.000    0.000    0.000    0.000 
#
# Total GULP energy -495760.038169 kJ/mol
# GULP energy per Si atom -12394.000954 kJ/mol
# Density = 1.662751 g / cm^3
# Si number density = 16.665442 Si / 1000 Ang^3
#
#
#
# Elastic Constant Matrix: (Units=GPa)
#
#
# Indices 1 2 3 4 5 6 
#
# 1 68.2600 43.1109 71.1079 0.0000 0.0000 0.0000
# 2 43.1109 58.9736 66.9108 0.0000 0.0000 0.0000
# 3 71.1079 66.9108 150.2650 0.0000 0.0000 0.0000
# 4 0.0000 0.0000 0.0000 0.2828 0.0000 0.0000
# 5 0.0000 0.0000 0.0000 0.0000 1.7223 0.0000
# 6 0.0000 0.0000 0.0000 0.0000 0.0000 17.5569
#
#
#
# Elastic Compliance Matrix: (Units=1/GPa)
#
#
# Indices 1 2 3 4 5 6 
#
# 1 0.033201 -0.013025 -0.009911 0.000000 0.000000 0.000000
# 2 -0.013025 0.039381 -0.011372 0.000000 0.000000 0.000000
# 3 -0.009911 -0.011372 0.016409 0.000000 0.000000 0.000000
# 4 0.000000 0.000000 0.000000 3.535563 0.000000 0.000000
# 5 0.000000 0.000000 0.000000 0.000000 0.580616 0.000000
# 6 0.000000 0.000000 0.000000 0.000000 0.000000 0.056958
#
#
# Mechanical properties :
#
#
# Convention : Reuss Voigt Hill
#
# Bulk Modulus (GPa) = 49.08290 71.08420 60.08355
# Shear Modulus (GPa) = 1.15273 10.33701 5.74487
#
# Velocity S-wave (km/s) = 0.83258 2.49322 1.85867
# Velocity P-wave (km/s) = 5.51725 7.14384 6.38257
#
# Compressibility (1/GPa) = 0.02037369
#
# Stress axis : x y z
#
# Youngs Moduli (GPa) = 30.11949 25.39288 60.94270
#
# Poissons Ratio (x) = 0.33075 0.60402
# Poissons Ratio (y) = 0.39232 0.69304
# Poissons Ratio (z) = 0.29852 0.28877
#
# Static dielectric constant tensor:
#      x y z
#    x 3.084670 0.000000 0.000000 
#    y 0.000000 2.983640 0.000000 
#    z 0.000000 0.000000 3.515210 
# 
# 
# High freq. dielectric constant tensor:
#      x y z
#    x 1.621240 0.000000 0.000000 
#    y 0.000000 1.620770 0.000000 
#    z 0.000000 0.000000 1.652320 
# 
# From -- ./inp_files/10624.got.cif
#   From: 2010.03.12/outbox.cif.g09.slc.cpg/sg51_6_cif.got.tgz:10624.got - 2010.04.16 13:43:02.
