data_PCOD8214953
_publ_section_title
;
Structure prediction by ZEFSAII (Michael W. Deem and Ramdas Pophale) SiO2 
 PCOD8214953
Probable space group: P N N A
;
_chemical_formula_sum "Si O2"
_cell_formula_units_Z 60
_cell_length_a 20.657945
_cell_length_b 11.996564
_cell_length_c 11.016045
_cell_angle_alpha 90.000000
_cell_angle_beta 90.000000
_cell_angle_gamma 90.000000
_cell_volume 2730.044294
_symmetry_space_group_name_H-M "P N N A"
_symmetry_group_IT_number 52
_symmetry_cell_setting 'orthorhombic'
loop_
_space_group_symop_operation_xyz
x,y,z
1/2-x,-y,z
x,1/2-y,1/2-z
1/2-x,1/2+y,1/2-z
-x,-y,-z
1/2+x,y,-z
-x,1/2+y,1/2+z
1/2+x,1/2-y,1/2+z
loop_
_atom_site_type_symbol
_atom_site_label
_atom_site_fract_x
_atom_site_fract_y
_atom_site_fract_z
Si Si1 0.349075 0.759887 0.440245
Si Si2 0.967117 0.424358 0.606286
Si Si3 0.689352 0.942142 0.189306
Si Si4 0.599073 0.396326 0.740500
Si Si5 0.981160 0.250000 0.250000
Si Si6 0.727714 0.881047 0.458903
Si Si7 0.901126 0.851442 0.169906
Si Si8 0.387015 0.258646 0.543673
O O1 0.343547 0.668860 0.331705
O O2 0.384232 0.872321 0.383468
O O3 0.281991 0.790430 0.504931
O O4 0.394039 0.691206 0.532596
O O5 0.910880 0.479019 0.692213
O O6 0.929785 0.317461 0.556506
O O7 0.000000 0.500000 0.500000
O O8 0.023795 0.379600 0.692832
O O9 0.717376 0.890585 0.314338
O O10 0.661353 0.845783 0.106900
O O11 0.750000 0.000000 0.120437
O O12 0.636269 0.037566 0.209868
O O13 0.527587 0.348898 0.705628
O O14 0.935073 0.205184 0.357298
O O15 0.658783 0.838588 0.513240
O O16 0.750000 0.000000 0.514511
O O17 0.875857 0.750000 0.250000
#
# Coordination Sequence:
#
# PCOD8214953 Si02
#       8
#     8   8   8   8   4   8   8   8
#     4  10  21  43  66  95 131 183 231 278 357 425
#     4  12  21  41  67 104 135 174 245 291 348 427
#     4  11  21  35  62  97 131 172 220 282 356 416
#     4  10  21  41  74  94 131 186 233 290 347 429
#     4  10  16  32  62  98 124 168 214 284 370 412
#     4  11  24  40  58  93 138 180 227 282 356 427
#     4  12  23  40  65 101 145 176 224 300 357 429
#     4  12  21  37  65  94 134 172 231 302 346 423
#
# _framework density 21.977664999999998
#
# number of rings (size 3 to 8) (size 9 to 14) (size 15 to 20)
#    0.000    1.067    5.333    3.200    0.000    1.067 
#    2.400    3.333    0.000    0.800    0.000    0.000 
#    0.000    0.000    0.000    0.000    0.000    0.000 
#
# Total GULP energy -743289.714322 kJ/mol
# GULP energy per Si atom -12388.161905 kJ/mol
# Density = 2.192764 g / cm^3
# Si number density = 21.977665 Si / 1000 Ang^3
#
#
#
# Elastic Constant Matrix: (Units=GPa)
#
#
# Indices 1 2 3 4 5 6 
#
# 1 134.3526 43.2295 30.2236 0.0000 0.0000 0.0000
# 2 43.2295 82.4226 20.9430 0.0000 0.0000 0.0000
# 3 30.2236 20.9430 62.8630 0.0000 0.0000 0.0000
# 4 0.0000 0.0000 0.0000 29.5664 0.0000 0.0000
# 5 0.0000 0.0000 0.0000 0.0000 33.6544 0.0000
# 6 0.0000 0.0000 0.0000 0.0000 0.0000 48.6703
#
#
#
# Elastic Compliance Matrix: (Units=1/GPa)
#
#
# Indices 1 2 3 4 5 6 
#
# 1 0.009501 -0.004176 -0.003177 0.000000 0.000000 0.000000
# 2 -0.004176 0.015090 -0.003020 0.000000 0.000000 0.000000
# 3 -0.003177 -0.003020 0.018441 0.000000 0.000000 0.000000
# 4 0.000000 0.000000 0.000000 0.033822 0.000000 0.000000
# 5 0.000000 0.000000 0.000000 0.000000 0.029714 0.000000
# 6 0.000000 0.000000 0.000000 0.000000 0.000000 0.020546
#
#
# Mechanical properties :
#
#
# Convention : Reuss Voigt Hill
#
# Bulk Modulus (GPa) = 44.86812 52.04782 48.45797
# Shear Modulus (GPa) = 32.19798 34.72770 33.46284
#
# Velocity S-wave (km/s) = 3.83173 3.97940 3.90626
# Velocity P-wave (km/s) = 6.32739 6.69685 6.51474
#
# Compressibility (1/GPa) = 0.02228754
#
# Stress axis : x y z
#
# Youngs Moduli (GPa) = 105.24655 66.26823 54.22710
#
# Poissons Ratio (x) = 0.27675 0.17227
# Poissons Ratio (y) = 0.43953 0.16374
# Poissons Ratio (z) = 0.33435 0.20010
#
# Static dielectric constant tensor:
#      x y z
#    x 4.152350 0.000000 0.000000 
#    y 0.000000 4.301410 0.000000 
#    z 0.000000 0.000000 3.852560 
# 
# 
# High freq. dielectric constant tensor:
#      x y z
#    x 1.869260 0.000000 0.000000 
#    y 0.000000 1.860820 0.000000 
#    z 0.000000 0.000000 1.835240 
# 
# From -- ./inp_files/21769.got.cif
#   From: 2010.06.25/outbox.cif.g09.slc.cpg/sg52_11_cif.got.tgz:21769.got - 2010.06.26 19:32:48.
