data_PCOD8214506
_publ_section_title
;
Structure prediction by ZEFSAII (Michael W. Deem and Ramdas Pophale) SiO2 
 PCOD8214506
Probable space group: P M M A
;
_chemical_formula_sum "Si O2"
_cell_formula_units_Z 48
_cell_length_a 23.339742
_cell_length_b 8.965019
_cell_length_c 12.575869
_cell_angle_alpha 90.000000
_cell_angle_beta 90.000000
_cell_angle_gamma 90.000000
_cell_volume 2631.390304
_symmetry_space_group_name_H-M "P M M A"
_symmetry_group_IT_number 51
_symmetry_cell_setting 'orthorhombic'
loop_
_space_group_symop_operation_xyz
x,y,z
1/2-x,-y,z
1/2+x,-y,-z
-x,y,-z
-x,-y,-z
1/2+x,y,-z
1/2-x,y,z
x,-y,z
loop_
_atom_site_type_symbol
_atom_site_label
_atom_site_fract_x
_atom_site_fract_y
_atom_site_fract_z
Si Si1 0.381732 0.825294 0.685590
Si Si2 0.816254 0.672654 0.505988
Si Si3 0.815979 0.328387 0.132423
Si Si4 0.494769 0.824569 0.381872
Si Si5 0.315581 0.327786 0.111984
Si Si6 0.125867 0.176679 0.300392
O O1 0.352334 0.739890 0.589560
O O2 0.356074 0.777033 0.797994
O O3 0.449107 0.784377 0.686675
O O4 0.371944 0.000000 0.667533
O O5 0.750000 0.696030 0.478394
O O6 0.831820 0.500000 0.518832
O O7 0.829904 0.754819 0.615784
O O8 0.750000 0.285985 0.153138
O O9 0.826392 0.500000 0.164262
O O10 0.832397 0.300808 0.010261
O O11 0.500000 0.753979 0.500000
O O12 0.438156 0.761734 0.323942
O O13 0.487465 0.000000 0.393907
O O14 0.250000 0.279876 0.131541
O O15 0.323790 0.500000 0.142902
O O16 0.357184 0.227106 0.182426
O O17 0.129312 0.000000 0.308207
#
# Coordination Sequence:
#
# PCOD8214506 Si02
#       6
#     8   8   8   8   8   8
#     4  11  21  35  57  81 106 139 182 227 267 312
#     4  11  23  36  51  76 112 145 172 213 272 331
#     4   9  19  37  58  79 109 147 179 214 269 328
#     4   9  18  36  55  74 107 147 178 215 271 322
#     4   9  19  37  58  79 109 147 179 214 269 328
#     4  11  21  35  57  81 106 139 182 227 267 312
#
# _framework density 18.241308
#
# number of rings (size 3 to 8) (size 9 to 14) (size 15 to 20)
#    0.000    2.000    1.667    3.500    0.000    6.667 
#    0.000    6.667    0.000    5.000    0.000    0.000 
#    0.000    0.000    0.000    0.000    0.000    0.000 
#
# Total GULP energy -595303.040442 kJ/mol
# GULP energy per Si atom -12402.146676 kJ/mol
# Density = 1.819979 g / cm^3
# Si number density = 18.241308 Si / 1000 Ang^3
#
#
#
# Elastic Constant Matrix: (Units=GPa)
#
#
# Indices 1 2 3 4 5 6 
#
# 1 92.5108 40.7609 44.2710 0.0000 0.0000 0.0000
# 2 40.7609 68.8066 34.2353 0.0000 0.0000 0.0000
# 3 44.2710 34.2353 93.9652 0.0000 0.0000 0.0000
# 4 0.0000 0.0000 0.0000 35.2529 0.0000 0.0000
# 5 0.0000 0.0000 0.0000 0.0000 22.4571 0.0000
# 6 0.0000 0.0000 0.0000 0.0000 0.0000 1.0525
#
#
#
# Elastic Compliance Matrix: (Units=1/GPa)
#
#
# Indices 1 2 3 4 5 6 
#
# 1 0.016425 -0.007182 -0.005122 0.000000 0.000000 0.000000
# 2 -0.007182 0.020892 -0.004228 0.000000 0.000000 0.000000
# 3 -0.005122 -0.004228 0.014596 0.000000 0.000000 0.000000
# 4 0.000000 0.000000 0.000000 0.028366 0.000000 0.000000
# 5 0.000000 0.000000 0.000000 0.000000 0.044529 0.000000
# 6 0.000000 0.000000 0.000000 0.000000 0.000000 0.950139
#
#
# Mechanical properties :
#
#
# Convention : Reuss Voigt Hill
#
# Bulk Modulus (GPa) = 53.05292 54.86855 53.96073
# Shear Modulus (GPa) = 4.48715 20.82019 12.65367
#
# Velocity S-wave (km/s) = 1.57010 3.38209 2.63664
# Velocity P-wave (km/s) = 5.69509 6.73765 6.23819
#
# Compressibility (1/GPa) = 0.01884910
#
# Stress axis : x y z
#
# Youngs Moduli (GPa) = 60.88316 47.86620 68.51265
#
# Poissons Ratio (x) = 0.34376 0.35092
# Poissons Ratio (y) = 0.43724 0.28968
# Poissons Ratio (z) = 0.31184 0.20238
#
# Static dielectric constant tensor:
#      x y z
#    x 3.540980 0.000000 0.000000 
#    y 0.000000 3.256160 0.000000 
#    z 0.000000 0.000000 3.379460 
# 
# 
# High freq. dielectric constant tensor:
#      x y z
#    x 1.708610 0.000000 0.000000 
#    y 0.000000 1.698110 0.000000 
#    z 0.000000 0.000000 1.708950 
# 
# From -- ./inp_files/18582.got.cif
#   From: 2010.03.12/outbox.cif.g09.slc.cpg/sg51_10_cif.got.tgz:18582.got - 2010.04.16 13:43:02.
