data_PCOD8214870
_publ_section_title
;
Structure prediction by ZEFSAII (Michael W. Deem and Ramdas Pophale) SiO2 
 PCOD8214870
Probable space group: P M M A
;
_chemical_formula_sum "Si O2"
_cell_formula_units_Z 64
_cell_length_a 17.292141
_cell_length_b 9.226242
_cell_length_c 22.887141
_cell_angle_alpha 90.000000
_cell_angle_beta 90.000000
_cell_angle_gamma 90.000000
_cell_volume 3651.448292
_symmetry_space_group_name_H-M "P M M A"
_symmetry_group_IT_number 51
_symmetry_cell_setting 'orthorhombic'
loop_
_space_group_symop_operation_xyz
x,y,z
1/2-x,-y,z
1/2+x,-y,-z
-x,y,-z
-x,-y,-z
1/2+x,y,-z
1/2-x,y,z
x,-y,z
loop_
_atom_site_type_symbol
_atom_site_label
_atom_site_fract_x
_atom_site_fract_y
_atom_site_fract_z
Si Si1 0.666494 0.164919 0.194585
Si Si2 0.412046 0.163864 0.021493
Si Si3 0.626630 0.338023 0.085340
Si Si4 0.975971 0.169171 0.630369
Si Si5 0.547215 0.662927 0.871380
Si Si6 0.497348 0.169238 0.761506
Si Si7 0.662358 0.167868 0.547385
Si Si8 0.572143 0.336907 0.457053
O O1 0.750000 0.181493 0.227540
O O2 0.672759 0.262520 0.137239
O O3 0.594389 0.209704 0.235626
O O4 0.653764 0.000000 0.173751
O O5 0.400995 0.244517 0.083656
O O6 0.381451 0.000000 0.028250
O O7 0.500000 0.163214 0.000000
O O8 0.360232 0.248301 0.974076
O O9 0.658963 0.500000 0.076082
O O10 0.537326 0.343276 0.101751
O O11 0.894284 0.211935 0.600635
O O12 0.971167 0.213466 0.698043
O O13 0.047808 0.254128 0.601801
O O14 0.993976 0.000000 0.622918
O O15 0.580591 0.500000 0.864372
O O16 0.546364 0.740445 0.808414
O O17 0.510520 0.000000 0.774292
O O18 0.750000 0.202399 0.566967
O O19 0.643311 0.257231 0.488771
O O20 0.651319 0.000000 0.531600
O O21 0.500000 0.334493 0.500000
O O22 0.597326 0.500000 0.441232
#
# Coordination Sequence:
#
# PCOD8214870 Si02
#       8
#     8   8   8   8   8   8   8   8
#     4   9  17  29  43  58  79 110 148 187 226 272
#     4   9  15  23  37  57  81 107 134 168 214 266
#     4   9  16  25  38  57  80 105 135 174 222 270
#     4   9  17  30  48  69  94 124 158 194 231 275
#     4   9  16  25  38  58  84 111 140 178 221 264
#     4   9  17  29  44  62  86 118 154 190 228 270
#     4   9  17  30  49  72  96 122 153 190 232 277
#     4   9  17  29  46  68  94 123 152 184 226 273
#
# _framework density 17.527291999999999
#
# number of rings (size 3 to 8) (size 9 to 14) (size 15 to 20)
#    0.000    3.000    0.000    1.500    0.000    7.000 
#    0.000    0.625    0.000    2.250    0.000    0.875 
#    0.000    5.000    0.000    0.000    0.000    0.000 
#
# Total GULP energy -793325.204296 kJ/mol
# GULP energy per Si atom -12395.706317 kJ/mol
# Density = 1.748740 g / cm^3
# Si number density = 17.527292 Si / 1000 Ang^3
#
#
#
# Elastic Constant Matrix: (Units=GPa)
#
#
# Indices 1 2 3 4 5 6 
#
# 1 54.9109 25.8538 32.8372 0.0000 0.0000 0.0000
# 2 25.8538 106.6564 62.6525 0.0000 0.0000 0.0000
# 3 32.8372 62.6525 122.8073 0.0000 0.0000 0.0000
# 4 0.0000 0.0000 0.0000 20.5894 0.0000 0.0000
# 5 0.0000 0.0000 0.0000 0.0000 13.5738 0.0000
# 6 0.0000 0.0000 0.0000 0.0000 0.0000 9.5810
#
#
#
# Elastic Compliance Matrix: (Units=1/GPa)
#
#
# Indices 1 2 3 4 5 6 
#
# 1 0.022212 -0.002706 -0.004558 0.000000 0.000000 0.000000
# 2 -0.002706 0.013718 -0.006275 0.000000 0.000000 0.000000
# 3 -0.004558 -0.006275 0.012563 0.000000 0.000000 0.000000
# 4 0.000000 0.000000 0.000000 0.048569 0.000000 0.000000
# 5 0.000000 0.000000 0.000000 0.000000 0.073671 0.000000
# 6 0.000000 0.000000 0.000000 0.000000 0.000000 0.104373
#
#
# Mechanical properties :
#
#
# Convention : Reuss Voigt Hill
#
# Bulk Modulus (GPa) = 46.70021 58.56237 52.63129
# Shear Modulus (GPa) = 16.16438 19.61760 17.89099
#
# Velocity S-wave (km/s) = 3.04014 3.34916 3.19838
# Velocity P-wave (km/s) = 6.24703 6.95992 6.61309
#
# Compressibility (1/GPa) = 0.02141318
#
# Stress axis : x y z
#
# Youngs Moduli (GPa) = 45.02164 72.89740 79.59957
#
# Poissons Ratio (x) = 0.19729 0.36284
# Poissons Ratio (y) = 0.12185 0.49947
# Poissons Ratio (z) = 0.20522 0.45742
#
# Static dielectric constant tensor:
#      x y z
#    x 2.941560 0.000000 0.000000 
#    y 0.000000 3.442120 0.000000 
#    z 0.000000 0.000000 3.165040 
# 
# 
# High freq. dielectric constant tensor:
#      x y z
#    x 1.636280 0.000000 0.000000 
#    y 0.000000 1.685550 0.000000 
#    z 0.000000 0.000000 1.661330 
# 
# From -- ./inp_files/35900.got.cif
#   From: 2010.03.12/outbox.cif.g09.slc.cpg/sg51_18_cif.got.tgz:35900.got - 2010.04.16 13:43:02.
