data_PCOD8214463
_publ_section_title
;
Structure prediction by ZEFSAII (Michael W. Deem and Ramdas Pophale) SiO2 
 PCOD8214463
Probable space group: P M M A
;
_chemical_formula_sum "Si O2"
_cell_formula_units_Z 64
_cell_length_a 18.244454
_cell_length_b 13.540192
_cell_length_c 13.813003
_cell_angle_alpha 90.000000
_cell_angle_beta 90.000000
_cell_angle_gamma 90.000000
_cell_volume 3412.273235
_symmetry_space_group_name_H-M "P M M A"
_symmetry_group_IT_number 51
_symmetry_cell_setting 'orthorhombic'
loop_
_space_group_symop_operation_xyz
x,y,z
1/2-x,-y,z
1/2+x,-y,-z
-x,y,-z
-x,-y,-z
1/2+x,y,-z
1/2-x,y,z
x,-y,z
loop_
_atom_site_type_symbol
_atom_site_label
_atom_site_fract_x
_atom_site_fract_y
_atom_site_fract_z
Si Si1 0.040791 0.108919 0.898225
Si Si2 0.962340 0.382675 0.597805
Si Si3 0.169688 0.881789 0.010806
Si Si4 0.469358 0.615478 0.795056
Si Si5 0.667487 0.382286 0.088143
Si Si6 0.595349 0.883079 0.791283
Si Si7 0.122602 0.615685 0.121406
Si Si8 0.833384 0.719083 0.687112
O O1 0.987282 0.158417 0.817645
O O2 0.057123 0.000000 0.857268
O O3 0.117811 0.163143 0.924457
O O4 0.000000 0.098298 0.000000
O O5 0.955154 0.500000 0.598026
O O6 0.879919 0.339667 0.606350
O O7 0.000000 0.343707 0.500000
O O8 0.010557 0.342987 0.688471
O O9 0.250000 0.839597 0.990083
O O10 0.145598 0.851236 0.118159
O O11 0.166166 0.000000 0.005247
O O12 0.458219 0.500000 0.783232
O O13 0.393482 0.661078 0.836973
O O14 0.535658 0.637853 0.869675
O O15 0.750000 0.353096 0.121090
O O16 0.658822 0.500000 0.082364
O O17 0.651379 0.339155 0.980279
O O18 0.628564 0.827230 0.698900
O O19 0.595746 0.000000 0.772128
O O20 0.138894 0.500000 0.126561
O O21 0.165961 0.663390 0.210329
O O22 0.750000 0.730110 0.650270
#
# Coordination Sequence:
#
# PCOD8214463 Si02
#       8
#     8   8   8   8   8   8   8   8
#     4   7  11  21  36  54  81 121 167 207 239 278
#     4   9  19  37  57  73  93 122 152 189 245 303
#     4   8  12  20  37  59  85 123 170 216 254 282
#     4   8  14  26  44  64  87 119 158 191 222 274
#     4   9  15  23  38  61  91 127 161 191 223 263
#     4   9  17  29  43  62  94 132 163 195 243 297
#     4   9  17  29  44  63  93 129 157 186 229 276
#     4  11  21  31  49  78 102 121 154 199 239 278
#
# _framework density 18.755825000000002
#
# number of rings (size 3 to 8) (size 9 to 14) (size 15 to 20)
#    0.000    3.250    0.000    3.750    0.000    3.750 
#    0.000    8.125    0.000    2.625    0.000    0.875 
#    0.000    0.000    0.000    0.000    0.000    1.000 
#
# Total GULP energy -792910.697707 kJ/mol
# GULP energy per Si atom -12389.229652 kJ/mol
# Density = 1.871314 g / cm^3
# Si number density = 18.755825 Si / 1000 Ang^3
#
#
#
# Elastic Constant Matrix: (Units=GPa)
#
#
# Indices 1 2 3 4 5 6 
#
# 1 148.4461 5.6739 48.5924 0.0000 0.0000 0.0000
# 2 5.6739 21.3044 13.1012 0.0000 0.0000 0.0000
# 3 48.5924 13.1012 71.8510 0.0000 0.0000 0.0000
# 4 0.0000 0.0000 0.0000 17.4286 0.0000 0.0000
# 5 0.0000 0.0000 0.0000 0.0000 22.2842 0.0000
# 6 0.0000 0.0000 0.0000 0.0000 0.0000 9.9027
#
#
#
# Elastic Compliance Matrix: (Units=1/GPa)
#
#
# Indices 1 2 3 4 5 6 
#
# 1 0.008692 0.001464 -0.006145 0.000000 0.000000 0.000000
# 2 0.001464 0.053113 -0.010675 0.000000 0.000000 0.000000
# 3 -0.006145 -0.010675 0.020020 0.000000 0.000000 0.000000
# 4 0.000000 0.000000 0.000000 0.057377 0.000000 0.000000
# 5 0.000000 0.000000 0.000000 0.000000 0.044875 0.000000
# 6 0.000000 0.000000 0.000000 0.000000 0.000000 0.100983
#
#
# Mechanical properties :
#
#
# Convention : Reuss Voigt Hill
#
# Bulk Modulus (GPa) = 19.56431 41.81517 30.68974
# Shear Modulus (GPa) = 15.02357 21.53868 18.28113
#
# Velocity S-wave (km/s) = 2.83328 3.39244 3.12539
# Velocity P-wave (km/s) = 4.59967 6.13904 5.42424
#
# Compressibility (1/GPa) = 0.05111349
#
# Stress axis : x y z
#
# Youngs Moduli (GPa) = 115.04664 18.82770 49.94947
#
# Poissons Ratio (x) = -0.02757 0.30696
# Poissons Ratio (y) = -0.16845 0.53320
# Poissons Ratio (z) = 0.70701 0.20098
#
# Static dielectric constant tensor:
#      x y z
#    x 3.839360 0.000000 0.000000 
#    y 0.000000 3.326770 0.000000 
#    z 0.000000 0.000000 3.125750 
# 
# 
# High freq. dielectric constant tensor:
#      x y z
#    x 1.735400 0.000000 0.000000 
#    y 0.000000 1.730180 0.000000 
#    z 0.000000 0.000000 1.656350 
# 
# From -- ./inp_files/25310.got.cif
#   From: 2010.03.12/outbox.cif.g09.slc.cpg/sg51_13_cif.got.tgz:25310.got - 2010.04.16 13:43:02.
