data_PCOD8214690
_publ_section_title
;
Structure prediction by ZEFSAII (Michael W. Deem and Ramdas Pophale) SiO2 
 PCOD8214690
Probable space group: P M M A
;
_chemical_formula_sum "Si O2"
_cell_formula_units_Z 64
_cell_length_a 13.736499
_cell_length_b 9.654687
_cell_length_c 30.553958
_cell_angle_alpha 90.000000
_cell_angle_beta 90.000000
_cell_angle_gamma 90.000000
_cell_volume 4052.114745
_symmetry_space_group_name_H-M "P M M A"
_symmetry_group_IT_number 51
_symmetry_cell_setting 'orthorhombic'
loop_
_space_group_symop_operation_xyz
x,y,z
1/2-x,-y,z
1/2+x,-y,-z
-x,y,-z
-x,-y,-z
1/2+x,y,-z
1/2-x,y,z
x,-y,z
loop_
_atom_site_type_symbol
_atom_site_label
_atom_site_fract_x
_atom_site_fract_y
_atom_site_fract_z
Si Si1 0.359142 0.153437 0.101016
Si Si2 0.862982 0.340960 0.655463
Si Si3 0.543345 0.335625 0.567302
Si Si4 0.861582 0.837412 0.739629
Si Si5 0.863102 0.662239 0.126485
Si Si6 0.992090 0.338665 0.950146
Si Si7 0.999102 0.156616 0.818353
Si Si8 0.143337 0.664876 0.519715
O O1 0.250000 0.192235 0.113362
O O2 0.396015 0.263075 0.066115
O O3 0.417584 0.162340 0.145274
O O4 0.367494 0.000000 0.080393
O O5 0.750000 0.330000 0.643444
O O6 0.891662 0.500000 0.665824
O O7 0.922384 0.278427 0.614209
O O8 0.890177 0.247307 0.696652
O O9 0.552031 0.500000 0.568584
O O10 0.432486 0.287395 0.557279
O O11 0.611177 0.278778 0.527988
O O12 0.750000 0.802128 0.754403
O O13 0.942555 0.791475 0.775127
O O14 0.870088 0.000000 0.729839
O O15 0.750000 0.704344 0.122642
O O16 0.875342 0.500000 0.136360
O O17 0.914535 0.701516 0.080074
O O18 0.911497 0.744370 0.167278
O O19 0.971697 0.500000 0.947262
O O20 0.000000 0.289309 0.000000
O O21 0.039307 0.000000 0.812453
O O22 0.250000 0.724424 0.531273
O O23 0.144446 0.500000 0.517830
#
# Coordination Sequence:
#
# PCOD8214690 Si02
#       8
#     8   8   8   8   8   8   8   8
#     4   9  17  29  45  65  88 112 137 169 211 252
#     4   9  16  25  38  58  84 111 137 167 205 248
#     4   8  13  20  31  50  77 106 133 166 208 247
#     4   9  17  29  45  65  88 113 139 168 208 258
#     4   9  18  32  48  66  89 116 145 179 217 250
#     4   9  18  31  46  65  89 117 147 175 204 244
#     4   9  17  30  48  67  86 109 140 177 212 250
#     4   8  12  18  30  49  73 102 136 171 206 244
#
# _framework density 15.794222
#
# number of rings (size 3 to 8) (size 9 to 14) (size 15 to 20)
#    0.000    3.250    0.000    1.500    0.000    4.750 
#    0.000    1.250    0.000    3.000    0.000    3.500 
#    0.000    1.000    0.000    0.000    0.000    0.000 
#
# Total GULP energy -793118.178881 kJ/mol
# GULP energy per Si atom -12392.471545 kJ/mol
# Density = 1.575827 g / cm^3
# Si number density = 15.794222 Si / 1000 Ang^3
#
#
#
# Elastic Constant Matrix: (Units=GPa)
#
#
# Indices 1 2 3 4 5 6 
#
# 1 107.2260 31.1854 50.8335 0.0000 0.0000 0.0000
# 2 31.1854 29.5870 35.7925 0.0000 0.0000 0.0000
# 3 50.8335 35.7925 108.8879 0.0000 0.0000 0.0000
# 4 0.0000 0.0000 0.0000 14.7766 0.0000 0.0000
# 5 0.0000 0.0000 0.0000 0.0000 21.5590 0.0000
# 6 0.0000 0.0000 0.0000 0.0000 0.0000 19.6979
#
#
#
# Elastic Compliance Matrix: (Units=1/GPa)
#
#
# Indices 1 2 3 4 5 6 
#
# 1 0.013940 -0.011323 -0.002786 0.000000 0.000000 0.000000
# 2 -0.011323 0.065309 -0.016182 0.000000 0.000000 0.000000
# 3 -0.002786 -0.016182 0.015803 0.000000 0.000000 0.000000
# 4 0.000000 0.000000 0.000000 0.067674 0.000000 0.000000
# 5 0.000000 0.000000 0.000000 0.000000 0.046384 0.000000
# 6 0.000000 0.000000 0.000000 0.000000 0.000000 0.050767
#
#
# Mechanical properties :
#
#
# Convention : Reuss Voigt Hill
#
# Bulk Modulus (GPa) = 29.00960 53.48043 41.24502
# Shear Modulus (GPa) = 15.06257 19.73268 17.39763
#
# Velocity S-wave (km/s) = 3.09152 3.53846 3.32251
# Velocity P-wave (km/s) = 5.58125 7.11538 6.39449
#
# Compressibility (1/GPa) = 0.03447134
#
# Stress axis : x y z
#
# Youngs Moduli (GPa) = 71.73632 15.31189 63.27780
#
# Poissons Ratio (x) = 0.17338 0.17628
# Poissons Ratio (y) = 0.81227 1.02393
# Poissons Ratio (z) = 0.19984 0.24777
#
# Static dielectric constant tensor:
#      x y z
#    x 3.143340 0.000000 0.000000 
#    y 0.000000 2.853560 0.000000 
#    z 0.000000 0.000000 3.069330 
# 
# 
# High freq. dielectric constant tensor:
#      x y z
#    x 1.601460 0.000000 0.000000 
#    y 0.000000 1.578680 0.000000 
#    z 0.000000 0.000000 1.598900 
# 
# From -- ./inp_files/37825.got.cif
#   From: 2010.03.12/outbox.cif.g09.slc.cpg/sg51_19_cif.got.tgz:37825.got - 2010.04.16 13:43:02.
