data_PCOD8214897
_publ_section_title
;
Structure prediction by ZEFSAII (Michael W. Deem and Ramdas Pophale) SiO2 
 PCOD8214897
Probable space group: P M M A
;
_chemical_formula_sum "Si O2"
_cell_formula_units_Z 40
_cell_length_a 9.530115
_cell_length_b 9.367887
_cell_length_c 25.642889
_cell_angle_alpha 90.000000
_cell_angle_beta 90.000000
_cell_angle_gamma 90.000000
_cell_volume 2289.321238
_symmetry_space_group_name_H-M "P M M A"
_symmetry_group_IT_number 51
_symmetry_cell_setting 'orthorhombic'
loop_
_space_group_symop_operation_xyz
x,y,z
1/2-x,-y,z
1/2+x,-y,-z
-x,y,-z
-x,-y,-z
1/2+x,y,-z
1/2-x,y,z
x,-y,z
loop_
_atom_site_type_symbol
_atom_site_label
_atom_site_fract_x
_atom_site_fract_y
_atom_site_fract_z
Si Si1 0.583198 0.838704 0.649991
Si Si2 0.413457 0.665567 0.250355
Si Si3 0.411752 0.334140 0.849341
Si Si4 0.912945 0.665369 0.550373
Si Si5 0.412174 0.834038 0.950690
O O1 0.750000 0.836511 0.650101
O O2 0.528285 0.756564 0.701085
O O3 0.528794 0.757619 0.598599
O O4 0.524654 0.000000 0.650130
O O5 0.250000 0.694366 0.240097
O O6 0.442197 0.500000 0.262751
O O7 0.497298 0.717391 0.199664
O O8 0.250000 0.299322 0.837130
O O9 0.435787 0.500000 0.860736
O O10 0.465062 0.249254 0.899808
O O11 0.750000 0.696433 0.539215
O O12 0.937916 0.500000 0.564023
O O13 0.000000 0.712878 0.500000
O O14 0.250000 0.801289 0.962190
O O15 0.439954 0.000000 0.940496
O O16 0.500000 0.778354 0.000000
#
# Coordination Sequence:
#
# PCOD8214897 Si02
#       5
#     8   8   8   8   8
#     4   9  17  29  46  68  92 118 149 185 224 264
#     4   9  17  30  48  68  89 115 149 186 221 261
#     4   9  18  32  48  67  92 120 148 181 224 268
#     4   9  17  30  48  68  90 118 151 185 222 265
#     4   9  18  32  48  66  90 120 151 182 219 264
#
# _framework density 17.472427
#
# number of rings (size 3 to 8) (size 9 to 14) (size 15 to 20)
#    0.000    3.000    0.000    0.600    0.000    4.800 
#    0.000    1.000    0.000    6.000    0.000    0.000 
#    0.000    0.000    0.000    0.000    0.000    0.000 
#
# Total GULP energy -496059.076941 kJ/mol
# GULP energy per Si atom -12401.476924 kJ/mol
# Density = 1.743266 g / cm^3
# Si number density = 17.472427 Si / 1000 Ang^3
#
#
#
# Elastic Constant Matrix: (Units=GPa)
#
#
# Indices 1 2 3 4 5 6 
#
# 1 46.5556 34.7646 65.7200 0.0000 0.0000 0.0000
# 2 34.7646 84.9958 90.8134 0.0000 0.0000 0.0000
# 3 65.7200 90.8134 200.7168 0.0000 0.0000 0.0000
# 4 0.0000 0.0000 0.0000 24.7673 0.0000 0.0000
# 5 0.0000 0.0000 0.0000 0.0000 33.7045 0.0000
# 6 0.0000 0.0000 0.0000 0.0000 0.0000 16.2064
#
#
#
# Elastic Compliance Matrix: (Units=1/GPa)
#
#
# Indices 1 2 3 4 5 6 
#
# 1 0.040882 -0.004683 -0.011267 0.000000 0.000000 0.000000
# 2 -0.004683 0.023312 -0.009014 0.000000 0.000000 0.000000
# 3 -0.011267 -0.009014 0.012749 0.000000 0.000000 0.000000
# 4 0.000000 0.000000 0.000000 0.040376 0.000000 0.000000
# 5 0.000000 0.000000 0.000000 0.000000 0.029670 0.000000
# 6 0.000000 0.000000 0.000000 0.000000 0.000000 0.061704
#
#
# Mechanical properties :
#
#
# Convention : Reuss Voigt Hill
#
# Bulk Modulus (GPa) = 37.01661 79.42935 58.22298
# Shear Modulus (GPa) = 18.68289 24.33365 21.50827
#
# Velocity S-wave (km/s) = 3.27353 3.73592 3.51234
# Velocity P-wave (km/s) = 5.95984 8.01049 7.06002
#
# Compressibility (1/GPa) = 0.02701490
#
# Stress axis : x y z
#
# Youngs Moduli (GPa) = 24.46094 42.89723 78.43487
#
# Poissons Ratio (x) = 0.20090 0.88371
# Poissons Ratio (y) = 0.11456 0.70700
# Poissons Ratio (z) = 0.27560 0.38667
#
# Static dielectric constant tensor:
#      x y z
#    x 3.025700 0.000000 0.000000 
#    y 0.000000 3.273600 0.000000 
#    z 0.000000 0.000000 3.398250 
# 
# 
# High freq. dielectric constant tensor:
#      x y z
#    x 1.647610 0.000000 0.000000 
#    y 0.000000 1.672490 0.000000 
#    z 0.000000 0.000000 1.684860 
# 
# From -- ./inp_files/28788.got.cif
#   From: 2010.03.12/outbox.cif.g09.slc.cpg/sg51_15_cif.got.tgz:28788.got - 2010.04.16 13:43:02.
