data_PCOD8214281
_publ_section_title
;
Structure prediction by ZEFSAII (Michael W. Deem and Ramdas Pophale) SiO2 
 PCOD8214281
Probable space group: P M M A
;
_chemical_formula_sum "Si O2"
_cell_formula_units_Z 32
_cell_length_a 17.477748
_cell_length_b 14.193211
_cell_length_c 6.685634
_cell_angle_alpha 90.000000
_cell_angle_beta 90.000000
_cell_angle_gamma 90.000000
_cell_volume 1658.474240
_symmetry_space_group_name_H-M "P M M A"
_symmetry_group_IT_number 51
_symmetry_cell_setting 'orthorhombic'
loop_
_space_group_symop_operation_xyz
x,y,z
1/2-x,-y,z
1/2+x,-y,-z
-x,y,-z
-x,-y,-z
1/2+x,y,-z
1/2-x,y,z
x,-y,z
loop_
_atom_site_type_symbol
_atom_site_label
_atom_site_fract_x
_atom_site_fract_y
_atom_site_fract_z
Si Si1 0.161569 0.000000 0.187475
Si Si2 0.582228 0.000000 0.408106
Si Si3 0.339162 0.500000 0.508772
Si Si4 0.915440 0.152593 0.078234
Si Si5 0.338840 0.349293 0.844908
Si Si6 0.415246 0.500000 0.096855
O O1 0.147892 0.000000 0.424585
O O2 0.250000 0.000000 0.137912
O O3 0.126871 0.096018 0.097783
O O4 0.500000 0.000000 0.500000
O O5 0.589015 0.907464 0.277479
O O6 0.250000 0.500000 0.433358
O O7 0.354679 0.406190 0.639969
O O8 0.404654 0.500000 0.337408
O O9 0.877297 0.248337 0.149266
O O10 0.000000 0.173552 0.000000
O O11 0.250000 0.335453 0.881216
O O12 0.372003 0.406607 0.030133
O O13 0.500000 0.500000 0.000000
#
# Coordination Sequence:
#
# PCOD8214281 Si02
#       6
#     4   4   4   8   8   4
#     4  11  23  39  63  91 123 161 203 257 314 364
#     4  11  21  42  62  86 119 166 209 251 306 368
#     4   9  20  41  64  85 122 165 198 246 304 357
#     4  11  22  40  64  89 125 161 204 254 307 371
#     4  10  22  39  60  90 122 158 205 253 302 362
#     4  11  22  40  61  87 121 161 205 249 306 362
#
# _framework density 19.294843
#
# number of rings (size 3 to 8) (size 9 to 14) (size 15 to 20)
#    0.000    1.500    2.500    4.125    0.000    7.000 
#    4.500    2.500    0.000    0.000    0.000    0.000 
#    0.000    0.000    0.000    0.000    0.000    0.000 
#
# Total GULP energy -396707.949389 kJ/mol
# GULP energy per Si atom -12397.123418 kJ/mol
# Density = 1.925093 g / cm^3
# Si number density = 19.294843 Si / 1000 Ang^3
#
#
#
# Elastic Constant Matrix: (Units=GPa)
#
#
# Indices 1 2 3 4 5 6 
#
# 1 152.4116 74.3877 59.2882 0.0000 0.0000 0.0000
# 2 74.3877 183.2062 65.4367 0.0000 0.0000 0.0000
# 3 59.2882 65.4367 128.7100 0.0000 0.0000 0.0000
# 4 0.0000 0.0000 0.0000 -0.0422 0.0000 0.0000
# 5 0.0000 0.0000 0.0000 0.0000 33.9572 0.0000
# 6 0.0000 0.0000 0.0000 0.0000 0.0000 30.5059
#
#
#
# Elastic Compliance Matrix: (Units=1/GPa)
#
#
# Indices 1 2 3 4 5 6 
#
# 1 0.008925 -0.002634 -0.002772 0.000000 0.000000 0.000000
# 2 -0.002634 0.007447 -0.002573 0.000000 0.000000 0.000000
# 3 -0.002772 -0.002573 0.010354 0.000000 0.000000 0.000000
# 4 0.000000 0.000000 0.000000-23.720466 0.000000 0.000000
# 5 0.000000 0.000000 0.000000 0.000000 0.029449 0.000000
# 6 0.000000 0.000000 0.000000 0.000000 0.000000 0.032781
#
#
# Mechanical properties :
#
#
# Convention : Reuss Voigt Hill
#
# Bulk Modulus (GPa) = 92.86108 95.83922 94.35015
# Shear Modulus (GPa) = -0.21176 30.56519 15.17672
#
# Velocity S-wave (km/s) = -0.33164 3.98441 2.80763
# Velocity P-wave (km/s) = 6.93435 8.42295 7.71464
#
# Compressibility (1/GPa) = 0.01076877
#
# Stress axis : x y z
#
# Youngs Moduli (GPa) = 112.04499 134.28932 96.57787
#
# Poissons Ratio (x) = 0.35368 0.26773
# Poissons Ratio (y) = 0.29509 0.24847
# Poissons Ratio (z) = 0.31061 0.34549
#
# Static dielectric constant tensor:
#      x y z
#    x 3.635060 0.000000 0.000000 
#    y 0.000000 3.617430 0.000000 
#    z 0.000000 0.000000 4.098260 
# 
# 
# High freq. dielectric constant tensor:
#      x y z
#    x 1.761450 0.000000 0.000000 
#    y 0.000000 1.759610 0.000000 
#    z 0.000000 0.000000 1.754770 
# 
# From -- ./inp_files/1872.got.cif
#   From: 2010.03.12/outbox.cif.g09.slc.cpg/sg51_1_cif.got.tgz:1872.got - 2010.04.16 13:43:02.
