data_PCOD8214003
_publ_section_title
;
Structure prediction by ZEFSAII (Michael W. Deem and Ramdas Pophale) SiO2 
 PCOD8214003
Probable space group: P M M A
;
_chemical_formula_sum "Si O2"
_cell_formula_units_Z 48
_cell_length_a 25.013106
_cell_length_b 8.548014
_cell_length_c 11.687863
_cell_angle_alpha 90.000000
_cell_angle_beta 90.000000
_cell_angle_gamma 90.000000
_cell_volume 2499.009808
_symmetry_space_group_name_H-M "P M M A"
_symmetry_group_IT_number 51
_symmetry_cell_setting 'orthorhombic'
loop_
_space_group_symop_operation_xyz
x,y,z
1/2-x,-y,z
1/2+x,-y,-z
-x,y,-z
-x,-y,-z
1/2+x,y,-z
1/2-x,y,z
x,-y,z
loop_
_atom_site_type_symbol
_atom_site_label
_atom_site_fract_x
_atom_site_fract_y
_atom_site_fract_z
Si Si1 0.091906 0.681144 0.738260
Si Si2 0.061411 0.182051 0.506697
Si Si3 0.311835 0.180634 0.131906
Si Si4 0.810277 0.318879 0.108030
Si Si5 0.505756 0.181546 0.868885
Si Si6 0.598178 0.319910 0.724158
O O1 0.077473 0.500000 0.756931
O O2 0.091931 0.721339 0.604414
O O3 0.150602 0.721207 0.787071
O O4 0.049037 0.787195 0.802991
O O5 0.090313 0.214206 0.387367
O O6 0.000000 0.238379 0.500000
O O7 0.064600 0.000000 0.536773
O O8 0.250000 0.221119 0.151344
O O9 0.344315 0.283513 0.222180
O O10 0.324808 0.000000 0.153682
O O11 0.328644 0.220931 0.002329
O O12 0.750000 0.273411 0.145764
O O13 0.813775 0.500000 0.073574
O O14 0.553008 0.284237 0.817254
O O15 0.520900 0.000000 0.856066
O O16 0.500000 0.231727 0.000000
O O17 0.595026 0.500000 0.688021
#
# Coordination Sequence:
#
# PCOD8214003 Si02
#       6
#     8   8   8   8   8   8
#     4  11  22  36  58  86 115 150 194 239 288 344
#     4  11  23  40  61  82 112 155 197 239 292 348
#     4  10  21  38  61  88 119 155 194 236 285 342
#     4   9  19  37  60  87 120 155 191 234 286 342
#     4  11  23  37  55  82 117 152 187 234 289 345
#     4  12  24  38  60  86 115 150 193 241 289 344
#
# _framework density 19.207609000000001
#
# number of rings (size 3 to 8) (size 9 to 14) (size 15 to 20)
#    0.000    1.333    1.667    4.500    0.000    7.000 
#    0.000    0.833    0.000    3.000    0.000    0.000 
#    0.000    0.000    0.000    0.000    0.000    0.000 
#
# Total GULP energy -595538.389486 kJ/mol
# GULP energy per Si atom -12407.049781 kJ/mol
# Density = 1.916389 g / cm^3
# Si number density = 19.207609 Si / 1000 Ang^3
#
#
#
# Elastic Constant Matrix: (Units=GPa)
#
#
# Indices 1 2 3 4 5 6 
#
# 1 99.1827 22.2536 53.2005 0.0000 0.0000 0.0000
# 2 22.2536 50.0499 16.8924 0.0000 0.0000 0.0000
# 3 53.2005 16.8924 118.9909 0.0000 0.0000 0.0000
# 4 0.0000 0.0000 0.0000 33.4583 0.0000 0.0000
# 5 0.0000 0.0000 0.0000 0.0000 31.5587 0.0000
# 6 0.0000 0.0000 0.0000 0.0000 0.0000 26.8245
#
#
#
# Elastic Compliance Matrix: (Units=1/GPa)
#
#
# Indices 1 2 3 4 5 6 
#
# 1 0.014112 -0.004354 -0.005691 0.000000 0.000000 0.000000
# 2 -0.004354 0.022329 -0.001223 0.000000 0.000000 0.000000
# 3 -0.005691 -0.001223 0.011122 0.000000 0.000000 0.000000
# 4 0.000000 0.000000 0.000000 0.029888 0.000000 0.000000
# 5 0.000000 0.000000 0.000000 0.000000 0.031687 0.000000
# 6 0.000000 0.000000 0.000000 0.000000 0.000000 0.037279
#
#
# Mechanical properties :
#
#
# Convention : Reuss Voigt Hill
#
# Bulk Modulus (GPa) = 39.95814 50.32406 45.14110
# Shear Modulus (GPa) = 28.20138 30.09343 29.14741
#
# Velocity S-wave (km/s) = 3.83592 3.96251 3.89973
# Velocity P-wave (km/s) = 6.36141 6.86966 6.62041
#
# Compressibility (1/GPa) = 0.02502619
#
# Stress axis : x y z
#
# Youngs Moduli (GPa) = 70.86147 44.78531 89.90962
#
# Poissons Ratio (x) = 0.19498 0.51171
# Poissons Ratio (y) = 0.30851 0.10999
# Poissons Ratio (z) = 0.40330 0.05479
#
# Static dielectric constant tensor:
#      x y z
#    x 3.575600 0.000000 0.000000 
#    y 0.000000 3.532530 0.000000 
#    z 0.000000 0.000000 3.506550 
# 
# 
# High freq. dielectric constant tensor:
#      x y z
#    x 1.745210 0.000000 0.000000 
#    y 0.000000 1.755840 0.000000 
#    z 0.000000 0.000000 1.746660 
# 
# From -- ./inp_files/18616.got.cif
#   From: 2010.03.12/outbox.cif.g09.slc.cpg/sg51_10_cif.got.tgz:18616.got - 2010.04.16 13:43:02.
