data_PCOD8214610
_publ_section_title
;
Structure prediction by ZEFSAII (Michael W. Deem and Ramdas Pophale) SiO2 
 PCOD8214610
Probable space group: P M M A
;
_chemical_formula_sum "Si O2"
_cell_formula_units_Z 32
_cell_length_a 9.362321
_cell_length_b 7.502449
_cell_length_c 24.323208
_cell_angle_alpha 90.000000
_cell_angle_beta 90.000000
_cell_angle_gamma 90.000000
_cell_volume 1708.470298
_symmetry_space_group_name_H-M "P M M A"
_symmetry_group_IT_number 51
_symmetry_cell_setting 'orthorhombic'
loop_
_space_group_symop_operation_xyz
x,y,z
1/2-x,-y,z
1/2+x,-y,-z
-x,y,-z
-x,-y,-z
1/2+x,y,-z
1/2-x,y,z
x,-y,z
loop_
_atom_site_type_symbol
_atom_site_label
_atom_site_fract_x
_atom_site_fract_y
_atom_site_fract_z
Si Si1 0.416879 0.703235 0.445562
Si Si2 0.917648 0.292893 0.171758
Si Si3 0.918594 0.000000 0.637054
Si Si4 0.593255 0.289070 0.048912
Si Si5 0.078719 0.000000 0.238631
O O1 0.500000 0.762350 0.500000
O O2 0.250000 0.732658 0.457254
O O3 0.451583 0.500000 0.429634
O O4 0.471558 0.823976 0.395122
O O5 0.750000 0.249121 0.179723
O O6 0.946919 0.500000 0.184414
O O7 0.966232 0.243538 0.109552
O O8 0.015464 0.177729 0.211722
O O9 0.750000 0.000000 0.640204
O O10 0.977943 0.000000 0.698740
O O11 0.750000 0.205788 0.042660
O O12 0.601267 0.500000 0.042305
O O13 0.500000 0.203479 0.000000
O O14 0.250000 0.000000 0.233610
#
# Coordination Sequence:
#
# PCOD8214610 Si02
#       5
#     8   8   4   8   4
#     4   9  17  31  52  76 102 131 162 199 245 297
#     4   9  19  37  57  75 102 141 177 213 265 322
#     4   9  19  34  50  71 101 136 169 203 250 301
#     4   8  14  26  47  74 100 127 162 206 259 317
#     4  11  23  36  53  79 106 136 182 229 260 299
#
# _framework density 18.730205999999999
#
# number of rings (size 3 to 8) (size 9 to 14) (size 15 to 20)
#    0.000    3.000    0.000    2.250    0.000    2.500 
#    0.000    8.125    0.000    3.000    0.000    0.000 
#    0.000    0.000    0.000    0.000    0.000    0.000 
#
# Total GULP energy -396657.053507 kJ/mol
# GULP energy per Si atom -12395.532922 kJ/mol
# Density = 1.868758 g / cm^3
# Si number density = 18.730206 Si / 1000 Ang^3
#
#
#
# Elastic Constant Matrix: (Units=GPa)
#
#
# Indices 1 2 3 4 5 6 
#
# 1 67.0027 42.8951 67.1600 0.0000 0.0000 0.0000
# 2 42.8951 97.6833 78.7192 0.0000 0.0000 0.0000
# 3 67.1600 78.7192 184.5423 0.0000 0.0000 0.0000
# 4 0.0000 0.0000 0.0000 36.8659 0.0000 0.0000
# 5 0.0000 0.0000 0.0000 0.0000 31.0021 0.0000
# 6 0.0000 0.0000 0.0000 0.0000 0.0000 22.4374
#
#
#
# Elastic Compliance Matrix: (Units=1/GPa)
#
#
# Indices 1 2 3 4 5 6 
#
# 1 0.025384 -0.005641 -0.006831 0.000000 0.000000 0.000000
# 2 -0.005641 0.016853 -0.005136 0.000000 0.000000 0.000000
# 3 -0.006831 -0.005136 0.010096 0.000000 0.000000 0.000000
# 4 0.000000 0.000000 0.000000 0.027125 0.000000 0.000000
# 5 0.000000 0.000000 0.000000 0.000000 0.032256 0.000000
# 6 0.000000 0.000000 0.000000 0.000000 0.000000 0.044568
#
#
# Mechanical properties :
#
#
# Convention : Reuss Voigt Hill
#
# Bulk Modulus (GPa) = 58.42731 80.75297 69.59014
# Shear Modulus (GPa) = 25.35425 28.75801 27.05613
#
# Velocity S-wave (km/s) = 3.68320 3.92265 3.80481
# Velocity P-wave (km/s) = 7.02494 7.98270 7.51909
#
# Compressibility (1/GPa) = 0.01711528
#
# Stress axis : x y z
#
# Youngs Moduli (GPa) = 39.39501 59.33538 99.05130
#
# Poissons Ratio (x) = 0.33474 0.67666
# Poissons Ratio (y) = 0.22225 0.50872
# Poissons Ratio (z) = 0.26912 0.30474
#
# Static dielectric constant tensor:
#      x y z
#    x 3.450610 0.000000 0.000000 
#    y 0.000000 3.366240 0.000000 
#    z 0.000000 0.000000 3.668940 
# 
# 
# High freq. dielectric constant tensor:
#      x y z
#    x 1.707180 0.000000 0.000000 
#    y 0.000000 1.728420 0.000000 
#    z 0.000000 0.000000 1.726740 
# 
# From -- ./inp_files/31097.got.cif
#   From: 2010.03.12/outbox.cif.g09.slc.cpg/sg51_16_cif.got.tgz:31097.got - 2010.04.16 13:43:02.
