data_PCOD8214060
_publ_section_title
;
Structure prediction by ZEFSAII (Michael W. Deem and Ramdas Pophale) SiO2 
 PCOD8214060
Probable space group: P M M A
;
_chemical_formula_sum "Si O2"
_cell_formula_units_Z 40
_cell_length_a 9.897058
_cell_length_b 16.172692
_cell_length_c 13.461311
_cell_angle_alpha 90.000000
_cell_angle_beta 90.000000
_cell_angle_gamma 90.000000
_cell_volume 2154.645314
_symmetry_space_group_name_H-M "P M M A"
_symmetry_group_IT_number 51
_symmetry_cell_setting 'orthorhombic'
loop_
_space_group_symop_operation_xyz
x,y,z
1/2-x,-y,z
1/2+x,-y,-z
-x,y,-z
-x,-y,-z
1/2+x,y,-z
1/2-x,y,z
x,-y,z
loop_
_atom_site_type_symbol
_atom_site_label
_atom_site_fract_x
_atom_site_fract_y
_atom_site_fract_z
Si Si1 0.250000 0.174974 0.424265
Si Si2 0.750000 0.000000 0.271752
Si Si3 0.750000 0.000000 0.653595
Si Si4 0.534423 0.000000 0.823248
Si Si5 0.098562 0.174983 0.086492
Si Si6 0.971774 0.253107 0.710597
Si Si7 0.750000 0.819711 0.348577
Si Si8 0.593078 0.404955 0.594129
O O1 0.114982 0.206539 0.372410
O O2 0.250000 0.206012 0.536788
O O3 0.250000 0.076536 0.420348
O O4 0.876831 0.000000 0.198871
O O5 0.750000 0.918857 0.340259
O O6 0.616608 0.000000 0.720883
O O7 0.570357 0.080277 0.886271
O O8 0.250000 0.182198 0.045401
O O9 0.084722 0.235430 0.180414
O O10 0.000000 0.205776 0.000000
O O11 0.959504 0.350849 0.687260
O O12 0.122948 0.219671 0.706764
O O13 0.500000 0.383287 0.500000
O O14 0.750000 0.384278 0.568942
O O15 0.575954 0.500000 0.625513
#
# Coordination Sequence:
#
# PCOD8214060 Si02
#       8
#     4   2   2   4   8   8   4   8
#     4  12  21  38  59  82 121 163 207 238 302 358
#     4  12  23  38  55  86 124 162 205 254 295 362
#     4  12  19  38  59  76 116 170 191 252 303 354
#     4  12  21  40  58  80 117 153 202 259 318 350
#     4  12  25  42  64  86 114 155 207 262 316 364
#     4  12  23  41  59  88 125 159 202 257 301 359
#     4  12  25  36  59  90 121 167 209 248 294 362
#     4  10  21  38  63  95 128 163 199 240 301 371
#
# _framework density 18.564540999999998
#
# number of rings (size 3 to 8) (size 9 to 14) (size 15 to 20)
#    0.000    0.400    7.000    2.400    4.200    0.000 
#    0.000    3.000    0.000    0.600    0.000    0.000 
#    0.000    0.000    0.000    0.000    0.000    0.000 
#
# Total GULP energy -496209.542224 kJ/mol
# GULP energy per Si atom -12405.238556 kJ/mol
# Density = 1.852229 g / cm^3
# Si number density = 18.564541 Si / 1000 Ang^3
#
#
#
# Elastic Constant Matrix: (Units=GPa)
#
#
# Indices 1 2 3 4 5 6 
#
# 1 153.6507 31.9776 34.2548 0.0000 0.0000 0.0000
# 2 31.9776 110.6092 33.2859 0.0000 0.0000 0.0000
# 3 34.2548 33.2859 86.2638 0.0000 0.0000 0.0000
# 4 0.0000 0.0000 0.0000 3.0269 0.0000 0.0000
# 5 0.0000 0.0000 0.0000 0.0000 31.0285 0.0000
# 6 0.0000 0.0000 0.0000 0.0000 0.0000 -26.7956
#
#
#
# Elastic Compliance Matrix: (Units=1/GPa)
#
#
# Indices 1 2 3 4 5 6 
#
# 1 0.007329 -0.001406 -0.002368 0.000000 0.000000 0.000000
# 2 -0.001406 0.010498 -0.003492 0.000000 0.000000 0.000000
# 3 -0.002368 -0.003492 0.013880 0.000000 0.000000 0.000000
# 4 0.000000 0.000000 0.000000 0.330372 0.000000 0.000000
# 5 0.000000 0.000000 0.000000 0.000000 0.032228 0.000000
# 6 0.000000 0.000000 0.000000 0.000000 0.000000 -0.037320
#
#
# Mechanical properties :
#
#
# Convention : Reuss Voigt Hill
#
# Bulk Modulus (GPa) = 58.22567 61.06225 59.64396
# Shear Modulus (GPa) = 13.25396 18.18568 15.71982
#
# Velocity S-wave (km/s) = 2.67486 3.13324 2.91308
# Velocity P-wave (km/s) = 6.40093 6.78623 6.59639
#
# Compressibility (1/GPa) = 0.01717456
#
# Stress axis : x y z
#
# Youngs Moduli (GPa) = 136.44861 95.25254 72.04556
#
# Poissons Ratio (x) = 0.13395 0.17057
# Poissons Ratio (y) = 0.19189 0.25162
# Poissons Ratio (z) = 0.32305 0.33267
#
# Static dielectric constant tensor:
#      x y z
#    x 3.800380 0.000000 0.000000 
#    y 0.000000 3.536670 0.000000 
#    z 0.000000 0.000000 3.239290 
# 
# 
# High freq. dielectric constant tensor:
#      x y z
#    x 1.744400 0.000000 0.000000 
#    y 0.000000 1.712430 0.000000 
#    z 0.000000 0.000000 1.699760 
# 
# From -- ./inp_files/20655.got.cif
#   From: 2010.03.12/outbox.cif.g09.slc.cpg/sg51_11_cif.got.tgz:20655.got - 2010.04.16 13:43:02.
