data_PCOD8214139
_publ_section_title
;
Structure prediction by ZEFSAII (Michael W. Deem and Ramdas Pophale) SiO2 
 PCOD8214139
Probable space group: P M M A
;
_chemical_formula_sum "Si O2"
_cell_formula_units_Z 56
_cell_length_a 20.689753
_cell_length_b 8.615313
_cell_length_c 15.089960
_cell_angle_alpha 90.000000
_cell_angle_beta 90.000000
_cell_angle_gamma 90.000000
_cell_volume 2689.765723
_symmetry_space_group_name_H-M "P M M A"
_symmetry_group_IT_number 51
_symmetry_cell_setting 'orthorhombic'
loop_
_space_group_symop_operation_xyz
x,y,z
1/2-x,-y,z
1/2+x,-y,-z
-x,y,-z
-x,-y,-z
1/2+x,y,-z
1/2-x,y,z
x,-y,z
loop_
_atom_site_type_symbol
_atom_site_label
_atom_site_fract_x
_atom_site_fract_y
_atom_site_fract_z
Si Si1 0.122028 0.819631 0.492776
Si Si2 0.250000 0.681156 0.421416
Si Si3 0.534420 0.822697 0.666690
Si Si4 0.571634 0.680068 0.001424
Si Si5 0.750000 0.314403 0.776032
Si Si6 0.621942 0.823262 0.832636
Si Si7 0.096939 0.680379 0.679973
Si Si8 0.324807 0.684130 0.854263
O O1 0.187207 0.729635 0.474239
O O2 0.063118 0.766059 0.428356
O O3 0.106243 0.786444 0.594168
O O4 0.134524 0.000000 0.476853
O O5 0.250000 0.500000 0.412195
O O6 0.250000 0.752339 0.323512
O O7 0.591967 0.806631 0.735858
O O8 0.477773 0.712182 0.704399
O O9 0.509278 0.000000 0.659502
O O10 0.565762 0.500000 0.025552
O O11 0.625562 0.751474 0.070289
O O12 0.500000 0.757719 0.000000
O O13 0.590871 0.705600 0.901045
O O14 0.750000 0.500000 0.781616
O O15 0.806820 0.238367 0.829387
O O16 0.618085 0.000000 0.867221
O O17 0.107621 0.500000 0.657827
O O18 0.145328 0.732752 0.758694
O O19 0.250000 0.747498 0.863572
O O20 0.322485 0.500000 0.862250
#
# Coordination Sequence:
#
# PCOD8214139 Si02
#       8
#     8   4   8   8   4   8   8   8
#     4  11  23  40  61  86 123 167 203 243 308 375
#     4  11  23  39  61  90 121 156 205 259 300 350
#     4  10  22  40  60  85 123 166 198 239 306 377
#     4  10  21  39  64  93 122 158 206 257 311 371
#     4  11  23  39  61  90 123 160 201 251 306 362
#     4  11  23  39  62  91 125 162 200 246 305 371
#     4  11  23  38  62  90 117 156 209 264 303 351
#     4   9  20  39  60  84 120 161 201 253 316 367
#
# _framework density 20.819655000000001
#
# number of rings (size 3 to 8) (size 9 to 14) (size 15 to 20)
#    0.000    1.571    1.429    3.000    2.000    6.000 
#    0.000    1.429    0.000    1.714    0.000    0.000 
#    0.000    0.000    0.000    0.000    0.000    0.000 
#
# Total GULP energy -694111.562504 kJ/mol
# GULP energy per Si atom -12394.849330 kJ/mol
# Density = 2.077227 g / cm^3
# Si number density = 20.819655 Si / 1000 Ang^3
#
#
#
# Elastic Constant Matrix: (Units=GPa)
#
#
# Indices 1 2 3 4 5 6 
#
# 1 160.9175 19.9450 51.6945 0.0000 0.0000 0.0000
# 2 19.9450 20.5890 16.1079 0.0000 0.0000 0.0000
# 3 51.6945 16.1079 112.3718 0.0000 0.0000 0.0000
# 4 0.0000 0.0000 0.0000 27.8252 0.0000 0.0000
# 5 0.0000 0.0000 0.0000 0.0000 39.5215 0.0000
# 6 0.0000 0.0000 0.0000 0.0000 0.0000 25.4359
#
#
#
# Elastic Compliance Matrix: (Units=1/GPa)
#
#
# Indices 1 2 3 4 5 6 
#
# 1 0.007780 -0.005335 -0.002814 0.000000 0.000000 0.000000
# 2 -0.005335 0.058363 -0.005912 0.000000 0.000000 0.000000
# 3 -0.002814 -0.005912 0.011041 0.000000 0.000000 0.000000
# 4 0.000000 0.000000 0.000000 0.035939 0.000000 0.000000
# 5 0.000000 0.000000 0.000000 0.000000 0.025303 0.000000
# 6 0.000000 0.000000 0.000000 0.000000 0.000000 0.039314
#
#
# Mechanical properties :
#
#
# Convention : Reuss Voigt Hill
#
# Bulk Modulus (GPa) = 20.38239 52.15256 36.26748
# Shear Modulus (GPa) = 22.50080 32.29858 27.39969
#
# Velocity S-wave (km/s) = 3.29104 3.94299 3.63167
# Velocity P-wave (km/s) = 4.92468 6.77005 5.91972
#
# Compressibility (1/GPa) = 0.04906195
#
# Stress axis : x y z
#
# Youngs Moduli (GPa) = 128.54103 17.13427 90.57098
#
# Poissons Ratio (x) = 0.09140 0.25488
# Poissons Ratio (y) = 0.68572 0.53544
# Poissons Ratio (z) = 0.36174 0.10130
#
# Static dielectric constant tensor:
#      x y z
#    x 4.142320 0.000000 0.000000 
#    y 0.000000 3.526910 0.000000 
#    z 0.000000 0.000000 3.883440 
# 
# 
# High freq. dielectric constant tensor:
#      x y z
#    x 1.833310 0.000000 0.000000 
#    y 0.000000 1.789780 0.000000 
#    z 0.000000 0.000000 1.822130 
# 
# From -- ./inp_files/25892.got.cif
#   From: 2010.03.12/outbox.cif.g09.slc.cpg/sg51_13_cif.got.tgz:25892.got - 2010.04.16 13:43:02.
