data_PCOD8214344
_publ_section_title
;
Structure prediction by ZEFSAII (Michael W. Deem and Ramdas Pophale) SiO2 
 PCOD8214344
Probable space group: P M M A
;
_chemical_formula_sum "Si O2"
_cell_formula_units_Z 48
_cell_length_a 21.399618
_cell_length_b 8.634425
_cell_length_c 12.199730
_cell_angle_alpha 90.000000
_cell_angle_beta 90.000000
_cell_angle_gamma 90.000000
_cell_volume 2254.185550
_symmetry_space_group_name_H-M "P M M A"
_symmetry_group_IT_number 51
_symmetry_cell_setting 'orthorhombic'
loop_
_space_group_symop_operation_xyz
x,y,z
1/2-x,-y,z
1/2+x,-y,-z
-x,y,-z
-x,-y,-z
1/2+x,y,-z
1/2-x,y,z
x,-y,z
loop_
_atom_site_type_symbol
_atom_site_label
_atom_site_fract_x
_atom_site_fract_y
_atom_site_fract_z
Si Si1 0.572442 0.682350 0.524025
Si Si2 0.680993 0.321783 0.357111
Si Si3 0.653199 0.177706 0.132322
Si Si4 0.820238 0.326726 0.906013
Si Si5 0.416915 0.178963 0.247439
Si Si6 0.025059 0.324169 0.878995
O O1 0.500000 0.728890 0.500000
O O2 0.577609 0.500000 0.546009
O O3 0.621654 0.733972 0.429741
O O4 0.597778 0.775770 0.628274
O O5 0.750000 0.300542 0.414481
O O6 0.669844 0.500000 0.326705
O O7 0.684936 0.225460 0.245542
O O8 0.579576 0.203679 0.142797
O O9 0.668222 0.000000 0.108102
O O10 0.679800 0.277569 0.032482
O O11 0.750000 0.327172 0.861675
O O12 0.849340 0.500000 0.897585
O O13 0.857765 0.208644 0.830100
O O14 0.472802 0.289151 0.209973
O O15 0.435606 0.000000 0.237903
O O16 0.048462 0.500000 0.862507
O O17 0.000000 0.295752 0.000000
#
# Coordination Sequence:
#
# PCOD8214344 Si02
#       6
#     8   8   8   8   8   8
#     4  10  22  42  67  92 123 167 218 266 315 379
#     4  10  22  41  65  92 124 169 223 270 317 383
#     4  12  24  38  62  95 131 164 203 261 325 381
#     4  11  24  42  63  87 121 168 216 256 301 370
#     4  12  25  40  63  95 130 162 200 256 322 379
#     4  11  22  38  63  90 123 166 209 251 303 373
#
# _framework density 21.293723
#
# number of rings (size 3 to 8) (size 9 to 14) (size 15 to 20)
#    0.000    1.000    1.667    5.500    0.000    7.333 
#    0.000    1.667    0.000    0.000    0.000    0.000 
#    0.000    0.000    0.000    0.000    0.000    0.000 
#
# Total GULP energy -595295.139880 kJ/mol
# GULP energy per Si atom -12401.982081 kJ/mol
# Density = 2.124526 g / cm^3
# Si number density = 21.293723 Si / 1000 Ang^3
#
#
#
# Elastic Constant Matrix: (Units=GPa)
#
#
# Indices 1 2 3 4 5 6 
#
# 1 122.6143 19.9284 36.2311 0.0000 0.0000 0.0000
# 2 19.9284 75.5947 29.5703 0.0000 0.0000 0.0000
# 3 36.2311 29.5703 109.9063 0.0000 0.0000 0.0000
# 4 0.0000 0.0000 0.0000 23.0671 0.0000 0.0000
# 5 0.0000 0.0000 0.0000 0.0000 13.9709 0.0000
# 6 0.0000 0.0000 0.0000 0.0000 0.0000 21.5565
#
#
#
# Elastic Compliance Matrix: (Units=1/GPa)
#
#
# Indices 1 2 3 4 5 6 
#
# 1 0.009163 -0.001379 -0.002649 0.000000 0.000000 0.000000
# 2 -0.001379 0.014992 -0.003579 0.000000 0.000000 0.000000
# 3 -0.002649 -0.003579 0.010935 0.000000 0.000000 0.000000
# 4 0.000000 0.000000 0.000000 0.043352 0.000000 0.000000
# 5 0.000000 0.000000 0.000000 0.000000 0.071577 0.000000
# 6 0.000000 0.000000 0.000000 0.000000 0.000000 0.046390
#
#
# Mechanical properties :
#
#
# Convention : Reuss Voigt Hill
#
# Bulk Modulus (GPa) = 50.31553 53.28612 51.80082
# Shear Modulus (GPa) = 22.90967 26.54460 24.72714
#
# Velocity S-wave (km/s) = 3.28363 3.53454 3.41140
# Velocity P-wave (km/s) = 6.16903 6.46034 6.31636
#
# Compressibility (1/GPa) = 0.01987458
#
# Stress axis : x y z
#
# Youngs Moduli (GPa) = 109.13828 66.70231 91.44953
#
# Poissons Ratio (x) = 0.09199 0.24229
# Poissons Ratio (y) = 0.15051 0.32730
# Poissons Ratio (z) = 0.28916 0.23873
#
# Static dielectric constant tensor:
#      x y z
#    x 4.043070 0.000000 0.000000 
#    y 0.000000 3.761660 0.000000 
#    z 0.000000 0.000000 3.837340 
# 
# 
# High freq. dielectric constant tensor:
#      x y z
#    x 1.848720 0.000000 0.000000 
#    y 0.000000 1.829610 0.000000 
#    z 0.000000 0.000000 1.830810 
# 
# From -- ./inp_files/18574.got.cif
#   From: 2010.03.12/outbox.cif.g09.slc.cpg/sg51_10_cif.got.tgz:18574.got - 2010.04.16 13:43:02.
