data_PCOD8214544
_publ_section_title
;
Structure prediction by ZEFSAII (Michael W. Deem and Ramdas Pophale) SiO2 
 PCOD8214544
Probable space group: P M M A
;
_chemical_formula_sum "Si O2"
_cell_formula_units_Z 48
_cell_length_a 8.900169
_cell_length_b 15.147256
_cell_length_c 18.791291
_cell_angle_alpha 90.000000
_cell_angle_beta 90.000000
_cell_angle_gamma 90.000000
_cell_volume 2533.312912
_symmetry_space_group_name_H-M "P M M A"
_symmetry_group_IT_number 51
_symmetry_cell_setting 'orthorhombic'
loop_
_space_group_symop_operation_xyz
x,y,z
1/2-x,-y,z
1/2+x,-y,-z
-x,y,-z
-x,-y,-z
1/2+x,y,-z
1/2-x,y,z
x,-y,z
loop_
_atom_site_type_symbol
_atom_site_label
_atom_site_fract_x
_atom_site_fract_y
_atom_site_fract_z
Si Si1 0.071348 0.597651 0.158329
Si Si2 0.928332 0.598113 0.682561
Si Si3 0.577732 0.102407 0.179109
Si Si4 0.427082 0.234585 0.075102
Si Si5 0.072260 0.745989 0.424197
Si Si6 0.923540 0.898408 0.342559
O O1 0.250000 0.600633 0.159979
O O2 0.016754 0.500000 0.133595
O O3 0.010374 0.617786 0.237871
O O4 0.009360 0.671733 0.104433
O O5 0.750000 0.603446 0.683395
O O6 0.980223 0.500000 0.658560
O O7 0.993133 0.670417 0.628263
O O8 0.750000 0.128287 0.163362
O O9 0.467103 0.157796 0.130008
O O10 0.537001 0.122750 0.260808
O O11 0.551294 0.000000 0.162112
O O12 0.250000 0.237533 0.065516
O O13 0.500000 0.213027 0.000000
O O14 0.250000 0.741205 0.431572
O O15 0.000000 0.728772 0.500000
O O16 0.027313 0.841187 0.393996
O O17 0.750000 0.876850 0.357960
O O18 0.958435 0.000000 0.359711
#
# Coordination Sequence:
#
# PCOD8214544 Si02
#       6
#     8   8   8   8   8   8
#     4   8  15  30  52  76 101 131 170 215 260 306
#     4   8  15  30  52  76 101 131 170 215 260 306
#     4   9  19  37  59  80 103 133 169 212 263 314
#     4  11  22  34  51  77 108 142 177 213 256 305
#     4  11  22  34  51  77 108 142 177 213 256 305
#     4   9  19  37  59  80 103 133 169 212 263 314
#
# _framework density 18.947520999999998
#
# number of rings (size 3 to 8) (size 9 to 14) (size 15 to 20)
#    0.000    2.667    0.000    4.000    0.000    4.000 
#    0.000    1.667    0.000    3.000    0.000   11.667 
#    0.000    0.000    0.000    0.000    0.000    0.000 
#
# Total GULP energy -595145.747550 kJ/mol
# GULP energy per Si atom -12398.869741 kJ/mol
# Density = 1.890440 g / cm^3
# Si number density = 18.947521 Si / 1000 Ang^3
#
#
#
# Elastic Constant Matrix: (Units=GPa)
#
#
# Indices 1 2 3 4 5 6 
#
# 1 43.9569 19.2344 18.5440 0.0000 0.0000 0.0000
# 2 19.2344 72.2628 19.7352 0.0000 0.0000 0.0000
# 3 18.5440 19.7352 53.6649 0.0000 0.0000 0.0000
# 4 0.0000 0.0000 0.0000 15.7796 0.0000 0.0000
# 5 0.0000 0.0000 0.0000 0.0000 19.2106 0.0000
# 6 0.0000 0.0000 0.0000 0.0000 0.0000 18.6867
#
#
#
# Elastic Compliance Matrix: (Units=1/GPa)
#
#
# Indices 1 2 3 4 5 6 
#
# 1 0.028427 -0.005429 -0.007826 0.000000 0.000000 0.000000
# 2 -0.005429 0.016420 -0.004163 0.000000 0.000000 0.000000
# 3 -0.007826 -0.004163 0.022869 0.000000 0.000000 0.000000
# 4 0.000000 0.000000 0.000000 0.063373 0.000000 0.000000
# 5 0.000000 0.000000 0.000000 0.000000 0.052055 0.000000
# 6 0.000000 0.000000 0.000000 0.000000 0.000000 0.053514
#
#
# Mechanical properties :
#
#
# Convention : Reuss Voigt Hill
#
# Bulk Modulus (GPa) = 30.41313 31.65683 31.03498
# Shear Modulus (GPa) = 17.70199 18.22678 17.96439
#
# Velocity S-wave (km/s) = 3.05989 3.10491 3.08248
# Velocity P-wave (km/s) = 5.34509 5.44040 5.39295
#
# Compressibility (1/GPa) = 0.03288053
#
# Stress axis : x y z
#
# Youngs Moduli (GPa) = 35.17800 60.90047 43.72663
#
# Poissons Ratio (x) = 0.33063 0.34222
# Poissons Ratio (y) = 0.19098 0.18201
# Poissons Ratio (z) = 0.27532 0.25350
#
# Static dielectric constant tensor:
#      x y z
#    x 3.089580 0.000000 0.000000 
#    y 0.000000 3.692940 0.000000 
#    z 0.000000 0.000000 3.514140 
# 
# 
# High freq. dielectric constant tensor:
#      x y z
#    x 1.703460 0.000000 0.000000 
#    y 0.000000 1.748690 0.000000 
#    z 0.000000 0.000000 1.735910 
# 
# From -- ./inp_files/9666.got.cif
#   From: 2010.03.12/outbox.cif.g09.slc.cpg/sg51_5_cif.got.tgz:9666.got - 2010.04.16 13:43:02.
