data_PCOD8214965
_publ_section_title
;
Structure prediction by ZEFSAII (Michael W. Deem and Ramdas Pophale) SiO2 
 PCOD8214965
Probable space group: P N N A
;
_chemical_formula_sum "Si O2"
_cell_formula_units_Z 56
_cell_length_a 14.371973
_cell_length_b 16.332671
_cell_length_c 10.862345
_cell_angle_alpha 90.000000
_cell_angle_beta 90.000000
_cell_angle_gamma 90.000000
_cell_volume 2549.747642
_symmetry_space_group_name_H-M "P N N A"
_symmetry_group_IT_number 52
_symmetry_cell_setting 'orthorhombic'
loop_
_space_group_symop_operation_xyz
x,y,z
1/2-x,-y,z
x,1/2-y,1/2-z
1/2-x,1/2+y,1/2-z
-x,-y,-z
1/2+x,y,-z
-x,1/2+y,1/2+z
1/2+x,1/2-y,1/2+z
loop_
_atom_site_type_symbol
_atom_site_label
_atom_site_fract_x
_atom_site_fract_y
_atom_site_fract_z
Si Si1 0.250000 0.500000 0.162758
Si Si2 0.545362 0.252799 0.986338
Si Si3 0.916640 0.936485 0.496947
Si Si4 0.310954 0.690726 0.636176
Si Si5 0.888866 0.137931 0.097263
Si Si6 0.089380 0.466882 0.721512
Si Si7 0.388504 0.091876 0.183135
Si Si8 0.961363 0.250000 0.750000
O O1 0.294276 0.438834 0.259057
O O2 0.170514 0.458060 0.081491
O O3 0.540428 0.349333 0.957794
O O4 0.653427 0.225007 0.001193
O O5 0.517990 0.230857 0.126881
O O6 0.480813 0.197820 0.894927
O O7 0.879963 0.938504 0.357814
O O8 0.000000 0.000000 0.500000
O O9 0.341563 0.750000 0.750000
O O10 0.199502 0.692322 0.632851
O O11 0.352840 0.598067 0.640829
O O12 0.888555 0.061356 0.191028
O O13 0.874917 0.104393 0.960944
O O14 0.978529 0.464747 0.702634
O O15 0.398892 0.171194 0.269382
#
# Coordination Sequence:
#
# PCOD8214965 Si02
#       8
#     4   8   8   8   8   8   8   4
#     4  12  28  42  68 110 140 192 242 292 354 452
#     4  11  21  44  68  97 138 185 236 294 362 423
#     4  12  25  46  72  98 144 197 244 297 361 440
#     4  12  23  44  71 106 136 187 238 291 361 447
#     4  11  28  40  76 109 141 183 240 314 357 437
#     4  12  23  47  72 101 141 192 237 296 379 427
#     4  11  23  45  70  97 140 181 239 289 368 431
#     4  10  16  42  70  88 120 192 222 278 360 432
#
# _framework density 21.962959000000001
#
# number of rings (size 3 to 8) (size 9 to 14) (size 15 to 20)
#    0.000    0.571    7.857    0.857    4.000    4.571 
#    0.000    0.000    0.000    0.000    0.000    0.000 
#    0.000    0.000    0.000    0.000    0.000    0.000 
#
# Total GULP energy -693808.461210 kJ/mol
# GULP energy per Si atom -12389.436807 kJ/mol
# Density = 2.191297 g / cm^3
# Si number density = 21.962959 Si / 1000 Ang^3
#
#
#
# Elastic Constant Matrix: (Units=GPa)
#
#
# Indices 1 2 3 4 5 6 
#
# 1 121.6220 47.8620 7.7652 0.0000 0.0000 0.0000
# 2 47.8620 143.5842 8.2811 0.0000 0.0000 0.0000
# 3 7.7652 8.2811 47.7532 0.0000 0.0000 0.0000
# 4 0.0000 0.0000 0.0000 30.9032 0.0000 0.0000
# 5 0.0000 0.0000 0.0000 0.0000 48.4686 0.0000
# 6 0.0000 0.0000 0.0000 0.0000 0.0000 65.7668
#
#
#
# Elastic Compliance Matrix: (Units=1/GPa)
#
#
# Indices 1 2 3 4 5 6 
#
# 1 0.009511 -0.003112 -0.001007 0.000000 0.000000 0.000000
# 2 -0.003112 0.008053 -0.000890 0.000000 0.000000 0.000000
# 3 -0.001007 -0.000890 0.021259 0.000000 0.000000 0.000000
# 4 0.000000 0.000000 0.000000 0.032359 0.000000 0.000000
# 5 0.000000 0.000000 0.000000 0.000000 0.020632 0.000000
# 6 0.000000 0.000000 0.000000 0.000000 0.000000 0.015205
#
#
# Mechanical properties :
#
#
# Convention : Reuss Voigt Hill
#
# Bulk Modulus (GPa) = 34.71705 48.97512 41.84608
# Shear Modulus (GPa) = 39.48166 45.63114 42.55640
#
# Velocity S-wave (km/s) = 4.24447 4.56306 4.40664
# Velocity P-wave (km/s) = 6.31364 7.07880 6.70714
#
# Compressibility (1/GPa) = 0.02880429
#
# Stress axis : x y z
#
# Youngs Moduli (GPa) = 105.13799 124.17129 47.03857
#
# Poissons Ratio (x) = 0.38647 0.04736
# Poissons Ratio (y) = 0.32723 0.04189
# Poissons Ratio (z) = 0.10587 0.11057
#
# Static dielectric constant tensor:
#      x y z
#    x 4.177640 0.000000 0.000000 
#    y 0.000000 3.993270 0.000000 
#    z 0.000000 0.000000 3.851280 
# 
# 
# High freq. dielectric constant tensor:
#      x y z
#    x 1.870260 0.000000 0.000000 
#    y 0.000000 1.874070 0.000000 
#    z 0.000000 0.000000 1.846690 
# 
# From -- ./inp_files/19704.got.cif
#   From: 2010.06.25/outbox.cif.g09.slc.cpg/sg52_10_cif.got.tgz:19704.got - 2010.06.26 19:32:48.
