data_PCOD8214596
_publ_section_title
;
Structure prediction by ZEFSAII (Michael W. Deem and Ramdas Pophale) SiO2 
 PCOD8214596
Probable space group: P M M A
;
_chemical_formula_sum "Si O2"
_cell_formula_units_Z 56
_cell_length_a 8.791749
_cell_length_b 19.872145
_cell_length_c 15.502706
_cell_angle_alpha 90.000000
_cell_angle_beta 90.000000
_cell_angle_gamma 90.000000
_cell_volume 2708.491887
_symmetry_space_group_name_H-M "P M M A"
_symmetry_group_IT_number 51
_symmetry_cell_setting 'orthorhombic'
loop_
_space_group_symop_operation_xyz
x,y,z
1/2-x,-y,z
1/2+x,-y,-z
-x,y,-z
-x,-y,-z
1/2+x,y,-z
1/2-x,y,z
x,-y,z
loop_
_atom_site_type_symbol
_atom_site_label
_atom_site_fract_x
_atom_site_fract_y
_atom_site_fract_z
Si Si1 0.574557 0.078351 0.748669
Si Si2 0.428014 0.152704 0.588140
Si Si3 0.569521 0.714366 0.155821
Si Si4 0.570233 0.428948 0.152210
Si Si5 0.574978 0.427159 0.663261
Si Si6 0.926177 0.702144 0.351826
Si Si7 0.569309 0.854747 0.089172
O O1 0.750000 0.098219 0.760666
O O2 0.506924 0.117707 0.668260
O O3 0.484072 0.096680 0.834926
O O4 0.553645 0.000000 0.730289
O O5 0.500000 0.124258 0.500000
O O6 0.250000 0.136134 0.591197
O O7 0.459476 0.232591 0.590812
O O8 0.750000 0.718354 0.153948
O O9 0.512043 0.642786 0.112571
O O10 0.514816 0.718150 0.254941
O O11 0.504659 0.778776 0.105056
O O12 0.750000 0.430185 0.144860
O O13 0.505935 0.500000 0.110589
O O14 0.527349 0.428024 0.251871
O O15 0.750000 0.416872 0.688714
O O16 0.553725 0.500000 0.615373
O O17 0.517027 0.362513 0.608411
O O18 0.750000 0.683347 0.351639
O O19 0.750000 0.856675 0.084411
O O20 0.500000 0.881698 0.000000
#
# Coordination Sequence:
#
# PCOD8214596 Si02
#       7
#     8   8   8   8   8   8   8
#     4  11  25  45  68  95 125 157 196 241 294 359
#     4  11  23  41  65  94 126 161 201 246 295 353
#     4   8  14  28  50  76 107 145 192 243 292 346
#     4   8  13  23  41  66  98 140 190 240 290 347
#     4   9  16  24  38  68 107 144 187 242 298 347
#     4   9  17  32  53  77 108 150 197 241 291 351
#     4  11  22  39  62  90 124 161 203 251 300 357
#
# _framework density 20.675712000000001
#
# number of rings (size 3 to 8) (size 9 to 14) (size 15 to 20)
#    0.000    2.429    1.429    2.571    0.000    3.714 
#    0.000    0.714    0.000    0.857    0.000    0.000 
#    0.000    0.000    0.000    0.000    0.000    0.286 
#
# Total GULP energy -693739.532974 kJ/mol
# GULP energy per Si atom -12388.205946 kJ/mol
# Density = 2.062865 g / cm^3
# Si number density = 20.675712 Si / 1000 Ang^3
#
#
#
# Elastic Constant Matrix: (Units=GPa)
#
#
# Indices 1 2 3 4 5 6 
#
# 1 62.0620 44.9679 32.1553 0.0000 0.0000 0.0000
# 2 44.9679 93.7511 20.5945 0.0000 0.0000 0.0000
# 3 32.1553 20.5945 83.8915 0.0000 0.0000 0.0000
# 4 0.0000 0.0000 0.0000 5.8480 0.0000 0.0000
# 5 0.0000 0.0000 0.0000 0.0000 22.7677 0.0000
# 6 0.0000 0.0000 0.0000 0.0000 0.0000 29.2766
#
#
#
# Elastic Compliance Matrix: (Units=1/GPa)
#
#
# Indices 1 2 3 4 5 6 
#
# 1 0.029205 -0.012208 -0.008197 0.000000 0.000000 0.000000
# 2 -0.012208 0.016377 0.000659 0.000000 0.000000 0.000000
# 3 -0.008197 0.000659 0.014901 0.000000 0.000000 0.000000
# 4 0.000000 0.000000 0.000000 0.170999 0.000000 0.000000
# 5 0.000000 0.000000 0.000000 0.000000 0.043922 0.000000
# 6 0.000000 0.000000 0.000000 0.000000 0.000000 0.034157
#
#
# Mechanical properties :
#
#
# Convention : Reuss Voigt Hill
#
# Bulk Modulus (GPa) = 47.64098 48.34887 47.99493
# Shear Modulus (GPa) = 14.04297 21.04427 17.54362
#
# Velocity S-wave (km/s) = 2.60898 3.19380 2.91609
# Velocity P-wave (km/s) = 5.67166 6.08569 5.88232
#
# Compressibility (1/GPa) = 0.02099033
#
# Stress axis : x y z
#
# Youngs Moduli (GPa) = 34.24031 61.06028 67.11182
#
# Poissons Ratio (x) = 0.74540 0.55014
# Poissons Ratio (y) = 0.41799 -0.04421
# Poissons Ratio (z) = 0.28068 -0.04022
#
# Static dielectric constant tensor:
#      x y z
#    x 3.582430 0.000000 0.000000 
#    y 0.000000 4.491570 0.000000 
#    z 0.000000 0.000000 3.328230 
# 
# 
# High freq. dielectric constant tensor:
#      x y z
#    x 1.795140 0.000000 0.000000 
#    y 0.000000 1.832080 0.000000 
#    z 0.000000 0.000000 1.767480 
# 
# From -- ./inp_files/21748.got.cif
#   From: 2010.03.12/outbox.cif.g09.slc.cpg/sg51_11_cif.got.tgz:21748.got - 2010.04.16 13:43:02.
