data_PCOD8214064
_publ_section_title
;
Structure prediction by ZEFSAII (Michael W. Deem and Ramdas Pophale) SiO2 
 PCOD8214064
Probable space group: P M M A
;
_chemical_formula_sum "Si O2"
_cell_formula_units_Z 56
_cell_length_a 9.430206
_cell_length_b 19.530899
_cell_length_c 14.526630
_cell_angle_alpha 90.000000
_cell_angle_beta 90.000000
_cell_angle_gamma 90.000000
_cell_volume 2675.520538
_symmetry_space_group_name_H-M "P M M A"
_symmetry_group_IT_number 51
_symmetry_cell_setting 'orthorhombic'
loop_
_space_group_symop_operation_xyz
x,y,z
1/2-x,-y,z
1/2+x,-y,-z
-x,y,-z
-x,-y,-z
1/2+x,y,-z
1/2-x,y,z
x,-y,z
loop_
_atom_site_type_symbol
_atom_site_label
_atom_site_fract_x
_atom_site_fract_y
_atom_site_fract_z
Si Si1 0.404016 0.579766 0.340787
Si Si2 0.913826 0.079725 0.590121
Si Si3 0.585355 0.217615 0.089719
Si Si4 0.968166 0.355660 0.837837
Si Si5 0.584087 0.698255 0.412820
Si Si6 0.909065 0.174474 0.287388
Si Si7 0.250000 0.573904 0.048324
Si Si8 0.750000 0.426258 0.167039
O O1 0.250000 0.579657 0.391496
O O2 0.451682 0.500000 0.324205
O O3 0.370473 0.624255 0.248068
O O4 0.521896 0.621716 0.397716
O O5 0.750000 0.099106 0.575528
O O6 0.000000 0.101676 0.500000
O O7 0.976442 0.121166 0.675603
O O8 0.933266 0.000000 0.611926
O O9 0.750000 0.236690 0.064098
O O10 0.492824 0.278863 0.131107
O O11 0.584494 0.166110 0.176171
O O12 0.500000 0.189007 0.000000
O O13 0.895515 0.388141 0.927409
O O14 0.114779 0.385757 0.800116
O O15 0.500000 0.730798 0.500000
O O16 0.750000 0.692152 0.435581
O O17 0.557940 0.748197 0.324417
O O18 0.750000 0.154588 0.320321
O O19 0.250000 0.500000 0.097539
O O20 0.250000 0.565907 0.940978
O O21 0.750000 0.500000 0.215204
#
# Coordination Sequence:
#
# PCOD8214064 Si02
#       8
#     8   8   8   8   8   8   4   4
#     4  11  24  41  60  81 108 147 199 255 314 380
#     4  10  21  38  65 103 142 177 211 247 294 356
#     4  11  24  41  61  88 121 159 207 256 305 364
#     4  12  22  37  53  77 106 143 191 247 307 368
#     4  11  24  43  64  90 119 153 198 253 310 373
#     4  10  22  41  63  95 130 167 207 253 305 362
#     4  11  22  36  50  72 103 141 188 243 309 377
#     4  11  22  32  50  74 103 141 184 239 311 377
#
# _framework density 20.930506000000001
#
# number of rings (size 3 to 8) (size 9 to 14) (size 15 to 20)
#    0.000    1.143    2.857    3.857    2.000    5.429 
#    0.000    0.000    0.000    0.429    0.000    0.000 
#    0.000    0.000    0.000    0.000    0.000    0.000 
#
# Total GULP energy -693880.199677 kJ/mol
# GULP energy per Si atom -12390.717851 kJ/mol
# Density = 2.088287 g / cm^3
# Si number density = 20.930506 Si / 1000 Ang^3
#
#
#
# Elastic Constant Matrix: (Units=GPa)
#
#
# Indices 1 2 3 4 5 6 
#
# 1 145.1826 44.9368 44.9885 0.0000 0.0000 0.0000
# 2 44.9368 62.1087 25.7156 0.0000 0.0000 0.0000
# 3 44.9885 25.7156 101.0739 0.0000 0.0000 0.0000
# 4 0.0000 0.0000 0.0000 20.7017 0.0000 0.0000
# 5 0.0000 0.0000 0.0000 0.0000 34.1086 0.0000
# 6 0.0000 0.0000 0.0000 0.0000 0.0000 33.0559
#
#
#
# Elastic Compliance Matrix: (Units=1/GPa)
#
#
# Indices 1 2 3 4 5 6 
#
# 1 0.009526 -0.005742 -0.002779 0.000000 0.000000 0.000000
# 2 -0.005742 0.021457 -0.002904 0.000000 0.000000 0.000000
# 3 -0.002779 -0.002904 0.011870 0.000000 0.000000 0.000000
# 4 0.000000 0.000000 0.000000 0.048305 0.000000 0.000000
# 5 0.000000 0.000000 0.000000 0.000000 0.029318 0.000000
# 6 0.000000 0.000000 0.000000 0.000000 0.000000 0.030252
#
#
# Mechanical properties :
#
#
# Convention : Reuss Voigt Hill
#
# Bulk Modulus (GPa) = 49.99038 59.96078 54.97558
# Shear Modulus (GPa) = 27.73995 30.42152 29.08073
#
# Velocity S-wave (km/s) = 3.64447 3.81655 3.73150
# Velocity P-wave (km/s) = 6.45332 6.93767 6.69987
#
# Compressibility (1/GPa) = 0.02000385
#
# Stress axis : x y z
#
# Youngs Moduli (GPa) = 104.97260 46.60435 84.24872
#
# Poissons Ratio (x) = 0.26759 0.23416
# Poissons Ratio (y) = 0.60272 0.24462
# Poissons Ratio (z) = 0.29176 0.13532
#
# Static dielectric constant tensor:
#      x y z
#    x 4.004310 0.000000 0.000000 
#    y 0.000000 3.502590 0.000000 
#    z 0.000000 0.000000 3.868110 
# 
# 
# High freq. dielectric constant tensor:
#      x y z
#    x 1.840140 0.000000 0.000000 
#    y 0.000000 1.780050 0.000000 
#    z 0.000000 0.000000 1.817020 
# 
# From -- ./inp_files/21912.got.cif
#   From: 2010.03.12/outbox.cif.g09.slc.cpg/sg51_11_cif.got.tgz:21912.got - 2010.04.16 13:43:02.
