data_PCOD8214468
_publ_section_title
;
Structure prediction by ZEFSAII (Michael W. Deem and Ramdas Pophale) SiO2 
 PCOD8214468
Probable space group: P M M A
;
_chemical_formula_sum "Si O2"
_cell_formula_units_Z 56
_cell_length_a 9.218332
_cell_length_b 19.092529
_cell_length_c 18.612838
_cell_angle_alpha 90.000000
_cell_angle_beta 90.000000
_cell_angle_gamma 90.000000
_cell_volume 3275.883146
_symmetry_space_group_name_H-M "P M M A"
_symmetry_group_IT_number 51
_symmetry_cell_setting 'orthorhombic'
loop_
_space_group_symop_operation_xyz
x,y,z
1/2-x,-y,z
1/2+x,-y,-z
-x,y,-z
-x,-y,-z
1/2+x,y,-z
1/2-x,y,z
x,-y,z
loop_
_atom_site_type_symbol
_atom_site_label
_atom_site_fract_x
_atom_site_fract_y
_atom_site_fract_z
Si Si1 0.421982 0.576205 0.357086
Si Si2 0.080543 0.421845 0.195120
Si Si3 0.076774 0.718226 0.426567
Si Si4 0.578848 0.157817 0.072977
Si Si5 0.916546 0.707272 0.156914
Si Si6 0.581010 0.208208 0.300517
Si Si7 0.077872 0.077707 0.788274
O O1 0.250000 0.577154 0.353619
O O2 0.475105 0.500000 0.387018
O O3 0.480884 0.586022 0.276208
O O4 0.477142 0.639370 0.407116
O O5 0.250000 0.406973 0.193546
O O6 0.045777 0.500000 0.166203
O O7 0.005368 0.364136 0.144862
O O8 0.250000 0.723404 0.433582
O O9 0.000000 0.740227 0.500000
O O10 0.022174 0.771795 0.366269
O O11 0.750000 0.150307 0.062199
O O12 0.537852 0.236938 0.096183
O O13 0.521202 0.105246 0.134722
O O14 0.500000 0.137197 0.000000
O O15 0.750000 0.687593 0.148838
O O16 0.948236 0.739010 0.235256
O O17 0.750000 0.210317 0.323599
O O18 0.532626 0.130193 0.275802
O O19 0.250000 0.077052 0.792379
O O20 0.015048 0.000000 0.773038
#
# Coordination Sequence:
#
# PCOD8214468 Si02
#       7
#     8   8   8   8   8   8   8
#     4   8  15  28  44  63  90 122 154 191 236 282
#     4   9  16  27  45  68  91 117 155 201 244 284
#     4  11  21  32  48  68  94 128 161 197 240 283
#     4   9  18  31  47  72 103 133 160 189 225 273
#     4   9  17  29  46  67  94 124 157 197 238 277
#     4   9  17  31  50  71  94 120 157 198 232 278
#     4   8  15  30  53  77 100 128 157 187 230 279
#
# _framework density 17.094626999999999
#
# number of rings (size 3 to 8) (size 9 to 14) (size 15 to 20)
#    0.000    3.000    1.429    3.000    0.000    1.429 
#    0.000    2.143    0.000    3.429    0.000    0.000 
#    0.000    0.000    0.000    0.000    0.000    0.000 
#
# Total GULP energy -694082.304323 kJ/mol
# GULP energy per Si atom -12394.326863 kJ/mol
# Density = 1.705572 g / cm^3
# Si number density = 17.094627 Si / 1000 Ang^3
#
#
#
# Elastic Constant Matrix: (Units=GPa)
#
#
# Indices 1 2 3 4 5 6 
#
# 1 41.6824 40.5755 25.7357 0.0000 0.0000 0.0000
# 2 40.5755 135.9958 46.6590 0.0000 0.0000 0.0000
# 3 25.7357 46.6590 74.4203 0.0000 0.0000 0.0000
# 4 0.0000 0.0000 0.0000 18.9661 0.0000 0.0000
# 5 0.0000 0.0000 0.0000 0.0000 25.6159 0.0000
# 6 0.0000 0.0000 0.0000 0.0000 0.0000 18.3041
#
#
#
# Elastic Compliance Matrix: (Units=1/GPa)
#
#
# Indices 1 2 3 4 5 6 
#
# 1 0.036783 -0.008422 -0.007440 0.000000 0.000000 0.000000
# 2 -0.008422 0.011297 -0.004170 0.000000 0.000000 0.000000
# 3 -0.007440 -0.004170 0.018625 0.000000 0.000000 0.000000
# 4 0.000000 0.000000 0.000000 0.052726 0.000000 0.000000
# 5 0.000000 0.000000 0.000000 0.000000 0.039038 0.000000
# 6 0.000000 0.000000 0.000000 0.000000 0.000000 0.054632
#
#
# Mechanical properties :
#
#
# Convention : Reuss Voigt Hill
#
# Bulk Modulus (GPa) = 37.53731 53.11543 45.32637
# Shear Modulus (GPa) = 19.08075 21.85243 20.46659
#
# Velocity S-wave (km/s) = 3.34456 3.57924 3.46389
# Velocity P-wave (km/s) = 6.07626 6.94407 6.52461
#
# Compressibility (1/GPa) = 0.02664016
#
# Stress axis : x y z
#
# Youngs Moduli (GPa) = 27.18672 88.52159 53.69251
#
# Poissons Ratio (x) = 0.74552 0.39946
# Poissons Ratio (y) = 0.22896 0.22391
# Poissons Ratio (z) = 0.20226 0.36915
#
# Static dielectric constant tensor:
#      x y z
#    x 2.851280 0.000000 0.000000 
#    y 0.000000 3.528560 0.000000 
#    z 0.000000 0.000000 2.975910 
# 
# 
# High freq. dielectric constant tensor:
#      x y z
#    x 1.631760 0.000000 0.000000 
#    y 0.000000 1.662870 0.000000 
#    z 0.000000 0.000000 1.634210 
# 
# From -- ./inp_files/28255.got.cif
#   From: 2010.03.12/outbox.cif.g09.slc.cpg/sg51_15_cif.got.tgz:28255.got - 2010.04.16 13:43:02.
