data_PCOD8214374
_publ_section_title
;
Structure prediction by ZEFSAII (Michael W. Deem and Ramdas Pophale) SiO2 
 PCOD8214374
Probable space group: P M M A
;
_chemical_formula_sum "Si O2"
_cell_formula_units_Z 56
_cell_length_a 18.746519
_cell_length_b 8.829933
_cell_length_c 18.936499
_cell_angle_alpha 90.000000
_cell_angle_beta 90.000000
_cell_angle_gamma 90.000000
_cell_volume 3134.568276
_symmetry_space_group_name_H-M "P M M A"
_symmetry_group_IT_number 51
_symmetry_cell_setting 'orthorhombic'
loop_
_space_group_symop_operation_xyz
x,y,z
1/2-x,-y,z
1/2+x,-y,-z
-x,y,-z
-x,-y,-z
1/2+x,y,-z
1/2-x,y,z
x,-y,z
loop_
_atom_site_type_symbol
_atom_site_label
_atom_site_fract_x
_atom_site_fract_y
_atom_site_fract_z
Si Si1 0.170127 0.169324 0.704875
Si Si2 0.513079 0.820967 0.079610
Si Si3 0.167697 0.321775 0.461178
Si Si4 0.884954 0.667845 0.172731
Si Si5 0.460612 0.331338 0.209083
Si Si6 0.925866 0.322953 0.405136
Si Si7 0.568909 0.820991 0.646394
O O1 0.250000 0.165827 0.675437
O O2 0.172224 0.230814 0.785464
O O3 0.124931 0.285742 0.659805
O O4 0.136784 0.000000 0.702636
O O5 0.590738 0.752531 0.100748
O O6 0.451971 0.754779 0.133026
O O7 0.513978 0.000000 0.086841
O O8 0.500000 0.767187 0.000000
O O9 0.250000 0.277100 0.476744
O O10 0.160872 0.500000 0.447882
O O11 0.116770 0.269853 0.525362
O O12 0.140959 0.233534 0.391935
O O13 0.854698 0.500000 0.155621
O O14 0.954580 0.656012 0.223880
O O15 0.426721 0.500000 0.204380
O O16 0.426302 0.240388 0.273641
O O17 0.942595 0.500000 0.407038
O O18 0.001103 0.238478 0.398047
O O19 0.565345 0.000000 0.649607
#
# Coordination Sequence:
#
# PCOD8214374 Si02
#       7
#     8   8   8   8   8   8   8
#     4  11  22  33  48  72 104 140 174 213 262 313
#     4   9  16  27  46  73 105 134 160 200 253 300
#     4  10  23  41  57  74  99 133 173 217 264 313
#     4   9  18  30  46  68  98 134 171 210 247 292
#     4   9  18  31  49  73 101 133 169 210 249 293
#     4  11  21  36  56  77 100 132 174 216 257 309
#     4  12  23  35  55  79 105 135 169 213 263 310
#
# _framework density 17.865299
#
# number of rings (size 3 to 8) (size 9 to 14) (size 15 to 20)
#    0.857    1.000    1.429    3.857    0.000    6.000 
#    0.000    0.000    0.000    0.000    0.000    1.000 
#    0.000    1.143    0.000    0.000    0.000    0.000 
#
# Total GULP energy -693997.473583 kJ/mol
# GULP energy per Si atom -12392.812028 kJ/mol
# Density = 1.782464 g / cm^3
# Si number density = 17.865299 Si / 1000 Ang^3
#
#
#
# Elastic Constant Matrix: (Units=GPa)
#
#
# Indices 1 2 3 4 5 6 
#
# 1 46.4854 24.5491 31.3216 0.0000 0.0000 0.0000
# 2 24.5491 104.7590 50.9669 0.0000 0.0000 0.0000
# 3 31.3216 50.9669 127.2788 0.0000 0.0000 0.0000
# 4 0.0000 0.0000 0.0000 30.6186 0.0000 0.0000
# 5 0.0000 0.0000 0.0000 0.0000 11.5142 0.0000
# 6 0.0000 0.0000 0.0000 0.0000 0.0000 20.7223
#
#
#
# Elastic Compliance Matrix: (Units=1/GPa)
#
#
# Indices 1 2 3 4 5 6 
#
# 1 0.026977 -0.003840 -0.005101 0.000000 0.000000 0.000000
# 2 -0.003840 0.012402 -0.004021 0.000000 0.000000 0.000000
# 3 -0.005101 -0.004021 0.010722 0.000000 0.000000 0.000000
# 4 0.000000 0.000000 0.000000 0.032660 0.000000 0.000000
# 5 0.000000 0.000000 0.000000 0.000000 0.086849 0.000000
# 6 0.000000 0.000000 0.000000 0.000000 0.000000 0.048257
#
#
# Mechanical properties :
#
#
# Convention : Reuss Voigt Hill
#
# Bulk Modulus (GPa) = 41.36190 54.68872 48.02531
# Shear Modulus (GPa) = 19.85296 24.01670 21.93483
#
# Velocity S-wave (km/s) = 3.33717 3.67048 3.50778
# Velocity P-wave (km/s) = 6.16857 6.97434 6.58379
#
# Compressibility (1/GPa) = 0.02417684
#
# Stress axis : x y z
#
# Youngs Moduli (GPa) = 37.06842 80.63237 93.26366
#
# Poissons Ratio (x) = 0.30963 0.47574
# Poissons Ratio (y) = 0.14235 0.37503
# Poissons Ratio (z) = 0.18909 0.32424
#
# Static dielectric constant tensor:
#      x y z
#    x 3.020270 0.000000 0.000000 
#    y 0.000000 3.346480 0.000000 
#    z 0.000000 0.000000 3.254760 
# 
# 
# High freq. dielectric constant tensor:
#      x y z
#    x 1.649690 0.000000 0.000000 
#    y 0.000000 1.705440 0.000000 
#    z 0.000000 0.000000 1.683510 
# 
# From -- ./inp_files/33671.got.cif
#   From: 2010.03.12/outbox.cif.g09.slc.cpg/sg51_17_cif.got.tgz:33671.got - 2010.04.16 13:43:02.
