data_PCOD8214600
_publ_section_title
;
Structure prediction by ZEFSAII (Michael W. Deem and Ramdas Pophale) SiO2 
 PCOD8214600
Probable space group: P M M A
;
_chemical_formula_sum "Si O2"
_cell_formula_units_Z 32
_cell_length_a 14.115930
_cell_length_b 17.963444
_cell_length_c 6.442521
_cell_angle_alpha 90.000000
_cell_angle_beta 90.000000
_cell_angle_gamma 90.000000
_cell_volume 1633.634676
_symmetry_space_group_name_H-M "P M M A"
_symmetry_group_IT_number 51
_symmetry_cell_setting 'orthorhombic'
loop_
_space_group_symop_operation_xyz
x,y,z
1/2-x,-y,z
1/2+x,-y,-z
-x,y,-z
-x,-y,-z
1/2+x,y,-z
1/2-x,y,z
x,-y,z
loop_
_atom_site_type_symbol
_atom_site_label
_atom_site_fract_x
_atom_site_fract_y
_atom_site_fract_z
Si Si1 0.750000 0.898785 0.771000
Si Si2 0.250000 0.500000 0.021146
Si Si3 0.556689 0.500000 0.786191
Si Si4 0.750000 0.355290 0.248207
Si Si5 0.614215 0.000000 0.008315
Si Si6 0.750000 0.000000 0.385611
Si Si7 0.750000 0.726402 0.846471
Si Si8 0.091663 0.651397 0.418306
O O1 0.750000 0.810717 0.773050
O O2 0.750000 0.926822 0.532367
O O3 0.655620 0.927814 0.888781
O O4 0.250000 0.572325 0.886906
O O5 0.167078 0.500000 0.181607
O O6 0.539788 0.424442 0.659088
O O7 0.500000 0.500000 0.000000
O O8 0.656968 0.359121 0.383592
O O9 0.750000 0.283100 0.095872
O O10 0.654656 0.000000 0.244196
O O11 0.500000 0.000000 0.000000
O O12 0.847068 0.689748 0.762057
O O13 0.000000 0.699313 0.500000
#
# Coordination Sequence:
#
# PCOD8214600 Si02
#       8
#     4   2   4   4   4   2   4   8
#     4   9  21  40  62  95 130 164 205 252 302 377
#     4  12  18  36  62  78 102 168 196 260 326 356
#     4  12  22  38  62  84 117 156 220 282 319 367
#     4  11  22  40  63  79 126 158 208 267 316 384
#     4   9  19  39  66 102 124 163 211 245 298 362
#     4   8  18  40  70  86 142 160 204 262 292 352
#     4  11  24  43  59  89 129 167 203 253 331 378
#     4  11  24  40  58  89 117 162 217 261 324 387
#
# _framework density 19.588222999999999
#
# number of rings (size 3 to 8) (size 9 to 14) (size 15 to 20)
#    0.000    1.750    2.500    3.375    0.000    6.000 
#    9.000    0.000    0.000    0.000    0.000    0.000 
#    0.000    0.000    0.000    0.000    0.000    0.000 
#
# Total GULP energy -396501.131784 kJ/mol
# GULP energy per Si atom -12390.660368 kJ/mol
# Density = 1.954364 g / cm^3
# Si number density = 19.588223 Si / 1000 Ang^3
#
#
#
# Elastic Constant Matrix: (Units=GPa)
#
#
# Indices 1 2 3 4 5 6 
#
# 1 163.0833 17.1776 50.6357 0.0000 0.0000 0.0000
# 2 17.1776 108.2336 36.0749 0.0000 0.0000 0.0000
# 3 50.6357 36.0749 139.9477 0.0000 0.0000 0.0000
# 4 0.0000 0.0000 0.0000 14.6440 0.0000 0.0000
# 5 0.0000 0.0000 0.0000 0.0000 74.5210 0.0000
# 6 0.0000 0.0000 0.0000 0.0000 0.0000 -2.5225
#
#
#
# Elastic Compliance Matrix: (Units=1/GPa)
#
#
# Indices 1 2 3 4 5 6 
#
# 1 0.006916 -0.000288 -0.002428 0.000000 0.000000 0.000000
# 2 -0.000288 0.010120 -0.002504 0.000000 0.000000 0.000000
# 3 -0.002428 -0.002504 0.008670 0.000000 0.000000 0.000000
# 4 0.000000 0.000000 0.000000 0.068287 0.000000 0.000000
# 5 0.000000 0.000000 0.000000 0.000000 0.013419 0.000000
# 6 0.000000 0.000000 0.000000 0.000000 0.000000 -0.396424
#
#
# Mechanical properties :
#
#
# Convention : Reuss Voigt Hill
#
# Bulk Modulus (GPa) = 65.51344 68.78235 67.14789
# Shear Modulus (GPa) = -18.28265 37.82026 9.76881
#
# Velocity S-wave (km/s) = -3.05839 4.39881 2.23560
# Velocity P-wave (km/s) = 4.58762 7.80960 6.40453
#
# Compressibility (1/GPa) = 0.01526404
#
# Stress axis : x y z
#
# Youngs Moduli (GPa) = 144.59038 98.81690 115.34589
#
# Poissons Ratio (x) = 0.02850 0.28006
# Poissons Ratio (y) = 0.04169 0.28886
# Poissons Ratio (z) = 0.35107 0.24746
#
# Static dielectric constant tensor:
#      x y z
#    x 5.845050 0.000000 0.000000 
#    y 0.000000 3.382690 0.000000 
#    z 0.000000 0.000000 3.924490 
# 
# 
# High freq. dielectric constant tensor:
#      x y z
#    x 1.777100 0.000000 0.000000 
#    y 0.000000 1.731480 0.000000 
#    z 0.000000 0.000000 1.786240 
# 
# From -- ./inp_files/1368.got.cif
#   From: 2010.03.12/outbox.cif.g09.slc.cpg/sg51_1_cif.got.tgz:1368.got - 2010.04.16 13:43:02.
