data_PCOD8214007
_publ_section_title
;
Structure prediction by ZEFSAII (Michael W. Deem and Ramdas Pophale) SiO2 
 PCOD8214007
Probable space group: P M M A
;
_chemical_formula_sum "Si O2"
_cell_formula_units_Z 48
_cell_length_a 8.737126
_cell_length_b 30.084748
_cell_length_c 9.125264
_cell_angle_alpha 90.000000
_cell_angle_beta 90.000000
_cell_angle_gamma 90.000000
_cell_volume 2398.614278
_symmetry_space_group_name_H-M "P M M A"
_symmetry_group_IT_number 51
_symmetry_cell_setting 'orthorhombic'
loop_
_space_group_symop_operation_xyz
x,y,z
1/2-x,-y,z
1/2+x,-y,-z
-x,y,-z
-x,-y,-z
1/2+x,y,-z
1/2-x,y,z
x,-y,z
loop_
_atom_site_type_symbol
_atom_site_label
_atom_site_fract_x
_atom_site_fract_y
_atom_site_fract_z
Si Si1 0.568403 0.289181 0.840413
Si Si2 0.426547 0.876602 0.846937
Si Si3 0.928290 0.210294 0.341730
Si Si4 0.070440 0.450349 0.847881
Si Si5 0.930848 0.631721 0.340788
Si Si6 0.429431 0.948952 0.347538
O O1 0.750000 0.292419 0.850313
O O2 0.521154 0.247897 0.741782
O O3 0.502567 0.334036 0.772495
O O4 0.500000 0.281853 0.000000
O O5 0.250000 0.887174 0.871425
O O6 0.453199 0.836409 0.736553
O O7 0.505359 0.920881 0.786488
O O8 0.500000 0.862712 0.000000
O O9 0.750000 0.223578 0.350200
O O10 0.000000 0.205316 0.500000
O O11 0.250000 0.450408 0.871169
O O12 0.010188 0.500000 0.809092
O O13 0.024478 0.417503 0.715997
O O14 0.000000 0.433156 0.000000
O O15 0.750000 0.639024 0.348007
O O16 0.000000 0.639367 0.500000
O O17 0.500000 0.931907 0.500000
O O18 0.250000 0.941958 0.357701
O O19 0.474680 0.000000 0.318735
#
# Coordination Sequence:
#
# PCOD8214007 Si02
#       6
#     8   8   8   8   8   8
#     4  12  25  42  64  89 119 154 194 240 291 347
#     4  11  24  40  61  88 120 157 197 243 293 348
#     4  11  24  42  64  91 121 155 195 239 291 347
#     4   9  19  36  58  84 114 150 193 240 291 347
#     4  11  23  39  59  85 119 156 196 242 292 346
#     4  10  21  38  61  88 119 156 198 244 294 349
#
# _framework density 20.011552999999999
#
# number of rings (size 3 to 8) (size 9 to 14) (size 15 to 20)
#    0.000    1.333    0.000    5.500    0.000    9.667 
#    0.000    0.000    0.000    0.000    0.000    0.000 
#    0.000    0.000    0.000    0.000    0.000    0.000 
#
# Total GULP energy -595474.098834 kJ/mol
# GULP energy per Si atom -12405.710392 kJ/mol
# Density = 1.996601 g / cm^3
# Si number density = 20.011553 Si / 1000 Ang^3
#
#
#
# Elastic Constant Matrix: (Units=GPa)
#
#
# Indices 1 2 3 4 5 6 
#
# 1 114.3742 52.5447 53.4980 0.0000 0.0000 0.0000
# 2 52.5447 92.4744 42.9658 0.0000 0.0000 0.0000
# 3 53.4980 42.9658 130.4179 0.0000 0.0000 0.0000
# 4 0.0000 0.0000 0.0000 59.5980 0.0000 0.0000
# 5 0.0000 0.0000 0.0000 0.0000 38.4212 0.0000
# 6 0.0000 0.0000 0.0000 0.0000 0.0000 1959.5861
#
#
#
# Elastic Compliance Matrix: (Units=1/GPa)
#
#
# Indices 1 2 3 4 5 6 
#
# 1 0.013011 -0.005801 -0.003426 0.000000 0.000000 0.000000
# 2 -0.005801 0.015355 -0.002679 0.000000 0.000000 0.000000
# 3 -0.003426 -0.002679 0.009956 0.000000 0.000000 0.000000
# 4 0.000000 0.000000 0.000000 0.016779 0.000000 0.000000
# 5 0.000000 0.000000 0.000000 0.000000 0.026027 0.000000
# 6 0.000000 0.000000 0.000000 0.000000 0.000000 0.000510
#
#
# Mechanical properties :
#
#
# Convention : Reuss Voigt Hill
#
# Bulk Modulus (GPa) = 68.92189 70.58704 69.75447
# Shear Modulus (GPa) = 45.33667 424.07158 234.70413
#
# Velocity S-wave (km/s) = 4.76492 14.57304 10.84154
# Velocity P-wave (km/s) = 8.04912 17.84697 13.84382
#
# Compressibility (1/GPa) = 0.01450918
#
# Stress axis : x y z
#
# Youngs Moduli (GPa) = 76.85953 65.12659 100.44634
#
# Poissons Ratio (x) = 0.37780 0.34412
# Poissons Ratio (y) = 0.44587 0.26909
# Poissons Ratio (z) = 0.26332 0.17447
#
# Static dielectric constant tensor:
#      x y z
#    x 3.789380 0.000000 0.000000 
#    y 0.000000 3.933700 0.000000 
#    z 0.000000 0.000000 3.674620 
# 
# 
# High freq. dielectric constant tensor:
#      x y z
#    x 1.794550 0.000000 0.000000 
#    y 0.000000 1.794960 0.000000 
#    z 0.000000 0.000000 1.789050 
# 
# From -- ./inp_files/6024.got.cif
#   From: 2010.03.12/outbox.cif.g09.slc.cpg/sg51_4_cif.got.tgz:6024.got - 2010.04.16 13:43:02.
