data_PCOD8214734
_publ_section_title
;
Structure prediction by ZEFSAII (Michael W. Deem and Ramdas Pophale) SiO2 
 PCOD8214734
Probable space group: P M M A
;
_chemical_formula_sum "Si O2"
_cell_formula_units_Z 48
_cell_length_a 9.390405
_cell_length_b 9.402308
_cell_length_c 31.163121
_cell_angle_alpha 90.000000
_cell_angle_beta 90.000000
_cell_angle_gamma 90.000000
_cell_volume 2751.438076
_symmetry_space_group_name_H-M "P M M A"
_symmetry_group_IT_number 51
_symmetry_cell_setting 'orthorhombic'
loop_
_space_group_symop_operation_xyz
x,y,z
1/2-x,-y,z
1/2+x,-y,-z
-x,y,-z
-x,-y,-z
1/2+x,y,-z
1/2-x,y,z
x,-y,z
loop_
_atom_site_type_symbol
_atom_site_label
_atom_site_fract_x
_atom_site_fract_y
_atom_site_fract_z
Si Si1 0.080533 0.338924 0.624040
Si Si2 0.580526 0.339860 0.215814
Si Si3 0.079963 0.160802 0.704830
Si Si4 0.915242 0.834147 0.041194
Si Si5 0.580883 0.340408 0.121166
Si Si6 0.584153 0.835999 0.457809
O O1 0.250000 0.339774 0.625374
O O2 0.020987 0.500000 0.625130
O O3 0.021160 0.251921 0.664805
O O4 0.027311 0.260727 0.581070
O O5 0.750000 0.339051 0.217177
O O6 0.526512 0.500000 0.225594
O O7 0.520008 0.232250 0.251550
O O8 0.527423 0.290785 0.168426
O O9 0.250000 0.160369 0.704651
O O10 0.021409 0.000000 0.701784
O O11 0.750000 0.797094 0.034343
O O12 0.979499 0.760329 0.083762
O O13 0.941065 0.000000 0.047530
O O14 0.000000 0.776149 0.000000
O O15 0.750000 0.334239 0.120707
O O16 0.527427 0.500000 0.112109
O O17 0.500000 0.788638 0.500000
O O18 0.750000 0.810132 0.466582
O O19 0.553931 0.000000 0.445971
#
# Coordination Sequence:
#
# PCOD8214734 Si02
#       6
#     8   8   8   8   8   8
#     4   9  16  25  37  53  75 104 135 166 201 239
#     4   8  13  21  32  47  70  99 128 157 191 233
#     4   9  15  21  31  49  73 101 132 163 195 235
#     4   9  17  28  41  57  78 104 133 165 200 236
#     4   8  14  24  37  53  74 101 131 162 197 236
#     4   9  17  29  44  61  82 108 137 169 204 240
#
# _framework density 17.445422000000001
#
# number of rings (size 3 to 8) (size 9 to 14) (size 15 to 20)
#    0.000    3.333    0.000    2.000    0.000    5.333 
#    0.000    3.333    0.000    0.000    0.000    0.000 
#    0.000    1.333    0.000   13.000    0.000   15.667 
#
# Total GULP energy -594941.585490 kJ/mol
# GULP energy per Si atom -12394.616364 kJ/mol
# Density = 1.740572 g / cm^3
# Si number density = 17.445422 Si / 1000 Ang^3
#
#
#
# Elastic Constant Matrix: (Units=GPa)
#
#
# Indices 1 2 3 4 5 6 
#
# 1 11.3930 15.8406 24.2999 0.0000 0.0000 0.0000
# 2 15.8406 123.6321 105.0297 0.0000 0.0000 0.0000
# 3 24.2999 105.0297 196.4457 0.0000 0.0000 0.0000
# 4 0.0000 0.0000 0.0000 42.0800 0.0000 0.0000
# 5 0.0000 0.0000 0.0000 0.0000 17.2312 0.0000
# 6 0.0000 0.0000 0.0000 0.0000 0.0000 7.4608
#
#
#
# Elastic Compliance Matrix: (Units=1/GPa)
#
#
# Indices 1 2 3 4 5 6 
#
# 1 0.120964 -0.005107 -0.012233 0.000000 0.000000 0.000000
# 2 -0.005107 0.015035 -0.007407 0.000000 0.000000 0.000000
# 3 -0.012233 -0.007407 0.010564 0.000000 0.000000 0.000000
# 4 0.000000 0.000000 0.000000 0.023764 0.000000 0.000000
# 5 0.000000 0.000000 0.000000 0.000000 0.058034 0.000000
# 6 0.000000 0.000000 0.000000 0.000000 0.000000 0.134033
#
#
# Mechanical properties :
#
#
# Convention : Reuss Voigt Hill
#
# Bulk Modulus (GPa) = 10.30178 69.09015 39.69596
# Shear Modulus (GPa) = 11.25506 25.77445 18.51476
#
# Velocity S-wave (km/s) = 2.54275 3.84791 3.26129
# Velocity P-wave (km/s) = 3.81297 7.70918 6.08154
#
# Compressibility (1/GPa) = 0.09707064
#
# Stress axis : x y z
#
# Youngs Moduli (GPa) = 8.26691 66.51043 94.66334
#
# Poissons Ratio (x) = 0.33964 1.15800
# Poissons Ratio (y) = 0.04222 0.70116
# Poissons Ratio (z) = 0.10113 0.49264
#
# Static dielectric constant tensor:
#      x y z
#    x 2.428740 0.000000 0.000000 
#    y 0.000000 3.392950 0.000000 
#    z 0.000000 0.000000 3.653640 
# 
# 
# High freq. dielectric constant tensor:
#      x y z
#    x 1.587880 0.000000 0.000000 
#    y 0.000000 1.677230 0.000000 
#    z 0.000000 0.000000 1.693390 
# 
# From -- ./inp_files/36499.got.cif
#   From: 2010.03.12/outbox.cif.g09.slc.cpg/sg51_19_cif.got.tgz:36499.got - 2010.04.16 13:43:02.
