data_PCOD8214928
_publ_section_title
;
Structure prediction by ZEFSAII (Michael W. Deem and Ramdas Pophale) SiO2 
 PCOD8214928
Probable space group: P N N A
;
_chemical_formula_sum "Si O2"
_cell_formula_units_Z 36
_cell_length_a 8.819354
_cell_length_b 14.708156
_cell_length_c 13.427062
_cell_angle_alpha 90.000000
_cell_angle_beta 90.000000
_cell_angle_gamma 90.000000
_cell_volume 1741.710608
_symmetry_space_group_name_H-M "P N N A"
_symmetry_group_IT_number 52
_symmetry_cell_setting 'orthorhombic'
loop_
_space_group_symop_operation_xyz
x,y,z
1/2-x,-y,z
x,1/2-y,1/2-z
1/2-x,1/2+y,1/2-z
-x,-y,-z
1/2+x,y,-z
-x,1/2+y,1/2+z
1/2+x,1/2-y,1/2+z
loop_
_atom_site_type_symbol
_atom_site_label
_atom_site_fract_x
_atom_site_fract_y
_atom_site_fract_z
Si Si1 0.459440 0.762248 0.902143
Si Si2 0.413563 0.580277 0.290299
Si Si3 0.750000 0.000000 0.972529
Si Si4 0.867448 0.172817 0.085987
Si Si5 0.414663 0.385761 0.233328
O O1 0.277416 0.763160 0.896493
O O2 0.517995 0.665354 0.861904
O O3 0.523703 0.843961 0.835741
O O4 0.516751 0.773392 0.014536
O O5 0.374797 0.546430 0.402096
O O6 0.548434 0.653255 0.307338
O O7 0.464236 0.491530 0.226937
O O8 0.268445 0.625027 0.236068
O O9 0.679606 0.923994 0.042491
#
# Coordination Sequence:
#
# PCOD8214928 Si02
#       5
#     8   8   4   8   8
#     4  11  20  33  52  84 122 148 186 244 287 338
#     4  10  18  35  58  80 112 162 184 229 295 363
#     4  10  16  28  52  90 112 142 182 228 280 356
#     4  12  19  31  57  87 116 147 192 239 293 341
#     4   9  20  36  52  79 120 156 185 235 296 348
#
# _framework density 20.669333999999999
#
# number of rings (size 3 to 8) (size 9 to 14) (size 15 to 20)
#    0.000    1.778    6.667    2.000    0.000    0.000 
#    0.000    8.889    0.000    5.333    0.000    0.000 
#    0.000    5.333    0.000    0.000    0.000    0.000 
#
# Total GULP energy -446289.497721 kJ/mol
# GULP energy per Si atom -12396.930492 kJ/mol
# Density = 2.062229 g / cm^3
# Si number density = 20.669334 Si / 1000 Ang^3
#
#
#
# Elastic Constant Matrix: (Units=GPa)
#
#
# Indices 1 2 3 4 5 6 
#
# 1 138.2364 72.0276 39.1619 0.0000 0.0000 0.0000
# 2 72.0276 75.1644 46.1381 0.0000 0.0000 0.0000
# 3 39.1619 46.1381 39.5198 0.0000 0.0000 0.0000
# 4 0.0000 0.0000 0.0000 40.6451 0.0000 0.0000
# 5 0.0000 0.0000 0.0000 0.0000 10.3896 0.0000
# 6 0.0000 0.0000 0.0000 0.0000 0.0000 25.4008
#
#
#
# Elastic Compliance Matrix: (Units=1/GPa)
#
#
# Indices 1 2 3 4 5 6 
#
# 1 0.014939 -0.018452 0.006738 0.000000 0.000000 0.000000
# 2 -0.018452 0.069739 -0.063134 0.000000 0.000000 0.000000
# 3 0.006738 -0.063134 0.092334 0.000000 0.000000 0.000000
# 4 0.000000 0.000000 0.000000 0.024603 0.000000 0.000000
# 5 0.000000 0.000000 0.000000 0.000000 0.096250 0.000000
# 6 0.000000 0.000000 0.000000 0.000000 0.000000 0.039369
#
#
# Mechanical properties :
#
#
# Convention : Reuss Voigt Hill
#
# Bulk Modulus (GPa) = 36.60738 63.06398 49.83568
# Shear Modulus (GPa) = 10.07991 21.65997 15.86994
#
# Velocity S-wave (km/s) = 2.21073 3.24068 2.77393
# Velocity P-wave (km/s) = 4.92604 6.67681 5.86710
#
# Compressibility (1/GPa) = 0.02731690
#
# Stress axis : x y z
#
# Youngs Moduli (GPa) = 66.93668 14.33908 10.83027
#
# Poissons Ratio (x) = 0.26458 -0.07297
# Poissons Ratio (y) = 1.23511 0.68376
# Poissons Ratio (z) = -0.45101 0.90528
#
# Static dielectric constant tensor:
#      x y z
#    x 3.987640 0.000000 0.000000 
#    y 0.000000 3.659370 0.000000 
#    z 0.000000 0.000000 3.322440 
# 
# 
# High freq. dielectric constant tensor:
#      x y z
#    x 1.817250 0.000000 0.000000 
#    y 0.000000 1.793720 0.000000 
#    z 0.000000 0.000000 1.765490 
# 
# From -- ./inp_files/24319.got.cif
#   From: 2010.06.25/outbox.cif.g09.slc.cpg/sg52_13_cif.got.tgz:24319.got - 2010.06.26 19:32:48.
