data_PCOD8214790
_publ_section_title
;
Structure prediction by ZEFSAII (Michael W. Deem and Ramdas Pophale) SiO2 
 PCOD8214790
Probable space group: P M M A
;
_chemical_formula_sum "Si O2"
_cell_formula_units_Z 64
_cell_length_a 18.479959
_cell_length_b 9.278447
_cell_length_c 20.997253
_cell_angle_alpha 90.000000
_cell_angle_beta 90.000000
_cell_angle_gamma 90.000000
_cell_volume 3600.300708
_symmetry_space_group_name_H-M "P M M A"
_symmetry_group_IT_number 51
_symmetry_cell_setting 'orthorhombic'
loop_
_space_group_symop_operation_xyz
x,y,z
1/2-x,-y,z
1/2+x,-y,-z
-x,y,-z
-x,-y,-z
1/2+x,y,-z
1/2-x,y,z
x,-y,z
loop_
_atom_site_type_symbol
_atom_site_label
_atom_site_fract_x
_atom_site_fract_y
_atom_site_fract_z
Si Si1 0.089085 0.663724 0.747569
Si Si2 0.928523 0.668235 0.878777
Si Si3 0.921840 0.169388 0.132492
Si Si4 0.668298 0.171546 0.501081
Si Si5 0.913789 0.839537 0.993930
Si Si6 0.414086 0.169287 0.624036
Si Si7 0.416619 0.341223 0.258570
Si Si8 0.418142 0.167978 0.378089
O O1 0.118110 0.500000 0.748106
O O2 0.119263 0.747724 0.810059
O O3 0.117320 0.744828 0.684520
O O4 0.002758 0.669012 0.748467
O O5 0.948766 0.500000 0.887823
O O6 0.884305 0.726263 0.940710
O O7 0.884052 0.689810 0.812299
O O8 0.998657 0.766561 0.874224
O O9 0.927456 0.000000 0.148853
O O10 0.880985 0.193861 0.064525
O O11 0.750000 0.230386 0.502306
O O12 0.629437 0.225921 0.437150
O O13 0.625957 0.233529 0.562429
O O14 0.666107 0.000000 0.502532
O O15 0.890797 0.000000 0.972486
O O16 0.000000 0.828878 0.000000
O O17 0.497987 0.205949 0.611843
O O18 0.402919 0.000000 0.636273
O O19 0.393813 0.500000 0.281376
O O20 0.387579 0.232481 0.311961
O O21 0.404698 0.000000 0.373145
#
# Coordination Sequence:
#
# PCOD8214790 Si02
#       8
#     8   8   8   8   8   8   8   8
#     4   9  16  25  37  54  75  99 131 170 207 242
#     4   9  15  21  30  45  67  97 133 169 204 243
#     4   9  15  22  31  45  68  98 132 168 205 244
#     4   9  17  29  45  65  87 108 132 166 206 245
#     4   8  14  21  28  41  64  96 132 167 202 241
#     4   9  16  27  44  63  82 106 136 169 204 243
#     4   8  15  25  35  51  75 101 130 167 208 243
#     4   9  16  26  43  64  81 103 138 173 202 239
#
# _framework density 17.776292999999999
#
# number of rings (size 3 to 8) (size 9 to 14) (size 15 to 20)
#    0.000    3.250    0.000    3.000    0.000    7.750 
#    0.000    0.625    0.000    4.500    0.000    0.000 
#    0.000    0.000    0.000    1.125    0.000   23.000 
#
# Total GULP energy -792940.771093 kJ/mol
# GULP energy per Si atom -12389.699548 kJ/mol
# Density = 1.773583 g / cm^3
# Si number density = 17.776293 Si / 1000 Ang^3
#
#
#
# Elastic Constant Matrix: (Units=GPa)
#
#
# Indices 1 2 3 4 5 6 
#
# 1 27.9577 19.5199 34.3072 0.0000 0.0000 0.0000
# 2 19.5199 85.1730 76.9061 0.0000 0.0000 0.0000
# 3 34.3072 76.9061 194.0217 0.0000 0.0000 0.0000
# 4 0.0000 0.0000 0.0000 22.7619 0.0000 0.0000
# 5 0.0000 0.0000 0.0000 0.0000 1.1205 0.0000
# 6 0.0000 0.0000 0.0000 0.0000 0.0000 4.2539
#
#
#
# Elastic Compliance Matrix: (Units=1/GPa)
#
#
# Indices 1 2 3 4 5 6 
#
# 1 0.047058 -0.005095 -0.006301 0.000000 0.000000 0.000000
# 2 -0.005095 0.018837 -0.006566 0.000000 0.000000 0.000000
# 3 -0.006301 -0.006566 0.008871 0.000000 0.000000 0.000000
# 4 0.000000 0.000000 0.000000 0.043933 0.000000 0.000000
# 5 0.000000 0.000000 0.000000 0.000000 0.892498 0.000000
# 6 0.000000 0.000000 0.000000 0.000000 0.000000 0.235080
#
#
# Mechanical properties :
#
#
# Convention : Reuss Voigt Hill
#
# Bulk Modulus (GPa) = 25.74550 63.17985 44.46268
# Shear Modulus (GPa) = 3.86056 17.38853 10.62455
#
# Velocity S-wave (km/s) = 1.47528 3.13099 2.44740
# Velocity P-wave (km/s) = 4.17330 6.97779 5.74918
#
# Compressibility (1/GPa) = 0.03884174
#
# Stress axis : x y z
#
# Youngs Moduli (GPa) = 21.25031 53.08748 112.73024
#
# Poissons Ratio (x) = 0.27048 0.71035
# Poissons Ratio (y) = 0.10827 0.74014
# Poissons Ratio (z) = 0.13390 0.34855
#
# Static dielectric constant tensor:
#      x y z
#    x 2.590300 0.000000 0.000000 
#    y 0.000000 3.257920 0.000000 
#    z 0.000000 0.000000 4.155840 
# 
# 
# High freq. dielectric constant tensor:
#      x y z
#    x 1.596740 0.000000 0.000000 
#    y 0.000000 1.678570 0.000000 
#    z 0.000000 0.000000 1.717990 
# 
# From -- ./inp_files/34172.got.cif
#   From: 2010.03.12/outbox.cif.g09.slc.cpg/sg51_18_cif.got.tgz:34172.got - 2010.04.16 13:43:02.
