data_PCOD8214702
_publ_section_title
;
Structure prediction by ZEFSAII (Michael W. Deem and Ramdas Pophale) SiO2 
 PCOD8214702
Probable space group: P M M A
;
_chemical_formula_sum "Si O2"
_cell_formula_units_Z 44
_cell_length_a 9.562990
_cell_length_b 12.687509
_cell_length_c 25.599505
_cell_angle_alpha 90.000000
_cell_angle_beta 90.000000
_cell_angle_gamma 90.000000
_cell_volume 3106.001297
_symmetry_space_group_name_H-M "P M M A"
_symmetry_group_IT_number 51
_symmetry_cell_setting 'orthorhombic'
loop_
_space_group_symop_operation_xyz
x,y,z
1/2-x,-y,z
1/2+x,-y,-z
-x,y,-z
-x,-y,-z
1/2+x,y,-z
1/2-x,y,z
x,-y,z
loop_
_atom_site_type_symbol
_atom_site_label
_atom_site_fract_x
_atom_site_fract_y
_atom_site_fract_z
Si Si1 0.587742 0.228724 0.052753
Si Si2 0.912089 0.622559 0.145734
Si Si3 0.092536 0.374658 0.661545
Si Si4 0.593734 0.374655 0.454016
Si Si5 0.907483 0.000000 0.049950
Si Si6 0.592060 0.625398 0.755728
O O1 0.750000 0.246374 0.038552
O O2 0.537769 0.314038 0.094849
O O3 0.564020 0.111638 0.079207
O O4 0.500000 0.244066 0.000000
O O5 0.750000 0.645027 0.159281
O O6 0.937387 0.500000 0.134036
O O7 0.005955 0.662699 0.193733
O O8 0.250000 0.332695 0.672320
O O9 0.094972 0.500000 0.665079
O O10 0.041362 0.339281 0.603648
O O11 0.985529 0.328331 0.704391
O O12 0.500000 0.324333 0.500000
O O13 0.750000 0.332872 0.462987
O O14 0.590286 0.500000 0.457401
O O15 0.750000 0.000000 0.029414
O O16 0.000000 0.000000 0.000000
O O17 0.750000 0.670306 0.757993
O O18 0.594578 0.500000 0.753198
#
# Coordination Sequence:
#
# PCOD8214702 Si02
#       6
#     8   8   8   8   4   8
#     4   9  17  28  42  58  74  93 115 140 171 205
#     4   9  17  28  39  51  70  95 118 139 169 210
#     4   8  13  21  31  41  55  78 106 135 170 210
#     4   8  13  19  26  37  53  73  98 130 169 208
#     4   8  14  26  42  58  74  90 112 140 167 198
#     4   9  16  24  34  48  63  81 109 143 174 202
#
# _framework density 14.166124
#
# number of rings (size 3 to 8) (size 9 to 14) (size 15 to 20)
#    0.000    3.455    0.000    1.636    0.000    4.000 
#    0.000    3.636    0.000    0.000    0.000    0.000 
#    0.000    0.000    0.000    0.000    0.000    0.000 
#
# Total GULP energy -545078.854956 kJ/mol
# GULP energy per Si atom -12388.155794 kJ/mol
# Density = 1.413388 g / cm^3
# Si number density = 14.166124 Si / 1000 Ang^3
#
#
#
# Elastic Constant Matrix: (Units=GPa)
#
#
# Indices 1 2 3 4 5 6 
#
# 1 81.8337 22.2398 70.0693 0.0000 0.0000 0.0000
# 2 22.2398 32.2343 34.8390 0.0000 0.0000 0.0000
# 3 70.0693 34.8390 130.5033 0.0000 0.0000 0.0000
# 4 0.0000 0.0000 0.0000 0.4564 0.0000 0.0000
# 5 0.0000 0.0000 0.0000 0.0000 28.3878 0.0000
# 6 0.0000 0.0000 0.0000 0.0000 0.0000 7.9742
#
#
#
# Elastic Compliance Matrix: (Units=1/GPa)
#
#
# Indices 1 2 3 4 5 6 
#
# 1 0.022900 -0.003529 -0.011353 0.000000 0.000000 0.000000
# 2 -0.003529 0.044148 -0.009891 0.000000 0.000000 0.000000
# 3 -0.011353 -0.009891 0.016399 0.000000 0.000000 0.000000
# 4 0.000000 0.000000 0.000000 2.190835 0.000000 0.000000
# 5 0.000000 0.000000 0.000000 0.000000 0.035226 0.000000
# 6 0.000000 0.000000 0.000000 0.000000 0.000000 0.125405
#
#
# Mechanical properties :
#
#
# Convention : Reuss Voigt Hill
#
# Bulk Modulus (GPa) = 29.49821 55.42970 42.46395
# Shear Modulus (GPa) = 2.00340 15.19191 8.59765
#
# Velocity S-wave (km/s) = 1.19050 3.27832 2.46624
# Velocity P-wave (km/s) = 4.77053 7.31732 6.17661
#
# Compressibility (1/GPa) = 0.03390037
#
# Stress axis : x y z
#
# Youngs Moduli (GPa) = 43.66779 22.65123 60.97974
#
# Poissons Ratio (x) = 0.07994 0.69233
# Poissons Ratio (y) = 0.15410 0.60314
# Poissons Ratio (z) = 0.49578 0.22404
#
# Static dielectric constant tensor:
#      x y z
#    x 2.970630 0.000000 0.000000 
#    y 0.000000 2.566320 0.000000 
#    z 0.000000 0.000000 2.790140 
# 
# 
# High freq. dielectric constant tensor:
#      x y z
#    x 1.548800 0.000000 0.000000 
#    y 0.000000 1.470800 0.000000 
#    z 0.000000 0.000000 1.539860 
# 
# From -- ./inp_files/36329.got.cif
#   From: 2010.03.12/outbox.cif.g09.slc.cpg/sg51_19_cif.got.tgz:36329.got - 2010.04.16 13:43:02.
