data_PCOD8214751
_publ_section_title
;
Structure prediction by ZEFSAII (Michael W. Deem and Ramdas Pophale) SiO2 
 PCOD8214751
Probable space group: P M M A
;
_chemical_formula_sum "Si O2"
_cell_formula_units_Z 48
_cell_length_a 19.739024
_cell_length_b 9.867415
_cell_length_c 15.264571
_cell_angle_alpha 90.000000
_cell_angle_beta 90.000000
_cell_angle_gamma 90.000000
_cell_volume 2973.128447
_symmetry_space_group_name_H-M "P M M A"
_symmetry_group_IT_number 51
_symmetry_cell_setting 'orthorhombic'
loop_
_space_group_symop_operation_xyz
x,y,z
1/2-x,-y,z
1/2+x,-y,-z
-x,y,-z
-x,-y,-z
1/2+x,y,-z
1/2-x,y,z
x,-y,z
loop_
_atom_site_type_symbol
_atom_site_label
_atom_site_fract_x
_atom_site_fract_y
_atom_site_fract_z
Si Si1 0.169489 0.150031 0.084457
Si Si2 0.170564 0.155895 0.281536
Si Si3 0.169420 0.349559 0.938477
Si Si4 0.428344 0.339963 0.601853
Si Si5 0.825626 0.661733 0.255277
Si Si6 0.081080 0.339601 0.403919
O O1 0.250000 0.148599 0.077722
O O2 0.148436 0.193620 0.182465
O O3 0.141364 0.000000 0.063785
O O4 0.137954 0.252735 0.013178
O O5 0.250000 0.178655 0.294400
O O6 0.133122 0.257566 0.345629
O O7 0.151439 0.000000 0.302139
O O8 0.250000 0.355443 0.945561
O O9 0.139366 0.500000 0.953333
O O10 0.149923 0.293650 0.841890
O O11 0.425857 0.500000 0.608426
O O12 0.377161 0.275513 0.673189
O O13 0.505033 0.293745 0.621754
O O14 0.405330 0.297455 0.504607
O O15 0.750000 0.717506 0.275095
O O16 0.824305 0.500000 0.258919
O O17 0.091790 0.500000 0.389774
#
# Coordination Sequence:
#
# PCOD8214751 Si02
#       6
#     8   8   8   8   8   8
#     4   8  14  25  40  57  80 111 139 164 206 258
#     4   9  18  31  45  63  88 115 142 175 216 258
#     4   8  13  21  36  60  84 104 133 172 206 241
#     4   8  15  28  43  62  90 117 141 174 215 256
#     4   8  13  22  39  63  88 113 139 169 211 258
#     4   9  17  29  46  66  86 112 147 182 212 247
#
# _framework density 16.14461
#
# number of rings (size 3 to 8) (size 9 to 14) (size 15 to 20)
#    0.000    3.667    0.000    3.000    0.000    1.667 
#    0.000    5.000    0.000    3.000    0.000    9.333 
#    0.000    0.000    0.000    0.000    0.000    0.000 
#
# Total GULP energy -594793.499146 kJ/mol
# GULP energy per Si atom -12391.531232 kJ/mol
# Density = 1.610786 g / cm^3
# Si number density = 16.144610 Si / 1000 Ang^3
#
#
#
# Elastic Constant Matrix: (Units=GPa)
#
#
# Indices 1 2 3 4 5 6 
#
# 1 53.0957 35.0187 58.6810 0.0000 0.0000 0.0000
# 2 35.0187 58.9840 63.9119 0.0000 0.0000 0.0000
# 3 58.6810 63.9119 140.3362 0.0000 0.0000 0.0000
# 4 0.0000 0.0000 0.0000 3.1125 0.0000 0.0000
# 5 0.0000 0.0000 0.0000 0.0000 2.6634 0.0000
# 6 0.0000 0.0000 0.0000 0.0000 0.0000 13.8156
#
#
#
# Elastic Compliance Matrix: (Units=1/GPa)
#
#
# Indices 1 2 3 4 5 6 
#
# 1 0.038087 -0.010573 -0.011111 0.000000 0.000000 0.000000
# 2 -0.010573 0.036406 -0.012159 0.000000 0.000000 0.000000
# 3 -0.011111 -0.012159 0.017309 0.000000 0.000000 0.000000
# 4 0.000000 0.000000 0.000000 0.321287 0.000000 0.000000
# 5 0.000000 0.000000 0.000000 0.000000 0.375457 0.000000
# 6 0.000000 0.000000 0.000000 0.000000 0.000000 0.072382
#
#
# Mechanical properties :
#
#
# Convention : Reuss Voigt Hill
#
# Bulk Modulus (GPa) = 41.46581 63.07101 52.26841
# Shear Modulus (GPa) = 5.33817 10.23859 7.78838
#
# Velocity S-wave (km/s) = 1.82034 2.52102 2.19877
# Velocity P-wave (km/s) = 5.49163 6.90110 6.23631
#
# Compressibility (1/GPa) = 0.02411626
#
# Stress axis : x y z
#
# Youngs Moduli (GPa) = 26.25591 27.46837 57.77390
#
# Poissons Ratio (x) = 0.29043 0.64190
# Poissons Ratio (y) = 0.27761 0.70245
# Poissons Ratio (z) = 0.29172 0.33398
#
# Static dielectric constant tensor:
#      x y z
#    x 2.935000 0.000000 0.000000 
#    y 0.000000 2.910860 0.000000 
#    z 0.000000 0.000000 3.392980 
# 
# 
# High freq. dielectric constant tensor:
#      x y z
#    x 1.584840 0.000000 0.000000 
#    y 0.000000 1.587190 0.000000 
#    z 0.000000 0.000000 1.632600 
# 
# From -- ./inp_files/18118.got.cif
#   From: 2010.03.12/outbox.cif.g09.slc.cpg/sg51_10_cif.got.tgz:18118.got - 2010.04.16 13:43:02.
