data_PCOD8214487
_publ_section_title
;
Structure prediction by ZEFSAII (Michael W. Deem and Ramdas Pophale) SiO2 
 PCOD8214487
Probable space group: P M M A
;
_chemical_formula_sum "Si O2"
_cell_formula_units_Z 56
_cell_length_a 9.061018
_cell_length_b 20.380220
_cell_length_c 15.440544
_cell_angle_alpha 90.000000
_cell_angle_beta 90.000000
_cell_angle_gamma 90.000000
_cell_volume 2851.336400
_symmetry_space_group_name_H-M "P M M A"
_symmetry_group_IT_number 51
_symmetry_cell_setting 'orthorhombic'
loop_
_space_group_symop_operation_xyz
x,y,z
1/2-x,-y,z
1/2+x,-y,-z
-x,y,-z
-x,-y,-z
1/2+x,y,-z
1/2-x,y,z
x,-y,z
loop_
_atom_site_type_symbol
_atom_site_label
_atom_site_fract_x
_atom_site_fract_y
_atom_site_fract_z
Si Si1 0.917203 0.397968 0.582891
Si Si2 0.924737 0.571605 0.770156
Si Si3 0.414436 0.251942 0.369205
Si Si4 0.925098 0.926992 0.232720
Si Si5 0.574450 0.174709 0.088269
Si Si6 0.920587 0.291030 0.827418
Si Si7 0.923596 0.873738 0.414754
O O1 0.750000 0.422302 0.576507
O O2 0.989515 0.424267 0.672501
O O3 0.929147 0.319580 0.579929
O O4 0.000000 0.427915 0.500000
O O5 0.750000 0.580922 0.761027
O O6 0.966574 0.500000 0.810494
O O7 0.978785 0.632752 0.829393
O O8 0.250000 0.222403 0.382887
O O9 0.443490 0.263131 0.268136
O O10 0.535757 0.202928 0.407467
O O11 0.750000 0.923615 0.234088
O O12 0.984095 0.874822 0.162648
O O13 0.984249 0.909908 0.328741
O O14 0.980116 0.000000 0.207555
O O15 0.750000 0.173822 0.079286
O O16 0.520689 0.248665 0.107967
O O17 0.500000 0.150051 0.000000
O O18 0.750000 0.286161 0.856842
O O19 0.750000 0.881812 0.424721
O O20 0.000000 0.904782 0.500000
#
# Coordination Sequence:
#
# PCOD8214487 Si02
#       7
#     8   8   8   8   8   8   8
#     4   9  17  27  40  63  95 134 177 224 272 318
#     4   8  15  29  49  72 100 139 182 220 268 326
#     4   9  17  30  48  71 102 138 179 227 275 321
#     4   9  20  39  59  80 112 150 184 222 272 327
#     4  11  22  38  62  90 115 143 178 220 273 331
#     4   9  17  32  56  82 109 140 178 226 273 321
#     4  11  21  33  52  78 107 145 189 230 273 319
#
# _framework density 19.639913
#
# number of rings (size 3 to 8) (size 9 to 14) (size 15 to 20)
#    0.000    2.571    1.429    3.000    0.000    2.571 
#    0.000    2.143    0.000    7.714    0.000    0.000 
#    0.000    0.000    0.000    0.000    0.000    0.000 
#
# Total GULP energy -694118.860827 kJ/mol
# GULP energy per Si atom -12394.979658 kJ/mol
# Density = 1.959521 g / cm^3
# Si number density = 19.639913 Si / 1000 Ang^3
#
#
#
# Elastic Constant Matrix: (Units=GPa)
#
#
# Indices 1 2 3 4 5 6 
#
# 1 55.5251 23.6987 33.8307 0.0000 0.0000 0.0000
# 2 23.6987 125.6924 50.1283 0.0000 0.0000 0.0000
# 3 33.8307 50.1283 108.1547 0.0000 0.0000 0.0000
# 4 0.0000 0.0000 0.0000 9.3820 0.0000 0.0000
# 5 0.0000 0.0000 0.0000 0.0000 28.8178 0.0000
# 6 0.0000 0.0000 0.0000 0.0000 0.0000 13.4628
#
#
#
# Elastic Compliance Matrix: (Units=1/GPa)
#
#
# Indices 1 2 3 4 5 6 
#
# 1 0.022566 -0.001766 -0.006240 0.000000 0.000000 0.000000
# 2 -0.001766 0.009898 -0.004035 0.000000 0.000000 0.000000
# 3 -0.006240 -0.004035 0.013068 0.000000 0.000000 0.000000
# 4 0.000000 0.000000 0.000000 0.106587 0.000000 0.000000
# 5 0.000000 0.000000 0.000000 0.000000 0.034701 0.000000
# 6 0.000000 0.000000 0.000000 0.000000 0.000000 0.074279
#
#
# Mechanical properties :
#
#
# Convention : Reuss Voigt Hill
#
# Bulk Modulus (GPa) = 46.62130 56.07640 51.34885
# Shear Modulus (GPa) = 17.10391 22.44681 19.77536
#
# Velocity S-wave (km/s) = 2.95426 3.38437 3.17661
# Velocity P-wave (km/s) = 5.95201 6.62467 6.29733
#
# Compressibility (1/GPa) = 0.02144942
#
# Stress axis : x y z
#
# Youngs Moduli (GPa) = 44.31527 101.02793 76.52178
#
# Poissons Ratio (x) = 0.17842 0.47749
# Poissons Ratio (y) = 0.07826 0.30879
# Poissons Ratio (z) = 0.27653 0.40768
#
# Static dielectric constant tensor:
#      x y z
#    x 3.219750 0.000000 0.000000 
#    y 0.000000 3.688630 0.000000 
#    z 0.000000 0.000000 3.515400 
# 
# 
# High freq. dielectric constant tensor:
#      x y z
#    x 1.728210 0.000000 0.000000 
#    y 0.000000 1.766750 0.000000 
#    z 0.000000 0.000000 1.751960 
# 
# From -- ./inp_files/28250.got.cif
#   From: 2010.03.12/outbox.cif.g09.slc.cpg/sg51_15_cif.got.tgz:28250.got - 2010.04.16 13:43:02.
