data_PCOD8214832
_publ_section_title
;
Structure prediction by ZEFSAII (Michael W. Deem and Ramdas Pophale) SiO2 
 PCOD8214832
Probable space group: P M M A
;
_chemical_formula_sum "Si O2"
_cell_formula_units_Z 48
_cell_length_a 9.592252
_cell_length_b 9.399873
_cell_length_c 31.064120
_cell_angle_alpha 90.000000
_cell_angle_beta 90.000000
_cell_angle_gamma 90.000000
_cell_volume 2800.925909
_symmetry_space_group_name_H-M "P M M A"
_symmetry_group_IT_number 51
_symmetry_cell_setting 'orthorhombic'
loop_
_space_group_symop_operation_xyz
x,y,z
1/2-x,-y,z
1/2+x,-y,-z
-x,y,-z
-x,-y,-z
1/2+x,y,-z
1/2-x,y,z
x,-y,z
loop_
_atom_site_type_symbol
_atom_site_label
_atom_site_fract_x
_atom_site_fract_y
_atom_site_fract_z
Si Si1 0.915685 0.660918 0.876515
Si Si2 0.905327 0.830665 0.284814
Si Si3 0.087290 0.165608 0.205620
Si Si4 0.411769 0.164621 0.041410
Si Si5 0.088730 0.333838 0.540408
Si Si6 0.915851 0.841873 0.378791
O O1 0.750000 0.662041 0.876143
O O2 0.974093 0.500000 0.876089
O O3 0.970626 0.745324 0.834810
O O4 0.968732 0.741248 0.919138
O O5 0.750000 0.770162 0.275852
O O6 0.961749 0.780820 0.331863
O O7 0.008514 0.775757 0.247775
O O8 0.900148 0.000000 0.285387
O O9 0.250000 0.191917 0.213249
O O10 0.055573 0.000000 0.196847
O O11 0.250000 0.195348 0.031648
O O12 0.435466 0.000000 0.053407
O O13 0.500000 0.209842 0.000000
O O14 0.250000 0.295551 0.532090
O O15 0.066614 0.500000 0.547429
O O16 0.028980 0.258832 0.583201
O O17 0.000000 0.277843 0.500000
O O18 0.750000 0.847792 0.379056
O O19 0.977055 0.000000 0.386371
#
# Coordination Sequence:
#
# PCOD8214832 Si02
#       6
#     8   8   8   8   8   8
#     4   9  17  29  45  64  87 116 146 173 206 251
#     4   8  14  26  44  64  85 110 139 171 209 251
#     4   9  16  27  45  66  85 108 141 177 208 242
#     4   9  17  30  48  68  88 111 142 178 212 248
#     4   9  17  29  44  61  82 109 140 172 206 246
#     4   8  14  26  44  63  83 109 140 171 205 249
#
# _framework density 17.137188999999999
#
# number of rings (size 3 to 8) (size 9 to 14) (size 15 to 20)
#    0.000    3.333    0.000    1.500    0.000    2.667 
#    0.000    2.500    0.000    7.500    0.000    0.000 
#    0.000    0.000    0.000    0.000    0.000    0.000 
#
# Total GULP energy -595001.539020 kJ/mol
# GULP energy per Si atom -12395.865396 kJ/mol
# Density = 1.709818 g / cm^3
# Si number density = 17.137189 Si / 1000 Ang^3
#
#
#
# Elastic Constant Matrix: (Units=GPa)
#
#
# Indices 1 2 3 4 5 6 
#
# 1 41.4721 27.2229 56.8040 0.0000 0.0000 0.0000
# 2 27.2229 68.8120 75.5747 0.0000 0.0000 0.0000
# 3 56.8040 75.5747 199.5207 0.0000 0.0000 0.0000
# 4 0.0000 0.0000 0.0000 12.7035 0.0000 0.0000
# 5 0.0000 0.0000 0.0000 0.0000 31.2359 0.0000
# 6 0.0000 0.0000 0.0000 0.0000 0.0000 11.6060
#
#
#
# Elastic Compliance Matrix: (Units=1/GPa)
#
#
# Indices 1 2 3 4 5 6 
#
# 1 0.040834 -0.005799 -0.009429 0.000000 0.000000 0.000000
# 2 -0.005799 0.025708 -0.008087 0.000000 0.000000 0.000000
# 3 -0.009429 -0.008087 0.010760 0.000000 0.000000 0.000000
# 4 0.000000 0.000000 0.000000 0.078718 0.000000 0.000000
# 5 0.000000 0.000000 0.000000 0.000000 0.032014 0.000000
# 6 0.000000 0.000000 0.000000 0.000000 0.000000 0.086162
#
#
# Mechanical properties :
#
#
# Convention : Reuss Voigt Hill
#
# Bulk Modulus (GPa) = 32.60262 69.88979 51.24620
# Shear Modulus (GPa) = 15.10348 21.12262 18.11305
#
# Velocity S-wave (km/s) = 2.97194 3.51459 3.25459
# Velocity P-wave (km/s) = 5.55359 7.57238 6.64015
#
# Compressibility (1/GPa) = 0.03067238
#
# Stress axis : x y z
#
# Youngs Moduli (GPa) = 24.48946 38.89850 92.94003
#
# Poissons Ratio (x) = 0.22556 0.87634
# Poissons Ratio (y) = 0.14201 0.75159
# Poissons Ratio (z) = 0.23091 0.31456
#
# Static dielectric constant tensor:
#      x y z
#    x 2.931460 0.000000 0.000000 
#    y 0.000000 3.122620 0.000000 
#    z 0.000000 0.000000 3.566790 
# 
# 
# High freq. dielectric constant tensor:
#      x y z
#    x 1.621000 0.000000 0.000000 
#    y 0.000000 1.640750 0.000000 
#    z 0.000000 0.000000 1.677030 
# 
# From -- ./inp_files/35316.got.cif
#   From: 2010.03.12/outbox.cif.g09.slc.cpg/sg51_18_cif.got.tgz:35316.got - 2010.04.16 13:43:02.
