data_PCOD8214527
_publ_section_title
;
Structure prediction by ZEFSAII (Michael W. Deem and Ramdas Pophale) SiO2 
 PCOD8214527
Probable space group: P M M A
;
_chemical_formula_sum "Si O2"
_cell_formula_units_Z 40
_cell_length_a 14.325128
_cell_length_b 9.286555
_cell_length_c 15.103239
_cell_angle_alpha 90.000000
_cell_angle_beta 90.000000
_cell_angle_gamma 90.000000
_cell_volume 2009.200332
_symmetry_space_group_name_H-M "P M M A"
_symmetry_group_IT_number 51
_symmetry_cell_setting 'orthorhombic'
loop_
_space_group_symop_operation_xyz
x,y,z
1/2-x,-y,z
1/2+x,-y,-z
-x,y,-z
-x,-y,-z
1/2+x,y,-z
1/2-x,y,z
x,-y,z
loop_
_atom_site_type_symbol
_atom_site_label
_atom_site_fract_x
_atom_site_fract_y
_atom_site_fract_z
Si Si1 0.250000 0.326815 0.468743
Si Si2 0.351047 0.000000 0.898323
Si Si3 0.750000 0.668977 0.330471
Si Si4 0.148715 0.000000 0.104316
Si Si5 0.934847 0.169141 0.584148
Si Si6 0.049436 0.339960 0.723031
Si Si7 0.500190 0.765728 0.102483
O O1 0.250000 0.500000 0.459019
O O2 0.250000 0.270701 0.569660
O O3 0.159368 0.260676 0.422264
O O4 0.409271 0.140258 0.874825
O O5 0.250000 0.000000 0.849467
O O6 0.333850 0.000000 0.001517
O O7 0.750000 0.500000 0.336254
O O8 0.656331 0.718774 0.279613
O O9 0.092172 0.855628 0.126944
O O10 0.250000 0.000000 0.153391
O O11 0.000000 0.199109 0.500000
O O12 0.987468 0.225024 0.671029
O O13 0.912325 0.000000 0.594936
O O14 0.043004 0.500000 0.680048
O O15 0.011180 0.358493 0.824303
O O16 0.500000 0.710467 0.000000
#
# Coordination Sequence:
#
# PCOD8214527 Si02
#       7
#     4   4   4   4   8   8   8
#     4  11  21  41  69  90 119 162 204 246 308 376
#     4   8  15  29  54  83 111 144 192 248 307 362
#     4   9  20  37  61  90 117 154 198 242 304 376
#     4   8  15  33  56  77 109 152 196 247 300 356
#     4  11  24  41  63  92 125 157 199 254 305 357
#     4  11  23  40  61  88 123 162 204 248 305 372
#     4   9  19  34  55  86 118 156 204 248 299 358
#
# _framework density 19.908418999999999
#
# number of rings (size 3 to 8) (size 9 to 14) (size 15 to 20)
#    0.000    2.200    2.000    2.100    4.200    1.200 
#    1.800    0.500    0.000    0.000    0.000    0.000 
#    0.000    0.000    0.000    0.000    0.000    0.000 
#
# Total GULP energy -495621.535047 kJ/mol
# GULP energy per Si atom -12390.538376 kJ/mol
# Density = 1.986311 g / cm^3
# Si number density = 19.908419 Si / 1000 Ang^3
#
#
#
# Elastic Constant Matrix: (Units=GPa)
#
#
# Indices 1 2 3 4 5 6 
#
# 1 161.7701 46.5184 40.2045 0.0000 0.0000 0.0000
# 2 46.5184 85.2295 29.3534 0.0000 0.0000 0.0000
# 3 40.2045 29.3534 107.3207 0.0000 0.0000 0.0000
# 4 0.0000 0.0000 0.0000 22.8509 0.0000 0.0000
# 5 0.0000 0.0000 0.0000 0.0000 18.4465 0.0000
# 6 0.0000 0.0000 0.0000 0.0000 0.0000 22.3020
#
#
#
# Elastic Compliance Matrix: (Units=1/GPa)
#
#
# Indices 1 2 3 4 5 6 
#
# 1 0.007671 -0.003530 -0.001908 0.000000 0.000000 0.000000
# 2 -0.003530 0.014577 -0.002665 0.000000 0.000000 0.000000
# 3 -0.001908 -0.002665 0.010762 0.000000 0.000000 0.000000
# 4 0.000000 0.000000 0.000000 0.043762 0.000000 0.000000
# 5 0.000000 0.000000 0.000000 0.000000 0.054211 0.000000
# 6 0.000000 0.000000 0.000000 0.000000 0.000000 0.044839
#
#
# Mechanical properties :
#
#
# Convention : Reuss Voigt Hill
#
# Bulk Modulus (GPa) = 59.50814 65.16365 62.33590
# Shear Modulus (GPa) = 25.30007 28.60283 26.95145
#
# Velocity S-wave (km/s) = 3.56873 3.79452 3.68335
# Velocity P-wave (km/s) = 6.85105 7.21115 7.03340
#
# Compressibility (1/GPa) = 0.01680442
#
# Stress axis : x y z
#
# Youngs Moduli (GPa) = 130.36415 68.60022 92.92296
#
# Poissons Ratio (x) = 0.24213 0.17732
# Poissons Ratio (y) = 0.46012 0.24762
# Poissons Ratio (z) = 0.24877 0.18281
#
# Static dielectric constant tensor:
#      x y z
#    x 7.299650 0.000000 0.000000 
#    y 0.000000 3.346490 0.000000 
#    z 0.000000 0.000000 3.488110 
# 
# 
# High freq. dielectric constant tensor:
#      x y z
#    x 1.789380 0.000000 0.000000 
#    y 0.000000 1.756280 0.000000 
#    z 0.000000 0.000000 1.767620 
# 
# From -- ./inp_files/23875.got.cif
#   From: 2010.03.12/outbox.cif.g09.slc.cpg/sg51_12_cif.got.tgz:23875.got - 2010.04.16 13:43:02.
