data_PCOD8214433
_publ_section_title
;
Structure prediction by ZEFSAII (Michael W. Deem and Ramdas Pophale) SiO2 
 PCOD8214433
Probable space group: P M M A
;
_chemical_formula_sum "Si O2"
_cell_formula_units_Z 64
_cell_length_a 28.247893
_cell_length_b 14.025235
_cell_length_c 10.182687
_cell_angle_alpha 90.000000
_cell_angle_beta 90.000000
_cell_angle_gamma 90.000000
_cell_volume 4034.210921
_symmetry_space_group_name_H-M "P M M A"
_symmetry_group_IT_number 51
_symmetry_cell_setting 'orthorhombic'
loop_
_space_group_symop_operation_xyz
x,y,z
1/2-x,-y,z
1/2+x,-y,-z
-x,y,-z
-x,-y,-z
1/2+x,y,-z
1/2-x,y,z
x,-y,z
loop_
_atom_site_type_symbol
_atom_site_label
_atom_site_fract_x
_atom_site_fract_y
_atom_site_fract_z
Si Si1 0.444446 0.896083 0.350514
Si Si2 0.399696 0.611738 0.016011
Si Si3 0.446752 0.696549 0.266534
Si Si4 0.801339 0.387133 0.888759
Si Si5 0.198372 0.386772 0.405751
Si Si6 0.600813 0.388232 0.485639
Si Si7 0.056645 0.103629 0.644854
Si Si8 0.058304 0.701803 0.763767
O O1 0.429609 0.807775 0.256756
O O2 0.423718 0.879864 0.497183
O O3 0.500524 0.896203 0.360441
O O4 0.427086 0.000000 0.295757
O O5 0.405923 0.500000 0.985000
O O6 0.426685 0.674463 0.909884
O O7 0.420910 0.632683 0.159062
O O8 0.344415 0.643855 0.016590
O O9 0.434897 0.660079 0.412007
O O10 0.502596 0.686889 0.248146
O O11 0.750000 0.352127 0.944097
O O12 0.801663 0.500000 0.878468
O O13 0.809159 0.346608 0.741870
O O14 0.250000 0.351279 0.459292
O O15 0.198336 0.500000 0.403317
O O16 0.154786 0.349844 0.494520
O O17 0.598535 0.500000 0.510345
O O18 0.585077 0.365997 0.338303
O O19 0.074202 0.188687 0.738870
O O20 0.074460 0.000000 0.697600
#
# Coordination Sequence:
#
# PCOD8214433 Si02
#       8
#     8   8   8   8   8   8   8   8
#     4   8  14  27  48  69  86 110 152 204 244 268
#     4  11  22  34  45  64  97 134 163 189 224 268
#     4  11  20  32  47  65  92 129 167 190 220 271
#     4   8  14  28  49  66  81 111 157 200 234 269
#     4   8  14  27  47  67  85 110 150 200 243 269
#     4  11  20  30  45  67  93 123 161 195 222 268
#     4   8  14  28  48  66  86 115 152 197 245 276
#     4  11  22  32  43  66  98 130 159 190 223 270
#
# _framework density 15.864317
#
# number of rings (size 3 to 8) (size 9 to 14) (size 15 to 20)
#    0.000    2.500    2.500    3.000    0.000    3.000 
#    0.000    1.250    0.000    6.000    0.000    0.000 
#    0.000    6.000    0.000    0.000    0.000    0.000 
#
# Total GULP energy -792973.522448 kJ/mol
# GULP energy per Si atom -12390.211288 kJ/mol
# Density = 1.582821 g / cm^3
# Si number density = 15.864317 Si / 1000 Ang^3
#
#
#
# Elastic Constant Matrix: (Units=GPa)
#
#
# Indices 1 2 3 4 5 6 
#
# 1 81.4936 23.8478 14.5147 0.0000 0.0000 0.0000
# 2 23.8478 73.5242 15.3556 0.0000 0.0000 0.0000
# 3 14.5147 15.3556 39.9113 0.0000 0.0000 0.0000
# 4 0.0000 0.0000 0.0000 20.9257 0.0000 0.0000
# 5 0.0000 0.0000 0.0000 0.0000 1.7881 0.0000
# 6 0.0000 0.0000 0.0000 0.0000 0.0000 0.3863
#
#
#
# Elastic Compliance Matrix: (Units=1/GPa)
#
#
# Indices 1 2 3 4 5 6 
#
# 1 0.014029 -0.003789 -0.003644 0.000000 0.000000 0.000000
# 2 -0.003789 0.015813 -0.004706 0.000000 0.000000 0.000000
# 3 -0.003644 -0.004706 0.028191 0.000000 0.000000 0.000000
# 4 0.000000 0.000000 0.000000 0.047788 0.000000 0.000000
# 5 0.000000 0.000000 0.000000 0.000000 0.559239 0.000000
# 6 0.000000 0.000000 0.000000 0.000000 0.000000 2.588338
#
#
# Mechanical properties :
#
#
# Convention : Reuss Voigt Hill
#
# Bulk Modulus (GPa) = 29.62543 33.59614 31.61079
# Shear Modulus (GPa) = 1.52025 14.03411 7.77718
#
# Velocity S-wave (km/s) = 0.97998 2.97751 2.21652
# Velocity P-wave (km/s) = 4.47161 5.74838 5.14972
#
# Compressibility (1/GPa) = 0.03375478
#
# Stress axis : x y z
#
# Youngs Moduli (GPa) = 71.28198 63.23982 35.47195
#
# Poissons Ratio (x) = 0.23963 0.12926
# Poissons Ratio (y) = 0.27010 0.16692
# Poissons Ratio (z) = 0.25975 0.29759
#
# Static dielectric constant tensor:
#      x y z
#    x 3.202220 0.000000 0.000000 
#    y 0.000000 3.171450 0.000000 
#    z 0.000000 0.000000 2.813050 
# 
# 
# High freq. dielectric constant tensor:
#      x y z
#    x 1.592600 0.000000 0.000000 
#    y 0.000000 1.591020 0.000000 
#    z 0.000000 0.000000 1.587540 
# 
# From -- ./inp_files/13250.got.cif
#   From: 2010.03.12/outbox.cif.g09.slc.cpg/sg51_7_cif.got.tgz:13250.got - 2010.04.16 13:43:02.
