data_PCOD8214023
_publ_section_title
;
Structure prediction by ZEFSAII (Michael W. Deem and Ramdas Pophale) SiO2 
 PCOD8214023
Probable space group: P M M A
;
_chemical_formula_sum "Si O2"
_cell_formula_units_Z 48
_cell_length_a 8.932950
_cell_length_b 9.427327
_cell_length_c 29.037957
_cell_angle_alpha 90.000000
_cell_angle_beta 90.000000
_cell_angle_gamma 90.000000
_cell_volume 2445.397886
_symmetry_space_group_name_H-M "P M M A"
_symmetry_group_IT_number 51
_symmetry_cell_setting 'orthorhombic'
loop_
_space_group_symop_operation_xyz
x,y,z
1/2-x,-y,z
1/2+x,-y,-z
-x,y,-z
-x,-y,-z
1/2+x,y,-z
1/2-x,y,z
x,-y,z
loop_
_atom_site_type_symbol
_atom_site_label
_atom_site_fract_x
_atom_site_fract_y
_atom_site_fract_z
Si Si1 0.426258 0.664613 0.871407
Si Si2 0.076425 0.234566 0.608003
Si Si3 0.077220 0.165474 0.209180
Si Si4 0.077354 0.335511 0.302318
Si Si5 0.582865 0.500000 0.452808
Si Si6 0.925410 0.161530 0.951174
Si Si7 0.924753 0.000000 0.549938
O O1 0.250000 0.679733 0.878203
O O2 0.472588 0.500000 0.864379
O O3 0.474694 0.757905 0.828022
O O4 0.507182 0.725771 0.916093
O O5 0.250000 0.186570 0.607568
O O6 0.043218 0.372218 0.579404
O O7 0.026123 0.259671 0.660133
O O8 0.970435 0.128868 0.581584
O O9 0.250000 0.179033 0.193906
O O10 0.048057 0.246771 0.256516
O O11 0.032219 0.000000 0.214193
O O12 0.250000 0.325584 0.317636
O O13 0.030471 0.500000 0.294941
O O14 0.750000 0.500000 0.469804
O O15 0.500000 0.500000 0.500000
O O16 0.750000 0.188684 0.955802
O O17 0.957856 0.000000 0.934465
O O18 0.000000 0.190271 0.000000
O O19 0.000000 0.000000 0.500000
O O20 0.750000 0.000000 0.540285
#
# Coordination Sequence:
#
# PCOD8214023 Si02
#       7
#     8   8   8   8   4   8   4
#     4  11  24  40  59  87 123 163 208 256 308 364
#     4  11  23  41  62  90 123 160 200 246 300 357
#     4  10  22  40  63  91 122 157 202 252 304 364
#     4  10  21  38  61  90 123 161 202 246 300 361
#     4  10  22  38  60  88 120 154 196 242 291 350
#     4  10  21  38  62  91 123 162 207 255 308 365
#     4  12  26  44  64  90 122 160 202 248 299 356
#
# _framework density 19.628708
#
# number of rings (size 3 to 8) (size 9 to 14) (size 15 to 20)
#    0.000    1.500    0.833    3.750    1.167    9.000 
#    0.000    0.000    0.000    0.000    0.000    0.000 
#    0.000    0.000    0.000    0.000    0.000    0.000 
#
# Total GULP energy -595185.371122 kJ/mol
# GULP energy per Si atom -12399.695232 kJ/mol
# Density = 1.958403 g / cm^3
# Si number density = 19.628708 Si / 1000 Ang^3
#
#
#
# Elastic Constant Matrix: (Units=GPa)
#
#
# Indices 1 2 3 4 5 6 
#
# 1 106.0729 63.6060 64.1012 0.0000 0.0000 0.0000
# 2 63.6060 138.4259 66.3500 0.0000 0.0000 0.0000
# 3 64.1012 66.3500 123.8290 0.0000 0.0000 0.0000
# 4 0.0000 0.0000 0.0000 39.3267 0.0000 0.0000
# 5 0.0000 0.0000 0.0000 0.0000 44.0225 0.0000
# 6 0.0000 0.0000 0.0000 0.0000 0.0000 31.2099
#
#
#
# Elastic Compliance Matrix: (Units=1/GPa)
#
#
# Indices 1 2 3 4 5 6 
#
# 1 0.015487 -0.004405 -0.005657 0.000000 0.000000 0.000000
# 2 -0.004405 0.010973 -0.003600 0.000000 0.000000 0.000000
# 3 -0.005657 -0.003600 0.012933 0.000000 0.000000 0.000000
# 4 0.000000 0.000000 0.000000 0.025428 0.000000 0.000000
# 5 0.000000 0.000000 0.000000 0.000000 0.022716 0.000000
# 6 0.000000 0.000000 0.000000 0.000000 0.000000 0.032041
#
#
# Mechanical properties :
#
#
# Convention : Reuss Voigt Hill
#
# Bulk Modulus (GPa) = 82.84480 84.04914 83.44697
# Shear Modulus (GPa) = 33.12905 34.52984 33.82945
#
# Velocity S-wave (km/s) = 4.11272 4.19877 4.15597
# Velocity P-wave (km/s) = 8.05296 8.14977 8.10151
#
# Compressibility (1/GPa) = 0.01207076
#
# Stress axis : x y z
#
# Youngs Moduli (GPa) = 64.56837 91.12910 77.32310
#
# Poissons Ratio (x) = 0.40142 0.43742
# Poissons Ratio (y) = 0.28442 0.27833
# Poissons Ratio (z) = 0.36526 0.32802
#
# Static dielectric constant tensor:
#      x y z
#    x 3.539640 0.000000 0.000000 
#    y 0.000000 3.814930 0.000000 
#    z 0.000000 0.000000 2.900090 
# 
# 
# High freq. dielectric constant tensor:
#      x y z
#    x 1.769650 0.000000 0.000000 
#    y 0.000000 1.780390 0.000000 
#    z 0.000000 0.000000 1.777900 
# 
# From -- ./inp_files/37183.got.cif
#   From: 2010.03.12/outbox.cif.g09.slc.cpg/sg51_19_cif.got.tgz:37183.got - 2010.04.16 13:43:02.
