data_PCOD8214098
_publ_section_title
;
Structure prediction by ZEFSAII (Michael W. Deem and Ramdas Pophale) SiO2 
 PCOD8214098
Probable space group: P M M A
;
_chemical_formula_sum "Si O2"
_cell_formula_units_Z 48
_cell_length_a 18.936518
_cell_length_b 8.436342
_cell_length_c 15.045815
_cell_angle_alpha 90.000000
_cell_angle_beta 90.000000
_cell_angle_gamma 90.000000
_cell_volume 2403.643305
_symmetry_space_group_name_H-M "P M M A"
_symmetry_group_IT_number 51
_symmetry_cell_setting 'orthorhombic'
loop_
_space_group_symop_operation_xyz
x,y,z
1/2-x,-y,z
1/2+x,-y,-z
-x,y,-z
-x,-y,-z
1/2+x,y,-z
1/2-x,y,z
x,-y,z
loop_
_atom_site_type_symbol
_atom_site_label
_atom_site_fract_x
_atom_site_fract_y
_atom_site_fract_z
Si Si1 0.074873 0.312465 0.468993
Si Si2 0.080371 0.315281 0.270526
Si Si3 0.931946 0.182265 0.223416
Si Si4 0.924525 0.316137 0.036630
Si Si5 0.331237 0.816829 0.114388
Si Si6 0.168549 0.313745 0.631650
O O1 0.067258 0.500000 0.464675
O O2 0.094068 0.251748 0.370469
O O3 0.135257 0.259825 0.537702
O O4 0.000000 0.238657 0.500000
O O5 0.098599 0.500000 0.259884
O O6 0.131123 0.215069 0.207768
O O7 0.998681 0.291858 0.245546
O O8 0.905170 0.216872 0.123996
O O9 0.867756 0.219719 0.288878
O O10 0.954173 0.000000 0.232578
O O11 0.927100 0.500000 0.061951
O O12 0.865248 0.288142 0.962849
O O13 0.000000 0.257675 0.000000
O O14 0.250000 0.767553 0.123519
O O15 0.340326 0.000000 0.089250
O O16 0.250000 0.265911 0.629646
O O17 0.157290 0.500000 0.647183
#
# Coordination Sequence:
#
# PCOD8214098 Si02
#       6
#     8   8   8   8   8   8
#     4   9  17  33  60  90 119 152 199 255 304 351
#     4  11  21  37  64  93 121 158 208 256 297 352
#     4  12  24  38  61  90 124 162 200 245 305 370
#     4  11  23  40  66  94 118 154 205 254 297 355
#     4  11  25  43  62  90 129 165 197 243 305 366
#     4  10  21  39  62  88 120 159 205 256 306 357
#
# _framework density 19.969684999999998
#
# number of rings (size 3 to 8) (size 9 to 14) (size 15 to 20)
#    0.000    1.333    3.333    3.000    0.000    3.667 
#    0.000    4.167    0.000    0.000    0.000    0.000 
#    0.000    0.000    0.000    0.000    0.000    0.000 
#
# Total GULP energy -595475.657442 kJ/mol
# GULP energy per Si atom -12405.742863 kJ/mol
# Density = 1.992423 g / cm^3
# Si number density = 19.969685 Si / 1000 Ang^3
#
#
#
# Elastic Constant Matrix: (Units=GPa)
#
#
# Indices 1 2 3 4 5 6 
#
# 1 132.2216 18.2601 60.5059 0.0000 0.0000 0.0000
# 2 18.2601 46.4643 20.7625 0.0000 0.0000 0.0000
# 3 60.5059 20.7625 164.4790 0.0000 0.0000 0.0000
# 4 0.0000 0.0000 0.0000 10.4500 0.0000 0.0000
# 5 0.0000 0.0000 0.0000 0.0000 35.3819 0.0000
# 6 0.0000 0.0000 0.0000 0.0000 0.0000 23.9132
#
#
#
# Elastic Compliance Matrix: (Units=1/GPa)
#
#
# Indices 1 2 3 4 5 6 
#
# 1 0.009312 -0.002256 -0.003141 0.000000 0.000000 0.000000
# 2 -0.002256 0.023355 -0.002118 0.000000 0.000000 0.000000
# 3 -0.003141 -0.002118 0.007503 0.000000 0.000000 0.000000
# 4 0.000000 0.000000 0.000000 0.095693 0.000000 0.000000
# 5 0.000000 0.000000 0.000000 0.000000 0.028263 0.000000
# 6 0.000000 0.000000 0.000000 0.000000 0.000000 0.041818
#
#
# Mechanical properties :
#
#
# Convention : Reuss Voigt Hill
#
# Bulk Modulus (GPa) = 39.77812 60.24687 50.01249
# Shear Modulus (GPa) = 21.80041 30.19147 25.99594
#
# Velocity S-wave (km/s) = 3.30764 3.89249 3.61192
# Velocity P-wave (km/s) = 5.87790 7.10187 6.51868
#
# Compressibility (1/GPa) = 0.02513945
#
# Stress axis : x y z
#
# Youngs Moduli (GPa) = 107.39013 42.81730 133.28815
#
# Poissons Ratio (x) = 0.09660 0.41862
# Poissons Ratio (y) = 0.24228 0.28233
# Poissons Ratio (z) = 0.33728 0.09070
#
# Static dielectric constant tensor:
#      x y z
#    x 3.603400 0.000000 0.000000 
#    y 0.000000 3.390360 0.000000 
#    z 0.000000 0.000000 3.882410 
# 
# 
# High freq. dielectric constant tensor:
#      x y z
#    x 1.773130 0.000000 0.000000 
#    y 0.000000 1.764370 0.000000 
#    z 0.000000 0.000000 1.796440 
# 
# From -- ./inp_files/24724.got.cif
#   From: 2010.03.12/outbox.cif.g09.slc.cpg/sg51_13_cif.got.tgz:24724.got - 2010.04.16 13:43:02.
