data_PCOD8214641
_publ_section_title
;
Structure prediction by ZEFSAII (Michael W. Deem and Ramdas Pophale) SiO2 
 PCOD8214641
Probable space group: P M M A
;
_chemical_formula_sum "Si O2"
_cell_formula_units_Z 48
_cell_length_a 14.409381
_cell_length_b 10.206625
_cell_length_c 16.922638
_cell_angle_alpha 90.000000
_cell_angle_beta 90.000000
_cell_angle_gamma 90.000000
_cell_volume 2488.831804
_symmetry_space_group_name_H-M "P M M A"
_symmetry_group_IT_number 51
_symmetry_cell_setting 'orthorhombic'
loop_
_space_group_symop_operation_xyz
x,y,z
1/2-x,-y,z
1/2+x,-y,-z
-x,y,-z
-x,-y,-z
1/2+x,y,-z
1/2-x,y,z
x,-y,z
loop_
_atom_site_type_symbol
_atom_site_label
_atom_site_fract_x
_atom_site_fract_y
_atom_site_fract_z
Si Si1 0.858573 0.850060 0.330425
Si Si2 0.485584 0.646949 0.756049
Si Si3 0.140125 0.855633 0.491854
Si Si4 0.647969 0.000000 0.092154
Si Si5 0.148007 0.000000 0.093001
Si Si6 0.999982 0.212487 0.092240
Si Si7 0.856641 0.351101 0.635175
O O1 0.750000 0.818814 0.325471
O O2 0.896197 0.827840 0.419658
O O3 0.910587 0.750452 0.273525
O O4 0.878154 0.000000 0.303447
O O5 0.449511 0.500000 0.739428
O O6 0.500096 0.662038 0.850566
O O7 0.584214 0.671314 0.714027
O O8 0.250000 0.854058 0.494308
O O9 0.102979 0.744469 0.432722
O O10 0.105528 0.000000 0.463845
O O11 0.591456 0.129614 0.114844
O O12 0.750000 0.000000 0.133842
O O13 0.661360 0.000000 0.999564
O O14 0.090805 0.129208 0.115903
O O15 0.250000 0.000000 0.134325
O O16 0.000000 0.254546 0.000000
O O17 0.750000 0.317148 0.655678
O O18 0.865798 0.500000 0.603947
#
# Coordination Sequence:
#
# PCOD8214641 Si02
#       7
#     8   8   8   4   4   8   8
#     4   9  20  38  59  81 109 145 180 222 276 329
#     4  11  24  37  52  79 113 147 186 229 270 321
#     4   8  15  32  56  81 106 135 177 224 272 322
#     4   8  15  31  56  81 103 130 165 218 279 327
#     4   8  15  31  56  83 105 126 167 226 275 321
#     4   9  19  35  54  78 108 141 182 224 269 327
#     4   9  19  36  55  75 105 146 184 219 267 325
#
# _framework density 19.286155999999998
#
# number of rings (size 3 to 8) (size 9 to 14) (size 15 to 20)
#    0.000    3.000    0.000    2.000    2.333    4.000 
#    0.000    5.000    0.000    0.000    0.000    7.000 
#    0.000    0.000    0.000    0.000    0.000    0.000 
#
# Total GULP energy -594921.639728 kJ/mol
# GULP energy per Si atom -12394.200828 kJ/mol
# Density = 1.924226 g / cm^3
# Si number density = 19.286156 Si / 1000 Ang^3
#
#
#
# Elastic Constant Matrix: (Units=GPa)
#
#
# Indices 1 2 3 4 5 6 
#
# 1 102.1588 46.5714 30.1835 0.0000 0.0000 0.0000
# 2 46.5714 114.4571 71.4716 0.0000 0.0000 0.0000
# 3 30.1835 71.4716 107.9005 0.0000 0.0000 0.0000
# 4 0.0000 0.0000 0.0000 30.4903 0.0000 0.0000
# 5 0.0000 0.0000 0.0000 0.0000 20.2994 0.0000
# 6 0.0000 0.0000 0.0000 0.0000 0.0000 18.5704
#
#
#
# Elastic Compliance Matrix: (Units=1/GPa)
#
#
# Indices 1 2 3 4 5 6 
#
# 1 0.012021 -0.004760 -0.000209 0.000000 0.000000 0.000000
# 2 -0.004760 0.016785 -0.009786 0.000000 0.000000 0.000000
# 3 -0.000209 -0.009786 0.015809 0.000000 0.000000 0.000000
# 4 0.000000 0.000000 0.000000 0.032797 0.000000 0.000000
# 5 0.000000 0.000000 0.000000 0.000000 0.049263 0.000000
# 6 0.000000 0.000000 0.000000 0.000000 0.000000 0.053849
#
#
# Mechanical properties :
#
#
# Convention : Reuss Voigt Hill
#
# Bulk Modulus (GPa) = 66.21657 68.99661 67.60659
# Shear Modulus (GPa) = 23.24828 25.62465 24.43646
#
# Velocity S-wave (km/s) = 3.47571 3.64903 3.56342
# Velocity P-wave (km/s) = 7.10744 7.32166 7.21534
#
# Compressibility (1/GPa) = 0.01510196
#
# Stress axis : x y z
#
# Youngs Moduli (GPa) = 83.19010 59.57762 63.25613
#
# Poissons Ratio (x) = 0.28361 0.01325
# Poissons Ratio (y) = 0.39601 0.61905
# Poissons Ratio (z) = 0.01742 0.58305
#
# Static dielectric constant tensor:
#      x y z
#    x 4.123060 0.000000 0.000000 
#    y 0.000000 3.529960 0.000000 
#    z 0.000000 0.000000 3.455890 
# 
# 
# High freq. dielectric constant tensor:
#      x y z
#    x 1.750240 0.000000 0.000000 
#    y 0.000000 1.735640 0.000000 
#    z 0.000000 0.000000 1.742800 
# 
# From -- ./inp_files/29658.got.cif
#   From: 2010.03.12/outbox.cif.g09.slc.cpg/sg51_15_cif.got.tgz:29658.got - 2010.04.16 13:43:02.
