data_PCOD8214892
_publ_section_title
;
Structure prediction by ZEFSAII (Michael W. Deem and Ramdas Pophale) SiO2 
 PCOD8214892
Probable space group: P M M A
;
_chemical_formula_sum "Si O2"
_cell_formula_units_Z 48
_cell_length_a 31.596701
_cell_length_b 13.736531
_cell_length_c 6.329784
_cell_angle_alpha 90.000000
_cell_angle_beta 90.000000
_cell_angle_gamma 90.000000
_cell_volume 2747.310217
_symmetry_space_group_name_H-M "P M M A"
_symmetry_group_IT_number 51
_symmetry_cell_setting 'orthorhombic'
loop_
_space_group_symop_operation_xyz
x,y,z
1/2-x,-y,z
1/2+x,-y,-z
-x,y,-z
-x,-y,-z
1/2+x,y,-z
1/2-x,y,z
x,-y,z
loop_
_atom_site_type_symbol
_atom_site_label
_atom_site_fract_x
_atom_site_fract_y
_atom_site_fract_z
Si Si1 0.593096 0.720387 0.923774
Si Si2 0.702828 0.111382 0.862606
Si Si3 0.347008 0.221277 0.452666
Si Si4 0.457250 0.388241 0.392366
Si Si5 0.624403 0.888925 0.163015
Si Si6 0.376421 0.609447 0.691378
O O1 0.623122 0.747889 0.734694
O O2 0.550411 0.677160 0.818444
O O3 0.587700 0.818759 0.064831
O O4 0.614228 0.635965 0.065967
O O5 0.750000 0.133895 0.948914
O O6 0.695271 0.178157 0.654212
O O7 0.698881 0.000000 0.787926
O O8 0.669249 0.132231 0.047813
O O9 0.369338 0.136824 0.591512
O O10 0.340309 0.317426 0.598920
O O11 0.500000 0.349246 0.500000
O O12 0.462566 0.500000 0.319801
O O13 0.419531 0.377872 0.559912
O O14 0.609446 0.000000 0.138335
O O15 0.358722 0.500000 0.678987
#
# Coordination Sequence:
#
# PCOD8214892 Si02
#       6
#     8   8   8   8   8   8
#     4   9  17  29  44  64  90 119 150 185 222 263
#     4   9  17  28  44  69  97 119 140 173 219 266
#     4   9  17  29  45  66  90 118 150 182 218 261
#     4   9  17  28  44  69  97 120 143 177 225 275
#     4   9  17  29  45  65  89 118 151 183 219 265
#     4   9  17  29  46  68  92 119 151 184 219 261
#
# _framework density 17.471633000000001
#
# number of rings (size 3 to 8) (size 9 to 14) (size 15 to 20)
#    0.000    3.000    0.000    1.000    0.000    2.667 
#    0.000    4.167    0.000    1.000    0.000   10.500 
#    0.000    0.000    0.000    0.000    0.000    0.000 
#
# Total GULP energy -594703.083365 kJ/mol
# GULP energy per Si atom -12389.647570 kJ/mol
# Density = 1.743187 g / cm^3
# Si number density = 17.471633 Si / 1000 Ang^3
#
#
#
# Elastic Constant Matrix: (Units=GPa)
#
#
# Indices 1 2 3 4 5 6 
#
# 1 33.1832 16.2874 5.4310 0.0000 0.0000 0.0000
# 2 16.2874 100.2057 26.0623 0.0000 0.0000 0.0000
# 3 5.4310 26.0623 73.7690 0.0000 0.0000 0.0000
# 4 0.0000 0.0000 0.0000 29.1902 0.0000 0.0000
# 5 0.0000 0.0000 0.0000 0.0000 17.0773 0.0000
# 6 0.0000 0.0000 0.0000 0.0000 0.0000 22.7934
#
#
#
# Elastic Compliance Matrix: (Units=1/GPa)
#
#
# Indices 1 2 3 4 5 6 
#
# 1 0.032771 -0.005175 -0.000584 0.000000 0.000000 0.000000
# 2 -0.005175 0.011806 -0.003790 0.000000 0.000000 0.000000
# 3 -0.000584 -0.003790 0.014938 0.000000 0.000000 0.000000
# 4 0.000000 0.000000 0.000000 0.034258 0.000000 0.000000
# 5 0.000000 0.000000 0.000000 0.000000 0.058557 0.000000
# 6 0.000000 0.000000 0.000000 0.000000 0.000000 0.043872
#
#
# Mechanical properties :
#
#
# Convention : Reuss Voigt Hill
#
# Bulk Modulus (GPa) = 24.74211 33.63550 29.18880
# Shear Modulus (GPa) = 21.85563 24.43734 23.14648
#
# Velocity S-wave (km/s) = 3.54067 3.74396 3.64373
# Velocity P-wave (km/s) = 5.55942 6.16303 5.86899
#
# Compressibility (1/GPa) = 0.04041693
#
# Stress axis : x y z
#
# Youngs Moduli (GPa) = 30.51454 84.70033 66.94379
#
# Poissons Ratio (x) = 0.43829 0.03913
# Poissons Ratio (y) = 0.15790 0.25373
# Poissons Ratio (z) = 0.01784 0.32103
#
# Static dielectric constant tensor:
#      x y z
#    x 3.042100 0.000000 0.000000 
#    y 0.000000 3.649710 0.000000 
#    z 0.000000 0.000000 3.528590 
# 
# 
# High freq. dielectric constant tensor:
#      x y z
#    x 1.621930 0.000000 0.000000 
#    y 0.000000 1.682430 0.000000 
#    z 0.000000 0.000000 1.689710 
# 
# From -- ./inp_files/3535.got.cif
#   From: 2010.03.12/outbox.cif.g09.slc.cpg/sg51_2_cif.got.tgz:3535.got - 2010.04.16 13:43:02.
