data_PCOD8214378
_publ_section_title
;
Structure prediction by ZEFSAII (Michael W. Deem and Ramdas Pophale) SiO2 
 PCOD8214378
Probable space group: P M M A
;
_chemical_formula_sum "Si O2"
_cell_formula_units_Z 64
_cell_length_a 17.554563
_cell_length_b 14.548404
_cell_length_c 12.243332
_cell_angle_alpha 90.000000
_cell_angle_beta 90.000000
_cell_angle_gamma 90.000000
_cell_volume 3126.835267
_symmetry_space_group_name_H-M "P M M A"
_symmetry_group_IT_number 51
_symmetry_cell_setting 'orthorhombic'
loop_
_space_group_symop_operation_xyz
x,y,z
1/2-x,-y,z
1/2+x,-y,-z
-x,y,-z
-x,-y,-z
1/2+x,y,-z
1/2-x,y,z
x,-y,z
loop_
_atom_site_type_symbol
_atom_site_label
_atom_site_fract_x
_atom_site_fract_y
_atom_site_fract_z
Si Si1 0.425043 0.889818 0.174801
Si Si2 0.583090 0.101185 0.464777
Si Si3 0.162555 0.598361 0.920419
Si Si4 0.838392 0.798347 0.021327
Si Si5 0.162361 0.661810 0.685112
Si Si6 0.340160 0.599145 0.448836
Si Si7 0.661676 0.211246 0.634271
Si Si8 0.588889 0.837478 0.235017
O O1 0.383714 0.857456 0.065764
O O2 0.383227 0.848433 0.279001
O O3 0.509087 0.847818 0.172452
O O4 0.425560 0.000000 0.180431
O O5 0.500000 0.139975 0.500000
O O6 0.647971 0.167131 0.514774
O O7 0.593180 0.089693 0.333784
O O8 0.592874 0.000000 0.516092
O O9 0.250000 0.599677 0.955738
O O10 0.126463 0.500000 0.962459
O O11 0.155618 0.595510 0.789311
O O12 0.127892 0.692916 0.971723
O O13 0.750000 0.798629 0.989329
O O14 0.847371 0.846770 0.140234
O O15 0.250000 0.698744 0.675735
O O16 0.136568 0.610079 0.575515
O O17 0.100577 0.741788 0.702210
O O18 0.250000 0.599270 0.441699
O O19 0.372368 0.500000 0.407659
O O20 0.369072 0.683100 0.372260
O O21 0.750000 0.208017 0.664546
#
# Coordination Sequence:
#
# PCOD8214378 Si02
#       8
#     8   8   8   8   8   8   8   8
#     4  12  26  44  62  80 114 167 214 246 300 378
#     4  11  22  38  59  86 120 158 197 243 303 368
#     4   8  14  28  54  86 116 147 185 231 291 360
#     4  10  23  41  63  92 120 151 202 263 310 348
#     4   9  16  29  54  89 124 156 189 236 296 355
#     4   9  17  31  55  88 123 157 195 240 294 359
#     4  11  23  39  61  88 118 156 204 251 293 350
#     4  11  21  37  63  89 121 156 198 246 304 363
#
# _framework density 20.467977999999999
#
# number of rings (size 3 to 8) (size 9 to 14) (size 15 to 20)
#    0.000    1.875    2.500    3.000    0.000    5.250 
#    0.000    0.625    0.000   19.500    0.000    0.000 
#    0.000    0.000    0.000    0.000    0.000    0.000 
#
# Total GULP energy -792920.315220 kJ/mol
# GULP energy per Si atom -12389.379925 kJ/mol
# Density = 2.042139 g / cm^3
# Si number density = 20.467978 Si / 1000 Ang^3
#
#
#
# Elastic Constant Matrix: (Units=GPa)
#
#
# Indices 1 2 3 4 5 6 
#
# 1 42.6741 43.8302 10.0660 0.0000 0.0000 0.0000
# 2 43.8302 147.7538 34.9303 0.0000 0.0000 0.0000
# 3 10.0660 34.9303 76.4710 0.0000 0.0000 0.0000
# 4 0.0000 0.0000 0.0000 26.5369 0.0000 0.0000
# 5 0.0000 0.0000 0.0000 0.0000 16.3550 0.0000
# 6 0.0000 0.0000 0.0000 0.0000 0.0000 19.1445
#
#
#
# Elastic Compliance Matrix: (Units=1/GPa)
#
#
# Indices 1 2 3 4 5 6 
#
# 1 0.033703 -0.010032 0.000146 0.000000 0.000000 0.000000
# 2 -0.010032 0.010574 -0.003509 0.000000 0.000000 0.000000
# 3 0.000146 -0.003509 0.014661 0.000000 0.000000 0.000000
# 4 0.000000 0.000000 0.000000 0.037683 0.000000 0.000000
# 5 0.000000 0.000000 0.000000 0.000000 0.061144 0.000000
# 6 0.000000 0.000000 0.000000 0.000000 0.000000 0.052234
#
#
# Mechanical properties :
#
#
# Convention : Reuss Voigt Hill
#
# Bulk Modulus (GPa) = 31.10765 49.39465 40.25115
# Shear Modulus (GPa) = 20.20164 24.27878 22.24021
#
# Velocity S-wave (km/s) = 3.14504 3.44784 3.29992
# Velocity P-wave (km/s) = 5.33100 6.32733 5.85042
#
# Compressibility (1/GPa) = 0.03214643
#
# Stress axis : x y z
#
# Youngs Moduli (GPa) = 29.67095 94.57468 68.21019
#
# Poissons Ratio (x) = 0.94880 -0.00997
# Poissons Ratio (y) = 0.29767 0.23937
# Poissons Ratio (z) = -0.00434 0.33189
#
# Static dielectric constant tensor:
#      x y z
#    x 3.507000 0.000000 0.000000 
#    y 0.000000 4.090320 0.000000 
#    z 0.000000 0.000000 3.706030 
# 
# 
# High freq. dielectric constant tensor:
#      x y z
#    x 1.765860 0.000000 0.000000 
#    y 0.000000 1.809350 0.000000 
#    z 0.000000 0.000000 1.794160 
# 
# From -- ./inp_files/17516.got.cif
#   From: 2010.03.12/outbox.cif.g09.slc.cpg/sg51_9_cif.got.tgz:17516.got - 2010.04.16 13:43:02.
