data_PCOD8214476
_publ_section_title
;
Structure prediction by ZEFSAII (Michael W. Deem and Ramdas Pophale) SiO2 
 PCOD8214476
Probable space group: P M M A
;
_chemical_formula_sum "Si O2"
_cell_formula_units_Z 64
_cell_length_a 9.190276
_cell_length_b 20.399531
_cell_length_c 19.791945
_cell_angle_alpha 90.000000
_cell_angle_beta 90.000000
_cell_angle_gamma 90.000000
_cell_volume 3710.540809
_symmetry_space_group_name_H-M "P M M A"
_symmetry_group_IT_number 51
_symmetry_cell_setting 'orthorhombic'
loop_
_space_group_symop_operation_xyz
x,y,z
1/2-x,-y,z
1/2+x,-y,-z
-x,y,-z
-x,-y,-z
1/2+x,y,-z
1/2-x,y,z
x,-y,z
loop_
_atom_site_type_symbol
_atom_site_label
_atom_site_fract_x
_atom_site_fract_y
_atom_site_fract_z
Si Si1 0.082070 0.573538 0.065970
Si Si2 0.922479 0.072027 0.151550
Si Si3 0.089343 0.725300 0.562189
Si Si4 0.075350 0.199009 0.928397
Si Si5 0.077239 0.125530 0.709254
Si Si6 0.578953 0.307988 0.839598
Si Si7 0.412154 0.881759 0.563188
Si Si8 0.922314 0.275264 0.288782
O O1 0.250000 0.574344 0.046786
O O2 0.030540 0.500000 0.085750
O O3 0.048119 0.621692 0.127394
O O4 0.000000 0.599769 0.000000
O O5 0.750000 0.074635 0.156497
O O6 0.973696 0.127322 0.098846
O O7 0.984491 0.084227 0.227407
O O8 0.976219 0.000000 0.127149
O O9 0.250000 0.697609 0.552332
O O10 0.089658 0.803537 0.559940
O O11 0.031439 0.702157 0.635618
O O12 0.000000 0.695016 0.500000
O O13 0.250000 0.205559 0.934319
O O14 0.014918 0.252674 0.877022
O O15 0.000000 0.210334 0.000000
O O16 0.250000 0.121892 0.703918
O O17 0.017799 0.098769 0.636516
O O18 0.031366 0.200104 0.722126
O O19 0.750000 0.289864 0.840787
O O20 0.518332 0.316455 0.763833
O O21 0.500000 0.911788 0.500000
O O22 0.250000 0.910159 0.556821
O O23 0.750000 0.285248 0.276746
#
# Coordination Sequence:
#
# PCOD8214476 Si02
#       8
#     8   8   8   8   8   8   8   8
#     4   9  19  35  52  71  97 128 161 195 230 272
#     4   9  17  30  50  71  87 113 156 198 236 282
#     4   8  14  23  37  58  88 123 158 191 231 279
#     4  11  22  36  53  72  96 121 150 193 241 287
#     4   8  13  25  43  62  85 115 150 188 228 273
#     4  11  21  32  50  76 101 127 160 194 232 280
#     4   8  13  21  36  57  82 110 143 180 221 268
#     4   9  16  28  45  66  94 129 160 194 240 282
#
# _framework density 17.248159000000001
#
# number of rings (size 3 to 8) (size 9 to 14) (size 15 to 20)
#    0.000    2.875    1.250    2.625    0.000    2.750 
#    0.000    1.875    0.000    1.500    0.000    0.000 
#    0.000    0.500    0.000    1.125    0.000    1.750 
#
# Total GULP energy -793064.989353 kJ/mol
# GULP energy per Si atom -12391.640459 kJ/mol
# Density = 1.720890 g / cm^3
# Si number density = 17.248159 Si / 1000 Ang^3
#
#
#
# Elastic Constant Matrix: (Units=GPa)
#
#
# Indices 1 2 3 4 5 6 
#
# 1 56.8491 26.9815 48.5260 0.0000 0.0000 0.0000
# 2 26.9815 57.9545 36.4670 0.0000 0.0000 0.0000
# 3 48.5260 36.4670 133.2872 0.0000 0.0000 0.0000
# 4 0.0000 0.0000 0.0000 14.9644 0.0000 0.0000
# 5 0.0000 0.0000 0.0000 0.0000 31.4569 0.0000
# 6 0.0000 0.0000 0.0000 0.0000 0.0000 11.8455
#
#
#
# Elastic Compliance Matrix: (Units=1/GPa)
#
#
# Indices 1 2 3 4 5 6 
#
# 1 0.028355 -0.008100 -0.008107 0.000000 0.000000 0.000000
# 2 -0.008100 0.023157 -0.003387 0.000000 0.000000 0.000000
# 3 -0.008107 -0.003387 0.011381 0.000000 0.000000 0.000000
# 4 0.000000 0.000000 0.000000 0.066825 0.000000 0.000000
# 5 0.000000 0.000000 0.000000 0.000000 0.031790 0.000000
# 6 0.000000 0.000000 0.000000 0.000000 0.000000 0.084420
#
#
# Mechanical properties :
#
#
# Convention : Reuss Voigt Hill
#
# Bulk Modulus (GPa) = 42.18461 52.44886 47.31673
# Shear Modulus (GPa) = 17.06388 20.72779 18.89583
#
# Velocity S-wave (km/s) = 3.14875 3.47037 3.31347
# Velocity P-wave (km/s) = 6.14248 6.82146 6.49086
#
# Compressibility (1/GPa) = 0.02370533
#
# Stress axis : x y z
#
# Youngs Moduli (GPa) = 35.26733 43.18362 87.86738
#
# Poissons Ratio (x) = 0.34977 0.71235
# Poissons Ratio (y) = 0.28565 0.29759
# Poissons Ratio (z) = 0.28592 0.14625
#
# Static dielectric constant tensor:
#      x y z
#    x 3.081850 0.000000 0.000000 
#    y 0.000000 3.017870 0.000000 
#    z 0.000000 0.000000 3.548060 
# 
# 
# High freq. dielectric constant tensor:
#      x y z
#    x 1.640750 0.000000 0.000000 
#    y 0.000000 1.621440 0.000000 
#    z 0.000000 0.000000 1.681670 
# 
# From -- ./inp_files/32637.got.cif
#   From: 2010.03.12/outbox.cif.g09.slc.cpg/sg51_17_cif.got.tgz:32637.got - 2010.04.16 13:43:02.
