data_PCOD8214053
_publ_section_title
;
Structure prediction by ZEFSAII (Michael W. Deem and Ramdas Pophale) SiO2 
 PCOD8214053
Probable space group: P M M A
;
_chemical_formula_sum "Si O2"
_cell_formula_units_Z 32
_cell_length_a 13.161553
_cell_length_b 8.733925
_cell_length_c 13.539862
_cell_angle_alpha 90.000000
_cell_angle_beta 90.000000
_cell_angle_gamma 90.000000
_cell_volume 1556.434444
_symmetry_space_group_name_H-M "P M M A"
_symmetry_group_IT_number 51
_symmetry_cell_setting 'orthorhombic'
loop_
_space_group_symop_operation_xyz
x,y,z
1/2-x,-y,z
1/2+x,-y,-z
-x,y,-z
-x,-y,-z
1/2+x,y,-z
1/2-x,y,z
x,-y,z
loop_
_atom_site_type_symbol
_atom_site_label
_atom_site_fract_x
_atom_site_fract_y
_atom_site_fract_z
Si Si1 0.250000 0.320068 0.824541
Si Si2 0.250000 0.175916 0.614172
Si Si3 0.612100 0.667055 0.532194
Si Si4 0.538237 0.819082 0.106966
Si Si5 0.135552 0.822425 0.258607
O O1 0.250000 0.500000 0.839907
O O2 0.250000 0.282256 0.709331
O O3 0.147761 0.254400 0.873255
O O4 0.153995 0.211816 0.546260
O O5 0.250000 0.000000 0.648188
O O6 0.500000 0.642608 0.500000
O O7 0.666168 0.500000 0.527063
O O8 0.624320 0.728645 0.641790
O O9 0.450838 0.763447 0.183095
O O10 0.552539 0.000000 0.113066
O O11 0.500000 0.766468 0.000000
O O12 0.250000 0.797510 0.215012
O O13 0.117778 0.000000 0.282630
#
# Coordination Sequence:
#
# PCOD8214053 Si02
#       5
#     4   4   8   8   8
#     4  12  26  44  65  94 135 172 215 268 322 388
#     4  12  24  40  63  90 123 166 213 258 308 368
#     4  11  23  38  59  90 127 167 208 254 312 376
#     4  10  23  43  71  99 127 168 218 271 326 383
#     4  10  21  38  62  96 130 165 210 263 320 384
#
# _framework density 20.559812999999998
#
# number of rings (size 3 to 8) (size 9 to 14) (size 15 to 20)
#    0.000    1.250    1.250    4.500    1.750    7.500 
#    0.000    0.000    0.000    0.000    0.000    0.000 
#    0.000    0.000    0.000    0.000    0.000    0.000 
#
# Total GULP energy -396664.451272 kJ/mol
# GULP energy per Si atom -12395.764102 kJ/mol
# Density = 2.051302 g / cm^3
# Si number density = 20.559813 Si / 1000 Ang^3
#
#
#
# Elastic Constant Matrix: (Units=GPa)
#
#
# Indices 1 2 3 4 5 6 
#
# 1 183.1414 46.3564 74.4248 0.0000 0.0000 0.0000
# 2 46.3564 67.8040 31.3972 0.0000 0.0000 0.0000
# 3 74.4248 31.3972 136.2092 0.0000 0.0000 0.0000
# 4 0.0000 0.0000 0.0000 10.8927 0.0000 0.0000
# 5 0.0000 0.0000 0.0000 0.0000 25.6107 0.0000
# 6 0.0000 0.0000 0.0000 0.0000 0.0000 44.6336
#
#
#
# Elastic Compliance Matrix: (Units=1/GPa)
#
#
# Indices 1 2 3 4 5 6 
#
# 1 0.007788 -0.003755 -0.003390 0.000000 0.000000 0.000000
# 2 -0.003755 0.018321 -0.002171 0.000000 0.000000 0.000000
# 3 -0.003390 -0.002171 0.009694 0.000000 0.000000 0.000000
# 4 0.000000 0.000000 0.000000 0.091805 0.000000 0.000000
# 5 0.000000 0.000000 0.000000 0.000000 0.039046 0.000000
# 6 0.000000 0.000000 0.000000 0.000000 0.000000 0.022405
#
#
# Mechanical properties :
#
#
# Convention : Reuss Voigt Hill
#
# Bulk Modulus (GPa) = 58.23734 76.83459 67.53596
# Shear Modulus (GPa) = 23.42840 31.89246 27.66043
#
# Velocity S-wave (km/s) = 3.37935 3.94281 3.67190
# Velocity P-wave (km/s) = 6.60409 7.62758 7.13421
#
# Compressibility (1/GPa) = 0.01717111
#
# Stress axis : x y z
#
# Youngs Moduli (GPa) = 128.39698 54.58184 103.15152
#
# Poissons Ratio (x) = 0.20495 0.34968
# Poissons Ratio (y) = 0.48213 0.22399
# Poissons Ratio (z) = 0.43527 0.11852
#
# Static dielectric constant tensor:
#      x y z
#    x 4.102440 0.000000 0.000000 
#    y 0.000000 3.754790 0.000000 
#    z 0.000000 0.000000 3.795860 
# 
# 
# High freq. dielectric constant tensor:
#      x y z
#    x 1.830740 0.000000 0.000000 
#    y 0.000000 1.801810 0.000000 
#    z 0.000000 0.000000 1.805010 
# 
# From -- ./inp_files/15931.got.cif
#   From: 2010.03.12/outbox.cif.g09.slc.cpg/sg51_8_cif.got.tgz:15931.got - 2010.04.16 13:43:02.
