data_PCOD8214212
_publ_section_title
;
Structure prediction by ZEFSAII (Michael W. Deem and Ramdas Pophale) SiO2 
 PCOD8214212
Probable space group: P M M A
;
_chemical_formula_sum "Si O2"
_cell_formula_units_Z 40
_cell_length_a 14.521844
_cell_length_b 9.772725
_cell_length_c 14.918518
_cell_angle_alpha 90.000000
_cell_angle_beta 90.000000
_cell_angle_gamma 90.000000
_cell_volume 2117.206057
_symmetry_space_group_name_H-M "P M M A"
_symmetry_group_IT_number 51
_symmetry_cell_setting 'orthorhombic'
loop_
_space_group_symop_operation_xyz
x,y,z
1/2-x,-y,z
1/2+x,-y,-z
-x,y,-z
-x,-y,-z
1/2+x,y,-z
1/2-x,y,z
x,-y,z
loop_
_atom_site_type_symbol
_atom_site_label
_atom_site_fract_x
_atom_site_fract_y
_atom_site_fract_z
Si Si1 0.640225 0.843309 0.283942
Si Si2 0.987613 0.341327 0.397831
Si Si3 0.859995 0.152936 0.898425
Si Si4 0.350217 0.838153 0.909878
Si Si5 0.855211 0.657363 0.738786
O O1 0.750000 0.825066 0.286578
O O2 0.595284 0.745936 0.357236
O O3 0.600655 0.799335 0.184522
O O4 0.613464 0.000000 0.305357
O O5 0.960015 0.500000 0.390131
O O6 0.000000 0.296010 0.500000
O O7 0.083723 0.310429 0.348032
O O8 0.750000 0.152442 0.904859
O O9 0.894362 0.254590 0.821527
O O10 0.896354 0.000000 0.875748
O O11 0.900429 0.202377 0.996058
O O12 0.250000 0.767291 0.908843
O O13 0.337001 0.000000 0.910878
O O14 0.750000 0.697278 0.715097
O O15 0.862581 0.500000 0.767764
#
# Coordination Sequence:
#
# PCOD8214212 Si02
#       5
#     8   8   8   8   8
#     4   9  18  34  56  80 105 133 165 204 251 299
#     4  10  22  38  54  73  98 131 172 215 258 304
#     4   8  13  24  46  74 100 128 163 199 237 290
#     4   7  11  23  45  72 101 131 161 194 236 290
#     4   9  18  33  51  71  98 131 166 207 254 299
#
# _framework density 18.892823
#
# number of rings (size 3 to 8) (size 9 to 14) (size 15 to 20)
#    0.000    3.400    0.000    2.400    0.000    2.400 
#    0.000    4.000    0.000   12.000    0.000    0.000 
#    0.000    0.000    0.000    0.000    0.000    0.000 
#
# Total GULP energy -495521.950674 kJ/mol
# GULP energy per Si atom -12388.048767 kJ/mol
# Density = 1.884982 g / cm^3
# Si number density = 18.892823 Si / 1000 Ang^3
#
#
#
# Elastic Constant Matrix: (Units=GPa)
#
#
# Indices 1 2 3 4 5 6 
#
# 1 54.1649 33.5957 46.6263 0.0000 0.0000 0.0000
# 2 33.5957 69.0186 76.4222 0.0000 0.0000 0.0000
# 3 46.6263 76.4222 195.9583 0.0000 0.0000 0.0000
# 4 0.0000 0.0000 0.0000 40.3443 0.0000 0.0000
# 5 0.0000 0.0000 0.0000 0.0000 199.3660 0.0000
# 6 0.0000 0.0000 0.0000 0.0000 0.0000 20.6567
#
#
#
# Elastic Compliance Matrix: (Units=1/GPa)
#
#
# Indices 1 2 3 4 5 6 
#
# 1 0.027017 -0.010618 -0.002287 0.000000 0.000000 0.000000
# 2 -0.010618 0.029674 -0.009046 0.000000 0.000000 0.000000
# 3 -0.002287 -0.009046 0.009175 0.000000 0.000000 0.000000
# 4 0.000000 0.000000 0.000000 0.024787 0.000000 0.000000
# 5 0.000000 0.000000 0.000000 0.000000 0.005016 0.000000
# 6 0.000000 0.000000 0.000000 0.000000 0.000000 0.048410
#
#
# Mechanical properties :
#
#
# Convention : Reuss Voigt Hill
#
# Bulk Modulus (GPa) = 45.53123 70.26999 57.90061
# Shear Modulus (GPa) = 25.60120 62.90657 44.25389
#
# Velocity S-wave (km/s) = 3.68513 5.77658 4.84505
# Velocity P-wave (km/s) = 6.50069 9.04248 7.87482
#
# Compressibility (1/GPa) = 0.02196295
#
# Stress axis : x y z
#
# Youngs Moduli (GPa) = 37.01363 33.69978 108.98813
#
# Poissons Ratio (x) = 0.35783 0.24931
# Poissons Ratio (y) = 0.39301 0.98592
# Poissons Ratio (z) = 0.08467 0.30485
#
# Static dielectric constant tensor:
#      x y z
#    x 3.187650 0.000000 0.000000 
#    y 0.000000 3.244040 0.000000 
#    z 0.000000 0.000000 3.848470 
# 
# 
# High freq. dielectric constant tensor:
#      x y z
#    x 1.719000 0.000000 0.000000 
#    y 0.000000 1.700660 0.000000 
#    z 0.000000 0.000000 1.742540 
# 
# From -- ./inp_files/16179.got.cif
#   From: 2010.03.12/outbox.cif.g09.slc.cpg/sg51_9_cif.got.tgz:16179.got - 2010.04.16 13:43:02.
