data_PCOD8214330
_publ_section_title
;
Structure prediction by ZEFSAII (Michael W. Deem and Ramdas Pophale) SiO2 
 PCOD8214330
Probable space group: P M M A
;
_chemical_formula_sum "Si O2"
_cell_formula_units_Z 56
_cell_length_a 27.922005
_cell_length_b 14.422101
_cell_length_c 6.210649
_cell_angle_alpha 90.000000
_cell_angle_beta 90.000000
_cell_angle_gamma 90.000000
_cell_volume 2500.990941
_symmetry_space_group_name_H-M "P M M A"
_symmetry_group_IT_number 51
_symmetry_cell_setting 'orthorhombic'
loop_
_space_group_symop_operation_xyz
x,y,z
1/2-x,-y,z
1/2+x,-y,-z
-x,y,-z
-x,-y,-z
1/2+x,y,-z
1/2-x,y,z
x,-y,z
loop_
_atom_site_type_symbol
_atom_site_label
_atom_site_fract_x
_atom_site_fract_y
_atom_site_fract_z
Si Si1 0.803952 0.100255 0.031466
Si Si2 0.548154 0.893441 0.367959
Si Si3 0.886129 0.394587 0.344838
Si Si4 0.194006 0.740576 0.631561
Si Si5 0.630253 0.168364 0.698691
Si Si6 0.062827 0.738294 0.972283
Si Si7 0.962214 0.604584 0.685925
O O1 0.750000 0.119354 0.947473
O O2 0.819394 0.180663 0.195207
O O3 0.806050 0.000000 0.150893
O O4 0.840634 0.090695 0.831316
O O5 0.500000 0.877737 0.500000
O O6 0.593503 0.870073 0.519537
O O7 0.543694 0.828948 0.155570
O O8 0.552701 0.000000 0.289885
O O9 0.885288 0.500000 0.268852
O O10 0.832447 0.355868 0.316126
O O11 0.921455 0.340084 0.190535
O O12 0.908502 0.383444 0.585132
O O13 0.250000 0.721548 0.612777
O O14 0.172261 0.771551 0.406090
O O15 0.605656 0.231094 0.876405
O O16 0.026181 0.684632 0.136540
O O17 0.967332 0.500000 0.780715
O O18 0.000000 0.621463 0.500000
#
# Coordination Sequence:
#
# PCOD8214330 Si02
#       7
#     8   8   8   8   8   8   8
#     4  10  22  40  65  96 130 174 229 286 345 405
#     4  11  27  47  68 102 142 183 226 273 337 412
#     4  11  23  43  67  99 137 177 227 282 344 409
#     4  11  23  43  66  98 139 177 227 286 344 408
#     4  12  22  41  67  98 134 179 228 282 334 398
#     4  12  23  44  70  99 135 183 226 281 335 404
#     4  10  23  43  71 105 137 173 225 284 343 406
#
# _framework density 22.391126
#
# number of rings (size 3 to 8) (size 9 to 14) (size 15 to 20)
#    0.000    1.000    4.286    1.286    0.000    8.286 
#    0.000    5.000    0.000    1.714    0.000    0.000 
#    0.000    0.000    0.000    0.000    0.000    0.000 
#
# Total GULP energy -693996.580532 kJ/mol
# GULP energy per Si atom -12392.796081 kJ/mol
# Density = 2.234016 g / cm^3
# Si number density = 22.391126 Si / 1000 Ang^3
#
#
#
# Elastic Constant Matrix: (Units=GPa)
#
#
# Indices 1 2 3 4 5 6 
#
# 1 111.0842 49.0525 44.4721 0.0000 0.0000 0.0000
# 2 49.0525 175.3740 77.6434 0.0000 0.0000 0.0000
# 3 44.4721 77.6434 108.1493 0.0000 0.0000 0.0000
# 4 0.0000 0.0000 0.0000 32.2892 0.0000 0.0000
# 5 0.0000 0.0000 0.0000 0.0000 42.9518 0.0000
# 6 0.0000 0.0000 0.0000 0.0000 0.0000 30.5741
#
#
#
# Elastic Compliance Matrix: (Units=1/GPa)
#
#
# Indices 1 2 3 4 5 6 
#
# 1 0.011069 -0.001584 -0.003414 0.000000 0.000000 0.000000
# 2 -0.001584 0.008586 -0.005512 0.000000 0.000000 0.000000
# 3 -0.003414 -0.005512 0.014608 0.000000 0.000000 0.000000
# 4 0.000000 0.000000 0.000000 0.030970 0.000000 0.000000
# 5 0.000000 0.000000 0.000000 0.000000 0.023282 0.000000
# 6 0.000000 0.000000 0.000000 0.000000 0.000000 0.032707
#
#
# Mechanical properties :
#
#
# Convention : Reuss Voigt Hill
#
# Bulk Modulus (GPa) = 75.52576 81.88260 78.70418
# Shear Modulus (GPa) = 34.09312 36.05897 35.07605
#
# Velocity S-wave (km/s) = 3.90631 4.01735 3.96222
# Velocity P-wave (km/s) = 7.35861 7.62676 7.49388
#
# Compressibility (1/GPa) = 0.01324051
#
# Stress axis : x y z
#
# Youngs Moduli (GPa) = 90.34553 116.47139 68.45615
#
# Poissons Ratio (x) = 0.18454 0.23371
# Poissons Ratio (y) = 0.14315 0.37736
# Poissons Ratio (z) = 0.30844 0.64204
#
# Static dielectric constant tensor:
#      x y z
#    x 4.246160 0.000000 0.000000 
#    y 0.000000 4.196590 0.000000 
#    z 0.000000 0.000000 4.174470 
# 
# 
# High freq. dielectric constant tensor:
#      x y z
#    x 1.892330 0.000000 0.000000 
#    y 0.000000 1.889010 0.000000 
#    z 0.000000 0.000000 1.881540 
# 
# From -- ./inp_files/4024.got.cif
#   From: 2010.03.12/outbox.cif.g09.slc.cpg/sg51_3_cif.got.tgz:4024.got - 2010.04.16 13:43:02.
