data_PCOD8214736
_publ_section_title
;
Structure prediction by ZEFSAII (Michael W. Deem and Ramdas Pophale) SiO2 
 PCOD8214736
Probable space group: P M M A
;
_chemical_formula_sum "Si O2"
_cell_formula_units_Z 56
_cell_length_a 9.725451
_cell_length_b 13.572160
_cell_length_c 28.861794
_cell_angle_alpha 90.000000
_cell_angle_beta 90.000000
_cell_angle_gamma 90.000000
_cell_volume 3809.623381
_symmetry_space_group_name_H-M "P M M A"
_symmetry_group_IT_number 51
_symmetry_cell_setting 'orthorhombic'
loop_
_space_group_symop_operation_xyz
x,y,z
1/2-x,-y,z
1/2+x,-y,-z
-x,y,-z
-x,-y,-z
1/2+x,y,-z
1/2-x,y,z
x,-y,z
loop_
_atom_site_type_symbol
_atom_site_label
_atom_site_fract_x
_atom_site_fract_y
_atom_site_fract_z
Si Si1 0.586471 0.390641 0.358192
Si Si2 0.091616 0.886449 0.226524
Si Si3 0.091328 0.230073 0.134504
Si Si4 0.909975 0.269479 0.271060
Si Si5 0.408605 0.613522 0.821381
Si Si6 0.596970 0.617498 0.460012
Si Si7 0.909140 0.886456 0.956876
O O1 0.750000 0.397919 0.356336
O O2 0.524971 0.500000 0.349415
O O3 0.533441 0.317130 0.318553
O O4 0.541581 0.350881 0.409052
O O5 0.250000 0.869938 0.240268
O O6 0.062487 0.848672 0.174793
O O7 0.996780 0.829203 0.263028
O O8 0.049788 0.000000 0.228496
O O9 0.250000 0.262486 0.133940
O O10 0.047452 0.179354 0.086712
O O11 0.999904 0.327288 0.141621
O O12 0.750000 0.240865 0.274406
O O13 0.936432 0.347933 0.230370
O O14 0.250000 0.627793 0.835124
O O15 0.452743 0.500000 0.823235
O O16 0.500000 0.662257 0.500000
O O17 0.750000 0.659377 0.468410
O O18 0.599761 0.500000 0.462184
O O19 0.750000 0.871410 0.969716
O O20 0.939730 0.000000 0.944501
O O21 0.000000 0.850824 0.000000
#
# Coordination Sequence:
#
# PCOD8214736 Si02
#       7
#     8   8   8   8   8   8   8
#     4   8  13  22  37  55  76 105 136 162 192 232
#     4   9  17  29  43  58  80 109 134 157 191 235
#     4   9  17  29  45  63  82 107 137 163 189 229
#     4   9  16  26  41  60  80 103 134 168 196 227
#     4   9  17  28  42  61  84 108 134 166 201 231
#     4   8  13  21  33  49  70  98 131 162 191 226
#     4   9  17  29  45  65  87 108 130 159 197 239
#
# _framework density 14.699616000000001
#
# number of rings (size 3 to 8) (size 9 to 14) (size 15 to 20)
#    0.000    3.286    0.000    1.714    0.000    4.571 
#    0.000    0.714    0.000    5.143    0.000    0.000 
#    0.000    0.571    0.000    1.286    0.000    2.286 
#
# Total GULP energy -694250.446755 kJ/mol
# GULP energy per Si atom -12397.329406 kJ/mol
# Density = 1.466616 g / cm^3
# Si number density = 14.699616 Si / 1000 Ang^3
#
#
#
# Elastic Constant Matrix: (Units=GPa)
#
#
# Indices 1 2 3 4 5 6 
#
# 1 57.1646 48.1065 53.4912 0.0000 0.0000 0.0000
# 2 48.1065 96.3740 56.3150 0.0000 0.0000 0.0000
# 3 53.4912 56.3150 119.2566 0.0000 0.0000 0.0000
# 4 0.0000 0.0000 0.0000 19.6888 0.0000 0.0000
# 5 0.0000 0.0000 0.0000 0.0000 24.1213 0.0000
# 6 0.0000 0.0000 0.0000 0.0000 0.0000 22.7848
#
#
#
# Elastic Compliance Matrix: (Units=1/GPa)
#
#
# Indices 1 2 3 4 5 6 
#
# 1 0.038924 -0.012744 -0.011441 0.000000 0.000000 0.000000
# 2 -0.012744 0.018503 -0.003021 0.000000 0.000000 0.000000
# 3 -0.011441 -0.003021 0.014944 0.000000 0.000000 0.000000
# 4 0.000000 0.000000 0.000000 0.050790 0.000000 0.000000
# 5 0.000000 0.000000 0.000000 0.000000 0.041457 0.000000
# 6 0.000000 0.000000 0.000000 0.000000 0.000000 0.043889
#
#
# Mechanical properties :
#
#
# Convention : Reuss Voigt Hill
#
# Bulk Modulus (GPa) = 55.68513 65.40229 60.54371
# Shear Modulus (GPa) = 18.59394 20.97781 19.78588
#
# Velocity S-wave (km/s) = 3.56044 3.78180 3.67279
# Velocity P-wave (km/s) = 7.40720 7.97862 7.69821
#
# Compressibility (1/GPa) = 0.01795812
#
# Stress axis : x y z
#
# Youngs Moduli (GPa) = 25.69135 54.04518 66.91814
#
# Poissons Ratio (x) = 0.68875 0.76560
# Poissons Ratio (y) = 0.32741 0.20218
# Poissons Ratio (z) = 0.29393 0.16329
#
# Static dielectric constant tensor:
#      x y z
#    x 2.815500 0.000000 0.000000 
#    y 0.000000 2.685170 0.000000 
#    z 0.000000 0.000000 2.976750 
# 
# 
# High freq. dielectric constant tensor:
#      x y z
#    x 1.552030 0.000000 0.000000 
#    y 0.000000 1.533580 0.000000 
#    z 0.000000 0.000000 1.558740 
# 
# From -- ./inp_files/33029.got.cif
#   From: 2010.03.12/outbox.cif.g09.slc.cpg/sg51_17_cif.got.tgz:33029.got - 2010.04.16 13:43:02.
