data_PCOD8214021
_publ_section_title
;
Structure prediction by ZEFSAII (Michael W. Deem and Ramdas Pophale) SiO2 
 PCOD8214021
Probable space group: P M M A
;
_chemical_formula_sum "Si O2"
_cell_formula_units_Z 48
_cell_length_a 16.172415
_cell_length_b 17.378613
_cell_length_c 7.965403
_cell_angle_alpha 90.000000
_cell_angle_beta 90.000000
_cell_angle_gamma 90.000000
_cell_volume 2238.709502
_symmetry_space_group_name_H-M "P M M A"
_symmetry_group_IT_number 51
_symmetry_cell_setting 'orthorhombic'
loop_
_space_group_symop_operation_xyz
x,y,z
1/2-x,-y,z
1/2+x,-y,-z
-x,y,-z
-x,-y,-z
1/2+x,y,-z
1/2-x,y,z
x,-y,z
loop_
_atom_site_type_symbol
_atom_site_label
_atom_site_fract_x
_atom_site_fract_y
_atom_site_fract_z
Si Si1 0.338701 0.411719 0.817930
Si Si2 0.906526 0.817644 0.969902
Si Si3 0.347828 0.085774 0.713829
Si Si4 0.659961 0.661604 0.844648
Si Si5 0.008636 0.414914 0.307721
Si Si6 0.655446 0.909127 0.660988
O O1 0.250000 0.376643 0.750339
O O2 0.341903 0.500000 0.761842
O O3 0.423542 0.372619 0.752307
O O4 0.339167 0.405694 0.018258
O O5 0.852334 0.742100 0.939976
O O6 0.901023 0.871039 0.804307
O O7 0.876179 0.858671 0.138676
O O8 0.000000 0.792516 0.000000
O O9 0.250000 0.080692 0.713404
O O10 0.375295 0.115056 0.526961
O O11 0.384239 0.000000 0.746080
O O12 0.750000 0.663466 0.752167
O O13 0.585726 0.642419 0.718456
O O14 0.021060 0.500000 0.221949
O O15 0.000000 0.429695 0.500000
O O16 0.750000 0.882515 0.690224
O O17 0.647953 0.000000 0.680808
#
# Coordination Sequence:
#
# PCOD8214021 Si02
#       6
#     8   8   8   8   8   8
#     4   9  18  35  60  86 114 153 197 239 287 349
#     4  12  24  37  56  86 124 161 201 256 317 376
#     4   9  19  38  63  87 114 155 206 257 312 377
#     4  11  23  40  60  84 117 159 205 249 300 362
#     4  10  21  38  61  90 123 156 195 247 300 358
#     4   9  19  38  62  86 115 154 204 257 309 373
#
# _framework density 21.440923000000002
#
# number of rings (size 3 to 8) (size 9 to 14) (size 15 to 20)
#    0.000    2.000    0.000    5.000    0.000    6.333 
#    6.000    3.333    0.000    0.000    0.000    0.000 
#    0.000    0.000    0.000    0.000    0.000    0.000 
#
# Total GULP energy -594729.674559 kJ/mol
# GULP energy per Si atom -12390.201553 kJ/mol
# Density = 2.139212 g / cm^3
# Si number density = 21.440923 Si / 1000 Ang^3
#
#
#
# Elastic Constant Matrix: (Units=GPa)
#
#
# Indices 1 2 3 4 5 6 
#
# 1 160.5127 43.0664 48.2348 0.0000 0.0000 0.0000
# 2 43.0664 54.4818 30.2938 0.0000 0.0000 0.0000
# 3 48.2348 30.2938 104.8586 0.0000 0.0000 0.0000
# 4 0.0000 0.0000 0.0000 -1.3762 0.0000 0.0000
# 5 0.0000 0.0000 0.0000 0.0000 21.7900 0.0000
# 6 0.0000 0.0000 0.0000 0.0000 0.0000 64.8433
#
#
#
# Elastic Compliance Matrix: (Units=1/GPa)
#
#
# Indices 1 2 3 4 5 6 
#
# 1 0.008350 -0.005319 -0.002304 0.000000 0.000000 0.000000
# 2 -0.005319 0.025256 -0.004850 0.000000 0.000000 0.000000
# 3 -0.002304 -0.004850 0.011998 0.000000 0.000000 0.000000
# 4 0.000000 0.000000 0.000000 -0.726638 0.000000 0.000000
# 5 0.000000 0.000000 0.000000 0.000000 0.045893 0.000000
# 6 0.000000 0.000000 0.000000 0.000000 0.000000 0.015422
#
#
# Mechanical properties :
#
#
# Convention : Reuss Voigt Hill
#
# Bulk Modulus (GPa) = 48.40873 62.56034 55.48453
# Shear Modulus (GPa) = -8.50500 30.26864 10.88182
#
# Velocity S-wave (km/s) = -1.99382 3.76137 2.25528
# Velocity P-wave (km/s) = 4.16249 6.93579 5.71977
#
# Compressibility (1/GPa) = 0.02065743
#
# Stress axis : x y z
#
# Youngs Moduli (GPa) = 119.76728 39.59485 83.34968
#
# Poissons Ratio (x) = 0.21060 0.19205
# Poissons Ratio (y) = 0.63703 0.40422
# Poissons Ratio (z) = 0.27596 0.19202
#
# Static dielectric constant tensor:
#      x y z
#    x 4.242630 0.000000 0.000000 
#    y 0.000000 3.708040 0.000000 
#    z 0.000000 0.000000 3.951660 
# 
# 
# High freq. dielectric constant tensor:
#      x y z
#    x 1.852230 0.000000 0.000000 
#    y 0.000000 1.822790 0.000000 
#    z 0.000000 0.000000 1.830100 
# 
# From -- ./inp_files/9564.got.cif
#   From: 2010.03.12/outbox.cif.g09.slc.cpg/sg51_5_cif.got.tgz:9564.got - 2010.04.16 13:43:02.
