data_PCOD8214311
_publ_section_title
;
Structure prediction by ZEFSAII (Michael W. Deem and Ramdas Pophale) SiO2 
 PCOD8214311
Probable space group: P M M A
;
_chemical_formula_sum "Si O2"
_cell_formula_units_Z 32
_cell_length_a 10.236510
_cell_length_b 8.932234
_cell_length_c 19.008693
_cell_angle_alpha 90.000000
_cell_angle_beta 90.000000
_cell_angle_gamma 90.000000
_cell_volume 1738.057994
_symmetry_space_group_name_H-M "P M M A"
_symmetry_group_IT_number 51
_symmetry_cell_setting 'orthorhombic'
loop_
_space_group_symop_operation_xyz
x,y,z
1/2-x,-y,z
1/2+x,-y,-z
-x,y,-z
-x,-y,-z
1/2+x,y,-z
1/2-x,y,z
x,-y,z
loop_
_atom_site_type_symbol
_atom_site_label
_atom_site_fract_x
_atom_site_fract_y
_atom_site_fract_z
Si Si1 0.902407 0.327367 0.287031
Si Si2 0.750000 0.323430 0.917314
Si Si3 0.505596 0.825671 0.844957
Si Si4 0.750000 0.827067 0.066012
Si Si5 0.604767 0.321962 0.445300
O O1 0.750000 0.302254 0.272102
O O2 0.940463 0.500000 0.275104
O O3 0.936296 0.275851 0.366370
O O4 0.987312 0.225226 0.235396
O O5 0.750000 0.500000 0.913287
O O6 0.877212 0.263667 0.878962
O O7 0.750000 0.275181 0.997948
O O8 0.376080 0.787420 0.888364
O O9 0.539055 0.000000 0.846568
O O10 0.750000 0.000000 0.042442
O O11 0.500000 0.253389 0.500000
O O12 0.750000 0.259782 0.462982
O O13 0.608016 0.500000 0.450524
#
# Coordination Sequence:
#
# PCOD8214311 Si02
#       5
#     8   4   8   4   8
#     4   9  17  31  53  80 110 143 184 233 275 317
#     4  12  26  40  56  84 115 144 179 230 287 326
#     4  11  22  39  60  82 111 149 187 225 274 335
#     4  10  22  40  62  84 107 144 189 224 269 334
#     4   8  14  26  45  71 104 141 178 221 270 317
#
# _framework density 18.411355
#
# number of rings (size 3 to 8) (size 9 to 14) (size 15 to 20)
#    0.000    2.250    1.250    4.125    0.000    5.000 
#    2.250    0.000    0.000    0.750    0.000    0.000 
#    0.000    0.000    0.000    0.000    0.000    0.000 
#
# Total GULP energy -396818.883454 kJ/mol
# GULP energy per Si atom -12400.590108 kJ/mol
# Density = 1.836945 g / cm^3
# Si number density = 18.411355 Si / 1000 Ang^3
#
#
#
# Elastic Constant Matrix: (Units=GPa)
#
#
# Indices 1 2 3 4 5 6 
#
# 1 128.4058 60.0758 81.3964 0.0000 0.0000 0.0000
# 2 60.0758 81.7634 60.8083 0.0000 0.0000 0.0000
# 3 81.3964 60.8083 153.9771 0.0000 0.0000 0.0000
# 4 0.0000 0.0000 0.0000 -1.6162 0.0000 0.0000
# 5 0.0000 0.0000 0.0000 0.0000 25.1632 0.0000
# 6 0.0000 0.0000 0.0000 0.0000 0.0000 24.8972
#
#
#
# Elastic Compliance Matrix: (Units=1/GPa)
#
#
# Indices 1 2 3 4 5 6 
#
# 1 0.013914 -0.006730 -0.004698 0.000000 0.000000 0.000000
# 2 -0.006730 0.020571 -0.004566 0.000000 0.000000 0.000000
# 3 -0.004698 -0.004566 0.010781 0.000000 0.000000 0.000000
# 4 0.000000 0.000000 0.000000 -0.618739 0.000000 0.000000
# 5 0.000000 0.000000 0.000000 0.000000 0.039741 0.000000
# 6 0.000000 0.000000 0.000000 0.000000 0.000000 0.040165
#
#
# Mechanical properties :
#
#
# Convention : Reuss Voigt Hill
#
# Bulk Modulus (GPa) = 75.30790 85.41192 80.35991
# Shear Modulus (GPa) = -10.93726 20.47989 4.77132
#
# Velocity S-wave (km/s) = -2.43996 3.33881 1.61156
# Velocity P-wave (km/s) = 5.74925 7.83295 6.87055
#
# Compressibility (1/GPa) = 0.01327882
#
# Stress axis : x y z
#
# Youngs Moduli (GPa) = 71.86845 48.61164 92.75416
#
# Poissons Ratio (x) = 0.32715 0.43574
# Poissons Ratio (y) = 0.48366 0.42355
# Poissons Ratio (z) = 0.33762 0.22198
#
# Static dielectric constant tensor:
#      x y z
#    x 3.553190 0.000000 0.000000 
#    y 0.000000 3.138190 0.000000 
#    z 0.000000 0.000000 3.562530 
# 
# 
# High freq. dielectric constant tensor:
#      x y z
#    x 1.712840 0.000000 0.000000 
#    y 0.000000 1.688530 0.000000 
#    z 0.000000 0.000000 1.725940 
# 
# From -- ./inp_files/22852.got.cif
#   From: 2010.03.12/outbox.cif.g09.slc.cpg/sg51_12_cif.got.tgz:22852.got - 2010.04.16 13:43:02.
