data_PCOD8214996
_publ_section_title
;
Structure prediction by ZEFSAII (Michael W. Deem and Ramdas Pophale) SiO2 
 PCOD8214996
Probable space group: P N N A
;
_chemical_formula_sum "Si O2"
_cell_formula_units_Z 64
_cell_length_a 21.219273
_cell_length_b 17.811901
_cell_length_c 9.497723
_cell_angle_alpha 90.000000
_cell_angle_beta 90.000000
_cell_angle_gamma 90.000000
_cell_volume 3589.717500
_symmetry_space_group_name_H-M "P N N A"
_symmetry_group_IT_number 52
_symmetry_cell_setting 'orthorhombic'
loop_
_space_group_symop_operation_xyz
x,y,z
1/2-x,-y,z
x,1/2-y,1/2-z
1/2-x,1/2+y,1/2-z
-x,-y,-z
1/2+x,y,-z
-x,1/2+y,1/2+z
1/2+x,1/2-y,1/2+z
loop_
_atom_site_type_symbol
_atom_site_label
_atom_site_fract_x
_atom_site_fract_y
_atom_site_fract_z
Si Si1 0.613437 0.681807 0.344795
Si Si2 0.647922 0.780077 0.593752
Si Si3 0.839111 0.944557 0.371349
Si Si4 0.960627 0.399503 0.895544
Si Si5 0.050049 0.433385 0.667912
Si Si6 0.933521 0.565409 0.897340
Si Si7 0.986853 0.592092 0.626620
Si Si8 0.795919 0.389832 0.119305
O O1 0.590562 0.750000 0.250000
O O2 0.641446 0.706945 0.495305
O O3 0.550769 0.637573 0.378156
O O4 0.666970 0.637689 0.257798
O O5 0.667714 0.750000 0.750000
O O6 0.583097 0.826728 0.596053
O O7 0.698194 0.835507 0.517485
O O8 0.880016 0.947575 0.227984
O O9 0.878318 0.906382 0.499216
O O10 0.777810 0.894399 0.341428
O O11 0.821984 0.028446 0.419936
O O12 0.922352 0.476524 0.868229
O O13 0.011249 0.380445 0.774129
O O14 0.997121 0.415920 0.040849
O O15 0.008779 0.507692 0.653631
O O16 0.053101 0.394734 0.515484
O O17 0.936186 0.611169 0.750004
#
# Coordination Sequence:
#
# PCOD8214996 Si02
#       8
#     8   8   8   8   8   8   8   8
#     4  10  20  33  54  76 108 142 175 210 248 322
#     4  11  21  34  54  77 108 138 173 219 256 312
#     4  10  18  34  55  75 101 135 177 229 249 317
#     4   9  16  29  49  79 104 135 171 199 265 313
#     4   9  18  29  53  78 112 133 156 222 267 312
#     4   9  16  28  54  76 107 130 164 223 254 310
#     4  10  17  30  48  83 111 131 164 208 279 308
#     4  10  20  35  53  75 100 137 190 210 260 302
#
# _framework density 17.828700000000001
#
# number of rings (size 3 to 8) (size 9 to 14) (size 15 to 20)
#    0.000    2.250    2.500    3.000    0.000    0.000 
#    0.000    1.250    0.000   29.250    0.000    0.000 
#    0.000    0.000    0.000    0.000    0.000    0.000 
#
# Total GULP energy -792942.474270 kJ/mol
# GULP energy per Si atom -12389.726160 kJ/mol
# Density = 1.778812 g / cm^3
# Si number density = 17.828700 Si / 1000 Ang^3
#
#
#
# Elastic Constant Matrix: (Units=GPa)
#
#
# Indices 1 2 3 4 5 6 
#
# 1 98.6849 24.6703 49.5156 0.0000 0.0000 0.0000
# 2 24.6703 48.1525 28.1606 0.0000 0.0000 0.0000
# 3 49.5156 28.1606 147.4972 0.0000 0.0000 0.0000
# 4 0.0000 0.0000 0.0000 16.9397 0.0000 0.0000
# 5 0.0000 0.0000 0.0000 0.0000 15.6435 0.0000
# 6 0.0000 0.0000 0.0000 0.0000 0.0000 16.8918
#
#
#
# Elastic Compliance Matrix: (Units=1/GPa)
#
#
# Indices 1 2 3 4 5 6 
#
# 1 0.013046 -0.004641 -0.003494 0.000000 0.000000 0.000000
# 2 -0.004641 0.025029 -0.003221 0.000000 0.000000 0.000000
# 3 -0.003494 -0.003221 0.008568 0.000000 0.000000 0.000000
# 4 0.000000 0.000000 0.000000 0.059033 0.000000 0.000000
# 5 0.000000 0.000000 0.000000 0.000000 0.063924 0.000000
# 6 0.000000 0.000000 0.000000 0.000000 0.000000 0.059200
#
#
# Mechanical properties :
#
#
# Convention : Reuss Voigt Hill
#
# Bulk Modulus (GPa) = 41.78489 55.44751 48.61620
# Shear Modulus (GPa) = 19.26874 22.69422 20.98148
#
# Velocity S-wave (km/s) = 3.29107 3.57165 3.43423
# Velocity P-wave (km/s) = 6.15868 6.94093 6.56147
#
# Compressibility (1/GPa) = 0.02393210
#
# Stress axis : x y z
#
# Youngs Moduli (GPa) = 76.64935 39.95443 116.72006
#
# Poissons Ratio (x) = 0.18543 0.40778
# Poissons Ratio (y) = 0.35573 0.37590
# Poissons Ratio (z) = 0.26779 0.12867
#
# Static dielectric constant tensor:
#      x y z
#    x 3.124550 0.000000 0.000000 
#    y 0.000000 3.236660 0.000000 
#    z 0.000000 0.000000 3.738760 
# 
# 
# High freq. dielectric constant tensor:
#      x y z
#    x 1.665990 0.000000 0.000000 
#    y 0.000000 1.664590 0.000000 
#    z 0.000000 0.000000 1.700900 
# 
# From -- ./inp_files/14563.got.cif
#   From: 2010.06.25/outbox.cif.g09.slc.cpg/sg52_8_cif.got.tgz:14563.got - 2010.06.26 19:32:48.
