data_PCOD8214701
_publ_section_title
;
Structure prediction by ZEFSAII (Michael W. Deem and Ramdas Pophale) SiO2 
 PCOD8214701
Probable space group: P M M A
;
_chemical_formula_sum "Si O2"
_cell_formula_units_Z 48
_cell_length_a 10.091206
_cell_length_b 9.387420
_cell_length_c 30.414209
_cell_angle_alpha 90.000000
_cell_angle_beta 90.000000
_cell_angle_gamma 90.000000
_cell_volume 2881.149851
_symmetry_space_group_name_H-M "P M M A"
_symmetry_group_IT_number 51
_symmetry_cell_setting 'orthorhombic'
loop_
_space_group_symop_operation_xyz
x,y,z
1/2-x,-y,z
1/2+x,-y,-z
-x,y,-z
-x,-y,-z
1/2+x,y,-z
1/2-x,y,z
x,-y,z
loop_
_atom_site_type_symbol
_atom_site_label
_atom_site_fract_x
_atom_site_fract_y
_atom_site_fract_z
Si Si1 0.597487 0.333402 0.302949
Si Si2 0.603254 0.669419 0.203799
Si Si3 0.398231 0.330469 0.035426
Si Si4 0.601913 0.669541 0.866492
Si Si5 0.402587 0.833441 0.365966
Si Si6 0.396622 0.169396 0.465132
O O1 0.750000 0.297453 0.314520
O O2 0.570474 0.500000 0.308669
O O3 0.565332 0.284079 0.253164
O O4 0.499895 0.250163 0.334457
O O5 0.750000 0.726292 0.191777
O O6 0.602977 0.500000 0.201162
O O7 0.499158 0.735891 0.169120
O O8 0.250000 0.276621 0.024222
O O9 0.401750 0.500000 0.033318
O O10 0.439083 0.279951 0.084473
O O11 0.500000 0.264061 0.000000
O O12 0.750000 0.723739 0.855352
O O13 0.598440 0.500000 0.864350
O O14 0.250000 0.797244 0.354591
O O15 0.435281 0.784775 0.415770
O O16 0.429403 0.000000 0.360024
O O17 0.500000 0.235886 0.500000
O O18 0.250000 0.227097 0.476883
O O19 0.396338 0.000000 0.468008
#
# Coordination Sequence:
#
# PCOD8214701 Si02
#       6
#     8   8   8   8   8   8
#     4   9  18  31  45  63  87 113 144 181 216 253
#     4   8  14  24  36  50  69  93 123 161 201 238
#     4   8  13  19  25  35  53  77 107 145 187 230
#     4   8  13  20  29  42  60  82 113 154 194 233
#     4   9  18  31  46  67  93 116 141 175 212 252
#     4   8  14  25  41  62  87 111 136 169 206 244
#
# _framework density 16.660015000000001
#
# number of rings (size 3 to 8) (size 9 to 14) (size 15 to 20)
#    0.000    3.667    0.000    3.000    0.000    2.667 
#    0.000    6.667    0.000    0.500    0.000    0.000 
#    0.000    0.000    0.000    0.000    0.000    0.833 
#
# Total GULP energy -594798.617253 kJ/mol
# GULP energy per Si atom -12391.637859 kJ/mol
# Density = 1.662210 g / cm^3
# Si number density = 16.660015 Si / 1000 Ang^3
#
#
#
# Elastic Constant Matrix: (Units=GPa)
#
#
# Indices 1 2 3 4 5 6 
#
# 1 147.5627 28.3035 123.2555 0.0000 0.0000 0.0000
# 2 28.3035 15.9906 25.8522 0.0000 0.0000 0.0000
# 3 123.2555 25.8522 157.4148 0.0000 0.0000 0.0000
# 4 0.0000 0.0000 0.0000 -23.8450 0.0000 0.0000
# 5 0.0000 0.0000 0.0000 0.0000 44.0517 0.0000
# 6 0.0000 0.0000 0.0000 0.0000 0.0000 16.7137
#
#
#
# Elastic Compliance Matrix: (Units=1/GPa)
#
#
# Indices 1 2 3 4 5 6 
#
# 1 0.021968 -0.015078 -0.014725 0.000000 0.000000 0.000000
# 2 -0.015078 0.095492 -0.003877 0.000000 0.000000 0.000000
# 3 -0.014725 -0.003877 0.018519 0.000000 0.000000 0.000000
# 4 0.000000 0.000000 0.000000 -0.041938 0.000000 0.000000
# 5 0.000000 0.000000 0.000000 0.000000 0.022701 0.000000
# 6 0.000000 0.000000 0.000000 0.000000 0.000000 0.059831
#
#
# Mechanical properties :
#
#
# Convention : Reuss Voigt Hill
#
# Bulk Modulus (GPa) = 14.57295 75.08783 44.83039
# Shear Modulus (GPa) = 18.74030 16.95455 17.84743
#
# Velocity S-wave (km/s) = 3.35754 3.19357 3.27658
# Velocity P-wave (km/s) = 4.87822 7.66597 6.42511
#
# Compressibility (1/GPa) = 0.06862030
#
# Stress axis : x y z
#
# Youngs Moduli (GPa) = 45.52097 10.47206 53.99972
#
# Poissons Ratio (x) = 0.15790 0.79512
# Poissons Ratio (y) = 0.68636 0.20934
# Poissons Ratio (z) = 0.67028 0.04060
#
# Static dielectric constant tensor:
#      x y z
#    x 3.526170 0.000000 0.000000 
#    y 0.000000 2.430060 0.000000 
#    z 0.000000 0.000000 3.412850 
# 
# 
# High freq. dielectric constant tensor:
#      x y z
#    x 1.650800 0.000000 0.000000 
#    y 0.000000 1.563880 0.000000 
#    z 0.000000 0.000000 1.651500 
# 
# From -- ./inp_files/36915.got.cif
#   From: 2010.03.12/outbox.cif.g09.slc.cpg/sg51_19_cif.got.tgz:36915.got - 2010.04.16 13:43:02.
