data_PCOD8214981
_publ_section_title
;
Structure prediction by ZEFSAII (Michael W. Deem and Ramdas Pophale) SiO2 
 PCOD8214981
Probable space group: P N N A
;
_chemical_formula_sum "Si O2"
_cell_formula_units_Z 48
_cell_length_a 8.644037
_cell_length_b 27.760819
_cell_length_c 12.107941
_cell_angle_alpha 90.000000
_cell_angle_beta 90.000000
_cell_angle_gamma 90.000000
_cell_volume 2905.488680
_symmetry_space_group_name_H-M "P N N A"
_symmetry_group_IT_number 52
_symmetry_cell_setting 'orthorhombic'
loop_
_space_group_symop_operation_xyz
x,y,z
1/2-x,-y,z
x,1/2-y,1/2-z
1/2-x,1/2+y,1/2-z
-x,-y,-z
1/2+x,y,-z
-x,1/2+y,1/2+z
1/2+x,1/2-y,1/2+z
loop_
_atom_site_type_symbol
_atom_site_label
_atom_site_fract_x
_atom_site_fract_y
_atom_site_fract_z
Si Si1 0.708942 0.740738 0.128058
Si Si2 0.393992 0.137767 0.627209
Si Si3 0.354325 0.762942 0.091281
Si Si4 0.697795 0.446958 0.096088
Si Si5 0.702628 0.169644 0.721105
Si Si6 0.380225 0.094043 0.408840
O O1 0.775241 0.750000 0.250000
O O2 0.717122 0.683583 0.113985
O O3 0.536513 0.761864 0.115253
O O4 0.819236 0.766971 0.038823
O O5 0.292386 0.092176 0.669521
O O6 0.531821 0.146991 0.711894
O O7 0.458425 0.127902 0.503164
O O8 0.280297 0.809135 0.154896
O O9 0.276788 0.713665 0.135378
O O10 0.750000 0.500000 0.130019
O O11 0.515914 0.442859 0.125671
O O12 0.737795 0.435832 0.965653
O O13 0.824840 0.127077 0.694127
#
# Coordination Sequence:
#
# PCOD8214981 Si02
#       6
#     8   8   8   8   8   8
#     4  11  20  35  50  71 108 141 175 214 250 300
#     4   9  17  30  47  64  98 142 162 205 269 288
#     4  10  20  33  50  72 100 139 180 200 256 295
#     4  10  19  28  44  70 102 136 172 211 259 327
#     4  10  17  33  47  67 101 139 168 211 237 317
#     4  10  17  28  47  66 100 133 173 201 263 301
#
# _framework density 16.520457
#
# number of rings (size 3 to 8) (size 9 to 14) (size 15 to 20)
#    1.000    1.000    6.667    0.500    2.333    0.000 
#    6.000    0.000    0.000    0.000    0.000    0.000 
#    0.000    6.667    0.000    0.000    0.000    0.000 
#
# Total GULP energy -594669.722846 kJ/mol
# GULP energy per Si atom -12388.952559 kJ/mol
# Density = 1.648286 g / cm^3
# Si number density = 16.520457 Si / 1000 Ang^3
#
#
#
# Elastic Constant Matrix: (Units=GPa)
#
#
# Indices 1 2 3 4 5 6 
#
# 1 57.5535 25.3222 20.0535 0.0000 0.0000 0.0000
# 2 25.3222 74.8428 21.6781 0.0000 0.0000 0.0000
# 3 20.0535 21.6781 91.1149 0.0000 0.0000 0.0000
# 4 0.0000 0.0000 0.0000 17.1226 0.0000 0.0000
# 5 0.0000 0.0000 0.0000 0.0000 15.2191 0.0000
# 6 0.0000 0.0000 0.0000 0.0000 0.0000 27.3750
#
#
#
# Elastic Compliance Matrix: (Units=1/GPa)
#
#
# Indices 1 2 3 4 5 6 
#
# 1 0.021241 -0.006264 -0.003185 0.000000 0.000000 0.000000
# 2 -0.006264 0.016198 -0.002475 0.000000 0.000000 0.000000
# 3 -0.003185 -0.002475 0.012265 0.000000 0.000000 0.000000
# 4 0.000000 0.000000 0.000000 0.058402 0.000000 0.000000
# 5 0.000000 0.000000 0.000000 0.000000 0.065707 0.000000
# 6 0.000000 0.000000 0.000000 0.000000 0.000000 0.036530
#
#
# Mechanical properties :
#
#
# Convention : Reuss Voigt Hill
#
# Bulk Modulus (GPa) = 38.67601 39.73543 39.20572
# Shear Modulus (GPa) = 20.59236 22.37384 21.48310
#
# Velocity S-wave (km/s) = 3.53438 3.68409 3.61001
# Velocity P-wave (km/s) = 6.33384 6.49624 6.41556
#
# Compressibility (1/GPa) = 0.02585582
#
# Stress axis : x y z
#
# Youngs Moduli (GPa) = 47.07915 61.73737 81.53350
#
# Poissons Ratio (x) = 0.38673 0.25964
# Poissons Ratio (y) = 0.29491 0.20180
# Poissons Ratio (z) = 0.14992 0.15280
#
# Static dielectric constant tensor:
#      x y z
#    x 2.909930 0.000000 0.000000 
#    y 0.000000 3.010120 0.000000 
#    z 0.000000 0.000000 2.818760 
# 
# 
# High freq. dielectric constant tensor:
#      x y z
#    x 1.631680 0.000000 0.000000 
#    y 0.000000 1.623020 0.000000 
#    z 0.000000 0.000000 1.584420 
# 
# From -- ./inp_files/17165.got.cif
#   From: 2010.06.25/outbox.cif.g09.slc.cpg/sg52_9_cif.got.tgz:17165.got - 2010.06.26 19:32:48.
