data_PCOD8214033
_publ_section_title
;
Structure prediction by ZEFSAII (Michael W. Deem and Ramdas Pophale) SiO2 
 PCOD8214033
Probable space group: P M M A
;
_chemical_formula_sum "Si O2"
_cell_formula_units_Z 48
_cell_length_a 15.914287
_cell_length_b 8.973766
_cell_length_c 16.952365
_cell_angle_alpha 90.000000
_cell_angle_beta 90.000000
_cell_angle_gamma 90.000000
_cell_volume 2420.985683
_symmetry_space_group_name_H-M "P M M A"
_symmetry_group_IT_number 51
_symmetry_cell_setting 'orthorhombic'
loop_
_space_group_symop_operation_xyz
x,y,z
1/2-x,-y,z
1/2+x,-y,-z
-x,y,-z
-x,-y,-z
1/2+x,y,-z
1/2-x,y,z
x,-y,z
loop_
_atom_site_type_symbol
_atom_site_label
_atom_site_fract_x
_atom_site_fract_y
_atom_site_fract_z
Si Si1 0.153924 0.825475 0.315184
Si Si2 0.411984 0.676768 0.464260
Si Si3 0.750000 0.676843 0.261660
Si Si4 0.846272 0.670638 0.992458
Si Si5 0.076395 0.170173 0.152077
Si Si6 0.250000 0.322999 0.559192
Si Si7 0.117450 0.829410 0.845306
O O1 0.250000 0.780623 0.331033
O O2 0.094897 0.738796 0.375991
O O3 0.130496 0.776347 0.226752
O O4 0.138201 0.000000 0.326138
O O5 0.500000 0.734358 0.500000
O O6 0.410418 0.500000 0.460513
O O7 0.333900 0.738136 0.516245
O O8 0.750000 0.500000 0.256977
O O9 0.750000 0.735343 0.351305
O O10 0.833207 0.735594 0.219534
O O11 0.750000 0.688424 0.966192
O O12 0.868455 0.500000 0.012287
O O13 0.904652 0.724702 0.921515
O O14 0.863839 0.769808 0.068096
O O15 0.979751 0.186604 0.175540
O O16 0.098434 0.000000 0.128910
O O17 0.250000 0.500000 0.557304
O O18 0.147355 0.000000 0.841909
#
# Coordination Sequence:
#
# PCOD8214033 Si02
#       7
#     8   8   4   8   8   4   8
#     4  10  21  39  61  87 120 157 195 242 298 349
#     4  10  21  38  62  89 118 157 199 242 299 361
#     4  11  23  39  61  86 117 154 195 245 300 351
#     4  11  23  39  60  88 120 156 198 243 294 347
#     4  10  23  40  60  87 119 156 199 243 292 353
#     4   9  20  39  59  86 121 154 195 245 296 355
#     4  11  23  40  61  86 117 156 198 242 295 353
#
# _framework density 19.826636000000001
#
# number of rings (size 3 to 8) (size 9 to 14) (size 15 to 20)
#    0.000    1.667    1.667    2.250    2.333    6.000 
#    0.000    1.667    0.000    0.000    0.000    0.000 
#    0.000    0.000    0.000    0.000    0.000    0.000 
#
# Total GULP energy -595450.911059 kJ/mol
# GULP energy per Si atom -12405.227314 kJ/mol
# Density = 1.978151 g / cm^3
# Si number density = 19.826636 Si / 1000 Ang^3
#
#
#
# Elastic Constant Matrix: (Units=GPa)
#
#
# Indices 1 2 3 4 5 6 
#
# 1 99.1809 27.5278 33.6875 0.0000 0.0000 0.0000
# 2 27.5278 63.8912 30.2313 0.0000 0.0000 0.0000
# 3 33.6875 30.2313 110.1742 0.0000 0.0000 0.0000
# 4 0.0000 0.0000 0.0000 31.2757 0.0000 0.0000
# 5 0.0000 0.0000 0.0000 0.0000 25.6413 0.0000
# 6 0.0000 0.0000 0.0000 0.0000 0.0000 26.7860
#
#
#
# Elastic Compliance Matrix: (Units=1/GPa)
#
#
# Indices 1 2 3 4 5 6 
#
# 1 0.012067 -0.003969 -0.002601 0.000000 0.000000 0.000000
# 2 -0.003969 0.019292 -0.004080 0.000000 0.000000 0.000000
# 3 -0.002601 -0.004080 0.010991 0.000000 0.000000 0.000000
# 4 0.000000 0.000000 0.000000 0.031974 0.000000 0.000000
# 5 0.000000 0.000000 0.000000 0.000000 0.039000 0.000000
# 6 0.000000 0.000000 0.000000 0.000000 0.000000 0.037333
#
#
# Mechanical properties :
#
#
# Convention : Reuss Voigt Hill
#
# Bulk Modulus (GPa) = 47.50238 50.68216 49.09227
# Shear Modulus (GPa) = 27.93706 28.86060 28.39883
#
# Velocity S-wave (km/s) = 3.75783 3.81943 3.78876
# Velocity P-wave (km/s) = 6.54517 6.71334 6.62979
#
# Compressibility (1/GPa) = 0.02105158
#
# Stress axis : x y z
#
# Youngs Moduli (GPa) = 82.86724 51.83457 90.98054
#
# Poissons Ratio (x) = 0.20572 0.23662
# Poissons Ratio (y) = 0.32887 0.37122
# Poissons Ratio (z) = 0.21552 0.21149
#
# Static dielectric constant tensor:
#      x y z
#    x 3.824840 0.000000 0.000000 
#    y 0.000000 3.516900 0.000000 
#    z 0.000000 0.000000 3.629730 
# 
# 
# High freq. dielectric constant tensor:
#      x y z
#    x 1.786610 0.000000 0.000000 
#    y 0.000000 1.763180 0.000000 
#    z 0.000000 0.000000 1.779670 
# 
# From -- ./inp_files/24946.got.cif
#   From: 2010.03.12/outbox.cif.g09.slc.cpg/sg51_13_cif.got.tgz:24946.got - 2010.04.16 13:43:02.
