data_PCOD8214185
_publ_section_title
;
Structure prediction by ZEFSAII (Michael W. Deem and Ramdas Pophale) SiO2 
 PCOD8214185
Probable space group: P M M A
;
_chemical_formula_sum "Si O2"
_cell_formula_units_Z 64
_cell_length_a 17.974497
_cell_length_b 13.680225
_cell_length_c 14.079103
_cell_angle_alpha 90.000000
_cell_angle_beta 90.000000
_cell_angle_gamma 90.000000
_cell_volume 3461.983330
_symmetry_space_group_name_H-M "P M M A"
_symmetry_group_IT_number 51
_symmetry_cell_setting 'orthorhombic'
loop_
_space_group_symop_operation_xyz
x,y,z
1/2-x,-y,z
1/2+x,-y,-z
-x,y,-z
-x,-y,-z
1/2+x,y,-z
1/2-x,y,z
x,-y,z
loop_
_atom_site_type_symbol
_atom_site_label
_atom_site_fract_x
_atom_site_fract_y
_atom_site_fract_z
Si Si1 0.600239 0.609433 0.922190
Si Si2 0.046823 0.885508 0.213793
Si Si3 0.556973 0.885932 0.576989
Si Si4 0.598461 0.885253 0.102805
Si Si5 0.664845 0.193894 0.914604
Si Si6 0.337086 0.109313 0.578125
Si Si7 0.335168 0.762478 0.751340
Si Si8 0.562272 0.390291 0.141500
O O1 0.626280 0.500000 0.893594
O O2 0.661832 0.689707 0.893967
O O3 0.525085 0.637190 0.864536
O O4 0.592603 0.614934 0.035189
O O5 0.045838 0.837059 0.319451
O O6 0.128371 0.863264 0.172809
O O7 0.979877 0.845533 0.146785
O O8 0.035024 0.000000 0.220655
O O9 0.500000 0.841631 0.500000
O O10 0.637369 0.864736 0.529271
O O11 0.542980 0.000000 0.591189
O O12 0.663562 0.853168 0.174746
O O13 0.599167 0.000000 0.084030
O O14 0.613135 0.830926 0.004454
O O15 0.750000 0.159939 0.927900
O O16 0.250000 0.107304 0.579565
O O17 0.365015 0.191920 0.652116
O O18 0.368084 0.000000 0.605943
O O19 0.250000 0.723600 0.744031
O O20 0.390682 0.677946 0.787261
O O21 0.571266 0.500000 0.181294
#
# Coordination Sequence:
#
# PCOD8214185 Si02
#       8
#     8   8   8   8   8   8   8   8
#     4   9  19  36  55  73  97 134 178 219 259 302
#     4  10  22  37  54  74 102 143 183 220 260 306
#     4   9  17  32  53  75  96 126 175 228 267 299
#     4  11  22  35  50  70 102 145 184 214 249 299
#     4  12  24  35  51  78 108 142 178 214 256 309
#     4   9  18  31  48  73 105 138 171 211 264 319
#     4  11  20  30  48  76 108 141 172 211 261 313
#     4   9  18  33  53  74  99 135 176 218 262 309
#
# _framework density 18.486512999999999
#
# number of rings (size 3 to 8) (size 9 to 14) (size 15 to 20)
#    0.000    2.000    1.250    3.750    1.750    6.250 
#    0.000    2.500    0.000    0.000    0.000    0.875 
#    0.000    6.000    0.000    0.125    0.000    0.000 
#
# Total GULP energy -792993.085209 kJ/mol
# GULP energy per Si atom -12390.516956 kJ/mol
# Density = 1.844444 g / cm^3
# Si number density = 18.486513 Si / 1000 Ang^3
#
#
#
# Elastic Constant Matrix: (Units=GPa)
#
#
# Indices 1 2 3 4 5 6 
#
# 1 74.7077 38.2246 60.4855 0.0000 0.0000 0.0000
# 2 38.2246 65.4280 27.4383 0.0000 0.0000 0.0000
# 3 60.4855 27.4383 121.4586 0.0000 0.0000 0.0000
# 4 0.0000 0.0000 0.0000 7.6896 0.0000 0.0000
# 5 0.0000 0.0000 0.0000 0.0000 27.5197 0.0000
# 6 0.0000 0.0000 0.0000 0.0000 0.0000 22.2841
#
#
#
# Elastic Compliance Matrix: (Units=1/GPa)
#
#
# Indices 1 2 3 4 5 6 
#
# 1 0.029068 -0.012054 -0.011753 0.000000 0.000000 0.000000
# 2 -0.012054 0.021882 0.001059 0.000000 0.000000 0.000000
# 3 -0.011753 0.001059 0.013847 0.000000 0.000000 0.000000
# 4 0.000000 0.000000 0.000000 0.130046 0.000000 0.000000
# 5 0.000000 0.000000 0.000000 0.000000 0.036338 0.000000
# 6 0.000000 0.000000 0.000000 0.000000 0.000000 0.044875
#
#
# Mechanical properties :
#
#
# Convention : Reuss Voigt Hill
#
# Bulk Modulus (GPa) = 51.80635 57.09902 54.45269
# Shear Modulus (GPa) = 15.24466 20.52841 17.88653
#
# Velocity S-wave (km/s) = 2.87476 3.33596 3.11391
# Velocity P-wave (km/s) = 6.25330 6.76699 6.51521
#
# Compressibility (1/GPa) = 0.01930265
#
# Stress axis : x y z
#
# Youngs Moduli (GPa) = 34.40186 45.70026 72.21930
#
# Poissons Ratio (x) = 0.55085 0.84878
# Poissons Ratio (y) = 0.41467 -0.07651
# Poissons Ratio (z) = 0.40432 -0.04841
#
# Static dielectric constant tensor:
#      x y z
#    x 3.374200 0.000000 0.000000 
#    y 0.000000 3.447590 0.000000 
#    z 0.000000 0.000000 3.560080 
# 
# 
# High freq. dielectric constant tensor:
#      x y z
#    x 1.715230 0.000000 0.000000 
#    y 0.000000 1.695100 0.000000 
#    z 0.000000 0.000000 1.699140 
# 
# From -- ./inp_files/25312.got.cif
#   From: 2010.03.12/outbox.cif.g09.slc.cpg/sg51_13_cif.got.tgz:25312.got - 2010.04.16 13:43:02.
