data_PCOD8214570
_publ_section_title
;
Structure prediction by ZEFSAII (Michael W. Deem and Ramdas Pophale) SiO2 
 PCOD8214570
Probable space group: P M M A
;
_chemical_formula_sum "Si O2"
_cell_formula_units_Z 40
_cell_length_a 8.511361
_cell_length_b 16.210813
_cell_length_c 14.638553
_cell_angle_alpha 90.000000
_cell_angle_beta 90.000000
_cell_angle_gamma 90.000000
_cell_volume 2019.770182
_symmetry_space_group_name_H-M "P M M A"
_symmetry_group_IT_number 51
_symmetry_cell_setting 'orthorhombic'
loop_
_space_group_symop_operation_xyz
x,y,z
1/2-x,-y,z
1/2+x,-y,-z
-x,y,-z
-x,-y,-z
1/2+x,y,-z
1/2-x,y,z
x,-y,z
loop_
_atom_site_type_symbol
_atom_site_label
_atom_site_fract_x
_atom_site_fract_y
_atom_site_fract_z
Si Si1 0.429673 0.000000 0.161523
Si Si2 0.935886 0.406527 0.598175
Si Si3 0.566909 0.831020 0.409303
Si Si4 0.931940 0.727757 0.740653
Si Si5 0.065552 0.825582 0.902397
Si Si6 0.933128 0.000000 0.623282
O O1 0.504951 0.083574 0.123113
O O2 0.449977 0.000000 0.268730
O O3 0.250000 0.000000 0.129993
O O4 0.750000 0.398843 0.594283
O O5 0.991769 0.500000 0.617020
O O6 0.999883 0.351224 0.683399
O O7 0.000000 0.376006 0.500000
O O8 0.500000 0.785359 0.500000
O O9 0.750000 0.810818 0.394042
O O10 0.459937 0.805530 0.324196
O O11 0.532290 0.926637 0.420312
O O12 0.750000 0.715852 0.763417
O O13 0.018646 0.750224 0.834650
O O14 0.250000 0.831017 0.905295
O O15 0.000000 0.798754 0.000000
O O16 0.750000 0.000000 0.593652
#
# Coordination Sequence:
#
# PCOD8214570 Si02
#       6
#     4   8   8   8   8   4
#     4  11  22  39  62  84 113 149 193 243 296 344
#     4   9  19  36  60  90 123 157 191 230 278 336
#     4  12  24  37  54  77 110 150 193 234 282 337
#     4  11  22  38  59  85 117 149 189 237 287 341
#     4  12  25  41  62  86 115 150 194 242 295 346
#     4  11  22  37  56  76 107 147 189 235 284 336
#
# _framework density 19.804233
#
# number of rings (size 3 to 8) (size 9 to 14) (size 15 to 20)
#    0.000    1.000    2.000    6.000    0.000    4.000 
#    0.000    0.000    0.000    0.600    0.000    0.000 
#    0.000    0.000    0.000    0.000    0.000    0.000 
#
# Total GULP energy -495820.164113 kJ/mol
# GULP energy per Si atom -12395.504103 kJ/mol
# Density = 1.975916 g / cm^3
# Si number density = 19.804233 Si / 1000 Ang^3
#
#
#
# Elastic Constant Matrix: (Units=GPa)
#
#
# Indices 1 2 3 4 5 6 
#
# 1 105.8697 28.6364 47.9385 0.0000 0.0000 0.0000
# 2 28.6364 108.7857 53.7320 0.0000 0.0000 0.0000
# 3 47.9385 53.7320 150.7815 0.0000 0.0000 0.0000
# 4 0.0000 0.0000 0.0000 2.9437 0.0000 0.0000
# 5 0.0000 0.0000 0.0000 0.0000 34.7702 0.0000
# 6 0.0000 0.0000 0.0000 0.0000 0.0000 19.7550
#
#
#
# Elastic Compliance Matrix: (Units=1/GPa)
#
#
# Indices 1 2 3 4 5 6 
#
# 1 0.011218 -0.001446 -0.003051 0.000000 0.000000 0.000000
# 2 -0.001446 0.011342 -0.003582 0.000000 0.000000 0.000000
# 3 -0.003051 -0.003582 0.008879 0.000000 0.000000 0.000000
# 4 0.000000 0.000000 0.000000 0.339705 0.000000 0.000000
# 5 0.000000 0.000000 0.000000 0.000000 0.028760 0.000000
# 6 0.000000 0.000000 0.000000 0.000000 0.000000 0.050620
#
#
# Mechanical properties :
#
#
# Convention : Reuss Voigt Hill
#
# Bulk Modulus (GPa) = 65.44326 69.56119 67.50223
# Shear Modulus (GPa) = 10.59822 27.16913 18.88368
#
# Velocity S-wave (km/s) = 2.31584 3.70791 3.09126
# Velocity P-wave (km/s) = 6.34568 7.31657 6.84835
#
# Compressibility (1/GPa) = 0.01528041
#
# Stress axis : x y z
#
# Youngs Moduli (GPa) = 89.13939 88.16513 112.62762
#
# Poissons Ratio (x) = 0.12748 0.34368
# Poissons Ratio (y) = 0.12889 0.40346
# Poissons Ratio (z) = 0.27200 0.31583
#
# Static dielectric constant tensor:
#      x y z
#    x 3.591550 0.000000 0.000000 
#    y 0.000000 3.733780 0.000000 
#    z 0.000000 0.000000 3.796620 
# 
# 
# High freq. dielectric constant tensor:
#      x y z
#    x 1.776340 0.000000 0.000000 
#    y 0.000000 1.759480 0.000000 
#    z 0.000000 0.000000 1.776620 
# 
# From -- ./inp_files/20557.got.cif
#   From: 2010.03.12/outbox.cif.g09.slc.cpg/sg51_11_cif.got.tgz:20557.got - 2010.04.16 13:43:02.
