data_PCOD8214301
_publ_section_title
;
Structure prediction by ZEFSAII (Michael W. Deem and Ramdas Pophale) SiO2 
 PCOD8214301
Probable space group: P M M A
;
_chemical_formula_sum "Si O2"
_cell_formula_units_Z 32
_cell_length_a 24.142235
_cell_length_b 9.081614
_cell_length_c 7.304959
_cell_angle_alpha 90.000000
_cell_angle_beta 90.000000
_cell_angle_gamma 90.000000
_cell_volume 1601.615616
_symmetry_space_group_name_H-M "P M M A"
_symmetry_group_IT_number 51
_symmetry_cell_setting 'orthorhombic'
loop_
_space_group_symop_operation_xyz
x,y,z
1/2-x,-y,z
1/2+x,-y,-z
-x,y,-z
-x,-y,-z
1/2+x,y,-z
1/2-x,y,z
x,-y,z
loop_
_atom_site_type_symbol
_atom_site_label
_atom_site_fract_x
_atom_site_fract_y
_atom_site_fract_z
Si Si1 0.186457 0.329677 0.430782
Si Si2 0.392617 0.327320 0.758143
Si Si3 0.381062 0.826254 0.141399
Si Si4 0.513409 0.338172 0.786851
O O1 0.250000 0.300845 0.482373
O O2 0.175357 0.500000 0.384372
O O3 0.149732 0.277746 0.602152
O O4 0.171328 0.233397 0.253945
O O5 0.387624 0.500000 0.805666
O O6 0.455620 0.291121 0.688885
O O7 0.377348 0.236613 0.937978
O O8 0.437169 0.776289 0.247391
O O9 0.379538 0.000000 0.132077
O O10 0.532630 0.500000 0.716876
O O11 0.500000 0.346283 0.000000
#
# Coordination Sequence:
#
# PCOD8214301 Si02
#       4
#     8   8   8   8
#     4  10  22  40  60  80 104 141 191 236 270 317
#     4   9  19  37  60  84 109 142 187 234 276 318
#     4  11  22  35  55  84 118 149 176 217 276 337
#     4   8  15  31  55  81 110 143 181 225 270 322
#
# _framework density 19.979827
#
# number of rings (size 3 to 8) (size 9 to 14) (size 15 to 20)
#    0.000    2.500    0.000    3.750    0.000    8.000 
#    0.000    7.500    0.000    0.000    0.000    0.000 
#    0.000    0.000    0.000    0.000    0.000    0.000 
#
# Total GULP energy -396780.314403 kJ/mol
# GULP energy per Si atom -12399.384825 kJ/mol
# Density = 1.993435 g / cm^3
# Si number density = 19.979827 Si / 1000 Ang^3
#
#
#
# Elastic Constant Matrix: (Units=GPa)
#
#
# Indices 1 2 3 4 5 6 
#
# 1 100.0058 35.7920 31.0670 0.0000 0.0000 0.0000
# 2 35.7920 101.6701 43.7079 0.0000 0.0000 0.0000
# 3 31.0670 43.7079 52.6147 0.0000 0.0000 0.0000
# 4 0.0000 0.0000 0.0000 11.5519 0.0000 0.0000
# 5 0.0000 0.0000 0.0000 0.0000 35.7056 0.0000
# 6 0.0000 0.0000 0.0000 0.0000 0.0000 7.1687
#
#
#
# Elastic Compliance Matrix: (Units=1/GPa)
#
#
# Indices 1 2 3 4 5 6 
#
# 1 0.012479 -0.001906 -0.005785 0.000000 0.000000 0.000000
# 2 -0.001906 0.015591 -0.011826 0.000000 0.000000 0.000000
# 3 -0.005785 -0.011826 0.032246 0.000000 0.000000 0.000000
# 4 0.000000 0.000000 0.000000 0.086566 0.000000 0.000000
# 5 0.000000 0.000000 0.000000 0.000000 0.028007 0.000000
# 6 0.000000 0.000000 0.000000 0.000000 0.000000 0.139495
#
#
# Mechanical properties :
#
#
# Convention : Reuss Voigt Hill
#
# Bulk Modulus (GPa) = 46.98911 52.82491 49.90701
# Shear Modulus (GPa) = 13.86921 20.46681 17.16801
#
# Velocity S-wave (km/s) = 2.63755 3.20406 2.93451
# Velocity P-wave (km/s) = 5.73105 6.33912 6.04274
#
# Compressibility (1/GPa) = 0.02128153
#
# Stress axis : x y z
#
# Youngs Moduli (GPa) = 80.13680 64.14050 31.01175
#
# Poissons Ratio (x) = 0.12226 0.17939
# Poissons Ratio (y) = 0.15275 0.36675
# Poissons Ratio (z) = 0.46357 0.75853
#
# Static dielectric constant tensor:
#      x y z
#    x 3.939840 0.000000 0.000000 
#    y 0.000000 3.394320 0.000000 
#    z 0.000000 0.000000 3.484330 
# 
# 
# High freq. dielectric constant tensor:
#      x y z
#    x 1.784410 0.000000 0.000000 
#    y 0.000000 1.755210 0.000000 
#    z 0.000000 0.000000 1.773310 
# 
# From -- ./inp_files/10277.got.cif
#   From: 2010.03.12/outbox.cif.g09.slc.cpg/sg51_6_cif.got.tgz:10277.got - 2010.04.16 13:43:02.
