data_PCOD8214836
_publ_section_title
;
Structure prediction by ZEFSAII (Michael W. Deem and Ramdas Pophale) SiO2 
 PCOD8214836
Probable space group: P M M A
;
_chemical_formula_sum "Si O2"
_cell_formula_units_Z 64
_cell_length_a 27.664475
_cell_length_b 9.592447
_cell_length_c 14.015473
_cell_angle_alpha 90.000000
_cell_angle_beta 90.000000
_cell_angle_gamma 90.000000
_cell_volume 3719.286213
_symmetry_space_group_name_H-M "P M M A"
_symmetry_group_IT_number 51
_symmetry_cell_setting 'orthorhombic'
loop_
_space_group_symop_operation_xyz
x,y,z
1/2-x,-y,z
1/2+x,-y,-z
-x,y,-z
-x,-y,-z
1/2+x,y,-z
1/2-x,y,z
x,-y,z
loop_
_atom_site_type_symbol
_atom_site_label
_atom_site_fract_x
_atom_site_fract_y
_atom_site_fract_z
Si Si1 0.025988 0.161475 0.777096
Si Si2 0.009259 0.661380 0.391944
Si Si3 0.695403 0.161618 0.178225
Si Si4 0.192762 0.346138 0.648056
Si Si5 0.612259 0.337979 0.696257
Si Si6 0.397716 0.162857 0.928037
Si Si7 0.422147 0.161472 0.135825
Si Si8 0.803695 0.666009 0.560713
O O1 0.069454 0.222727 0.841968
O O2 0.024077 0.249147 0.679400
O O3 0.978034 0.182258 0.839752
O O4 0.033513 0.000000 0.749282
O O5 0.994908 0.500000 0.379250
O O6 0.065311 0.687462 0.368656
O O7 0.000000 0.711313 0.500000
O O8 0.750000 0.207539 0.149282
O O9 0.674869 0.242303 0.270101
O O10 0.658992 0.194535 0.091223
O O11 0.694078 0.000000 0.205487
O O12 0.250000 0.358216 0.650812
O O13 0.170099 0.500000 0.665466
O O14 0.178088 0.285350 0.544234
O O15 0.617637 0.500000 0.723032
O O16 0.610860 0.249451 0.792560
O O17 0.658547 0.280240 0.638873
O O18 0.408974 0.000000 0.931798
O O19 0.412384 0.224981 0.030580
O O20 0.406630 0.000000 0.142984
O O21 0.750000 0.724990 0.584240
O O22 0.802072 0.500000 0.559001
#
# Coordination Sequence:
#
# PCOD8214836 Si02
#       8
#     8   8   8   8   8   8   8   8
#     4   9  17  30  49  69  86 110 148 188 218 248
#     4   9  18  31  45  65  95 124 144 168 213 269
#     4   9  17  29  44  63  89 118 143 171 214 264
#     4   8  14  26  44  64  86 113 145 180 214 248
#     4   9  17  30  47  65  88 117 146 179 218 258
#     4   9  17  30  48  67  86 112 148 184 217 259
#     4   9  17  31  49  66  86 113 145 182 224 263
#     4   8  14  26  45  66  86 114 152 184 211 252
#
# _framework density 17.207602999999999
#
# number of rings (size 3 to 8) (size 9 to 14) (size 15 to 20)
#    0.000    3.250    0.000    1.125    0.000    2.750 
#    0.000    4.375    0.000    4.875    0.000    0.000 
#    0.000    0.000    0.000    0.000    0.000    0.000 
#
# Total GULP energy -793322.646281 kJ/mol
# GULP energy per Si atom -12395.666348 kJ/mol
# Density = 1.716844 g / cm^3
# Si number density = 17.207603 Si / 1000 Ang^3
#
#
#
# Elastic Constant Matrix: (Units=GPa)
#
#
# Indices 1 2 3 4 5 6 
#
# 1 71.1089 26.3565 59.9869 0.0000 0.0000 0.0000
# 2 26.3565 42.7025 47.5472 0.0000 0.0000 0.0000
# 3 59.9869 47.5472 151.6244 0.0000 0.0000 0.0000
# 4 0.0000 0.0000 0.0000 27.0679 0.0000 0.0000
# 5 0.0000 0.0000 0.0000 0.0000 25.5228 0.0000
# 6 0.0000 0.0000 0.0000 0.0000 0.0000 15.4592
#
#
#
# Elastic Compliance Matrix: (Units=1/GPa)
#
#
# Indices 1 2 3 4 5 6 
#
# 1 0.022062 -0.005990 -0.006850 0.000000 0.000000 0.000000
# 2 -0.005990 0.037607 -0.009423 0.000000 0.000000 0.000000
# 3 -0.006850 -0.009423 0.012260 0.000000 0.000000 0.000000
# 4 0.000000 0.000000 0.000000 0.036944 0.000000 0.000000
# 5 0.000000 0.000000 0.000000 0.000000 0.039181 0.000000
# 6 0.000000 0.000000 0.000000 0.000000 0.000000 0.064686
#
#
# Mechanical properties :
#
#
# Convention : Reuss Voigt Hill
#
# Bulk Modulus (GPa) = 36.49209 59.24631 47.86920
# Shear Modulus (GPa) = 18.76873 22.37965 20.57419
#
# Velocity S-wave (km/s) = 3.30619 3.61025 3.46156
# Velocity P-wave (km/s) = 5.98561 7.20303 6.62235
#
# Compressibility (1/GPa) = 0.02740320
#
# Stress axis : x y z
#
# Youngs Moduli (GPa) = 45.32780 26.59065 81.56403
#
# Poissons Ratio (x) = 0.15927 0.55871
# Poissons Ratio (y) = 0.27150 0.76861
# Poissons Ratio (z) = 0.31049 0.25057
#
# Static dielectric constant tensor:
#      x y z
#    x 3.237860 0.000000 0.000000 
#    y 0.000000 3.078100 0.000000 
#    z 0.000000 0.000000 3.360740 
# 
# 
# High freq. dielectric constant tensor:
#      x y z
#    x 1.656980 0.000000 0.000000 
#    y 0.000000 1.633930 0.000000 
#    z 0.000000 0.000000 1.663470 
# 
# From -- ./inp_files/26570.got.cif
#   From: 2010.03.12/outbox.cif.g09.slc.cpg/sg51_14_cif.got.tgz:26570.got - 2010.04.16 13:43:02.
