data_PCOD8214402
_publ_section_title
;
Structure prediction by ZEFSAII (Michael W. Deem and Ramdas Pophale) SiO2 
 PCOD8214402
Probable space group: P M M A
;
_chemical_formula_sum "Si O2"
_cell_formula_units_Z 48
_cell_length_a 10.049941
_cell_length_b 9.169762
_cell_length_c 29.472221
_cell_angle_alpha 90.000000
_cell_angle_beta 90.000000
_cell_angle_gamma 90.000000
_cell_volume 2716.029239
_symmetry_space_group_name_H-M "P M M A"
_symmetry_group_IT_number 51
_symmetry_cell_setting 'orthorhombic'
loop_
_space_group_symop_operation_xyz
x,y,z
1/2-x,-y,z
1/2+x,-y,-z
-x,y,-z
-x,-y,-z
1/2+x,y,-z
1/2-x,y,z
x,-y,z
loop_
_atom_site_type_symbol
_atom_site_label
_atom_site_fract_x
_atom_site_fract_y
_atom_site_fract_z
Si Si1 0.405797 0.169350 0.184718
Si Si2 0.980068 0.331463 0.900962
Si Si3 0.908190 0.337406 0.629326
Si Si4 0.750000 0.173644 0.954200
Si Si5 0.908156 0.161959 0.714202
Si Si6 0.750000 0.664252 0.046518
Si Si7 0.902522 0.171231 0.539901
O O1 0.250000 0.195900 0.176472
O O2 0.486567 0.270755 0.150200
O O3 0.448395 0.217396 0.235598
O O4 0.440560 0.000000 0.176771
O O5 0.934992 0.500000 0.900767
O O6 0.880047 0.236285 0.930491
O O7 0.124055 0.310695 0.921964
O O8 0.750000 0.338392 0.632053
O O9 0.965807 0.500000 0.625372
O O10 0.967542 0.266397 0.675265
O O11 0.954356 0.247346 0.585545
O O12 0.750000 0.000000 0.949958
O O13 0.750000 0.218872 0.006560
O O14 0.750000 0.155995 0.711122
O O15 0.965488 0.000000 0.705979
O O16 0.750000 0.500000 0.025917
O O17 0.750000 0.215300 0.528210
O O18 0.000000 0.224208 0.500000
O O19 0.914175 0.000000 0.547991
#
# Coordination Sequence:
#
# PCOD8214402 Si02
#       7
#     8   8   8   4   8   4   8
#     4   9  17  30  49  75 105 132 162 204 249 296
#     4  11  22  37  57  79 105 138 170 206 252 301
#     4   9  16  25  39  63  94 124 156 197 240 284
#     4  12  24  38  58  82 106 132 170 214 253 296
#     4   8  14  25  42  65  95 129 158 193 242 288
#     4  10  24  42  56  76 106 138 174 208 247 302
#     4   9  17  29  45  65  90 122 158 194 236 286
#
# _framework density 17.672857
#
# number of rings (size 3 to 8) (size 9 to 14) (size 15 to 20)
#    0.000    2.500    0.833    3.250    0.000    6.333 
#    0.000    1.667    0.000    0.000    2.167    0.000 
#    0.000    0.000    0.000    0.000    0.000    0.000 
#
# Total GULP energy -595128.773157 kJ/mol
# GULP energy per Si atom -12398.516107 kJ/mol
# Density = 1.763263 g / cm^3
# Si number density = 17.672857 Si / 1000 Ang^3
#
#
#
# Elastic Constant Matrix: (Units=GPa)
#
#
# Indices 1 2 3 4 5 6 
#
# 1 61.4870 40.2117 44.7877 0.0000 0.0000 0.0000
# 2 40.2117 110.9961 82.7410 0.0000 0.0000 0.0000
# 3 44.7877 82.7410 167.2122 0.0000 0.0000 0.0000
# 4 0.0000 0.0000 0.0000 23.3841 0.0000 0.0000
# 5 0.0000 0.0000 0.0000 0.0000 10.7746 0.0000
# 6 0.0000 0.0000 0.0000 0.0000 0.0000 13.2483
#
#
#
# Elastic Compliance Matrix: (Units=1/GPa)
#
#
# Indices 1 2 3 4 5 6 
#
# 1 0.022301 -0.005746 -0.003130 0.000000 0.000000 0.000000
# 2 -0.005746 0.015755 -0.006257 0.000000 0.000000 0.000000
# 3 -0.003130 -0.006257 0.009915 0.000000 0.000000 0.000000
# 4 0.000000 0.000000 0.000000 0.042764 0.000000 0.000000
# 5 0.000000 0.000000 0.000000 0.000000 0.092811 0.000000
# 6 0.000000 0.000000 0.000000 0.000000 0.000000 0.075481
#
#
# Mechanical properties :
#
#
# Convention : Reuss Voigt Hill
#
# Bulk Modulus (GPa) = 56.48043 75.01958 65.75001
# Shear Modulus (GPa) = 16.93789 20.94505 18.94147
#
# Velocity S-wave (km/s) = 3.09918 3.44634 3.27736
# Velocity P-wave (km/s) = 6.69588 7.64052 7.18374
#
# Compressibility (1/GPa) = 0.01770525
#
# Stress axis : x y z
#
# Youngs Moduli (GPa) = 44.84006 63.47083 100.85739
#
# Poissons Ratio (x) = 0.36471 0.31570
# Poissons Ratio (y) = 0.25765 0.63107
# Poissons Ratio (z) = 0.14036 0.39714
#
# Static dielectric constant tensor:
#      x y z
#    x 2.842760 0.000000 0.000000 
#    y 0.000000 3.430670 0.000000 
#    z 0.000000 0.000000 3.535840 
# 
# 
# High freq. dielectric constant tensor:
#      x y z
#    x 1.630740 0.000000 0.000000 
#    y 0.000000 1.686920 0.000000 
#    z 0.000000 0.000000 1.699810 
# 
# From -- ./inp_files/37189.got.cif
#   From: 2010.03.12/outbox.cif.g09.slc.cpg/sg51_19_cif.got.tgz:37189.got - 2010.04.16 13:43:02.
