data_PCOD8214232
_publ_section_title
;
Structure prediction by ZEFSAII (Michael W. Deem and Ramdas Pophale) SiO2 
 PCOD8214232
Probable space group: P M M A
;
_chemical_formula_sum "Si O2"
_cell_formula_units_Z 48
_cell_length_a 17.745882
_cell_length_b 9.019993
_cell_length_c 15.743391
_cell_angle_alpha 90.000000
_cell_angle_beta 90.000000
_cell_angle_gamma 90.000000
_cell_volume 2520.008882
_symmetry_space_group_name_H-M "P M M A"
_symmetry_group_IT_number 51
_symmetry_cell_setting 'orthorhombic'
loop_
_space_group_symop_operation_xyz
x,y,z
1/2-x,-y,z
1/2+x,-y,-z
-x,y,-z
-x,-y,-z
1/2+x,y,-z
1/2-x,y,z
x,-y,z
loop_
_atom_site_type_symbol
_atom_site_label
_atom_site_fract_x
_atom_site_fract_y
_atom_site_fract_z
Si Si1 0.615982 0.668084 0.468548
Si Si2 0.107551 0.324053 0.892023
Si Si3 0.750000 0.675354 0.215255
Si Si4 0.836709 0.171013 0.942278
Si Si5 0.970339 0.667478 0.638279
Si Si6 0.250000 0.828924 0.605764
Si Si7 0.535915 0.171215 0.811503
O O1 0.647911 0.500000 0.469316
O O2 0.555681 0.681851 0.393268
O O3 0.583176 0.709216 0.560161
O O4 0.678676 0.789373 0.451163
O O5 0.102357 0.500000 0.892038
O O6 0.175558 0.266475 0.832594
O O7 0.028827 0.261772 0.859053
O O8 0.123745 0.269944 0.986650
O O9 0.750000 0.500000 0.218666
O O10 0.750000 0.734045 0.309616
O O11 0.750000 0.220144 0.927243
O O12 0.883441 0.197625 0.856093
O O13 0.840854 0.000000 0.970788
O O14 0.955054 0.500000 0.669565
O O15 0.954790 0.778815 0.714648
O O16 0.250000 0.000000 0.629919
O O17 0.512492 0.000000 0.813852
#
# Coordination Sequence:
#
# PCOD8214232 Si02
#       7
#     8   8   4   8   8   4   8
#     4   9  19  38  61  81 112 151 187 232 289 340
#     4  11  22  38  60  86 114 147 193 242 286 335
#     4  10  22  38  56  81 116 151 184 233 292 341
#     4  10  22  41  60  79 113 157 192 230 287 346
#     4   9  19  38  62  85 108 146 194 237 282 334
#     4  12  24  34  52  87 118 147 188 229 276 339
#     4  11  23  37  57  87 118 152 191 233 286 346
#
# _framework density 19.047550999999999
#
# number of rings (size 3 to 8) (size 9 to 14) (size 15 to 20)
#    0.000    1.833    0.833    4.250    0.000   10.000 
#    1.500    1.667    0.000    0.000    0.000    0.000 
#    0.000    0.000    0.000    0.000    0.000    0.000 
#
# Total GULP energy -595342.559560 kJ/mol
# GULP energy per Si atom -12402.969991 kJ/mol
# Density = 1.900420 g / cm^3
# Si number density = 19.047551 Si / 1000 Ang^3
#
#
#
# Elastic Constant Matrix: (Units=GPa)
#
#
# Indices 1 2 3 4 5 6 
#
# 1 75.2783 24.1091 49.7195 0.0000 0.0000 0.0000
# 2 24.1091 48.0563 36.3065 0.0000 0.0000 0.0000
# 3 49.7195 36.3065 106.3494 0.0000 0.0000 0.0000
# 4 0.0000 0.0000 0.0000 23.3766 0.0000 0.0000
# 5 0.0000 0.0000 0.0000 0.0000 21.8234 0.0000
# 6 0.0000 0.0000 0.0000 0.0000 0.0000 29.0791
#
#
#
# Elastic Compliance Matrix: (Units=1/GPa)
#
#
# Indices 1 2 3 4 5 6 
#
# 1 0.019760 -0.003954 -0.007888 0.000000 0.000000 0.000000
# 2 -0.003954 0.028832 -0.007995 0.000000 0.000000 0.000000
# 3 -0.007888 -0.007995 0.015820 0.000000 0.000000 0.000000
# 4 0.000000 0.000000 0.000000 0.042778 0.000000 0.000000
# 5 0.000000 0.000000 0.000000 0.000000 0.045822 0.000000
# 6 0.000000 0.000000 0.000000 0.000000 0.000000 0.034389
#
#
# Mechanical properties :
#
#
# Convention : Reuss Voigt Hill
#
# Bulk Modulus (GPa) = 40.42149 49.99493 45.20821
# Shear Modulus (GPa) = 21.24745 22.82575 22.03660
#
# Velocity S-wave (km/s) = 3.34353 3.46548 3.40505
# Velocity P-wave (km/s) = 6.01440 6.50517 6.26459
#
# Compressibility (1/GPa) = 0.02473932
#
# Stress axis : x y z
#
# Youngs Moduli (GPa) = 50.60620 34.68313 63.21044
#
# Poissons Ratio (x) = 0.13713 0.49863
# Poissons Ratio (y) = 0.20009 0.50534
# Poissons Ratio (z) = 0.39920 0.27728
#
# Static dielectric constant tensor:
#      x y z
#    x 3.654770 0.000000 0.000000 
#    y 0.000000 3.452240 0.000000 
#    z 0.000000 0.000000 3.458470 
# 
# 
# High freq. dielectric constant tensor:
#      x y z
#    x 1.746000 0.000000 0.000000 
#    y 0.000000 1.737730 0.000000 
#    z 0.000000 0.000000 1.744920 
# 
# From -- ./inp_files/24864.got.cif
#   From: 2010.03.12/outbox.cif.g09.slc.cpg/sg51_13_cif.got.tgz:24864.got - 2010.04.16 13:43:02.
