data_PCOD8214599
_publ_section_title
;
Structure prediction by ZEFSAII (Michael W. Deem and Ramdas Pophale) SiO2 
 PCOD8214599
Probable space group: P M M A
;
_chemical_formula_sum "Si O2"
_cell_formula_units_Z 24
_cell_length_a 9.774986
_cell_length_b 9.986249
_cell_length_c 12.552338
_cell_angle_alpha 90.000000
_cell_angle_beta 90.000000
_cell_angle_gamma 90.000000
_cell_volume 1225.302049
_symmetry_space_group_name_H-M "P M M A"
_symmetry_group_IT_number 51
_symmetry_cell_setting 'orthorhombic'
loop_
_space_group_symop_operation_xyz
x,y,z
1/2-x,-y,z
1/2+x,-y,-z
-x,y,-z
-x,-y,-z
1/2+x,y,-z
1/2-x,y,z
x,-y,z
loop_
_atom_site_type_symbol
_atom_site_label
_atom_site_fract_x
_atom_site_fract_y
_atom_site_fract_z
Si Si1 0.917487 0.500000 0.888779
Si Si2 0.997961 0.754761 0.247345
Si Si3 0.250000 0.840667 0.627139
Si Si4 0.413716 0.000000 0.894600
Si Si5 0.250000 0.152177 0.374863
O O1 0.750000 0.500000 0.904835
O O2 0.970833 0.625006 0.821774
O O3 0.000000 0.500000 0.000000
O O4 0.873642 0.751568 0.329683
O O5 0.963877 0.870313 0.165628
O O6 0.121722 0.776214 0.325919
O O7 0.250000 0.836929 0.501069
O O8 0.250000 0.000000 0.665826
O O9 0.250000 0.000000 0.915265
O O10 0.500000 0.000000 0.000000
O O11 0.250000 0.000000 0.337349
#
# Coordination Sequence:
#
# PCOD8214599 Si02
#       5
#     4   8   4   4   4
#     4  12  30  48  69  97 134 182 231 279 345 404
#     4  12  23  45  67  99 138 175 225 280 331 401
#     4  11  22  43  70 109 139 175 223 273 338 407
#     4  12  26  42  67 101 132 170 231 285 339 404
#     4  11  22  39  74 105 137 179 219 277 344 395
#
# _framework density 19.587005000000001
#
# number of rings (size 3 to 8) (size 9 to 14) (size 15 to 20)
#    0.000    0.333    6.667    2.000    4.667    5.333 
#    0.000    5.000    0.000    0.000    0.000    0.000 
#    0.000    0.000    0.000    0.000    0.000    0.000 
#
# Total GULP energy -297365.315730 kJ/mol
# GULP energy per Si atom -12390.221489 kJ/mol
# Density = 1.954242 g / cm^3
# Si number density = 19.587005 Si / 1000 Ang^3
#
#
#
# Elastic Constant Matrix: (Units=GPa)
#
#
# Indices 1 2 3 4 5 6 
#
# 1 195.3643 67.5924 79.9323 0.0000 0.0000 0.0000
# 2 67.5924 142.0397 68.9908 0.0000 0.0000 0.0000
# 3 79.9323 68.9908 127.8675 0.0000 0.0000 0.0000
# 4 0.0000 0.0000 0.0000 44.3305 0.0000 0.0000
# 5 0.0000 0.0000 0.0000 0.0000 52.6577 0.0000
# 6 0.0000 0.0000 0.0000 0.0000 0.0000 35.6568
#
#
#
# Elastic Compliance Matrix: (Units=1/GPa)
#
#
# Indices 1 2 3 4 5 6 
#
# 1 0.007159 -0.001671 -0.003574 0.000000 0.000000 0.000000
# 2 -0.001671 0.009931 -0.004313 0.000000 0.000000 0.000000
# 3 -0.003574 -0.004313 0.012382 0.000000 0.000000 0.000000
# 4 0.000000 0.000000 0.000000 0.022558 0.000000 0.000000
# 5 0.000000 0.000000 0.000000 0.000000 0.018991 0.000000
# 6 0.000000 0.000000 0.000000 0.000000 0.000000 0.028045
#
#
# Mechanical properties :
#
#
# Convention : Reuss Voigt Hill
#
# Bulk Modulus (GPa) = 96.56942 99.81139 98.19040
# Shear Modulus (GPa) = 41.10741 43.11273 42.11007
#
# Velocity S-wave (km/s) = 4.58614 4.69667 4.64173
# Velocity P-wave (km/s) = 8.80076 8.97107 8.88632
#
# Compressibility (1/GPa) = 0.01035525
#
# Stress axis : x y z
#
# Youngs Moduli (GPa) = 139.68671 100.69928 80.76345
#
# Poissons Ratio (x) = 0.16826 0.28862
# Poissons Ratio (y) = 0.23341 0.34837
# Poissons Ratio (z) = 0.49918 0.43436
#
# Static dielectric constant tensor:
#      x y z
#    x 4.216890 0.000000 0.000000 
#    y 0.000000 3.647570 0.000000 
#    z 0.000000 0.000000 3.698740 
# 
# 
# High freq. dielectric constant tensor:
#      x y z
#    x 1.789960 0.000000 0.000000 
#    y 0.000000 1.754430 0.000000 
#    z 0.000000 0.000000 1.789370 
# 
# From -- ./inp_files/13571.got.cif
#   From: 2010.03.12/outbox.cif.g09.slc.cpg/sg51_7_cif.got.tgz:13571.got - 2010.04.16 13:43:02.
