data_PCOD8214904
_publ_section_title
;
Structure prediction by ZEFSAII (Michael W. Deem and Ramdas Pophale) SiO2 
 PCOD8214904
Probable space group: P M M A
;
_chemical_formula_sum "Si O2"
_cell_formula_units_Z 56
_cell_length_a 15.000000
_cell_length_b 9.000000
_cell_length_c 21.000000
_cell_angle_alpha 90.000000
_cell_angle_beta 90.000000
_cell_angle_gamma 90.000000
_cell_volume 2835.000000
_symmetry_space_group_name_H-M "P M M A"
_symmetry_group_IT_number 51
_symmetry_cell_setting 'orthorhombic'
loop_
_space_group_symop_operation_xyz
x,y,z
1/2-x,-y,z
1/2+x,-y,-z
-x,y,-z
-x,-y,-z
1/2+x,y,-z
1/2-x,y,z
x,-y,z
loop_
_atom_site_type_symbol
_atom_site_label
_atom_site_fract_x
_atom_site_fract_y
_atom_site_fract_z
Si Si1 0.649679 0.323693 0.759446
Si Si2 0.347499 0.830980 0.902500
Si Si3 0.040670 0.171631 0.133179
Si Si4 0.350409 0.328256 0.032482
Si Si5 0.846530 0.676983 0.388870
Si Si6 0.464895 0.322504 0.356140
Si Si7 0.848573 0.675007 0.530850
O O1 0.750000 0.258664 0.759081
O O2 0.653351 0.500000 0.757028
O O3 0.596585 0.276088 0.821109
O O4 0.594782 0.256624 0.700260
O O5 0.250000 0.812833 0.867331
O O6 0.433952 0.799692 0.858066
O O7 0.355683 0.000000 0.928878
O O8 0.350429 0.712784 0.958673
O O9 0.075789 0.221563 0.064064
O O10 0.063637 0.000000 0.145349
O O11 0.250000 0.303399 0.060538
O O12 0.378388 0.500000 0.040396
O O13 0.750000 0.732861 0.361473
O O14 0.845126 0.500000 0.391247
O O15 0.859763 0.741042 0.460155
O O16 0.932032 0.732193 0.348238
O O17 0.460827 0.500000 0.355312
O O18 0.423437 0.259534 0.421935
O O19 0.750000 0.713200 0.557734
O O20 0.861372 0.500000 0.526893
#
# Coordination Sequence:
#
# PCOD8214904 Si02
#       7
#     8   8   8   8   8   8   8
#     4  10  21  35  49  67  93 125 161 201 243 286
#     4   9  19  36  55  75 100 128 159 196 237 283
#     4  11  22  35  53  74  96 128 167 202 238 280
#     4  10  20  33  52  80 110 135 158 190 236 286
#     4   8  13  20  32  54  84 115 147 186 233 284
#     4   9  15  24  38  55  81 119 156 188 229 283
#     4   8  12  18  31  53  80 111 147 185 228 281
#
# _framework density 19.753086
#
# number of rings (size 3 to 8) (size 9 to 14) (size 15 to 20)
#    0.000    2.714    0.000    3.429    0.000    9.143 
#    0.000    0.714    0.000    0.857    0.000    0.000 
#    0.000    2.286    0.000    3.429    0.000    2.857 
#
# Total GULP energy -693737.405064 kJ/mol
# GULP energy per Si atom -12388.167948 kJ/mol
# Density = 1.970813 g / cm^3
# Si number density = 19.753086 Si / 1000 Ang^3
#
#
#
# Elastic Constant Matrix: (Units=GPa)
#
#
# Indices 1 2 3 4 5 6 
#
# 1 197.2285 18.5909 52.0345 0.0000 0.0000 0.0000
# 2 18.5909 20.9092 4.0809 0.0000 0.0000 0.0000
# 3 52.0345 4.0809 47.4459 0.0000 0.0000 0.0000
# 4 0.0000 0.0000 0.0000 -3.5959 0.0000 0.0000
# 5 0.0000 0.0000 0.0000 0.0000 30.3524 0.0000
# 6 0.0000 0.0000 0.0000 0.0000 0.0000 17.4609
#
#
#
# Elastic Compliance Matrix: (Units=1/GPa)
#
#
# Indices 1 2 3 4 5 6 
#
# 1 0.007665 -0.005263 -0.007953 0.000000 0.000000 0.000000
# 2 -0.005263 0.052256 0.001277 0.000000 0.000000 0.000000
# 3 -0.007953 0.001277 0.029689 0.000000 0.000000 0.000000
# 4 0.000000 0.000000 0.000000 -0.278092 0.000000 0.000000
# 5 0.000000 0.000000 0.000000 0.000000 0.032946 0.000000
# 6 0.000000 0.000000 0.000000 0.000000 0.000000 0.057271
#
#
# Mechanical properties :
#
#
# Convention : Reuss Voigt Hill
#
# Bulk Modulus (GPa) = 15.21338 46.11069 30.66203
# Shear Modulus (GPa) = -95.28029 21.56862 -36.85583
#
# Velocity S-wave (km/s) = -6.95272 3.30799 -4.32421
# Velocity P-wave (km/s) = 7.53229 6.16317 3.06192
#
# Compressibility (1/GPa) = 0.06573162
#
# Stress axis : x y z
#
# Youngs Moduli (GPa) = 130.47007 19.13671 33.68226
#
# Poissons Ratio (x) = 0.10071 0.26788
# Poissons Ratio (y) = 0.68660 -0.04301
# Poissons Ratio (z) = 1.03766 -0.02443
#
# Static dielectric constant tensor:
#      x y z
#    x 4.316990 0.000000 0.000000 
#    y 0.000000 3.020480 0.000000 
#    z 0.000000 0.000000 3.332590 
# 
# 
# High freq. dielectric constant tensor:
#      x y z
#    x 1.803100 0.000000 0.000000 
#    y 0.000000 1.709900 0.000000 
#    z 0.000000 0.000000 1.730020 
# 
# From -- ./inp_files/33415.got.cif
#   From: 2010.03.12/outbox.ucp.g09.slc.cvg/sg51_17_cif.got.tgz:33415.got - 2010.05.04 19:16:16.
