data_PCOD8214110
_publ_section_title
;
Structure prediction by ZEFSAII (Michael W. Deem and Ramdas Pophale) SiO2 
 PCOD8214110
Probable space group: P M M A
;
_chemical_formula_sum "Si O2"
_cell_formula_units_Z 32
_cell_length_a 8.611297
_cell_length_b 20.490363
_cell_length_c 9.373742
_cell_angle_alpha 90.000000
_cell_angle_beta 90.000000
_cell_angle_gamma 90.000000
_cell_volume 1653.983666
_symmetry_space_group_name_H-M "P M M A"
_symmetry_group_IT_number 51
_symmetry_cell_setting 'orthorhombic'
loop_
_space_group_symop_operation_xyz
x,y,z
1/2-x,-y,z
1/2+x,-y,-z
-x,y,-z
-x,-y,-z
1/2+x,y,-z
1/2-x,y,z
x,-y,z
loop_
_atom_site_type_symbol
_atom_site_label
_atom_site_fract_x
_atom_site_fract_y
_atom_site_fract_z
Si Si1 0.433203 0.798973 0.841149
Si Si2 0.568413 0.070676 0.843493
Si Si3 0.066765 0.682689 0.343550
Si Si4 0.568657 0.575849 0.150699
O O1 0.250000 0.791693 0.844387
O O2 0.482191 0.868341 0.767391
O O3 0.504182 0.741098 0.751229
O O4 0.500000 0.795430 0.000000
O O5 0.750000 0.086724 0.852554
O O6 0.540359 0.000000 0.766012
O O7 0.500000 0.064894 0.000000
O O8 0.250000 0.685563 0.350196
O O9 0.000000 0.689900 0.500000
O O10 0.014042 0.613915 0.278016
O O11 0.750000 0.591666 0.151287
O O12 0.533451 0.500000 0.175911
O O13 0.500000 0.599537 0.000000
#
# Coordination Sequence:
#
# PCOD8214110 Si02
#       4
#     8   8   8   8
#     4  11  21  35  56  82 112 147 188 231 278 330
#     4   9  16  27  46  75 109 142 179 226 278 328
#     4  12  25  41  59  81 112 148 188 231 278 331
#     4  10  21  39  63  90 118 148 184 226 273 325
#
# _framework density 19.347228000000001
#
# number of rings (size 3 to 8) (size 9 to 14) (size 15 to 20)
#    0.000    1.500    0.000    8.250    0.000    3.500 
#    0.000    0.000    0.000    0.750    0.000    0.000 
#    0.000    0.000    0.000    0.000    0.000    0.000 
#
# Total GULP energy -396733.364325 kJ/mol
# GULP energy per Si atom -12397.917635 kJ/mol
# Density = 1.930319 g / cm^3
# Si number density = 19.347228 Si / 1000 Ang^3
#
#
#
# Elastic Constant Matrix: (Units=GPa)
#
#
# Indices 1 2 3 4 5 6 
#
# 1 167.3256 65.5951 43.7705 0.0000 0.0000 0.0000
# 2 65.5951 129.6034 53.3936 0.0000 0.0000 0.0000
# 3 43.7705 53.3936 77.9761 0.0000 0.0000 0.0000
# 4 0.0000 0.0000 0.0000 -1.0846 0.0000 0.0000
# 5 0.0000 0.0000 0.0000 0.0000 30.6820 0.0000
# 6 0.0000 0.0000 0.0000 0.0000 0.0000 37.8348
#
#
#
# Elastic Compliance Matrix: (Units=1/GPa)
#
#
# Indices 1 2 3 4 5 6 
#
# 1 0.007745 -0.002965 -0.002317 0.000000 0.000000 0.000000
# 2 -0.002965 0.011883 -0.006472 0.000000 0.000000 0.000000
# 3 -0.002317 -0.006472 0.018557 0.000000 0.000000 0.000000
# 4 0.000000 0.000000 0.000000 -0.921980 0.000000 0.000000
# 5 0.000000 0.000000 0.000000 0.000000 0.032592 0.000000
# 6 0.000000 0.000000 0.000000 0.000000 0.000000 0.026431
#
#
# Mechanical properties :
#
#
# Convention : Reuss Voigt Hill
#
# Bulk Modulus (GPa) = 68.14006 77.82483 72.98244
# Shear Modulus (GPa) = -6.27849 27.62949 10.67550
#
# Velocity S-wave (km/s) = -1.80339 3.78310 2.35156
# Velocity P-wave (km/s) = 5.56415 7.70682 6.72142
#
# Compressibility (1/GPa) = 0.01467566
#
# Stress axis : x y z
#
# Youngs Moduli (GPa) = 129.11642 84.15300 53.88820
#
# Poissons Ratio (x) = 0.24954 0.12486
# Poissons Ratio (y) = 0.38287 0.34878
# Poissons Ratio (z) = 0.29916 0.54467
#
# Static dielectric constant tensor:
#      x y z
#    x 3.785360 0.000000 0.000000 
#    y 0.000000 4.373150 0.000000 
#    z 0.000000 0.000000 3.222620 
# 
# 
# High freq. dielectric constant tensor:
#      x y z
#    x 1.776980 0.000000 0.000000 
#    y 0.000000 1.782450 0.000000 
#    z 0.000000 0.000000 1.708430 
# 
# From -- ./inp_files/4841.got.cif
#   From: 2010.03.12/outbox.cif.g09.slc.cpg/sg51_3_cif.got.tgz:4841.got - 2010.04.16 13:43:02.
