data_PCOD8214420
_publ_section_title
;
Structure prediction by ZEFSAII (Michael W. Deem and Ramdas Pophale) SiO2 
 PCOD8214420
Probable space group: P M M A
;
_chemical_formula_sum "Si O2"
_cell_formula_units_Z 48
_cell_length_a 16.380895
_cell_length_b 8.966864
_cell_length_c 16.115316
_cell_angle_alpha 90.000000
_cell_angle_beta 90.000000
_cell_angle_gamma 90.000000
_cell_volume 2367.102343
_symmetry_space_group_name_H-M "P M M A"
_symmetry_group_IT_number 51
_symmetry_cell_setting 'orthorhombic'
loop_
_space_group_symop_operation_xyz
x,y,z
1/2-x,-y,z
1/2+x,-y,-z
-x,y,-z
-x,-y,-z
1/2+x,y,-z
1/2-x,y,z
x,-y,z
loop_
_atom_site_type_symbol
_atom_site_label
_atom_site_fract_x
_atom_site_fract_y
_atom_site_fract_z
Si Si1 0.250000 0.323236 0.228272
Si Si2 0.250000 0.323276 0.417850
Si Si3 0.098333 0.176187 0.141127
Si Si4 0.839730 0.175961 0.030324
Si Si5 0.070037 0.323170 0.439314
Si Si6 0.344127 0.173098 0.785660
Si Si7 0.509110 0.325147 0.267287
O O1 0.250000 0.500000 0.221144
O O2 0.250000 0.270893 0.323187
O O3 0.171326 0.259256 0.185182
O O4 0.250000 0.500000 0.423525
O O5 0.163470 0.264615 0.458344
O O6 0.017124 0.235211 0.184762
O O7 0.107749 0.000000 0.152290
O O8 0.096997 0.219273 0.042942
O O9 0.750000 0.236834 0.004608
O O10 0.863702 0.235797 0.121274
O O11 0.834358 0.000000 0.039918
O O12 0.069194 0.500000 0.449140
O O13 0.000000 0.254526 0.500000
O O14 0.045670 0.278080 0.345781
O O15 0.250000 0.199157 0.763205
O O16 0.397202 0.271703 0.720872
O O17 0.367526 0.000000 0.776416
O O18 0.503365 0.500000 0.251934
#
# Coordination Sequence:
#
# PCOD8214420 Si02
#       7
#     4   4   8   8   8   8   8
#     4  11  19  31  51  81 116 147 178 224 285 331
#     4   9  16  31  55  79 108 145 178 220 277 329
#     4  11  20  32  54  82 110 145 190 230 268 325
#     4   8  15  30  52  76 102 139 193 237 261 308
#     4   9  18  34  55  81 111 145 186 227 272 335
#     4   9  19  38  60  76 100 146 195 232 271 328
#     4  11  22  36  54  81 115 141 174 232 287 334
#
# _framework density 20.277956
#
# number of rings (size 3 to 8) (size 9 to 14) (size 15 to 20)
#    0.000    2.333    2.500    2.250    0.000    1.000 
#    1.500    5.000    0.000    2.000    0.000    0.000 
#    0.000    0.000    0.000    0.000    0.000    0.000 
#
# Total GULP energy -594681.140203 kJ/mol
# GULP energy per Si atom -12389.190421 kJ/mol
# Density = 2.023180 g / cm^3
# Si number density = 20.277956 Si / 1000 Ang^3
#
#
#
# Elastic Constant Matrix: (Units=GPa)
#
#
# Indices 1 2 3 4 5 6 
#
# 1 135.0604 18.0168 46.8911 0.0000 0.0000 0.0000
# 2 18.0168 37.8310 12.2039 0.0000 0.0000 0.0000
# 3 46.8911 12.2039 39.3786 0.0000 0.0000 0.0000
# 4 0.0000 0.0000 0.0000 7.7298 0.0000 0.0000
# 5 0.0000 0.0000 0.0000 0.0000 24.2519 0.0000
# 6 0.0000 0.0000 0.0000 0.0000 0.0000 62.9198
#
#
#
# Elastic Compliance Matrix: (Units=1/GPa)
#
#
# Indices 1 2 3 4 5 6 
#
# 1 0.012680 -0.001298 -0.014696 0.000000 0.000000 0.000000
# 2 -0.001298 0.029502 -0.007598 0.000000 0.000000 0.000000
# 3 -0.014696 -0.007598 0.045249 0.000000 0.000000 0.000000
# 4 0.000000 0.000000 0.000000 0.129369 0.000000 0.000000
# 5 0.000000 0.000000 0.000000 0.000000 0.041234 0.000000
# 6 0.000000 0.000000 0.000000 0.000000 0.000000 0.015893
#
#
# Mechanical properties :
#
#
# Convention : Reuss Voigt Hill
#
# Bulk Modulus (GPa) = 24.84639 40.72152 32.78396
# Shear Modulus (GPa) = 14.94647 27.99086 21.46867
#
# Velocity S-wave (km/s) = 2.71787 3.71935 3.25733
# Velocity P-wave (km/s) = 4.70410 6.21048 5.50902
#
# Compressibility (1/GPa) = 0.04024730
#
# Stress axis : x y z
#
# Youngs Moduli (GPa) = 78.86694 33.89554 22.09979
#
# Poissons Ratio (x) = 0.04399 0.32479
# Poissons Ratio (y) = 0.10234 0.16791
# Poissons Ratio (z) = 1.15906 0.25754
#
# Static dielectric constant tensor:
#      x y z
#    x 7.541850 0.000000 0.000000 
#    y 0.000000 3.210900 0.000000 
#    z 0.000000 0.000000 3.722100 
# 
# 
# High freq. dielectric constant tensor:
#      x y z
#    x 1.811490 0.000000 0.000000 
#    y 0.000000 1.743260 0.000000 
#    z 0.000000 0.000000 1.777560 
# 
# From -- ./inp_files/24849.got.cif
#   From: 2010.03.12/outbox.cif.g09.slc.cpg/sg51_13_cif.got.tgz:24849.got - 2010.04.16 13:43:02.
