data_PCOD8214197
_publ_section_title
;
Structure prediction by ZEFSAII (Michael W. Deem and Ramdas Pophale) SiO2 
 PCOD8214197
Probable space group: P M M A
;
_chemical_formula_sum "Si O2"
_cell_formula_units_Z 48
_cell_length_a 8.714615
_cell_length_b 30.546270
_cell_length_c 9.148488
_cell_angle_alpha 90.000000
_cell_angle_beta 90.000000
_cell_angle_gamma 90.000000
_cell_volume 2435.318199
_symmetry_space_group_name_H-M "P M M A"
_symmetry_group_IT_number 51
_symmetry_cell_setting 'orthorhombic'
loop_
_space_group_symop_operation_xyz
x,y,z
1/2-x,-y,z
1/2+x,-y,-z
-x,y,-z
-x,-y,-z
1/2+x,y,-z
1/2-x,y,z
x,-y,z
loop_
_atom_site_type_symbol
_atom_site_label
_atom_site_fract_x
_atom_site_fract_y
_atom_site_fract_z
Si Si1 0.070486 0.628508 0.656185
Si Si2 0.070038 0.048878 0.651794
Si Si3 0.431357 0.129621 0.840668
Si Si4 0.432360 0.207644 0.340071
Si Si5 0.931493 0.286728 0.159656
Si Si6 0.431332 0.549043 0.844839
O O1 0.250000 0.624955 0.635159
O O2 0.025648 0.668319 0.760678
O O3 0.005892 0.583250 0.724884
O O4 0.000000 0.637332 0.500000
O O5 0.250000 0.048546 0.628683
O O6 0.024745 0.081082 0.784020
O O7 0.000000 0.066056 0.500000
O O8 0.008783 0.000000 0.689737
O O9 0.250000 0.137306 0.846566
O O10 0.505539 0.162977 0.727590
O O11 0.500000 0.136889 0.000000
O O12 0.500000 0.214320 0.500000
O O13 0.250000 0.206131 0.348557
O O14 0.485548 0.247482 0.240924
O O15 0.750000 0.278109 0.154861
O O16 0.000000 0.290013 0.000000
O O17 0.250000 0.552459 0.859531
O O18 0.482933 0.500000 0.798833
O O19 0.500000 0.562327 0.000000
#
# Coordination Sequence:
#
# PCOD8214197 Si02
#       6
#     8   8   8   8   8   8
#     4  10  22  37  55  81 113 148 186 230 278 331
#     4   9  19  36  58  84 114 149 190 235 283 336
#     4  11  23  39  59  85 118 154 193 236 284 336
#     4  12  25  42  63  87 116 149 188 233 283 337
#     4  11  23  40  61  86 115 148 188 232 282 336
#     4   9  18  34  55  80 110 144 184 229 277 330
#
# _framework density 19.709949999999999
#
# number of rings (size 3 to 8) (size 9 to 14) (size 15 to 20)
#    0.000    1.667    0.000    4.500    0.000    6.667 
#    0.000    0.000    0.000    0.000    0.000    0.000 
#    0.000    0.000    0.000    0.000    0.000    0.000 
#
# Total GULP energy -595330.639085 kJ/mol
# GULP energy per Si atom -12402.721648 kJ/mol
# Density = 1.966509 g / cm^3
# Si number density = 19.709950 Si / 1000 Ang^3
#
#
#
# Elastic Constant Matrix: (Units=GPa)
#
#
# Indices 1 2 3 4 5 6 
#
# 1 77.6287 51.7583 49.6287 0.0000 0.0000 0.0000
# 2 51.7583 124.3898 65.7808 0.0000 0.0000 0.0000
# 3 49.6287 65.7808 145.9050 0.0000 0.0000 0.0000
# 4 0.0000 0.0000 0.0000 44.1660 0.0000 0.0000
# 5 0.0000 0.0000 0.0000 0.0000 36.3134 0.0000
# 6 0.0000 0.0000 0.0000 0.0000 0.0000 -24.2797
#
#
#
# Elastic Compliance Matrix: (Units=1/GPa)
#
#
# Indices 1 2 3 4 5 6 
#
# 1 0.019367 -0.006007 -0.003879 0.000000 0.000000 0.000000
# 2 -0.006007 0.012419 -0.003556 0.000000 0.000000 0.000000
# 3 -0.003879 -0.003556 0.009776 0.000000 0.000000 0.000000
# 4 0.000000 0.000000 0.000000 0.022642 0.000000 0.000000
# 5 0.000000 0.000000 0.000000 0.000000 0.027538 0.000000
# 6 0.000000 0.000000 0.000000 0.000000 0.000000 -0.041187
#
#
# Mechanical properties :
#
#
# Convention : Reuss Voigt Hill
#
# Bulk Modulus (GPa) = 68.12839 75.80656 71.96748
# Shear Modulus (GPa) = 60.72880 23.29035 42.00957
#
# Velocity S-wave (km/s) = 5.55681 3.44125 4.62171
# Velocity P-wave (km/s) = 8.70697 7.37117 8.06677
#
# Compressibility (1/GPa) = 0.01467817
#
# Stress axis : x y z
#
# Youngs Moduli (GPa) = 51.63397 80.52025 102.28643
#
# Poissons Ratio (x) = 0.48369 0.39680
# Poissons Ratio (y) = 0.31017 0.36372
# Poissons Ratio (z) = 0.20030 0.28632
#
# Static dielectric constant tensor:
#      x y z
#    x 3.625780 0.000000 0.000000 
#    y 0.000000 4.120410 0.000000 
#    z 0.000000 0.000000 3.614770 
# 
# 
# High freq. dielectric constant tensor:
#      x y z
#    x 1.769770 0.000000 0.000000 
#    y 0.000000 1.787630 0.000000 
#    z 0.000000 0.000000 1.774560 
# 
# From -- ./inp_files/6000.got.cif
#   From: 2010.03.12/outbox.cif.g09.slc.cpg/sg51_3_cif.got.tgz:6000.got - 2010.04.16 13:43:02.
