data_PCOD8214902
_publ_section_title
;
Structure prediction by ZEFSAII (Michael W. Deem and Ramdas Pophale) SiO2 
 PCOD8214902
Probable space group: P M M A
;
_chemical_formula_sum "Si O2"
_cell_formula_units_Z 52
_cell_length_a 9.000000
_cell_length_b 21.000000
_cell_length_c 15.000000
_cell_angle_alpha 90.000000
_cell_angle_beta 90.000000
_cell_angle_gamma 90.000000
_cell_volume 2835.000000
_symmetry_space_group_name_H-M "P M M A"
_symmetry_group_IT_number 51
_symmetry_cell_setting 'orthorhombic'
loop_
_space_group_symop_operation_xyz
x,y,z
1/2-x,-y,z
1/2+x,-y,-z
-x,y,-z
-x,-y,-z
1/2+x,y,-z
1/2-x,y,z
x,-y,z
loop_
_atom_site_type_symbol
_atom_site_label
_atom_site_fract_x
_atom_site_fract_y
_atom_site_fract_z
Si Si1 0.922572 0.109441 0.230755
Si Si2 0.413943 0.576126 0.417236
Si Si3 0.575154 0.000000 0.096528
Si Si4 0.422176 0.794288 0.914200
Si Si5 0.076560 0.925796 0.409689
Si Si6 0.575039 0.349050 0.084958
Si Si7 0.575937 0.572175 0.247330
O O1 0.750000 0.098907 0.254832
O O2 0.956309 0.175853 0.182098
O O3 0.013711 0.108706 0.322212
O O4 0.975884 0.059329 0.156412
O O5 0.500000 0.605525 0.500000
O O6 0.250000 0.604305 0.417778
O O7 0.414191 0.500000 0.420420
O O8 0.498457 0.602495 0.332243
O O9 0.750000 0.000000 0.079099
O O10 0.500000 0.000000 0.000000
O O11 0.250000 0.798951 0.936018
O O12 0.480949 0.722812 0.904934
O O13 0.500000 0.827571 0.000000
O O14 0.250000 0.911820 0.417294
O O15 0.000000 0.899559 0.500000
O O16 0.040290 0.000000 0.398528
O O17 0.750000 0.354627 0.077359
O O18 0.511709 0.388108 0.166641
O O19 0.500000 0.381400 0.000000
O O20 0.750000 0.579026 0.260718
O O21 0.527355 0.500000 0.232052
#
# Coordination Sequence:
#
# PCOD8214902 Si02
#       7
#     8   8   4   8   8   8   8
#     4  10  19  32  49  70  97 127 158 194 237 279
#     4   9  16  26  42  65  92 120 149 182 223 274
#     4  10  20  30  43  66  97 126 151 186 230 274
#     4   9  18  32  50  70  93 125 161 197 235 279
#     4  10  20  33  51  74  99 128 160 196 236 281
#     4   9  18  32  48  67  92 123 160 197 235 280
#     4   9  17  29  45  66  93 123 154 192 238 284
#
# _framework density 18.342151999999999
#
# number of rings (size 3 to 8) (size 9 to 14) (size 15 to 20)
#    0.000    2.615    0.769    1.385    0.000    4.615 
#    0.000    0.000    0.000    0.923    0.000    0.000 
#    0.000    0.000    0.000    0.000    0.000    0.000 
#
# Total GULP energy -644482.112840 kJ/mol
# GULP energy per Si atom -12393.886785 kJ/mol
# Density = 1.830040 g / cm^3
# Si number density = 18.342152 Si / 1000 Ang^3
#
#
#
# Elastic Constant Matrix: (Units=GPa)
#
#
# Indices 1 2 3 4 5 6 
#
# 1 26.1695 36.4695 66.6187 0.0000 0.0000 0.0000
# 2 36.4695 31.5241 57.1695 0.0000 0.0000 0.0000
# 3 66.6187 57.1695 192.5831 0.0000 0.0000 0.0000
# 4 0.0000 0.0000 0.0000 63.4722 0.0000 0.0000
# 5 0.0000 0.0000 0.0000 0.0000 38.6383 0.0000
# 6 0.0000 0.0000 0.0000 0.0000 0.0000 10.1904
#
#
#
# Elastic Compliance Matrix: (Units=1/GPa)
#
#
# Indices 1 2 3 4 5 6 
#
# 1 -0.062407 0.071585 0.000337 0.000000 0.000000 0.000000
# 2 0.071585 -0.013399 -0.020785 0.000000 0.000000 0.000000
# 3 0.000337 -0.020785 0.011246 0.000000 0.000000 0.000000
# 4 0.000000 0.000000 0.000000 0.015755 0.000000 0.000000
# 5 0.000000 0.000000 0.000000 0.000000 0.025881 0.000000
# 6 0.000000 0.000000 0.000000 0.000000 0.000000 0.098131
#
#
# Mechanical properties :
#
#
# Convention : Reuss Voigt Hill
#
# Bulk Modulus (GPa) = 26.51480 63.42136 44.96808
# Shear Modulus (GPa) = -344.91355 28.46145 -158.22605
#
# Velocity S-wave (km/s) = -13.72780 3.94343 -9.29790
# Velocity P-wave (km/s) = 15.38775 7.44218 9.52357
#
# Compressibility (1/GPa) = 0.03771479
#
# Stress axis : x y z
#
# Youngs Moduli (GPa) = -16.02381 -74.63119 88.91957
#
# Poissons Ratio (x) = 5.34251 -0.03000
# Poissons Ratio (y) = 1.14707 1.84822
# Poissons Ratio (z) = 0.00541 -1.55123
#
# Static dielectric constant tensor:
#      x y z
#    x 3.215740 0.000000 0.000000 
#    y 0.000000 3.152940 0.000000 
#    z 0.000000 0.000000 3.508950 
# 
# 
# High freq. dielectric constant tensor:
#      x y z
#    x 1.700000 0.000000 0.000000 
#    y 0.000000 1.661970 0.000000 
#    z 0.000000 0.000000 1.718210 
# 
# From -- ./inp_files/21517.got.cif
#   From: 2010.03.12/outbox.ucp.g09.slc.cvg/sg51_11_cif.got.tgz:21517.got - 2010.05.04 19:16:16.
