data_PCOD8214604
_publ_section_title
;
Structure prediction by ZEFSAII (Michael W. Deem and Ramdas Pophale) SiO2 
 PCOD8214604
Probable space group: P M M A
;
_chemical_formula_sum "Si O2"
_cell_formula_units_Z 48
_cell_length_a 14.299303
_cell_length_b 9.344826
_cell_length_c 18.908124
_cell_angle_alpha 90.000000
_cell_angle_beta 90.000000
_cell_angle_gamma 90.000000
_cell_volume 2526.588586
_symmetry_space_group_name_H-M "P M M A"
_symmetry_group_IT_number 51
_symmetry_cell_setting 'orthorhombic'
loop_
_space_group_symop_operation_xyz
x,y,z
1/2-x,-y,z
1/2+x,-y,-z
-x,y,-z
-x,-y,-z
1/2+x,y,-z
1/2-x,y,z
x,-y,z
loop_
_atom_site_type_symbol
_atom_site_label
_atom_site_fract_x
_atom_site_fract_y
_atom_site_fract_z
Si Si1 0.486323 0.669471 0.753250
Si Si2 0.642538 0.333571 0.116695
Si Si3 0.858684 0.166878 0.827689
Si Si4 0.646119 0.830895 0.520400
Si Si5 0.639075 0.841366 0.984955
Si Si6 0.525498 0.169393 0.387712
O O1 0.494588 0.500000 0.743809
O O2 0.413153 0.713549 0.813893
O O3 0.586908 0.735304 0.772058
O O4 0.449728 0.740840 0.681591
O O5 0.750000 0.288199 0.128532
O O6 0.632700 0.500000 0.102073
O O7 0.598647 0.257901 0.047221
O O8 0.750000 0.197212 0.815397
O O9 0.881168 0.000000 0.814746
O O10 0.890325 0.212945 0.906968
O O11 0.750000 0.763117 0.530192
O O12 0.577129 0.783313 0.583711
O O13 0.603160 0.785077 0.445110
O O14 0.652866 0.000000 0.521757
O O15 0.750000 0.843308 0.987525
O O16 0.599342 0.000000 0.998045
O O17 0.528576 0.000000 0.371888
#
# Coordination Sequence:
#
# PCOD8214604 Si02
#       6
#     8   8   8   8   8   8
#     4  11  23  35  49  74 108 141 172 209 251 298
#     4   9  19  35  51  68  97 139 179 212 254 307
#     4   9  19  36  55  74  99 133 172 214 262 312
#     4   8  15  31  56  81 101 125 161 204 248 295
#     4   8  15  30  52  75  96 122 166 223 269 303
#     4   9  18  33  53  77 103 130 164 204 245 296
#
# _framework density 18.997948000000001
#
# number of rings (size 3 to 8) (size 9 to 14) (size 15 to 20)
#    0.000    3.000    0.000    2.500    0.000    4.333 
#    0.000    8.333    0.000    1.000    0.000    0.000 
#    0.000    0.000    0.000    0.000    0.000    0.000 
#
# Total GULP energy -595035.603509 kJ/mol
# GULP energy per Si atom -12396.575073 kJ/mol
# Density = 1.895471 g / cm^3
# Si number density = 18.997948 Si / 1000 Ang^3
#
#
#
# Elastic Constant Matrix: (Units=GPa)
#
#
# Indices 1 2 3 4 5 6 
#
# 1 49.3568 3.4515 -6.4344 0.0000 0.0000 0.0000
# 2 3.4515 42.8543 23.3995 0.0000 0.0000 0.0000
# 3 -6.4344 23.3995 72.8328 0.0000 0.0000 0.0000
# 4 0.0000 0.0000 0.0000 -86.2909 0.0000 0.0000
# 5 0.0000 0.0000 0.0000 0.0000 23.7113 0.0000
# 6 0.0000 0.0000 0.0000 0.0000 0.0000 15.2694
#
#
#
# Elastic Compliance Matrix: (Units=1/GPa)
#
#
# Indices 1 2 3 4 5 6 
#
# 1 0.020865 -0.003259 0.002890 0.000000 0.000000 0.000000
# 2 -0.003259 0.028808 -0.009543 0.000000 0.000000 0.000000
# 3 0.002890 -0.009543 0.017051 0.000000 0.000000 0.000000
# 4 0.000000 0.000000 0.000000 -0.011589 0.000000 0.000000
# 5 0.000000 0.000000 0.000000 0.000000 0.042174 0.000000
# 6 0.000000 0.000000 0.000000 0.000000 0.000000 0.065490
#
#
# Mechanical properties :
#
#
# Convention : Reuss Voigt Hill
#
# Bulk Modulus (GPa) = 21.32122 22.87522 22.09822
# Shear Modulus (GPa) = 25.21968 0.17980 12.69974
#
# Velocity S-wave (km/s) = 3.64743 0.30797 2.58830
# Velocity P-wave (km/s) = 5.38383 3.49192 4.53757
#
# Compressibility (1/GPa) = 0.04690164
#
# Stress axis : x y z
#
# Youngs Moduli (GPa) = 47.92644 34.71228 58.64600
#
# Poissons Ratio (x) = 0.11312 -0.16950
# Poissons Ratio (y) = 0.15618 0.55968
# Poissons Ratio (z) = -0.13852 0.33127
#
# Static dielectric constant tensor:
#      x y z
#    x 3.689710 0.000000 0.000000 
#    y 0.000000 3.245630 0.000000 
#    z 0.000000 0.000000 3.522250 
# 
# 
# High freq. dielectric constant tensor:
#      x y z
#    x 1.739400 0.000000 0.000000 
#    y 0.000000 1.709320 0.000000 
#    z 0.000000 0.000000 1.740350 
# 
# From -- ./inp_files/29403.got.cif
#   From: 2010.03.12/outbox.cif.g09.slc.cpg/sg51_15_cif.got.tgz:29403.got - 2010.04.16 13:43:02.
