data_PCOD8214907
_publ_section_title
;
Structure prediction by ZEFSAII (Michael W. Deem and Ramdas Pophale) SiO2 
 PCOD8214907
Probable space group: P M M A
;
_chemical_formula_sum "Si O2"
_cell_formula_units_Z 48
_cell_length_a 30.000000
_cell_length_b 9.000000
_cell_length_c 9.000000
_cell_angle_alpha 90.000000
_cell_angle_beta 90.000000
_cell_angle_gamma 90.000000
_cell_volume 2430.000000
_symmetry_space_group_name_H-M "P M M A"
_symmetry_group_IT_number 51
_symmetry_cell_setting 'orthorhombic'
loop_
_space_group_symop_operation_xyz
x,y,z
1/2-x,-y,z
1/2+x,-y,-z
-x,y,-z
-x,-y,-z
1/2+x,y,-z
1/2-x,y,z
x,-y,z
loop_
_atom_site_type_symbol
_atom_site_label
_atom_site_fract_x
_atom_site_fract_y
_atom_site_fract_z
Si Si1 0.122885 0.676723 0.432299
Si Si2 0.199560 0.671324 0.902028
Si Si3 0.457542 0.667792 0.897155
Si Si4 0.542570 0.174056 0.404138
Si Si5 0.301660 0.827920 0.600242
Si Si6 0.620060 0.325465 0.897961
O O1 0.122748 0.500000 0.437736
O O2 0.085665 0.738752 0.541226
O O3 0.171184 0.734614 0.480187
O O4 0.114126 0.740264 0.266819
O O5 0.250000 0.702611 0.952165
O O6 0.192534 0.500000 0.854935
O O7 0.185505 0.772609 0.764161
O O8 0.169035 0.714880 0.041608
O O9 0.446529 0.500000 0.840801
O O10 0.467688 0.776938 0.762410
O O11 0.500000 0.663706 0.000000
O O12 0.416757 0.739120 0.989932
O O13 0.500000 0.220577 0.500000
O O14 0.552228 0.000000 0.412623
O O15 0.250000 0.798282 0.567134
O O16 0.314317 0.000000 0.588581
O O17 0.612397 0.500000 0.888171
#
# Coordination Sequence:
#
# PCOD8214907 Si02
#       6
#     8   8   8   8   8   8
#     4  11  22  37  59  84 112 147 188 233 280 331
#     4   9  17  32  55  80 106 140 184 230 274 325
#     4  10  20  36  59  84 110 142 184 231 276 326
#     4  11  24  40  58  83 116 151 187 228 277 334
#     4  10  21  37  56  81 115 151 187 229 278 334
#     4   9  19  34  53  80 109 138 178 229 279 324
#
# _framework density 19.753086
#
# number of rings (size 3 to 8) (size 9 to 14) (size 15 to 20)
#    0.000    2.000    0.000    3.500    0.000    6.000 
#    0.000    5.000    0.000    2.000    0.000    0.000 
#    0.000    0.000    0.000    0.000    0.000    0.000 
#
# Total GULP energy -595330.682802 kJ/mol
# GULP energy per Si atom -12402.722558 kJ/mol
# Density = 1.970813 g / cm^3
# Si number density = 19.753086 Si / 1000 Ang^3
#
#
#
# Elastic Constant Matrix: (Units=GPa)
#
#
# Indices 1 2 3 4 5 6 
#
# 1 88.4273 33.5582 45.5155 0.0000 0.0000 0.0000
# 2 33.5582 67.4341 35.1555 0.0000 0.0000 0.0000
# 3 45.5155 35.1555 108.3063 0.0000 0.0000 0.0000
# 4 0.0000 0.0000 0.0000 6.0445 0.0000 0.0000
# 5 0.0000 0.0000 0.0000 0.0000 34.1954 0.0000
# 6 0.0000 0.0000 0.0000 0.0000 0.0000 0.9334
#
#
#
# Elastic Compliance Matrix: (Units=1/GPa)
#
#
# Indices 1 2 3 4 5 6 
#
# 1 0.015873 -0.005322 -0.004943 0.000000 0.000000 0.000000
# 2 -0.005322 0.019634 -0.004137 0.000000 0.000000 0.000000
# 3 -0.004943 -0.004137 0.012653 0.000000 0.000000 0.000000
# 4 0.000000 0.000000 0.000000 0.165439 0.000000 0.000000
# 5 0.000000 0.000000 0.000000 0.000000 0.029244 0.000000
# 6 0.000000 0.000000 0.000000 0.000000 0.000000 1.071326
#
#
# Mechanical properties :
#
#
# Convention : Reuss Voigt Hill
#
# Bulk Modulus (GPa) = 51.66125 54.73624 53.19875
# Shear Modulus (GPa) = 3.70528 18.23056 10.96792
#
# Velocity S-wave (km/s) = 1.37108 3.04126 2.35893
# Velocity P-wave (km/s) = 5.35880 6.33267 5.86598
#
# Compressibility (1/GPa) = 0.01935687
#
# Stress axis : x y z
#
# Youngs Moduli (GPa) = 63.00127 50.93117 79.03234
#
# Poissons Ratio (x) = 0.27106 0.39065
# Poissons Ratio (y) = 0.33530 0.32693
# Poissons Ratio (z) = 0.31141 0.21068
#
# Static dielectric constant tensor:
#      x y z
#    x 3.556780 0.000000 0.000000 
#    y 0.000000 3.468980 0.000000 
#    z 0.000000 0.000000 3.617610 
# 
# 
# High freq. dielectric constant tensor:
#      x y z
#    x 1.781000 0.000000 0.000000 
#    y 0.000000 1.751270 0.000000 
#    z 0.000000 0.000000 1.767810 
# 
# From -- ./inp_files/12727.got.cif
#   From: 2010.03.12/outbox.ucp.g09.slc.cvg/sg51_7_cif.got.tgz:12727.got - 2010.05.04 19:16:16.
