data_PCOD8214515
_publ_section_title
;
Structure prediction by ZEFSAII (Michael W. Deem and Ramdas Pophale) SiO2 
 PCOD8214515
Probable space group: P M M A
;
_chemical_formula_sum "Si O2"
_cell_formula_units_Z 52
_cell_length_a 14.259343
_cell_length_b 20.304877
_cell_length_c 8.888164
_cell_angle_alpha 90.000000
_cell_angle_beta 90.000000
_cell_angle_gamma 90.000000
_cell_volume 2573.427504
_symmetry_space_group_name_H-M "P M M A"
_symmetry_group_IT_number 51
_symmetry_cell_setting 'orthorhombic'
loop_
_space_group_symop_operation_xyz
x,y,z
1/2-x,-y,z
1/2+x,-y,-z
-x,y,-z
-x,-y,-z
1/2+x,y,-z
1/2-x,y,z
x,-y,z
loop_
_atom_site_type_symbol
_atom_site_label
_atom_site_fract_x
_atom_site_fract_y
_atom_site_fract_z
Si Si1 0.531463 0.657477 0.833006
Si Si2 0.355684 0.790282 0.182361
Si Si3 0.348538 0.320739 0.642351
Si Si4 0.000000 0.876226 0.000000
Si Si5 0.143785 0.074536 0.757120
Si Si6 0.403106 0.428240 0.416445
Si Si7 0.608287 0.184497 0.488435
O O1 0.604314 0.716629 0.815024
O O2 0.435762 0.675176 0.750015
O O3 0.579731 0.594289 0.756083
O O4 0.500000 0.639541 0.000000
O O5 0.250000 0.788744 0.116639
O O6 0.423088 0.830963 0.076258
O O7 0.352429 0.826093 0.344121
O O8 0.250000 0.332842 0.730804
O O9 0.346515 0.372408 0.504584
O O10 0.340976 0.247437 0.579080
O O11 0.061393 0.918243 0.881708
O O12 0.250000 0.087690 0.821287
O O13 0.126393 0.120868 0.613759
O O14 0.137056 0.000000 0.697529
O O15 0.500000 0.437065 0.500000
O O16 0.351951 0.500000 0.413647
O O17 0.500000 0.201504 0.500000
#
# Coordination Sequence:
#
# PCOD8214515 Si02
#       7
#     8   8   8   4   8   8   8
#     4  11  22  38  56  90 131 162 205 256 316 378
#     4  12  24  39  63  94 126 163 209 264 316 373
#     4  11  21  37  63  90 120 162 210 258 309 368
#     4  12  23  44  64  92 127 166 204 258 313 386
#     4  11  25  44  66  93 126 166 209 257 320 384
#     4   9  19  37  60  85 120 164 208 254 303 360
#     4  12  21  42  65  90 124 160 210 264 311 366
#
# _framework density 20.206516000000001
#
# number of rings (size 3 to 8) (size 9 to 14) (size 15 to 20)
#    0.000    0.923    5.385    2.538    0.000    1.538 
#    0.000    0.000    0.000    2.769    0.000    2.154 
#    0.000    0.000    0.000    0.000    0.000    0.000 
#
# Total GULP energy -644420.602548 kJ/mol
# GULP energy per Si atom -12392.703895 kJ/mol
# Density = 2.016052 g / cm^3
# Si number density = 20.206516 Si / 1000 Ang^3
#
#
#
# Elastic Constant Matrix: (Units=GPa)
#
#
# Indices 1 2 3 4 5 6 
#
# 1 139.9681 29.0807 25.2542 0.0000 0.0000 0.0000
# 2 29.0807 140.2716 49.7095 0.0000 0.0000 0.0000
# 3 25.2542 49.7095 112.2047 0.0000 0.0000 0.0000
# 4 0.0000 0.0000 0.0000 57.5662 0.0000 0.0000
# 5 0.0000 0.0000 0.0000 0.0000 2.2778 0.0000
# 6 0.0000 0.0000 0.0000 0.0000 0.0000 74.2043
#
#
#
# Elastic Compliance Matrix: (Units=1/GPa)
#
#
# Indices 1 2 3 4 5 6 
#
# 1 0.007600 -0.001150 -0.001201 0.000000 0.000000 0.000000
# 2 -0.001150 0.008631 -0.003565 0.000000 0.000000 0.000000
# 3 -0.001201 -0.003565 0.010762 0.000000 0.000000 0.000000
# 4 0.000000 0.000000 0.000000 0.017371 0.000000 0.000000
# 5 0.000000 0.000000 0.000000 0.000000 0.439021 0.000000
# 6 0.000000 0.000000 0.000000 0.000000 0.000000 0.013476
#
#
# Mechanical properties :
#
#
# Convention : Reuss Voigt Hill
#
# Bulk Modulus (GPa) = 65.95875 66.72589 66.34232
# Shear Modulus (GPa) = 9.73242 46.03632 27.88437
#
# Velocity S-wave (km/s) = 2.19703 4.77832 3.71882
# Velocity P-wave (km/s) = 6.25692 7.97100 7.16540
#
# Compressibility (1/GPa) = 0.01516099
#
# Stress axis : x y z
#
# Youngs Moduli (GPa) = 131.57677 115.86505 92.92026
#
# Poissons Ratio (x) = 0.13324 0.11161
# Poissons Ratio (y) = 0.15131 0.33124
# Poissons Ratio (z) = 0.15804 0.41304
#
# Static dielectric constant tensor:
#      x y z
#    x 3.545410 0.000000 0.000000 
#    y 0.000000 3.832960 0.000000 
#    z 0.000000 0.000000 3.603420 
# 
# 
# High freq. dielectric constant tensor:
#      x y z
#    x 1.809980 0.000000 0.000000 
#    y 0.000000 1.785690 0.000000 
#    z 0.000000 0.000000 1.776220 
# 
# From -- ./inp_files/8443.got.cif
#   From: 2010.03.12/outbox.cif.g09.slc.cpg/sg51_5_cif.got.tgz:8443.got - 2010.04.16 13:43:02.
