data_PCOD8214987
_publ_section_title
;
Structure prediction by ZEFSAII (Michael W. Deem and Ramdas Pophale) SiO2 
 PCOD8214987
Probable space group: P N N A
;
_chemical_formula_sum "Si O2"
_cell_formula_units_Z 60
_cell_length_a 14.683177
_cell_length_b 20.228341
_cell_length_c 12.098287
_cell_angle_alpha 90.000000
_cell_angle_beta 90.000000
_cell_angle_gamma 90.000000
_cell_volume 3593.388578
_symmetry_space_group_name_H-M "P N N A"
_symmetry_group_IT_number 52
_symmetry_cell_setting 'orthorhombic'
loop_
_space_group_symop_operation_xyz
x,y,z
1/2-x,-y,z
x,1/2-y,1/2-z
1/2-x,1/2+y,1/2-z
-x,-y,-z
1/2+x,y,-z
-x,1/2+y,1/2+z
1/2+x,1/2-y,1/2+z
loop_
_atom_site_type_symbol
_atom_site_label
_atom_site_fract_x
_atom_site_fract_y
_atom_site_fract_z
Si Si1 0.437805 0.538275 0.641200
Si Si2 0.020428 0.231490 0.129107
Si Si3 0.432429 0.141807 0.225538
Si Si4 0.439868 0.922352 0.111699
Si Si5 0.407993 0.270495 0.076080
Si Si6 0.760297 0.095227 0.889512
Si Si7 0.221837 0.242041 0.122078
Si Si8 0.750000 0.000000 0.081138
O O1 0.475950 0.599144 0.712565
O O2 0.448736 0.559063 0.515238
O O3 0.493040 0.472127 0.676029
O O4 0.330093 0.526164 0.661466
O O5 0.984296 0.250000 0.250000
O O6 0.026115 0.152505 0.125700
O O7 0.118772 0.266202 0.105995
O O8 0.954674 0.266403 0.042243
O O9 0.428807 0.202225 0.139658
O O10 0.440119 0.167212 0.351259
O O11 0.342189 0.096549 0.200427
O O12 0.335663 0.936046 0.155309
O O13 0.299283 0.281995 0.055450
O O14 0.729441 0.168120 0.923567
O O15 0.791747 0.057229 0.000796
O O16 0.251420 0.250000 0.250000
#
# Coordination Sequence:
#
# PCOD8214987 Si02
#       8
#     8   8   8   8   8   8   8   4
#     4  10  18  29  45  73 103 138 160 211 260 306
#     4  10  20  32  52  74 104 138 171 208 254 306
#     4  10  17  29  50  72 101 131 165 208 255 294
#     4   9  17  28  47  72 105 128 165 211 262 298
#     4  10  18  31  51  74 100 134 170 208 251 305
#     4   9  15  25  41  70  97 126 161 203 248 302
#     4   9  16  30  49  71  95 135 166 206 252 293
#     4  10  20  26  42  72 106 144 164 200 264 318
#
# _framework density 16.697331999999999
#
# number of rings (size 3 to 8) (size 9 to 14) (size 15 to 20)
#    0.000    2.400    4.000    2.400    1.867    0.000 
#    0.000    0.000    5.867    0.800    0.000    0.000 
#    0.000    0.000    0.000    0.000    0.000    0.000 
#
# Total GULP energy -743289.286981 kJ/mol
# GULP energy per Si atom -12388.154783 kJ/mol
# Density = 1.665933 g / cm^3
# Si number density = 16.697332 Si / 1000 Ang^3
#
#
#
# Elastic Constant Matrix: (Units=GPa)
#
#
# Indices 1 2 3 4 5 6 
#
# 1 122.6802 45.2077 57.9667 0.0000 0.0000 0.0000
# 2 45.2077 66.2308 28.8600 0.0000 0.0000 0.0000
# 3 57.9667 28.8600 74.5629 0.0000 0.0000 0.0000
# 4 0.0000 0.0000 0.0000 21.8548 0.0000 0.0000
# 5 0.0000 0.0000 0.0000 0.0000 21.4380 0.0000
# 6 0.0000 0.0000 0.0000 0.0000 0.0000 25.8743
#
#
#
# Elastic Compliance Matrix: (Units=1/GPa)
#
#
# Indices 1 2 3 4 5 6 
#
# 1 0.014663 -0.006064 -0.009052 0.000000 0.000000 0.000000
# 2 -0.006064 0.020670 -0.003286 0.000000 0.000000 0.000000
# 3 -0.009052 -0.003286 0.021721 0.000000 0.000000 0.000000
# 4 0.000000 0.000000 0.000000 0.045757 0.000000 0.000000
# 5 0.000000 0.000000 0.000000 0.000000 0.046646 0.000000
# 6 0.000000 0.000000 0.000000 0.000000 0.000000 0.038648
#
#
# Mechanical properties :
#
#
# Convention : Reuss Voigt Hill
#
# Bulk Modulus (GPa) = 49.38533 58.61588 54.00060
# Shear Modulus (GPa) = 21.58342 22.59605 22.08973
#
# Velocity S-wave (km/s) = 3.59921 3.68268 3.64118
# Velocity P-wave (km/s) = 6.84934 7.29822 7.07734
#
# Compressibility (1/GPa) = 0.02024893
#
# Stress axis : x y z
#
# Youngs Moduli (GPa) = 68.19808 48.37960 46.03898
#
# Poissons Ratio (x) = 0.29339 0.41676
# Poissons Ratio (y) = 0.41357 0.15128
# Poissons Ratio (z) = 0.61735 0.15897
#
# Static dielectric constant tensor:
#      x y z
#    x 3.506600 0.000000 0.000000 
#    y 0.000000 3.250350 0.000000 
#    z 0.000000 0.000000 2.692260 
# 
# 
# High freq. dielectric constant tensor:
#      x y z
#    x 1.658440 0.000000 0.000000 
#    y 0.000000 1.637850 0.000000 
#    z 0.000000 0.000000 1.578710 
# 
# From -- ./inp_files/19935.got.cif
#   From: 2010.06.25/outbox.cif.g09.slc.cpg/sg52_10_cif.got.tgz:19935.got - 2010.06.26 19:32:48.
