data_PCOD8214590
_publ_section_title
;
Structure prediction by ZEFSAII (Michael W. Deem and Ramdas Pophale) SiO2 
 PCOD8214590
Probable space group: P M M A
;
_chemical_formula_sum "Si O2"
_cell_formula_units_Z 48
_cell_length_a 9.781792
_cell_length_b 8.846136
_cell_length_c 29.187897
_cell_angle_alpha 90.000000
_cell_angle_beta 90.000000
_cell_angle_gamma 90.000000
_cell_volume 2525.659735
_symmetry_space_group_name_H-M "P M M A"
_symmetry_group_IT_number 51
_symmetry_cell_setting 'orthorhombic'
loop_
_space_group_symop_operation_xyz
x,y,z
1/2-x,-y,z
1/2+x,-y,-z
-x,y,-z
-x,-y,-z
1/2+x,y,-z
1/2-x,y,z
x,-y,z
loop_
_atom_site_type_symbol
_atom_site_label
_atom_site_fract_x
_atom_site_fract_y
_atom_site_fract_z
Si Si1 0.401995 0.178768 0.200514
Si Si2 0.977490 0.179924 0.899973
Si Si3 0.094609 0.321104 0.624788
Si Si4 0.750000 0.323183 0.960112
Si Si5 0.093563 0.177342 0.719891
Si Si6 0.750000 0.677529 0.067365
Si Si7 0.907150 0.320104 0.541932
O O1 0.250000 0.227788 0.215089
O O2 0.431962 0.240966 0.149792
O O3 0.505642 0.245786 0.238207
O O4 0.418477 0.000000 0.199119
O O5 0.126245 0.241436 0.908182
O O6 0.883430 0.248309 0.939215
O O7 0.971050 0.000000 0.902938
O O8 0.250000 0.266919 0.612762
O O9 0.091564 0.500000 0.627540
O O10 0.045815 0.255332 0.673135
O O11 0.985485 0.262495 0.587398
O O12 0.750000 0.500000 0.949542
O O13 0.750000 0.289238 0.013696
O O14 0.250000 0.216070 0.731013
O O15 0.069166 0.000000 0.714078
O O16 0.750000 0.500000 0.077564
O O17 0.750000 0.257525 0.539989
O O18 0.901602 0.500000 0.540481
O O19 0.000000 0.259364 0.500000
#
# Coordination Sequence:
#
# PCOD8214590 Si02
#       7
#     8   8   8   4   8   4   8
#     4   9  18  34  55  79 105 133 170 219 269 312
#     4  11  22  38  62  88 111 141 188 238 274 318
#     4   9  17  30  47  69 100 131 162 208 259 302
#     4  11  23  41  61  81 117 155 181 217 278 343
#     4   9  18  32  53  76 100 135 174 209 255 318
#     4  11  25  41  57  83 117 153 183 219 278 341
#     4   9  16  26  43  68  97 131 170 210 255 306
#
# _framework density 19.004933999999999
#
# number of rings (size 3 to 8) (size 9 to 14) (size 15 to 20)
#    0.000    2.333    0.833    2.000    1.167    6.000 
#    0.000    1.667    0.000    0.500    0.000    0.000 
#    0.000    0.000    0.000    0.000    0.000    0.000 
#
# Total GULP energy -595132.350512 kJ/mol
# GULP energy per Si atom -12398.590636 kJ/mol
# Density = 1.896168 g / cm^3
# Si number density = 19.004934 Si / 1000 Ang^3
#
#
#
# Elastic Constant Matrix: (Units=GPa)
#
#
# Indices 1 2 3 4 5 6 
#
# 1 136.2222 18.5687 66.5401 0.0000 0.0000 0.0000
# 2 18.5687 26.3603 27.5904 0.0000 0.0000 0.0000
# 3 66.5401 27.5904 127.5344 0.0000 0.0000 0.0000
# 4 0.0000 0.0000 0.0000 27.4289 0.0000 0.0000
# 5 0.0000 0.0000 0.0000 0.0000 45.1437 0.0000
# 6 0.0000 0.0000 0.0000 0.0000 0.0000 21.3676
#
#
#
# Elastic Compliance Matrix: (Units=1/GPa)
#
#
# Indices 1 2 3 4 5 6 
#
# 1 0.009935 -0.002034 -0.004744 0.000000 0.000000 0.000000
# 2 -0.002034 0.049456 -0.009638 0.000000 0.000000 0.000000
# 3 -0.004744 -0.009638 0.012401 0.000000 0.000000 0.000000
# 4 0.000000 0.000000 0.000000 0.036458 0.000000 0.000000
# 5 0.000000 0.000000 0.000000 0.000000 0.022151 0.000000
# 6 0.000000 0.000000 0.000000 0.000000 0.000000 0.046800
#
#
# Mechanical properties :
#
#
# Convention : Reuss Voigt Hill
#
# Bulk Modulus (GPa) = 25.66619 57.27947 41.47283
# Shear Modulus (GPa) = 22.41948 30.61590 26.51769
#
# Velocity S-wave (km/s) = 3.43835 4.01801 3.73943
# Velocity P-wave (km/s) = 5.41270 7.19240 6.36506
#
# Compressibility (1/GPa) = 0.03896177
#
# Stress axis : x y z
#
# Youngs Moduli (GPa) = 100.65117 20.21984 80.63772
#
# Poissons Ratio (x) = 0.04112 0.38252
# Poissons Ratio (y) = 0.20468 0.77721
# Poissons Ratio (z) = 0.47746 0.19488
#
# Static dielectric constant tensor:
#      x y z
#    x 3.571480 0.000000 0.000000 
#    y 0.000000 3.138410 0.000000 
#    z 0.000000 0.000000 3.711000 
# 
# 
# High freq. dielectric constant tensor:
#      x y z
#    x 1.752000 0.000000 0.000000 
#    y 0.000000 1.701050 0.000000 
#    z 0.000000 0.000000 1.750200 
# 
# From -- ./inp_files/37190.got.cif
#   From: 2010.03.12/outbox.cif.g09.slc.cpg/sg51_19_cif.got.tgz:37190.got - 2010.04.16 13:43:02.
