data_PCOD8214908
_publ_section_title
;
Structure prediction by ZEFSAII (Michael W. Deem and Ramdas Pophale) SiO2 
 PCOD8214908
Probable space group: P M M A
;
_chemical_formula_sum "Si O2"
_cell_formula_units_Z 64
_cell_length_a 9.000000
_cell_length_b 30.000000
_cell_length_c 15.000000
_cell_angle_alpha 90.000000
_cell_angle_beta 90.000000
_cell_angle_gamma 90.000000
_cell_volume 4050.000000
_symmetry_space_group_name_H-M "P M M A"
_symmetry_group_IT_number 51
_symmetry_cell_setting 'orthorhombic'
loop_
_space_group_symop_operation_xyz
x,y,z
1/2-x,-y,z
1/2+x,-y,-z
-x,y,-z
-x,-y,-z
1/2+x,y,-z
1/2-x,y,z
x,-y,z
loop_
_atom_site_type_symbol
_atom_site_label
_atom_site_fract_x
_atom_site_fract_y
_atom_site_fract_z
Si Si1 0.073516 0.103710 0.734028
Si Si2 0.077097 0.630853 0.404518
Si Si3 0.585117 0.901001 0.916575
Si Si4 0.917025 0.052626 0.586237
Si Si5 0.923065 0.451737 0.404142
Si Si6 0.428032 0.804024 0.274703
Si Si7 0.410796 0.203452 0.080880
Si Si8 0.422403 0.271677 0.406340
O O1 0.250000 0.106744 0.734871
O O2 0.015228 0.090519 0.830877
O O3 0.016979 0.064798 0.670453
O O4 0.005165 0.149976 0.698025
O O5 0.250000 0.620339 0.414527
O O6 0.050030 0.679584 0.360953
O O7 0.000000 0.633036 0.500000
O O8 0.999407 0.589706 0.350228
O O9 0.750000 0.922199 0.904572
O O10 0.604512 0.848960 0.935469
O O11 0.500000 0.923528 0.000000
O O12 0.750000 0.072768 0.592814
O O13 0.000000 0.072667 0.500000
O O14 0.907266 0.000000 0.579728
O O15 0.750000 0.441795 0.415903
O O16 0.947749 0.500000 0.356265
O O17 0.000000 0.453766 0.500000
O O18 0.250000 0.810938 0.273053
O O19 0.486042 0.788697 0.177109
O O20 0.484203 0.766055 0.341180
O O21 0.250000 0.226469 0.079794
O O22 0.500000 0.226106 0.000000
O O23 0.500000 0.266174 0.500000
O O24 0.250000 0.264374 0.424084
#
# Coordination Sequence:
#
# PCOD8214908 Si02
#       8
#     8   8   8   8   8   8   8   8
#     4  11  21  32  49  73  97 120 146 176 212 253
#     4   9  15  23  35  49  65  90 125 163 202 242
#     4   9  16  28  46  69  96 123 149 176 208 247
#     4  10  21  38  58  76  93 115 144 178 217 260
#     4   9  15  21  30  45  64  86 115 155 201 243
#     4   9  18  32  45  60  86 116 144 175 211 248
#     4   8  14  24  40  59  80 106 133 166 205 242
#     4   9  18  30  42  55  75 106 142 176 209 246
#
# _framework density 15.802469
#
# number of rings (size 3 to 8) (size 9 to 14) (size 15 to 20)
#    0.000    2.750    0.000    4.125    0.000    6.000 
#    0.000    1.250    0.000    0.375    0.000    0.000 
#    0.000    0.000    0.000    0.000    0.000    0.625 
#
# Total GULP energy -792880.330244 kJ/mol
# GULP energy per Si atom -12388.755160 kJ/mol
# Density = 1.576650 g / cm^3
# Si number density = 15.802469 Si / 1000 Ang^3
#
#
#
# Elastic Constant Matrix: (Units=GPa)
#
#
# Indices 1 2 3 4 5 6 
#
# 1 96.5390 24.9123 33.7113 0.0000 0.0000 0.0000
# 2 24.9123 26.3684 25.4757 0.0000 0.0000 0.0000
# 3 33.7113 25.4757 63.1646 0.0000 0.0000 0.0000
# 4 0.0000 0.0000 0.0000 -4.6786 0.0000 0.0000
# 5 0.0000 0.0000 0.0000 0.0000 19.7819 0.0000
# 6 0.0000 0.0000 0.0000 0.0000 0.0000 26.4013
#
#
#
# Elastic Compliance Matrix: (Units=1/GPa)
#
#
# Indices 1 2 3 4 5 6 
#
# 1 0.014166 -0.009961 -0.003543 0.000000 0.000000 0.000000
# 2 -0.009961 0.069140 -0.022570 0.000000 0.000000 0.000000
# 3 -0.003543 -0.022570 0.026826 0.000000 0.000000 0.000000
# 4 0.000000 0.000000 0.000000 -0.213737 0.000000 0.000000
# 5 0.000000 0.000000 0.000000 0.000000 0.050551 0.000000
# 6 0.000000 0.000000 0.000000 0.000000 0.000000 0.037877
#
#
# Mechanical properties :
#
#
# Convention : Reuss Voigt Hill
#
# Bulk Modulus (GPa) = 26.32625 39.36339 32.84482
# Shear Modulus (GPa) = 71.80574 15.09910 43.45242
#
# Velocity S-wave (km/s) = 6.74820 3.09445 5.24947
# Velocity P-wave (km/s) = 8.79849 6.14258 7.58764
#
# Compressibility (1/GPa) = 0.03798490
#
# Stress axis : x y z
#
# Youngs Moduli (GPa) = 70.59063 14.46331 37.27785
#
# Poissons Ratio (x) = 0.14406 0.13208
# Poissons Ratio (y) = 0.70313 0.84135
# Poissons Ratio (z) = 0.25012 0.32643
#
# Static dielectric constant tensor:
#      x y z
#    x 3.293980 0.000000 0.000000 
#    y 0.000000 3.423860 0.000000 
#    z 0.000000 0.000000 2.779520 
# 
# 
# High freq. dielectric constant tensor:
#      x y z
#    x 1.620330 0.000000 0.000000 
#    y 0.000000 1.582080 0.000000 
#    z 0.000000 0.000000 1.563250 
# 
# From -- ./inp_files/22575.got.cif
#   From: 2010.03.12/outbox.ucp.g09.slc.cvg/sg51_12_cif.got.tgz:22575.got - 2010.05.04 19:16:16.
