data_PCOD8214054
_publ_section_title
;
Structure prediction by ZEFSAII (Michael W. Deem and Ramdas Pophale) SiO2 
 PCOD8214054
Probable space group: P M M A
;
_chemical_formula_sum "Si O2"
_cell_formula_units_Z 56
_cell_length_a 14.609601
_cell_length_b 14.654553
_cell_length_c 11.951182
_cell_angle_alpha 90.000000
_cell_angle_beta 90.000000
_cell_angle_gamma 90.000000
_cell_volume 2558.714270
_symmetry_space_group_name_H-M "P M M A"
_symmetry_group_IT_number 51
_symmetry_cell_setting 'orthorhombic'
loop_
_space_group_symop_operation_xyz
x,y,z
1/2-x,-y,z
1/2+x,-y,-z
-x,y,-z
-x,-y,-z
1/2+x,y,-z
1/2-x,y,z
x,-y,z
loop_
_atom_site_type_symbol
_atom_site_label
_atom_site_fract_x
_atom_site_fract_y
_atom_site_fract_z
Si Si1 0.649586 0.104050 0.716131
Si Si2 0.652146 0.348839 0.334338
Si Si3 0.599961 0.766969 0.524491
Si Si4 0.050364 0.399732 0.329405
Si Si5 0.850432 0.736130 0.100055
Si Si6 0.017392 0.101110 0.870423
Si Si7 0.357594 0.605129 0.097847
O O1 0.750000 0.115812 0.772417
O O2 0.651324 0.160637 0.601163
O O3 0.573320 0.136565 0.805054
O O4 0.631833 0.000000 0.682064
O O5 0.750000 0.398396 0.364411
O O6 0.649331 0.254115 0.406654
O O7 0.559078 0.405317 0.352599
O O8 0.656017 0.330685 0.203620
O O9 0.500000 0.807601 0.500000
O O10 0.597002 0.669541 0.586339
O O11 0.090738 0.500000 0.353863
O O12 0.078390 0.370564 0.203715
O O13 0.750000 0.771404 0.064823
O O14 0.906004 0.823262 0.143437
O O15 0.891434 0.675976 0.997819
O O16 0.046858 0.000000 0.825316
O O17 0.000000 0.091458 0.000000
O O18 0.250000 0.619295 0.126501
O O19 0.374021 0.500000 0.059445
#
# Coordination Sequence:
#
# PCOD8214054 Si02
#       7
#     8   8   8   8   8   8   8
#     4  10  22  41  65  93 123 161 210 257 306 367
#     4  10  22  38  56  85 122 162 203 244 295 360
#     4  10  21  38  63  90 123 160 202 260 311 360
#     4  10  22  39  60  87 118 156 202 251 304 362
#     4  10  22  39  61  86 118 161 203 245 306 371
#     4  10  22  38  59  89 124 157 195 245 301 364
#     4   9  20  39  62  90 120 153 203 263 314 364
#
# _framework density 21.885992000000002
#
# number of rings (size 3 to 8) (size 9 to 14) (size 15 to 20)
#    0.000    2.143    0.000    2.143    4.000    5.714 
#    0.000    5.000    0.000    0.857    0.000    0.000 
#    0.000    0.000    0.000    0.000    0.000    0.000 
#
# Total GULP energy -693865.660876 kJ/mol
# GULP energy per Si atom -12390.458230 kJ/mol
# Density = 2.183618 g / cm^3
# Si number density = 21.885992 Si / 1000 Ang^3
#
#
#
# Elastic Constant Matrix: (Units=GPa)
#
#
# Indices 1 2 3 4 5 6 
#
# 1 94.9114 37.0836 26.1912 0.0000 0.0000 0.0000
# 2 37.0836 77.6985 20.8365 0.0000 0.0000 0.0000
# 3 26.1912 20.8365 91.8970 0.0000 0.0000 0.0000
# 4 0.0000 0.0000 0.0000 20.7297 0.0000 0.0000
# 5 0.0000 0.0000 0.0000 0.0000 24.2225 0.0000
# 6 0.0000 0.0000 0.0000 0.0000 0.0000 17.2634
#
#
#
# Elastic Compliance Matrix: (Units=1/GPa)
#
#
# Indices 1 2 3 4 5 6 
#
# 1 0.013485 -0.005756 -0.002538 0.000000 0.000000 0.000000
# 2 -0.005756 0.016160 -0.002024 0.000000 0.000000 0.000000
# 3 -0.002538 -0.002024 0.012064 0.000000 0.000000 0.000000
# 4 0.000000 0.000000 0.000000 0.048240 0.000000 0.000000
# 5 0.000000 0.000000 0.000000 0.000000 0.041284 0.000000
# 6 0.000000 0.000000 0.000000 0.000000 0.000000 0.057926
#
#
# Mechanical properties :
#
#
# Convention : Reuss Voigt Hill
#
# Bulk Modulus (GPa) = 47.45164 48.08107 47.76635
# Shear Modulus (GPa) = 23.06067 24.46949 23.76508
#
# Velocity S-wave (km/s) = 3.24955 3.34734 3.29881
# Velocity P-wave (km/s) = 5.98396 6.07916 6.03175
#
# Compressibility (1/GPa) = 0.02107409
#
# Stress axis : x y z
#
# Youngs Moduli (GPa) = 74.15411 61.88143 82.89074
#
# Poissons Ratio (x) = 0.35616 0.21041
# Poissons Ratio (y) = 0.42680 0.16775
# Poissons Ratio (z) = 0.18824 0.12523
#
# Static dielectric constant tensor:
#      x y z
#    x 4.080600 0.000000 0.000000 
#    y 0.000000 3.979150 0.000000 
#    z 0.000000 0.000000 4.016290 
# 
# 
# High freq. dielectric constant tensor:
#      x y z
#    x 1.864050 0.000000 0.000000 
#    y 0.000000 1.846600 0.000000 
#    z 0.000000 0.000000 1.861850 
# 
# From -- ./inp_files/16606.got.cif
#   From: 2010.03.12/outbox.cif.g09.slc.cpg/sg51_9_cif.got.tgz:16606.got - 2010.04.16 13:43:02.
