data_PCOD8214324
_publ_section_title
;
Structure prediction by ZEFSAII (Michael W. Deem and Ramdas Pophale) SiO2 
 PCOD8214324
Probable space group: P M M A
;
_chemical_formula_sum "Si O2"
_cell_formula_units_Z 64
_cell_length_a 23.427992
_cell_length_b 8.884336
_cell_length_c 15.297597
_cell_angle_alpha 90.000000
_cell_angle_beta 90.000000
_cell_angle_gamma 90.000000
_cell_volume 3184.074771
_symmetry_space_group_name_H-M "P M M A"
_symmetry_group_IT_number 51
_symmetry_cell_setting 'orthorhombic'
loop_
_space_group_symop_operation_xyz
x,y,z
1/2-x,-y,z
1/2+x,-y,-z
-x,y,-z
-x,-y,-z
1/2+x,y,-z
1/2-x,y,z
x,-y,z
loop_
_atom_site_type_symbol
_atom_site_label
_atom_site_fract_x
_atom_site_fract_y
_atom_site_fract_z
Si Si1 0.380164 0.677150 0.411762
Si Si2 0.315476 0.174350 0.256999
Si Si3 0.497979 0.674941 0.839020
Si Si4 0.107604 0.176978 0.092230
Si Si5 0.617747 0.173653 0.410938
Si Si6 0.125232 0.325694 0.917090
Si Si7 0.993144 0.173718 0.653642
Si Si8 0.183701 0.172875 0.759143
O O1 0.382080 0.500000 0.411568
O O2 0.335229 0.730539 0.339848
O O3 0.359386 0.733938 0.506336
O O4 0.443160 0.737542 0.393364
O O5 0.250000 0.211830 0.236043
O O6 0.352274 0.221288 0.173136
O O7 0.324426 0.000000 0.279548
O O8 0.507081 0.500000 0.817233
O O9 0.548445 0.733168 0.900729
O O10 0.439490 0.704862 0.888983
O O11 0.496927 0.768805 0.750749
O O12 0.095657 0.000000 0.088765
O O13 0.138749 0.230444 0.003994
O O14 0.549990 0.196560 0.402605
O O15 0.648918 0.235020 0.324257
O O16 0.633615 0.000000 0.425570
O O17 0.136464 0.500000 0.936331
O O18 0.168461 0.272435 0.842553
O O19 0.975120 0.000000 0.659191
O O20 0.250000 0.189699 0.737934
O O21 0.166609 0.000000 0.778064
#
# Coordination Sequence:
#
# PCOD8214324 Si02
#       8
#     8   8   8   8   8   8   8   8
#     4  12  25  39  61  93 128 161 198 248 309 370
#     4  10  23  44  66  87 116 158 208 258 304 355
#     4  11  22  37  60  91 127 163 197 245 310 368
#     4  11  23  39  64  93 122 161 207 252 302 361
#     4  10  22  40  63  91 123 161 207 253 301 361
#     4  11  24  40  61  91 129 165 199 246 308 369
#     4  11  21  37  63  91 122 161 204 249 300 362
#     4  10  22  42  66  90 118 158 210 260 303 354
#
# _framework density 20.100031000000001
#
# number of rings (size 3 to 8) (size 9 to 14) (size 15 to 20)
#    0.000    1.250    2.500    3.375    0.000    8.000 
#    0.000    2.500    0.000    0.000    0.000    0.000 
#    0.000    0.000    0.000    0.000    0.000    0.000 
#
# Total GULP energy -794054.431549 kJ/mol
# GULP energy per Si atom -12407.100493 kJ/mol
# Density = 2.005428 g / cm^3
# Si number density = 20.100031 Si / 1000 Ang^3
#
#
#
# Elastic Constant Matrix: (Units=GPa)
#
#
# Indices 1 2 3 4 5 6 
#
# 1 73.8727 32.8705 18.4416 0.0000 0.0000 0.0000
# 2 32.8705 65.2838 42.5009 0.0000 0.0000 0.0000
# 3 18.4416 42.5009 123.6581 0.0000 0.0000 0.0000
# 4 0.0000 0.0000 0.0000 17.0687 0.0000 0.0000
# 5 0.0000 0.0000 0.0000 0.0000 13.9662 0.0000
# 6 0.0000 0.0000 0.0000 0.0000 0.0000 22.6668
#
#
#
# Elastic Compliance Matrix: (Units=1/GPa)
#
#
# Indices 1 2 3 4 5 6 
#
# 1 0.017473 -0.009148 0.000538 0.000000 0.000000 0.000000
# 2 -0.009148 0.024523 -0.007064 0.000000 0.000000 0.000000
# 3 0.000538 -0.007064 0.010434 0.000000 0.000000 0.000000
# 4 0.000000 0.000000 0.000000 0.058587 0.000000 0.000000
# 5 0.000000 0.000000 0.000000 0.000000 0.071601 0.000000
# 6 0.000000 0.000000 0.000000 0.000000 0.000000 0.044117
#
#
# Mechanical properties :
#
#
# Convention : Reuss Voigt Hill
#
# Bulk Modulus (GPa) = 47.43299 50.04896 48.74097
# Shear Modulus (GPa) = 18.86004 22.00712 20.43358
#
# Velocity S-wave (km/s) = 3.06651 3.31249 3.19187
# Velocity P-wave (km/s) = 6.01562 6.29159 6.15515
#
# Compressibility (1/GPa) = 0.02108237
#
# Stress axis : x y z
#
# Youngs Moduli (GPa) = 57.23117 40.77858 95.83673
#
# Poissons Ratio (x) = 0.37305 -0.05160
# Poissons Ratio (y) = 0.52356 0.67700
# Poissons Ratio (z) = -0.03081 0.28806
#
# Static dielectric constant tensor:
#      x y z
#    x 3.657860 0.000000 0.000000 
#    y 0.000000 3.722070 0.000000 
#    z 0.000000 0.000000 3.764010 
# 
# 
# High freq. dielectric constant tensor:
#      x y z
#    x 1.781030 0.000000 0.000000 
#    y 0.000000 1.785380 0.000000 
#    z 0.000000 0.000000 1.798980 
# 
# From -- ./inp_files/26239.got.cif
#   From: 2010.03.12/outbox.cif.g09.slc.cpg/sg51_14_cif.got.tgz:26239.got - 2010.04.16 13:43:02.
