data_PCOD8214929
_publ_section_title
;
Structure prediction by ZEFSAII (Michael W. Deem and Ramdas Pophale) SiO2 
 PCOD8214929
Probable space group: P N N A
;
_chemical_formula_sum "Si O2"
_cell_formula_units_Z 48
_cell_length_a 5.178273
_cell_length_b 19.992525
_cell_length_c 34.040440
_cell_angle_alpha 90.000000
_cell_angle_beta 90.000000
_cell_angle_gamma 90.000000
_cell_volume 3524.096204
_symmetry_space_group_name_H-M "P N N A"
_symmetry_group_IT_number 52
_symmetry_cell_setting 'orthorhombic'
loop_
_space_group_symop_operation_xyz
x,y,z
1/2-x,-y,z
x,1/2-y,1/2-z
1/2-x,1/2+y,1/2-z
-x,-y,-z
1/2+x,y,-z
-x,1/2+y,1/2+z
1/2+x,1/2-y,1/2+z
loop_
_atom_site_type_symbol
_atom_site_label
_atom_site_fract_x
_atom_site_fract_y
_atom_site_fract_z
Si Si1 0.500712 0.041738 0.602975
Si Si2 0.672508 0.149251 0.225574
Si Si3 0.833169 0.641898 0.829701
Si Si4 0.178451 0.077121 0.244667
Si Si5 0.973094 0.424996 0.016915
Si Si6 0.674304 0.285663 0.189370
O O1 0.613065 0.090687 0.635609
O O2 0.411888 0.078804 0.563315
O O3 0.750000 0.000000 0.590033
O O4 0.250000 0.000000 0.619018
O O5 0.402100 0.112523 0.219991
O O6 0.676264 0.205011 0.191293
O O7 0.677241 0.185324 0.267173
O O8 0.908961 0.096233 0.223299
O O9 0.829186 0.599953 0.789693
O O10 0.566760 0.683223 0.834749
O O11 0.061923 0.695292 0.831934
O O12 0.250000 0.000000 0.243693
O O13 0.738012 0.387394 0.994614
O O14 0.000000 0.500000 0.000000
#
# Coordination Sequence:
#
# PCOD8214929 Si02
#       6
#     8   8   8   8   8   8
#     4  12  20  28  41  56  76  99 125 154 210 246
#     4   9  17  28  45  53  67 101 122 153 183 227
#     4  10  20  28  39  56  77  98 117 161 199 238
#     4  10  18  28  39  58  79  93 118 152 201 241
#     4  10  16  29  41  53  68  95 129 161 178 230
#     4   9  17  31  41  54  70  92 134 150 181 232
#
# _framework density 13.620513000000001
#
# number of rings (size 3 to 8) (size 9 to 14) (size 15 to 20)
#    0.000    2.000    3.333    3.000    0.000    6.667 
#    0.000    0.000    0.000    0.000    0.000    0.000 
#    0.000    0.000    0.000    0.000    0.000    0.000 
#
# Total GULP energy -594784.019755 kJ/mol
# GULP energy per Si atom -12391.333745 kJ/mol
# Density = 1.358951 g / cm^3
# Si number density = 13.620513 Si / 1000 Ang^3
#
#
#
# Elastic Constant Matrix: (Units=GPa)
#
#
# Indices 1 2 3 4 5 6 
#
# 1 120.5822 34.5118 25.6744 0.0000 0.0000 0.0000
# 2 34.5118 61.6594 28.0926 0.0000 0.0000 0.0000
# 3 25.6744 28.0926 37.4289 0.0000 0.0000 0.0000
# 4 0.0000 0.0000 0.0000 3.8329 0.0000 0.0000
# 5 0.0000 0.0000 0.0000 0.0000 14.5072 0.0000
# 6 0.0000 0.0000 0.0000 0.0000 0.0000 21.0180
#
#
#
# Elastic Compliance Matrix: (Units=1/GPa)
#
#
# Indices 1 2 3 4 5 6 
#
# 1 0.010283 -0.003863 -0.004154 0.000000 0.000000 0.000000
# 2 -0.003863 0.026097 -0.016938 0.000000 0.000000 0.000000
# 3 -0.004154 -0.016938 0.042280 0.000000 0.000000 0.000000
# 4 0.000000 0.000000 0.000000 0.260896 0.000000 0.000000
# 5 0.000000 0.000000 0.000000 0.000000 0.068931 0.000000
# 6 0.000000 0.000000 0.000000 0.000000 0.000000 0.047578
#
#
# Mechanical properties :
#
#
# Convention : Reuss Voigt Hill
#
# Bulk Modulus (GPa) = 34.78248 44.02533 39.40390
# Shear Modulus (GPa) = 9.69819 16.63107 13.16463
#
# Velocity S-wave (km/s) = 2.67128 3.49812 3.11228
# Velocity P-wave (km/s) = 5.92508 6.97916 6.47361
#
# Compressibility (1/GPa) = 0.02875011
#
# Stress axis : x y z
#
# Youngs Moduli (GPa) = 97.24537 38.31821 23.65190
#
# Poissons Ratio (x) = 0.14802 0.09826
# Poissons Ratio (y) = 0.37565 0.40061
# Poissons Ratio (z) = 0.40400 0.64903
#
# Static dielectric constant tensor:
#      x y z
#    x -3.111530 0.000000 0.000000 
#    y 0.000000 2.544510 0.000000 
#    z 0.000000 0.000000 2.437050 
# 
# 
# High freq. dielectric constant tensor:
#      x y z
#    x 1.553130 0.000000 0.000000 
#    y 0.000000 1.481050 0.000000 
#    z 0.000000 0.000000 1.473610 
# 
# From -- ./inp_files/43828.got.cif
#   From: 2010.06.25/outbox.cif.g09.slc.cpg/sg52_22_cif.got.tgz:43828.got - 2010.06.26 19:32:48.
