data_PCOD8214666
_publ_section_title
;
Structure prediction by ZEFSAII (Michael W. Deem and Ramdas Pophale) SiO2 
 PCOD8214666
Probable space group: P M M A
;
_chemical_formula_sum "Si O2"
_cell_formula_units_Z 56
_cell_length_a 20.831334
_cell_length_b 14.407928
_cell_length_c 9.193361
_cell_angle_alpha 90.000000
_cell_angle_beta 90.000000
_cell_angle_gamma 90.000000
_cell_volume 2759.261911
_symmetry_space_group_name_H-M "P M M A"
_symmetry_group_IT_number 51
_symmetry_cell_setting 'orthorhombic'
loop_
_space_group_symop_operation_xyz
x,y,z
1/2-x,-y,z
1/2+x,-y,-z
-x,y,-z
-x,-y,-z
1/2+x,y,-z
1/2-x,y,z
x,-y,z
loop_
_atom_site_type_symbol
_atom_site_label
_atom_site_fract_x
_atom_site_fract_y
_atom_site_fract_z
Si Si1 0.500001 0.609012 0.156902
Si Si2 0.179060 0.223528 0.667172
Si Si3 0.320940 0.776472 0.332826
Si Si4 0.638615 0.394609 0.826095
Si Si5 0.927662 0.891604 0.167910
Si Si6 0.572338 0.108396 0.832091
Si Si7 0.638614 0.605391 0.173910
O O1 0.500011 0.500000 0.128733
O O2 0.432914 0.633770 0.235312
O O3 0.567087 0.633781 0.235314
O O4 0.500000 0.659690 0.000000
O O5 0.250000 0.177453 0.682068
O O6 0.161085 0.239812 0.499999
O O7 0.125234 0.158766 0.736127
O O8 0.185214 0.322996 0.747496
O O9 0.250000 0.822546 0.317928
O O10 0.314788 0.677005 0.252500
O O11 0.374767 0.841234 0.263873
O O12 0.656999 0.500000 0.782564
O O13 0.641749 0.383766 0.000002
O O14 1.000000 0.855739 0.204703
O O15 0.923572 0.000000 0.202539
O O16 0.911938 0.871913 0.000000
O O17 0.576428 0.000000 0.797462
O O18 0.656996 0.500000 0.217444
#
# Coordination Sequence:
#
# PCOD8214666 Si02
#       7
#     8   8   8   8   8   8   8
#     4   7  12  26  49  77 104 131 172 231 291 334
#     4  11  25  40  54  81 123 165 198 232 283 345
#     4  11  25  40  54  81 123 165 198 232 283 345
#     4   9  18  34  57  83 112 150 198 248 293 338
#     4   9  20  41  68  94 116 142 184 240 297 349
#     4   9  20  41  68  94 116 142 184 240 297 349
#     4   9  18  34  57  83 112 150 198 248 293 338
#
# _framework density 20.295283000000001
#
# number of rings (size 3 to 8) (size 9 to 14) (size 15 to 20)
#    0.000    2.714    0.000    3.429    2.000    5.143 
#    0.000    7.143    0.000    2.571    0.000    0.000 
#    0.000    0.000    0.000    0.000    0.000    0.000 
#
# Total GULP energy -693823.495208 kJ/mol
# GULP energy per Si atom -12389.705272 kJ/mol
# Density = 2.024909 g / cm^3
# Si number density = 20.295283 Si / 1000 Ang^3
#
#
#
# Elastic Constant Matrix: (Units=GPa)
#
#
# Indices 1 2 3 4 5 6 
#
# 1 126.7060 50.6655 62.0570 0.0000 0.0000 0.0000
# 2 50.6655 67.2189 50.6619 0.0000 0.0000 0.0000
# 3 62.0570 50.6619 93.2223 0.0000 0.0000 0.0000
# 4 0.0000 0.0000 0.0000 -10.6399 0.0000 0.0000
# 5 0.0000 0.0000 0.0000 0.0000 60.1413 0.0000
# 6 0.0000 0.0000 0.0000 0.0000 0.0000 23.1006
#
#
#
# Elastic Compliance Matrix: (Units=1/GPa)
#
#
# Indices 1 2 3 4 5 6 
#
# 1 0.012794 -0.005461 -0.005549 0.000000 0.000000 0.000000
# 2 -0.005461 0.027528 -0.011325 0.000000 0.000000 0.000000
# 3 -0.005549 -0.011325 0.020575 0.000000 0.000000 0.000000
# 4 0.000000 0.000000 0.000000 -0.093986 0.000000 0.000000
# 5 0.000000 0.000000 0.000000 0.000000 0.016628 0.000000
# 6 0.000000 0.000000 0.000000 0.000000 0.000000 0.043289
#
#
# Mechanical properties :
#
#
# Convention : Reuss Voigt Hill
#
# Bulk Modulus (GPa) = 61.62261 68.21289 64.91775
# Shear Modulus (GPa) = 65.01394 22.77126 43.89260
#
# Velocity S-wave (km/s) = 5.66600 3.35326 4.65553
# Velocity P-wave (km/s) = 8.55767 6.97679 7.80735
#
# Compressibility (1/GPa) = 0.01622781
#
# Stress axis : x y z
#
# Youngs Moduli (GPa) = 78.16424 36.32604 48.60173
#
# Poissons Ratio (x) = 0.19838 0.26968
# Poissons Ratio (y) = 0.42686 0.55042
# Poissons Ratio (z) = 0.43371 0.41139
#
# Static dielectric constant tensor:
#      x y z
#    x 4.033860 0.000000 0.000000 
#    y 0.000000 3.615900 0.000000 
#    z 0.000000 0.000000 3.348090 
# 
# 
# High freq. dielectric constant tensor:
#      x y z
#    x 1.806290 0.000000 0.000000 
#    y 0.000000 1.790290 0.000000 
#    z 0.000000 0.000000 1.757790 
# 
# From -- ./inp_files/10970.got.cif
#   From: 2010.03.12/outbox.cif.g09.slc.cpg/sg51_6_cif.got.tgz:10970.got - 2010.04.16 13:43:02.
