data_PCOD8214650
_publ_section_title
;
Structure prediction by ZEFSAII (Michael W. Deem and Ramdas Pophale) SiO2 
 PCOD8214650
Probable space group: P M M A
;
_chemical_formula_sum "Si O2"
_cell_formula_units_Z 48
_cell_length_a 10.309676
_cell_length_b 15.983391
_cell_length_c 13.024667
_cell_angle_alpha 90.000000
_cell_angle_beta 90.000000
_cell_angle_gamma 90.000000
_cell_volume 2146.251290
_symmetry_space_group_name_H-M "P M M A"
_symmetry_group_IT_number 51
_symmetry_cell_setting 'orthorhombic'
loop_
_space_group_symop_operation_xyz
x,y,z
1/2-x,-y,z
1/2+x,-y,-z
-x,y,-z
-x,-y,-z
1/2+x,y,-z
1/2-x,y,z
x,-y,z
loop_
_atom_site_type_symbol
_atom_site_label
_atom_site_fract_x
_atom_site_fract_y
_atom_site_fract_z
Si Si1 0.600864 0.500000 0.404241
Si Si2 0.892030 0.264996 0.075196
Si Si3 0.105000 0.092398 0.836380
Si Si4 0.105000 0.092398 0.336380
Si Si5 0.892030 0.264996 0.575196
Si Si6 0.500000 0.634186 0.250000
Si Si7 0.899136 0.500000 0.904241
O O1 0.750000 0.500000 0.445672
O O2 0.500000 0.500000 0.500000
O O3 0.580142 0.580016 0.331738
O O4 0.750000 0.286846 0.030362
O O5 0.910500 0.164610 0.078969
O O6 0.902048 0.306044 0.187667
O O7 0.000000 0.303866 0.000000
O O8 0.250000 0.098280 0.788055
O O9 1.000000 0.109144 0.750000
O O10 0.084237 0.000000 0.886192
O O11 0.250000 0.098280 0.288055
O O12 0.089500 0.164610 0.421031
O O13 0.084237 0.000000 0.386193
O O14 0.750000 0.286846 0.530362
O O15 0.902048 0.306044 0.687667
O O16 0.000000 0.303866 0.500000
O O17 0.419858 0.580016 0.168262
O O18 0.750000 0.500000 0.945672
O O19 0.000000 0.500000 0.000000
#
# Coordination Sequence:
#
# PCOD8214650 Si02
#       7
#     4   8   8   8   8   8   4
#     4  11  26  46  71  99 127 159 203 253 312 380
#     4  11  24  40  62  94 129 168 213 260 311 368
#     4   9  18  35  59  87 122 166 214 260 308 362
#     4   9  18  35  59  87 122 166 214 260 308 362
#     4  11  24  40  62  94 129 168 213 260 311 368
#     4  11  24  44  69  94 126 166 205 256 310 369
#     4  11  26  46  71  99 127 159 203 253 312 380
#
# _framework density 22.364577000000001
#
# number of rings (size 3 to 8) (size 9 to 14) (size 15 to 20)
#    0.000    1.667    1.667    2.000    0.000   11.333 
#    0.000    0.000    0.000    0.000    0.000    0.000 
#    0.000    0.000    0.000    0.000    0.000    0.000 
#
# Total GULP energy -594919.312195 kJ/mol
# GULP energy per Si atom -12394.152337 kJ/mol
# Density = 2.231367 g / cm^3
# Si number density = 22.364577 Si / 1000 Ang^3
#
#
#
# Elastic Constant Matrix: (Units=GPa)
#
#
# Indices 1 2 3 4 5 6 
#
# 1 184.6350 36.8811 73.9133 0.0000 0.0000 0.0000
# 2 36.8811 104.3772 40.8425 0.0000 0.0000 0.0000
# 3 73.9133 40.8425 105.5314 0.0000 0.0000 0.0000
# 4 0.0000 0.0000 0.0000 23.0564 0.0000 0.0000
# 5 0.0000 0.0000 0.0000 0.0000 37.9800 0.0000
# 6 0.0000 0.0000 0.0000 0.0000 0.0000 0.2353
#
#
#
# Elastic Compliance Matrix: (Units=1/GPa)
#
#
# Indices 1 2 3 4 5 6 
#
# 1 0.007570 -0.000707 -0.005028 0.000000 0.000000 0.000000
# 2 -0.000707 0.011357 -0.003900 0.000000 0.000000 0.000000
# 3 -0.005028 -0.003900 0.014507 0.000000 0.000000 0.000000
# 4 0.000000 0.000000 0.000000 0.043372 0.000000 0.000000
# 5 0.000000 0.000000 0.000000 0.000000 0.026330 0.000000
# 6 0.000000 0.000000 0.000000 0.000000 0.000000 4.250178
#
#
# Mechanical properties :
#
#
# Convention : Reuss Voigt Hill
#
# Bulk Modulus (GPa) = 70.60754 77.53526 74.07140
# Shear Modulus (GPa) = 1.14226 28.44811 14.79518
#
# Velocity S-wave (km/s) = 0.71544 3.57040 2.57484
# Velocity P-wave (km/s) = 5.68526 7.19313 6.48318
#
# Compressibility (1/GPa) = 0.01416279
#
# Stress axis : x y z
#
# Youngs Moduli (GPa) = 132.09359 88.05505 68.93206
#
# Poissons Ratio (x) = 0.06228 0.34662
# Poissons Ratio (y) = 0.09343 0.26882
# Poissons Ratio (z) = 0.66423 0.34339
#
# Static dielectric constant tensor:
#      x y z
#    x 4.035450 0.000000 0.000000 
#    y 0.000000 4.421520 0.000000 
#    z 0.000000 0.000000 3.579690 
# 
# 
# High freq. dielectric constant tensor:
#      x y z
#    x 1.888920 0.000000 0.000000 
#    y 0.000000 1.908510 0.000000 
#    z 0.000000 0.000000 1.843650 
# 
# From -- ./inp_files/21181.got.cif
#   From: 2010.03.12/outbox.cif.g09.slc.cpg/sg51_11_cif.got.tgz:21181.got - 2010.04.16 13:43:02.
