data_PCOD8214346
_publ_section_title
;
Structure prediction by ZEFSAII (Michael W. Deem and Ramdas Pophale) SiO2 
 PCOD8214346
Probable space group: P M M A
;
_chemical_formula_sum "Si O2"
_cell_formula_units_Z 40
_cell_length_a 15.618642
_cell_length_b 9.229460
_cell_length_c 14.243634
_cell_angle_alpha 90.000000
_cell_angle_beta 90.000000
_cell_angle_gamma 90.000000
_cell_volume 2053.243081
_symmetry_space_group_name_H-M "P M M A"
_symmetry_group_IT_number 51
_symmetry_cell_setting 'orthorhombic'
loop_
_space_group_symop_operation_xyz
x,y,z
1/2-x,-y,z
1/2+x,-y,-z
-x,y,-z
-x,-y,-z
1/2+x,y,-z
1/2-x,y,z
x,-y,z
loop_
_atom_site_type_symbol
_atom_site_label
_atom_site_fract_x
_atom_site_fract_y
_atom_site_fract_z
Si Si1 0.392188 0.666678 0.600788
Si Si2 0.909718 0.665797 0.613928
Si Si3 0.250000 0.670394 0.912530
Si Si4 0.591438 0.332124 0.957382
Si Si5 0.152108 0.836166 0.215277
Si Si6 0.250000 0.827121 0.714913
O O1 0.366157 0.500000 0.620546
O O2 0.380405 0.703307 0.491294
O O3 0.489900 0.693713 0.629456
O O4 0.334290 0.773307 0.661283
O O5 0.887591 0.500000 0.636828
O O6 0.856446 0.767351 0.682275
O O7 0.250000 0.500000 0.887506
O O8 0.250000 0.764042 0.819052
O O9 0.165849 0.714586 0.970999
O O10 0.600439 0.500000 0.932449
O O11 0.595343 0.247245 0.860124
O O12 0.500000 0.293732 0.000000
O O13 0.250000 0.827209 0.182946
O O14 0.119229 0.000000 0.220312
O O15 0.250000 0.000000 0.718968
#
# Coordination Sequence:
#
# PCOD8214346 Si02
#       6
#     8   8   4   8   8   4
#     4   9  20  41  63  87 116 153 203 252 291 337
#     4   9  20  39  65  89 114 152 202 252 293 341
#     4  10  22  42  63  86 119 154 197 256 298 340
#     4  10  22  41  66  91 113 149 203 253 297 349
#     4  11  24  39  58  89 127 159 189 236 299 364
#     4  12  26  38  57  88 125 162 195 234 292 360
#
# _framework density 19.481375
#
# number of rings (size 3 to 8) (size 9 to 14) (size 15 to 20)
#    0.000    2.000    1.000    2.700    4.200    4.000 
#    0.000    2.000    0.000    0.000    0.000    0.000 
#    0.000    0.000    0.000    0.000    0.000    0.000 
#
# Total GULP energy -496160.750000 kJ/mol
# GULP energy per Si atom -12404.018750 kJ/mol
# Density = 1.943703 g / cm^3
# Si number density = 19.481375 Si / 1000 Ang^3
#
#
#
# Elastic Constant Matrix: (Units=GPa)
#
#
# Indices 1 2 3 4 5 6 
#
# 1 88.6463 38.2465 41.9477 0.0000 0.0000 0.0000
# 2 38.2465 93.2124 64.2614 0.0000 0.0000 0.0000
# 3 41.9477 64.2614 116.7780 0.0000 0.0000 0.0000
# 4 0.0000 0.0000 0.0000 -2.1255 0.0000 0.0000
# 5 0.0000 0.0000 0.0000 0.0000 25.0178 0.0000
# 6 0.0000 0.0000 0.0000 0.0000 0.0000 23.6053
#
#
#
# Elastic Compliance Matrix: (Units=1/GPa)
#
#
# Indices 1 2 3 4 5 6 
#
# 1 0.014367 -0.003766 -0.003089 0.000000 0.000000 0.000000
# 2 -0.003766 0.018273 -0.008703 0.000000 0.000000 0.000000
# 3 -0.003089 -0.008703 0.014462 0.000000 0.000000 0.000000
# 4 0.000000 0.000000 0.000000 -0.470476 0.000000 0.000000
# 5 0.000000 0.000000 0.000000 0.000000 0.039972 0.000000
# 6 0.000000 0.000000 0.000000 0.000000 0.000000 0.042363
#
#
# Mechanical properties :
#
#
# Convention : Reuss Voigt Hill
#
# Bulk Modulus (GPa) = 62.54791 65.28311 63.91551
# Shear Modulus (GPa) = -16.41518 19.57825 1.58153
#
# Velocity S-wave (km/s) = -2.90592 3.17357 0.90199
# Velocity P-wave (km/s) = 4.57352 6.85653 5.82791
#
# Compressibility (1/GPa) = 0.01598774
#
# Stress axis : x y z
#
# Youngs Moduli (GPa) = 69.60384 54.72531 69.14829
#
# Poissons Ratio (x) = 0.20608 0.21356
# Poissons Ratio (y) = 0.26211 0.60178
# Poissons Ratio (z) = 0.21497 0.47626
#
# Static dielectric constant tensor:
#      x y z
#    x 3.564550 0.000000 0.000000 
#    y 0.000000 3.450850 0.000000 
#    z 0.000000 0.000000 3.488340 
# 
# 
# High freq. dielectric constant tensor:
#      x y z
#    x 1.765640 0.000000 0.000000 
#    y 0.000000 1.748730 0.000000 
#    z 0.000000 0.000000 1.767210 
# 
# From -- ./inp_files/23790.got.cif
#   From: 2010.03.12/outbox.cif.g09.slc.cpg/sg51_12_cif.got.tgz:23790.got - 2010.04.16 13:43:02.
