data_PCOD8214622
_publ_section_title
;
Structure prediction by ZEFSAII (Michael W. Deem and Ramdas Pophale) SiO2 
 PCOD8214622
Probable space group: P M M A
;
_chemical_formula_sum "Si O2"
_cell_formula_units_Z 32
_cell_length_a 13.094747
_cell_length_b 8.793418
_cell_length_c 13.504620
_cell_angle_alpha 90.000000
_cell_angle_beta 90.000000
_cell_angle_gamma 90.000000
_cell_volume 1555.024366
_symmetry_space_group_name_H-M "P M M A"
_symmetry_group_IT_number 51
_symmetry_cell_setting 'orthorhombic'
loop_
_space_group_symop_operation_xyz
x,y,z
1/2-x,-y,z
1/2+x,-y,-z
-x,y,-z
-x,-y,-z
1/2+x,y,-z
1/2-x,y,z
x,-y,z
loop_
_atom_site_type_symbol
_atom_site_label
_atom_site_fract_x
_atom_site_fract_y
_atom_site_fract_z
Si Si1 0.750000 0.678734 0.393134
Si Si2 0.133420 0.678785 0.250393
Si Si3 0.962480 0.175929 0.110680
Si Si4 0.890930 0.834425 0.540209
Si Si5 0.250000 0.319204 0.831282
O O1 0.750000 0.500000 0.393635
O O2 0.847248 0.740346 0.449342
O O3 0.750000 0.739004 0.281277
O O4 0.250000 0.715580 0.215376
O O5 0.113128 0.500000 0.248558
O O6 0.117922 0.735867 0.361464
O O7 0.049716 0.756652 0.181292
O O8 0.852947 0.257243 0.118360
O O9 0.948492 0.000000 0.138247
O O10 0.000000 0.199992 0.000000
O O11 0.000000 0.868171 0.500000
O O12 0.838305 0.000000 0.558025
O O13 0.250000 0.500000 0.841109
#
# Coordination Sequence:
#
# PCOD8214622 Si02
#       5
#     4   8   8   8   4
#     4  11  23  39  60  91 128 169 211 258 316 379
#     4  11  24  42  66  99 135 175 222 273 329 391
#     4  11  26  46  70  99 132 173 220 274 335 396
#     4  11  23  38  61  93 129 172 217 264 317 380
#     4  11  25  45  70  99 134 173 219 276 332 393
#
# _framework density 20.578455000000002
#
# number of rings (size 3 to 8) (size 9 to 14) (size 15 to 20)
#    0.000    1.000    1.250    4.500    1.750   11.500 
#    0.000    0.000    0.000    0.000    0.000    0.000 
#    0.000    0.000    0.000    0.000    0.000    0.000 
#
# Total GULP energy -396646.697375 kJ/mol
# GULP energy per Si atom -12395.209293 kJ/mol
# Density = 2.053162 g / cm^3
# Si number density = 20.578455 Si / 1000 Ang^3
#
#
#
# Elastic Constant Matrix: (Units=GPa)
#
#
# Indices 1 2 3 4 5 6 
#
# 1 166.8814 63.9609 62.8056 0.0000 0.0000 0.0000
# 2 63.9609 110.7304 67.7632 0.0000 0.0000 0.0000
# 3 62.8056 67.7632 109.7484 0.0000 0.0000 0.0000
# 4 0.0000 0.0000 0.0000 36.7341 0.0000 0.0000
# 5 0.0000 0.0000 0.0000 0.0000 38.1268 0.0000
# 6 0.0000 0.0000 0.0000 0.0000 0.0000 40.2547
#
#
#
# Elastic Compliance Matrix: (Units=1/GPa)
#
#
# Indices 1 2 3 4 5 6 
#
# 1 0.008215 -0.003003 -0.002847 0.000000 0.000000 0.000000
# 2 -0.003003 0.015613 -0.007922 0.000000 0.000000 0.000000
# 3 -0.002847 -0.007922 0.015632 0.000000 0.000000 0.000000
# 4 0.000000 0.000000 0.000000 0.027223 0.000000 0.000000
# 5 0.000000 0.000000 0.000000 0.000000 0.026228 0.000000
# 6 0.000000 0.000000 0.000000 0.000000 0.000000 0.024842
#
#
# Mechanical properties :
#
#
# Convention : Reuss Voigt Hill
#
# Bulk Modulus (GPa) = 83.91384 86.26885 85.09135
# Shear Modulus (GPa) = 33.49663 35.87848 34.68756
#
# Velocity S-wave (km/s) = 4.03892 4.18005 4.11009
# Velocity P-wave (km/s) = 7.91306 8.08146 7.99770
#
# Compressibility (1/GPa) = 0.01191699
#
# Stress axis : x y z
#
# Youngs Moduli (GPa) = 121.73468 64.04756 63.96998
#
# Poissons Ratio (x) = 0.19232 0.18212
# Poissons Ratio (y) = 0.36554 0.50677
# Poissons Ratio (z) = 0.34657 0.50738
#
# Static dielectric constant tensor:
#      x y z
#    x 4.052250 0.000000 0.000000 
#    y 0.000000 3.974410 0.000000 
#    z 0.000000 0.000000 3.832570 
# 
# 
# High freq. dielectric constant tensor:
#      x y z
#    x 1.828550 0.000000 0.000000 
#    y 0.000000 1.826000 0.000000 
#    z 0.000000 0.000000 1.809750 
# 
# From -- ./inp_files/15944.got.cif
#   From: 2010.03.12/outbox.cif.g09.slc.cpg/sg51_8_cif.got.tgz:15944.got - 2010.04.16 13:43:02.
