data_PCOD8214756
_publ_section_title
;
Structure prediction by ZEFSAII (Michael W. Deem and Ramdas Pophale) SiO2 
 PCOD8214756
Probable space group: P M M A
;
_chemical_formula_sum "Si O2"
_cell_formula_units_Z 48
_cell_length_a 9.201223
_cell_length_b 9.740702
_cell_length_c 31.276721
_cell_angle_alpha 90.000000
_cell_angle_beta 90.000000
_cell_angle_gamma 90.000000
_cell_volume 2803.219009
_symmetry_space_group_name_H-M "P M M A"
_symmetry_group_IT_number 51
_symmetry_cell_setting 'orthorhombic'
loop_
_space_group_symop_operation_xyz
x,y,z
1/2-x,-y,z
1/2+x,-y,-z
-x,y,-z
-x,-y,-z
1/2+x,y,-z
1/2-x,y,z
x,-y,z
loop_
_atom_site_type_symbol
_atom_site_label
_atom_site_fract_x
_atom_site_fract_y
_atom_site_fract_z
Si Si1 0.914316 0.663329 0.376151
Si Si2 0.914781 0.663708 0.541489
Si Si3 0.913215 0.836193 0.041019
Si Si4 0.576956 0.152994 0.784644
Si Si5 0.079984 0.340880 0.292076
Si Si6 0.088178 0.163300 0.121614
O O1 0.750000 0.720740 0.377242
O O2 0.913643 0.500000 0.377757
O O3 0.002710 0.721244 0.416755
O O4 0.993788 0.714006 0.333276
O O5 0.750000 0.720218 0.540926
O O6 0.913358 0.500000 0.541835
O O7 0.000000 0.718801 0.500000
O O8 0.750000 0.779403 0.038454
O O9 0.985544 0.777582 0.084353
O O10 0.914877 0.000000 0.041397
O O11 0.000000 0.780126 0.000000
O O12 0.750000 0.149237 0.785296
O O13 0.520062 0.257062 0.748608
O O14 0.524760 0.204510 0.831604
O O15 0.516681 0.000000 0.774822
O O16 0.250000 0.314926 0.300292
O O17 0.047847 0.500000 0.283180
O O18 0.250000 0.224059 0.114874
O O19 0.096096 0.000000 0.119085
#
# Coordination Sequence:
#
# PCOD8214756 Si02
#       6
#     8   8   8   8   8   8
#     4   9  16  25  36  51  74 104 134 163 199 241
#     4   9  15  22  33  50  73 101 132 164 198 238
#     4   9  15  21  30  46  69  96 124 153 186 226
#     4   8  14  25  41  59  79 105 135 165 199 239
#     4   9  16  26  41  60  80 103 134 170 202 233
#     4   8  13  22  35  49  67  94 126 156 187 226
#
# _framework density 17.123170999999999
#
# number of rings (size 3 to 8) (size 9 to 14) (size 15 to 20)
#    0.000    3.333    0.000    2.500    0.000    6.000 
#    0.000    0.833    0.000    1.500    0.000    0.000 
#    0.000    1.333    0.000    3.000    0.000    5.000 
#
# Total GULP energy -594944.366422 kJ/mol
# GULP energy per Si atom -12394.674300 kJ/mol
# Density = 1.708420 g / cm^3
# Si number density = 17.123171 Si / 1000 Ang^3
#
#
#
# Elastic Constant Matrix: (Units=GPa)
#
#
# Indices 1 2 3 4 5 6 
#
# 1 117.6257 16.9524 86.9972 0.0000 0.0000 0.0000
# 2 16.9524 19.4516 33.2404 0.0000 0.0000 0.0000
# 3 86.9972 33.2404 199.8082 0.0000 0.0000 0.0000
# 4 0.0000 0.0000 0.0000 17.4413 0.0000 0.0000
# 5 0.0000 0.0000 0.0000 0.0000 31.9610 0.0000
# 6 0.0000 0.0000 0.0000 0.0000 0.0000 5.4004
#
#
#
# Elastic Compliance Matrix: (Units=1/GPa)
#
#
# Indices 1 2 3 4 5 6 
#
# 1 0.012610 -0.002246 -0.005117 0.000000 0.000000 0.000000
# 2 -0.002246 0.072230 -0.011039 0.000000 0.000000 0.000000
# 3 -0.005117 -0.011039 0.009069 0.000000 0.000000 0.000000
# 4 0.000000 0.000000 0.000000 0.057335 0.000000 0.000000
# 5 0.000000 0.000000 0.000000 0.000000 0.031288 0.000000
# 6 0.000000 0.000000 0.000000 0.000000 0.000000 0.185172
#
#
# Mechanical properties :
#
#
# Convention : Reuss Voigt Hill
#
# Bulk Modulus (GPa) = 17.51095 67.91838 42.71467
# Shear Modulus (GPa) = 11.80520 24.27357 18.03939
#
# Velocity S-wave (km/s) = 2.62855 3.76917 3.24930
# Velocity P-wave (km/s) = 4.41146 7.66113 6.25116
#
# Compressibility (1/GPa) = 0.05710712
#
# Stress axis : x y z
#
# Youngs Moduli (GPa) = 79.30524 13.84458 110.26580
#
# Poissons Ratio (x) = 0.03109 0.56419
# Poissons Ratio (y) = 0.17809 1.21718
# Poissons Ratio (z) = 0.40578 0.15282
#
# Static dielectric constant tensor:
#      x y z
#    x 3.228800 0.000000 0.000000 
#    y 0.000000 2.535860 0.000000 
#    z 0.000000 0.000000 3.586990 
# 
# 
# High freq. dielectric constant tensor:
#      x y z
#    x 1.652020 0.000000 0.000000 
#    y 0.000000 1.572310 0.000000 
#    z 0.000000 0.000000 1.682460 
# 
# From -- ./inp_files/34553.got.cif
#   From: 2010.03.12/outbox.cif.g09.slc.cpg/sg51_18_cif.got.tgz:34553.got - 2010.04.16 13:43:02.
