data_PCOD8214009
_publ_section_title
;
Structure prediction by ZEFSAII (Michael W. Deem and Ramdas Pophale) SiO2 
 PCOD8214009
Probable space group: P M M A
;
_chemical_formula_sum "Si O2"
_cell_formula_units_Z 64
_cell_length_a 9.107300
_cell_length_b 14.008804
_cell_length_c 25.816802
_cell_angle_alpha 90.000000
_cell_angle_beta 90.000000
_cell_angle_gamma 90.000000
_cell_volume 3293.769060
_symmetry_space_group_name_H-M "P M M A"
_symmetry_group_IT_number 51
_symmetry_cell_setting 'orthorhombic'
loop_
_space_group_symop_operation_xyz
x,y,z
1/2-x,-y,z
1/2+x,-y,-z
-x,y,-z
-x,-y,-z
1/2+x,y,-z
1/2-x,y,z
x,-y,z
loop_
_atom_site_type_symbol
_atom_site_label
_atom_site_fract_x
_atom_site_fract_y
_atom_site_fract_z
Si Si1 0.580508 0.606079 0.892092
Si Si2 0.424057 0.391221 0.678727
Si Si3 0.917220 0.886772 0.147498
Si Si4 0.580181 0.889159 0.750561
Si Si5 0.417328 0.113246 0.551011
Si Si6 0.089119 0.612663 0.793733
Si Si7 0.423072 0.786558 0.355716
Si Si8 0.578475 0.792239 0.947475
O O1 0.750000 0.598638 0.878863
O O2 0.518926 0.500000 0.906340
O O3 0.509112 0.652270 0.840531
O O4 0.550633 0.678737 0.939087
O O5 0.250000 0.376132 0.673676
O O6 0.465582 0.500000 0.664317
O O7 0.477283 0.365552 0.737145
O O8 0.511975 0.320691 0.640902
O O9 0.750000 0.850903 0.142137
O O10 0.983888 0.848162 0.201772
O O11 0.012525 0.851044 0.099666
O O12 0.926843 0.000000 0.147611
O O13 0.750000 0.873440 0.764668
O O14 0.534817 0.832477 0.699248
O O15 0.546129 0.000000 0.740287
O O16 0.500000 0.151652 0.500000
O O17 0.250000 0.150944 0.550475
O O18 0.502094 0.150657 0.600672
O O19 0.421403 0.000000 0.552936
O O20 0.250000 0.659169 0.799264
O O21 0.101316 0.500000 0.799755
O O22 0.250000 0.784561 0.365267
O O23 0.750000 0.815939 0.951864
O O24 0.500000 0.824422 0.000000
#
# Coordination Sequence:
#
# PCOD8214009 Si02
#       8
#     8   8   8   8   8   8   8   8
#     4   9  19  35  54  77 106 138 173 216 266 323
#     4   9  19  35  52  75 112 155 198 242 286 333
#     4  10  22  40  61  83 107 138 177 223 276 332
#     4   9  19  36  56  81 116 152 182 219 273 335
#     4  10  21  38  61  88 120 158 199 243 290 340
#     4   8  15  29  49  73 101 136 178 221 267 320
#     4  11  22  34  55  87 121 157 197 239 286 339
#     4  11  24  40  58  80 106 137 177 222 272 329
#
# _framework density 19.430627999999999
#
# number of rings (size 3 to 8) (size 9 to 14) (size 15 to 20)
#    0.000    2.375    0.000    2.625    1.750    5.250 
#    0.000    2.500    0.000    0.375    0.000    0.000 
#    0.000    0.000    0.000    0.000    0.000    0.000 
#
# Total GULP energy -793561.449156 kJ/mol
# GULP energy per Si atom -12399.397643 kJ/mol
# Density = 1.938640 g / cm^3
# Si number density = 19.430628 Si / 1000 Ang^3
#
#
#
# Elastic Constant Matrix: (Units=GPa)
#
#
# Indices 1 2 3 4 5 6 
#
# 1 105.6340 29.7865 61.8288 0.0000 0.0000 0.0000
# 2 29.7865 34.7029 25.7934 0.0000 0.0000 0.0000
# 3 61.8288 25.7934 103.0885 0.0000 0.0000 0.0000
# 4 0.0000 0.0000 0.0000 24.0240 0.0000 0.0000
# 5 0.0000 0.0000 0.0000 0.0000 37.4721 0.0000
# 6 0.0000 0.0000 0.0000 0.0000 0.0000 24.8410
#
#
#
# Elastic Compliance Matrix: (Units=1/GPa)
#
#
# Indices 1 2 3 4 5 6 
#
# 1 0.016314 -0.008268 -0.007716 0.000000 0.000000 0.000000
# 2 -0.008268 0.039589 -0.004947 0.000000 0.000000 0.000000
# 3 -0.007716 -0.004947 0.015566 0.000000 0.000000 0.000000
# 4 0.000000 0.000000 0.000000 0.041625 0.000000 0.000000
# 5 0.000000 0.000000 0.000000 0.000000 0.026687 0.000000
# 6 0.000000 0.000000 0.000000 0.000000 0.000000 0.040256
#
#
# Mechanical properties :
#
#
# Convention : Reuss Voigt Hill
#
# Bulk Modulus (GPa) = 33.77441 53.13808 43.45625
# Shear Modulus (GPa) = 21.57327 25.66851 23.62089
#
# Velocity S-wave (km/s) = 3.33569 3.63855 3.49040
# Velocity P-wave (km/s) = 5.67940 6.71260 6.21750
#
# Compressibility (1/GPa) = 0.02960821
#
# Stress axis : x y z
#
# Youngs Moduli (GPa) = 61.29576 25.25927 64.24297
#
# Poissons Ratio (x) = 0.20884 0.49570
# Poissons Ratio (y) = 0.50679 0.31779
# Poissons Ratio (z) = 0.47296 0.12495
#
# Static dielectric constant tensor:
#      x y z
#    x 3.675500 0.000000 0.000000 
#    y 0.000000 3.576440 0.000000 
#    z 0.000000 0.000000 3.459270 
# 
# 
# High freq. dielectric constant tensor:
#      x y z
#    x 1.759600 0.000000 0.000000 
#    y 0.000000 1.757000 0.000000 
#    z 0.000000 0.000000 1.741310 
# 
# From -- ./inp_files/34857.got.cif
#   From: 2010.03.12/outbox.cif.g09.slc.cpg/sg51_18_cif.got.tgz:34857.got - 2010.04.16 13:43:02.
