data_PCOD8214161
_publ_section_title
;
Structure prediction by ZEFSAII (Michael W. Deem and Ramdas Pophale) SiO2 
 PCOD8214161
Probable space group: P M M A
;
_chemical_formula_sum "Si O2"
_cell_formula_units_Z 48
_cell_length_a 30.446672
_cell_length_b 8.360946
_cell_length_c 9.588387
_cell_angle_alpha 90.000000
_cell_angle_beta 90.000000
_cell_angle_gamma 90.000000
_cell_volume 2440.848373
_symmetry_space_group_name_H-M "P M M A"
_symmetry_group_IT_number 51
_symmetry_cell_setting 'orthorhombic'
loop_
_space_group_symop_operation_xyz
x,y,z
1/2-x,-y,z
1/2+x,-y,-z
-x,y,-z
-x,-y,-z
1/2+x,y,-z
1/2-x,y,z
x,-y,z
loop_
_atom_site_type_symbol
_atom_site_label
_atom_site_fract_x
_atom_site_fract_y
_atom_site_fract_z
Si Si1 0.107116 0.185396 0.806792
Si Si2 0.429860 0.186513 0.283943
Si Si3 0.141440 0.687610 0.083469
Si Si4 0.128342 0.686025 0.517851
Si Si5 0.699760 0.813170 0.683722
Si Si6 0.988271 0.686138 0.154237
O O1 0.131430 0.216458 0.661160
O O2 0.062086 0.283719 0.810040
O O3 0.096544 0.000000 0.827338
O O4 0.139797 0.245572 0.927106
O O5 0.404682 0.276595 0.159147
O O6 0.414134 0.254452 0.432199
O O7 0.481570 0.218887 0.265273
O O8 0.418756 0.000000 0.276813
O O9 0.150130 0.500000 0.081627
O O10 0.181429 0.773731 0.162790
O O11 0.123288 0.500000 0.550797
O O12 0.172667 0.715607 0.431245
O O13 0.750000 0.757886 0.675194
O O14 0.694345 0.000000 0.653640
O O15 0.998888 0.500000 0.167906
O O16 0.000000 0.749481 0.000000
#
# Coordination Sequence:
#
# PCOD8214161 Si02
#       6
#     8   8   8   8   8   8
#     4  12  24  39  59  85 119 156 198 244 295 347
#     4  11  21  36  58  84 115 155 202 243 287 340
#     4  11  21  36  59  87 118 152 192 237 288 342
#     4  11  23  40  61  86 120 157 195 240 296 352
#     4  10  21  40  66  93 119 150 190 235 286 348
#     4  11  22  36  57  84 117 155 202 250 293 340
#
# _framework density 19.665292999999998
#
# number of rings (size 3 to 8) (size 9 to 14) (size 15 to 20)
#    0.000    1.000    1.667    9.000    0.000    2.667 
#    0.000    4.167    0.000    5.000    0.000    0.000 
#    0.000    0.000    0.000    0.000    0.000    0.000 
#
# Total GULP energy -595542.836118 kJ/mol
# GULP energy per Si atom -12407.142419 kJ/mol
# Density = 1.962053 g / cm^3
# Si number density = 19.665293 Si / 1000 Ang^3
#
#
#
# Elastic Constant Matrix: (Units=GPa)
#
#
# Indices 1 2 3 4 5 6 
#
# 1 95.6194 7.1081 33.2642 0.0000 0.0000 0.0000
# 2 7.1081 80.9277 7.1687 0.0000 0.0000 0.0000
# 3 33.2642 7.1687 113.7959 0.0000 0.0000 0.0000
# 4 0.0000 0.0000 0.0000 32.2150 0.0000 0.0000
# 5 0.0000 0.0000 0.0000 0.0000 18.7217 0.0000
# 6 0.0000 0.0000 0.0000 0.0000 0.0000 28.9605
#
#
#
# Elastic Compliance Matrix: (Units=1/GPa)
#
#
# Indices 1 2 3 4 5 6 
#
# 1 0.011684 -0.000728 -0.003370 0.000000 0.000000 0.000000
# 2 -0.000728 0.012471 -0.000573 0.000000 0.000000 0.000000
# 3 -0.003370 -0.000573 0.009809 0.000000 0.000000 0.000000
# 4 0.000000 0.000000 0.000000 0.031041 0.000000 0.000000
# 5 0.000000 0.000000 0.000000 0.000000 0.053414 0.000000
# 6 0.000000 0.000000 0.000000 0.000000 0.000000 0.034530
#
#
# Mechanical properties :
#
#
# Convention : Reuss Voigt Hill
#
# Bulk Modulus (GPa) = 40.61103 42.82499 41.71801
# Shear Modulus (GPa) = 29.32574 32.16622 30.74598
#
# Velocity S-wave (km/s) = 3.86585 4.04875 3.95836
# Velocity P-wave (km/s) = 6.37357 6.60914 6.49242
#
# Compressibility (1/GPa) = 0.02462385
#
# Stress axis : x y z
#
# Youngs Moduli (GPa) = 85.58358 80.18354 101.94964
#
# Poissons Ratio (x) = 0.05836 0.34354
# Poissons Ratio (y) = 0.06229 0.05841
# Poissons Ratio (z) = 0.28839 0.04594
#
# Static dielectric constant tensor:
#      x y z
#    x 3.423860 0.000000 0.000000 
#    y 0.000000 3.614160 0.000000 
#    z 0.000000 0.000000 3.636760 
# 
# 
# High freq. dielectric constant tensor:
#      x y z
#    x 1.748500 0.000000 0.000000 
#    y 0.000000 1.784540 0.000000 
#    z 0.000000 0.000000 1.765540 
# 
# From -- ./inp_files/12771.got.cif
#   From: 2010.03.12/outbox.cif.g09.slc.cpg/sg51_7_cif.got.tgz:12771.got - 2010.04.16 13:43:02.
