data_PCOD8214019
_publ_section_title
;
Structure prediction by ZEFSAII (Michael W. Deem and Ramdas Pophale) SiO2 
 PCOD8214019
Probable space group: P M M A
;
_chemical_formula_sum "Si O2"
_cell_formula_units_Z 40
_cell_length_a 17.970464
_cell_length_b 8.539193
_cell_length_c 12.663349
_cell_angle_alpha 90.000000
_cell_angle_beta 90.000000
_cell_angle_gamma 90.000000
_cell_volume 1943.232192
_symmetry_space_group_name_H-M "P M M A"
_symmetry_group_IT_number 51
_symmetry_cell_setting 'orthorhombic'
loop_
_space_group_symop_operation_xyz
x,y,z
1/2-x,-y,z
1/2+x,-y,-z
-x,y,-z
-x,-y,-z
1/2+x,y,-z
1/2-x,y,z
x,-y,z
loop_
_atom_site_type_symbol
_atom_site_label
_atom_site_fract_x
_atom_site_fract_y
_atom_site_fract_z
Si Si1 0.664352 0.181396 0.484128
Si Si2 0.334455 0.681090 0.116857
Si Si3 0.078135 0.818119 0.307893
Si Si4 0.580366 0.319639 0.295312
Si Si5 0.164101 0.181514 0.895816
O O1 0.750000 0.213511 0.510793
O O2 0.616574 0.237317 0.584112
O O3 0.642176 0.282746 0.382941
O O4 0.649732 0.000000 0.457824
O O5 0.250000 0.724143 0.149742
O O6 0.341573 0.500000 0.086541
O O7 0.388923 0.718772 0.212333
O O8 0.359398 0.781761 0.015696
O O9 0.990814 0.787732 0.317894
O O10 0.094076 0.000000 0.286902
O O11 0.556734 0.500000 0.300732
O O12 0.613516 0.284383 0.180593
O O13 0.250000 0.227608 0.877812
O O14 0.150107 0.000000 0.871571
#
# Coordination Sequence:
#
# PCOD8214019 Si02
#       5
#     8   8   8   8   8
#     4  10  22  41  64  88 115 151 196 242 288 345
#     4  10  21  38  61  90 123 155 191 240 295 348
#     4  11  23  40  62  87 118 157 200 242 287 344
#     4  12  25  39  58  87 122 156 193 241 298 352
#     4  10  21  39  63  88 116 154 200 244 287 344
#
# _framework density 20.584261000000001
#
# number of rings (size 3 to 8) (size 9 to 14) (size 15 to 20)
#    0.000    1.400    0.000    5.400    0.000   10.800 
#    0.000    4.000    0.000    0.000    0.000    0.000 
#    0.000    0.000    0.000    0.000    0.000    0.000 
#
# Total GULP energy -496346.718587 kJ/mol
# GULP energy per Si atom -12408.667965 kJ/mol
# Density = 2.053741 g / cm^3
# Si number density = 20.584261 Si / 1000 Ang^3
#
#
#
# Elastic Constant Matrix: (Units=GPa)
#
#
# Indices 1 2 3 4 5 6 
#
# 1 82.9382 15.8957 37.2091 0.0000 0.0000 0.0000
# 2 15.8957 58.7301 22.4194 0.0000 0.0000 0.0000
# 3 37.2091 22.4194 102.9650 0.0000 0.0000 0.0000
# 4 0.0000 0.0000 0.0000 29.1931 0.0000 0.0000
# 5 0.0000 0.0000 0.0000 0.0000 20.8696 0.0000
# 6 0.0000 0.0000 0.0000 0.0000 0.0000 29.0350
#
#
#
# Elastic Compliance Matrix: (Units=1/GPa)
#
#
# Indices 1 2 3 4 5 6 
#
# 1 0.014628 -0.002117 -0.004825 0.000000 0.000000 0.000000
# 2 -0.002117 0.018877 -0.003345 0.000000 0.000000 0.000000
# 3 -0.004825 -0.003345 0.012184 0.000000 0.000000 0.000000
# 4 0.000000 0.000000 0.000000 0.034255 0.000000 0.000000
# 5 0.000000 0.000000 0.000000 0.000000 0.047917 0.000000
# 6 0.000000 0.000000 0.000000 0.000000 0.000000 0.034441
#
#
# Mechanical properties :
#
#
# Convention : Reuss Voigt Hill
#
# Bulk Modulus (GPa) = 39.81852 43.96462 41.89157
# Shear Modulus (GPa) = 26.14414 27.09348 26.61881
#
# Velocity S-wave (km/s) = 3.56772 3.63191 3.59996
# Velocity P-wave (km/s) = 6.02973 6.24440 6.13800
#
# Compressibility (1/GPa) = 0.02511394
#
# Stress axis : x y z
#
# Youngs Moduli (GPa) = 68.36367 52.97442 82.07428
#
# Poissons Ratio (x) = 0.11216 0.39602
# Poissons Ratio (y) = 0.14474 0.27455
# Poissons Ratio (z) = 0.32986 0.17721
#
# Static dielectric constant tensor:
#      x y z
#    x 3.665280 0.000000 0.000000 
#    y 0.000000 3.659730 0.000000 
#    z 0.000000 0.000000 3.711050 
# 
# 
# High freq. dielectric constant tensor:
#      x y z
#    x 1.806980 0.000000 0.000000 
#    y 0.000000 1.806560 0.000000 
#    z 0.000000 0.000000 1.815110 
# 
# From -- ./inp_files/17051.got.cif
#   From: 2010.03.12/outbox.cif.g09.slc.cpg/sg51_9_cif.got.tgz:17051.got - 2010.04.16 13:43:02.
