data_PCOD8214026
_publ_section_title
;
Structure prediction by ZEFSAII (Michael W. Deem and Ramdas Pophale) SiO2 
 PCOD8214026
Probable space group: P M M A
;
_chemical_formula_sum "Si O2"
_cell_formula_units_Z 48
_cell_length_a 15.770266
_cell_length_b 8.870386
_cell_length_c 16.846078
_cell_angle_alpha 90.000000
_cell_angle_beta 90.000000
_cell_angle_gamma 90.000000
_cell_volume 2356.570001
_symmetry_space_group_name_H-M "P M M A"
_symmetry_group_IT_number 51
_symmetry_cell_setting 'orthorhombic'
loop_
_space_group_symop_operation_xyz
x,y,z
1/2-x,-y,z
1/2+x,-y,-z
-x,y,-z
-x,-y,-z
1/2+x,y,-z
1/2-x,y,z
x,-y,z
loop_
_atom_site_type_symbol
_atom_site_label
_atom_site_fract_x
_atom_site_fract_y
_atom_site_fract_z
Si Si1 0.650894 0.327522 0.508742
Si Si2 0.504982 0.821909 0.909813
Si Si3 0.410149 0.322923 0.664344
Si Si4 0.413593 0.177148 0.337958
Si Si5 0.154437 0.325032 0.189178
Si Si6 0.843482 0.173742 0.190128
O O1 0.750000 0.305560 0.519265
O O2 0.623526 0.500000 0.523310
O O3 0.624155 0.274324 0.421509
O O4 0.603194 0.224345 0.571709
O O5 0.587094 0.750137 0.869295
O O6 0.416998 0.769637 0.869176
O O7 0.516629 0.000000 0.904875
O O8 0.500000 0.765094 0.000000
O O9 0.428553 0.500000 0.667796
O O10 0.493307 0.229441 0.686859
O O11 0.342356 0.275116 0.730458
O O12 0.348456 0.254190 0.277293
O O13 0.404998 0.000000 0.329275
O O14 0.250000 0.299969 0.156321
O O15 0.132327 0.500000 0.196420
O O16 0.750000 0.193582 0.150521
O O17 0.859044 0.000000 0.213328
#
# Coordination Sequence:
#
# PCOD8214026 Si02
#       6
#     8   8   8   8   8   8
#     4  10  22  39  57  82 118 159 206 255 303 361
#     4  10  22  41  66  96 129 165 205 251 307 372
#     4  11  22  38  61  87 118 161 209 255 306 363
#     4  12  24  38  59  88 121 160 207 257 313 368
#     4  11  24  42  65  93 126 166 210 258 312 368
#     4  10  21  38  61  91 127 165 205 253 308 366
#
# _framework density 20.368587000000002
#
# number of rings (size 3 to 8) (size 9 to 14) (size 15 to 20)
#    0.000    1.333    1.667    4.000    0.000    9.000 
#    0.000    1.667    0.000    0.000    0.000    0.000 
#    0.000    0.000    0.000    0.000    0.000    0.000 
#
# Total GULP energy -595371.348832 kJ/mol
# GULP energy per Si atom -12403.569767 kJ/mol
# Density = 2.032223 g / cm^3
# Si number density = 20.368587 Si / 1000 Ang^3
#
#
#
# Elastic Constant Matrix: (Units=GPa)
#
#
# Indices 1 2 3 4 5 6 
#
# 1 121.9299 36.1673 54.4091 0.0000 0.0000 0.0000
# 2 36.1673 66.3758 42.6405 0.0000 0.0000 0.0000
# 3 54.4091 42.6405 139.2433 0.0000 0.0000 0.0000
# 4 0.0000 0.0000 0.0000 28.3985 0.0000 0.0000
# 5 0.0000 0.0000 0.0000 0.0000 22.9942 0.0000
# 6 0.0000 0.0000 0.0000 0.0000 0.0000 30.0454
#
#
#
# Elastic Compliance Matrix: (Units=1/GPa)
#
#
# Indices 1 2 3 4 5 6 
#
# 1 0.010691 -0.003911 -0.002980 0.000000 0.000000 0.000000
# 2 -0.003911 0.020186 -0.004653 0.000000 0.000000 0.000000
# 3 -0.002980 -0.004653 0.009771 0.000000 0.000000 0.000000
# 4 0.000000 0.000000 0.000000 0.035213 0.000000 0.000000
# 5 0.000000 0.000000 0.000000 0.000000 0.043489 0.000000
# 6 0.000000 0.000000 0.000000 0.000000 0.000000 0.033283
#
#
# Mechanical properties :
#
#
# Convention : Reuss Voigt Hill
#
# Bulk Modulus (GPa) = 56.94852 65.99807 61.47329
# Shear Modulus (GPa) = 27.53665 29.24308 28.38986
#
# Velocity S-wave (km/s) = 3.68083 3.79317 3.73742
# Velocity P-wave (km/s) = 6.78855 7.18724 6.99074
#
# Compressibility (1/GPa) = 0.01755972
#
# Stress axis : x y z
#
# Youngs Moduli (GPa) = 93.53378 49.53865 102.34324
#
# Poissons Ratio (x) = 0.19376 0.30497
# Poissons Ratio (y) = 0.36584 0.47624
# Poissons Ratio (z) = 0.27872 0.23052
#
# Static dielectric constant tensor:
#      x y z
#    x 3.806850 0.000000 0.000000 
#    y 0.000000 3.594070 0.000000 
#    z 0.000000 0.000000 3.741250 
# 
# 
# High freq. dielectric constant tensor:
#      x y z
#    x 1.810570 0.000000 0.000000 
#    y 0.000000 1.790940 0.000000 
#    z 0.000000 0.000000 1.793760 
# 
# From -- ./inp_files/29393.got.cif
#   From: 2010.03.12/outbox.cif.g09.slc.cpg/sg51_15_cif.got.tgz:29393.got - 2010.04.16 13:43:02.
