data_PCOD8214418
_publ_section_title
;
Structure prediction by ZEFSAII (Michael W. Deem and Ramdas Pophale) SiO2 
 PCOD8214418
Probable space group: P M M A
;
_chemical_formula_sum "Si O2"
_cell_formula_units_Z 48
_cell_length_a 14.305773
_cell_length_b 13.785411
_cell_length_c 15.358548
_cell_angle_alpha 90.000000
_cell_angle_beta 90.000000
_cell_angle_gamma 90.000000
_cell_volume 3028.874003
_symmetry_space_group_name_H-M "P M M A"
_symmetry_group_IT_number 51
_symmetry_cell_setting 'orthorhombic'
loop_
_space_group_symop_operation_xyz
x,y,z
1/2-x,-y,z
1/2+x,-y,-z
-x,y,-z
-x,-y,-z
1/2+x,y,-z
1/2-x,y,z
x,-y,z
loop_
_atom_site_type_symbol
_atom_site_label
_atom_site_fract_x
_atom_site_fract_y
_atom_site_fract_z
Si Si1 0.022888 0.266160 0.316768
Si Si2 0.852975 0.386016 0.005366
Si Si3 0.494305 0.385024 0.142558
Si Si4 0.854401 0.774172 0.432877
Si Si5 0.360038 0.110241 0.395947
Si Si6 0.354192 0.609689 0.438388
O O1 0.008490 0.311958 0.222809
O O2 0.092242 0.173395 0.319238
O O3 0.066785 0.351209 0.374541
O O4 0.924274 0.224979 0.351873
O O5 0.750000 0.336787 0.008215
O O6 0.842419 0.500000 0.006917
O O7 0.912370 0.356084 0.089920
O O8 0.904968 0.357771 0.916216
O O9 0.493856 0.500000 0.168317
O O10 0.750000 0.802276 0.400592
O O11 0.887987 0.847629 0.509117
O O12 0.855879 0.665725 0.470579
O O13 0.250000 0.119208 0.382502
O O14 0.395000 0.000000 0.389467
O O15 0.250000 0.620217 0.396057
O O16 0.378727 0.500000 0.460602
#
# Coordination Sequence:
#
# PCOD8214418 Si02
#       6
#     8   8   8   8   8   8
#     4  11  19  27  44  67  90 113 143 185 227 264
#     4   8  15  30  48  62  84 120 153 180 214 258
#     4   9  18  29  42  67  95 116 146 182 216 262
#     4   9  19  31  41  59  86 118 155 186 214 256
#     4   9  18  33  50  66  87 116 151 190 227 262
#     4   9  17  28  40  56  83 118 151 179 210 254
#
# _framework density 15.847474
#
# number of rings (size 3 to 8) (size 9 to 14) (size 15 to 20)
#    0.000    2.833    0.000    5.000    0.000    5.333 
#    0.000    1.667    0.000    0.000    0.000    2.333 
#    0.000    1.333    0.000    0.000    0.000    0.000 
#
# Total GULP energy -594850.024990 kJ/mol
# GULP energy per Si atom -12392.708854 kJ/mol
# Density = 1.581140 g / cm^3
# Si number density = 15.847474 Si / 1000 Ang^3
#
#
#
# Elastic Constant Matrix: (Units=GPa)
#
#
# Indices 1 2 3 4 5 6 
#
# 1 105.3158 27.6001 50.6177 0.0000 0.0000 0.0000
# 2 27.6001 99.6216 40.3476 0.0000 0.0000 0.0000
# 3 50.6177 40.3476 93.2554 0.0000 0.0000 0.0000
# 4 0.0000 0.0000 0.0000 18.1229 0.0000 0.0000
# 5 0.0000 0.0000 0.0000 0.0000 12.2732 0.0000
# 6 0.0000 0.0000 0.0000 0.0000 0.0000 16.1806
#
#
#
# Elastic Compliance Matrix: (Units=1/GPa)
#
#
# Indices 1 2 3 4 5 6 
#
# 1 0.012912 -0.000896 -0.006621 0.000000 0.000000 0.000000
# 2 -0.000896 0.012233 -0.004806 0.000000 0.000000 0.000000
# 3 -0.006621 -0.004806 0.016397 0.000000 0.000000 0.000000
# 4 0.000000 0.000000 0.000000 0.055179 0.000000 0.000000
# 5 0.000000 0.000000 0.000000 0.000000 0.081479 0.000000
# 6 0.000000 0.000000 0.000000 0.000000 0.000000 0.061802
#
#
# Mechanical properties :
#
#
# Convention : Reuss Voigt Hill
#
# Bulk Modulus (GPa) = 59.18829 59.48039 59.33434
# Shear Modulus (GPa) = 18.49937 21.29049 19.89493
#
# Velocity S-wave (km/s) = 3.42034 3.66930 3.54701
# Velocity P-wave (km/s) = 7.28204 7.45428 7.36866
#
# Compressibility (1/GPa) = 0.01689523
#
# Stress axis : x y z
#
# Youngs Moduli (GPa) = 77.44584 81.74754 60.98841
#
# Poissons Ratio (x) = 0.07323 0.40381
# Poissons Ratio (y) = 0.06937 0.29313
# Poissons Ratio (z) = 0.51277 0.39291
#
# Static dielectric constant tensor:
#      x y z
#    x 3.660810 0.000000 0.000000 
#    y 0.000000 2.931030 0.000000 
#    z 0.000000 0.000000 2.695880 
# 
# 
# High freq. dielectric constant tensor:
#      x y z
#    x 1.628070 0.000000 0.000000 
#    y 0.000000 1.583620 0.000000 
#    z 0.000000 0.000000 1.570760 
# 
# From -- ./inp_files/16435.got.cif
#   From: 2010.03.12/outbox.cif.g09.slc.cpg/sg51_9_cif.got.tgz:16435.got - 2010.04.16 13:43:02.
