data_PCOD8214233
_publ_section_title
;
Structure prediction by ZEFSAII (Michael W. Deem and Ramdas Pophale) SiO2 
 PCOD8214233
Probable space group: P M M A
;
_chemical_formula_sum "Si O2"
_cell_formula_units_Z 44
_cell_length_a 9.952955
_cell_length_b 7.646278
_cell_length_c 29.729624
_cell_angle_alpha 90.000000
_cell_angle_beta 90.000000
_cell_angle_gamma 90.000000
_cell_volume 2262.515384
_symmetry_space_group_name_H-M "P M M A"
_symmetry_group_IT_number 51
_symmetry_cell_setting 'orthorhombic'
loop_
_space_group_symop_operation_xyz
x,y,z
1/2-x,-y,z
1/2+x,-y,-z
-x,y,-z
-x,-y,-z
1/2+x,y,-z
1/2-x,y,z
x,-y,z
loop_
_atom_site_type_symbol
_atom_site_label
_atom_site_fract_x
_atom_site_fract_y
_atom_site_fract_z
Si Si1 0.404310 0.702199 0.887248
Si Si2 0.404131 0.000000 0.957670
Si Si3 0.900485 0.706151 0.808774
Si Si4 0.400101 0.792063 0.537074
Si Si5 0.600071 0.208129 0.362839
Si Si6 0.398730 0.202991 0.289596
O O1 0.250000 0.723215 0.871720
O O2 0.435957 0.500000 0.899937
O O3 0.434847 0.823948 0.929819
O O4 0.497929 0.772811 0.846960
O O5 0.250000 0.000000 0.973983
O O6 0.500000 0.000000 0.000000
O O7 0.750000 0.782123 0.817368
O O8 0.896283 0.500000 0.809373
O O9 0.955958 0.769177 0.760567
O O10 0.500000 0.709734 0.500000
O O11 0.250000 0.722961 0.527079
O O12 0.445374 0.732695 0.587111
O O13 0.401906 0.000000 0.534207
O O14 0.750000 0.279017 0.352826
O O15 0.498354 0.290502 0.326115
O O16 0.601145 0.000000 0.359733
O O17 0.250000 0.289272 0.293419
O O18 0.387937 0.000000 0.300382
#
# Coordination Sequence:
#
# PCOD8214233 Si02
#       6
#     8   4   8   8   8   8
#     4   9  19  36  55  76 105 137 169 209 252 294
#     4  10  22  38  56  82 110 138 174 212 251 296
#     4   9  18  32  49  70  96 126 160 197 238 284
#     4   8  13  20  30  45  67  98 136 175 216 265
#     4   8  14  24  35  50  76 108 142 180 222 272
#     4   9  17  27  40  61  87 115 147 185 227 272
#
# _framework density 19.447384
#
# number of rings (size 3 to 8) (size 9 to 14) (size 15 to 20)
#    0.000    3.273    0.000    1.091    1.273    2.545 
#    0.000    3.636    0.000    0.000    0.000    0.000 
#    0.000    0.727    0.000    1.636    0.000    3.273 
#
# Total GULP energy -545337.553195 kJ/mol
# GULP energy per Si atom -12394.035300 kJ/mol
# Density = 1.940312 g / cm^3
# Si number density = 19.447384 Si / 1000 Ang^3
#
#
#
# Elastic Constant Matrix: (Units=GPa)
#
#
# Indices 1 2 3 4 5 6 
#
# 1 128.2861 22.2175 121.0771 0.0000 0.0000 0.0000
# 2 22.2175 36.4289 29.8086 0.0000 0.0000 0.0000
# 3 121.0771 29.8086 183.0095 0.0000 0.0000 0.0000
# 4 0.0000 0.0000 0.0000 -23.9054 0.0000 0.0000
# 5 0.0000 0.0000 0.0000 0.0000 46.1966 0.0000
# 6 0.0000 0.0000 0.0000 0.0000 0.0000 8.9709
#
#
#
# Elastic Compliance Matrix: (Units=1/GPa)
#
#
# Indices 1 2 3 4 5 6 
#
# 1 0.020840 -0.001648 -0.013519 0.000000 0.000000 0.000000
# 2 -0.001648 0.031802 -0.004090 0.000000 0.000000 0.000000
# 3 -0.013519 -0.004090 0.015074 0.000000 0.000000 0.000000
# 4 0.000000 0.000000 0.000000 -0.041832 0.000000 0.000000
# 5 0.000000 0.000000 0.000000 0.000000 0.021647 0.000000
# 6 0.000000 0.000000 0.000000 0.000000 0.000000 0.111471
#
#
# Mechanical properties :
#
#
# Convention : Reuss Voigt Hill
#
# Bulk Modulus (GPa) = 34.24278 77.10343 55.67310
# Shear Modulus (GPa) = 24.12549 17.89385 21.00967
#
# Velocity S-wave (km/s) = 3.52597 3.03663 3.29041
# Velocity P-wave (km/s) = 5.85002 7.21305 6.56700
#
# Compressibility (1/GPa) = 0.02920324
#
# Stress axis : x y z
#
# Youngs Moduli (GPa) = 47.98534 31.44438 66.33792
#
# Poissons Ratio (x) = 0.05181 0.89682
# Poissons Ratio (y) = 0.07907 0.27131
# Poissons Ratio (z) = 0.64871 0.12860
#
# Static dielectric constant tensor:
#      x y z
#    x 4.015870 0.000000 0.000000 
#    y 0.000000 3.244890 0.000000 
#    z 0.000000 0.000000 3.614130 
# 
# 
# High freq. dielectric constant tensor:
#      x y z
#    x 1.755120 0.000000 0.000000 
#    y 0.000000 1.733050 0.000000 
#    z 0.000000 0.000000 1.750910 
# 
# From -- ./inp_files/36724.got.cif
#   From: 2010.03.12/outbox.cif.g09.slc.cpg/sg51_19_cif.got.tgz:36724.got - 2010.04.16 13:43:02.
