data_PCOD8214473
_publ_section_title
;
Structure prediction by ZEFSAII (Michael W. Deem and Ramdas Pophale) SiO2 
 PCOD8214473
Probable space group: P M M A
;
_chemical_formula_sum "Si O2"
_cell_formula_units_Z 40
_cell_length_a 8.978329
_cell_length_b 18.931480
_cell_length_c 13.717666
_cell_angle_alpha 90.000000
_cell_angle_beta 90.000000
_cell_angle_gamma 90.000000
_cell_volume 2331.633610
_symmetry_space_group_name_H-M "P M M A"
_symmetry_group_IT_number 51
_symmetry_cell_setting 'orthorhombic'
loop_
_space_group_symop_operation_xyz
x,y,z
1/2-x,-y,z
1/2+x,-y,-z
-x,y,-z
-x,-y,-z
1/2+x,y,-z
1/2-x,y,z
x,-y,z
loop_
_atom_site_type_symbol
_atom_site_label
_atom_site_fract_x
_atom_site_fract_y
_atom_site_fract_z
Si Si1 0.423099 0.580084 0.227315
Si Si2 0.577914 0.709249 0.900025
Si Si3 0.923979 0.921553 0.600002
Si Si4 0.426920 0.342605 0.602056
Si Si5 0.424220 0.216113 0.293541
O O1 0.250000 0.592449 0.254419
O O2 0.454527 0.500000 0.194445
O O3 0.468947 0.631388 0.138194
O O4 0.521843 0.598169 0.321070
O O5 0.750000 0.711897 0.923418
O O6 0.533517 0.767240 0.818366
O O7 0.500000 0.729053 0.000000
O O8 0.750000 0.921450 0.579360
O O9 0.965057 0.865404 0.684304
O O10 0.000000 0.897846 0.500000
O O11 0.977802 0.000000 0.632650
O O12 0.500000 0.363385 0.500000
O O13 0.250000 0.342643 0.592789
O O14 0.482068 0.265333 0.634320
O O15 0.250000 0.232184 0.311760
#
# Coordination Sequence:
#
# PCOD8214473 Si02
#       5
#     8   8   8   8   8
#     4   9  19  36  53  69  93 123 155 194 239 285
#     4   9  18  32  50  71  93 120 155 196 240 283
#     4   9  17  29  47  72 100 129 159 191 230 276
#     4  11  21  32  48  70  96 127 162 196 232 278
#     4   9  18  33  50  69  96 127 160 198 237 279
#
# _framework density 17.155353999999999
#
# number of rings (size 3 to 8) (size 9 to 14) (size 15 to 20)
#    0.000    2.600    0.000    3.600    0.000    6.800 
#    0.000    0.000    0.000    0.600    0.000    0.000 
#    0.000    0.000    0.000    0.000    0.000    0.400 
#
# Total GULP energy -495931.825981 kJ/mol
# GULP energy per Si atom -12398.295650 kJ/mol
# Density = 1.711631 g / cm^3
# Si number density = 17.155354 Si / 1000 Ang^3
#
#
#
# Elastic Constant Matrix: (Units=GPa)
#
#
# Indices 1 2 3 4 5 6 
#
# 1 62.4548 27.1223 39.6762 0.0000 0.0000 0.0000
# 2 27.1223 127.9996 59.8347 0.0000 0.0000 0.0000
# 3 39.6762 59.8347 117.9895 0.0000 0.0000 0.0000
# 4 0.0000 0.0000 0.0000 18.0844 0.0000 0.0000
# 5 0.0000 0.0000 0.0000 0.0000 30.5946 0.0000
# 6 0.0000 0.0000 0.0000 0.0000 0.0000 20.8340
#
#
#
# Elastic Compliance Matrix: (Units=1/GPa)
#
#
# Indices 1 2 3 4 5 6 
#
# 1 0.020572 -0.001475 -0.006170 0.000000 0.000000 0.000000
# 2 -0.001475 0.010346 -0.004751 0.000000 0.000000 0.000000
# 3 -0.006170 -0.004751 0.012959 0.000000 0.000000 0.000000
# 4 0.000000 0.000000 0.000000 0.055296 0.000000 0.000000
# 5 0.000000 0.000000 0.000000 0.000000 0.032685 0.000000
# 6 0.000000 0.000000 0.000000 0.000000 0.000000 0.047998
#
#
# Mechanical properties :
#
#
# Convention : Reuss Voigt Hill
#
# Bulk Modulus (GPa) = 52.39397 62.41227 57.40312
# Shear Modulus (GPa) = 23.69571 26.02332 24.85952
#
# Velocity S-wave (km/s) = 3.72054 3.89899 3.81081
# Velocity P-wave (km/s) = 7.00455 7.53188 7.27299
#
# Compressibility (1/GPa) = 0.01908616
#
# Stress axis : x y z
#
# Youngs Moduli (GPa) = 48.61091 96.65804 77.16608
#
# Poissons Ratio (x) = 0.14256 0.47608
# Poissons Ratio (y) = 0.07170 0.36658
# Poissons Ratio (z) = 0.29991 0.45918
#
# Static dielectric constant tensor:
#      x y z
#    x 3.111880 0.000000 0.000000 
#    y 0.000000 3.391730 0.000000 
#    z 0.000000 0.000000 3.122230 
# 
# 
# High freq. dielectric constant tensor:
#      x y z
#    x 1.658530 0.000000 0.000000 
#    y 0.000000 1.659470 0.000000 
#    z 0.000000 0.000000 1.648120 
# 
# From -- ./inp_files/14029.got.cif
#   From: 2010.03.12/outbox.cif.g09.slc.cpg/sg51_8_cif.got.tgz:14029.got - 2010.04.16 13:43:02.
