data_PCOD8214291
_publ_section_title
;
Structure prediction by ZEFSAII (Michael W. Deem and Ramdas Pophale) SiO2 
 PCOD8214291
Probable space group: P M M A
;
_chemical_formula_sum "Si O2"
_cell_formula_units_Z 52
_cell_length_a 8.640624
_cell_length_b 23.564670
_cell_length_c 14.392683
_cell_angle_alpha 90.000000
_cell_angle_beta 90.000000
_cell_angle_gamma 90.000000
_cell_volume 2930.543886
_symmetry_space_group_name_H-M "P M M A"
_symmetry_group_IT_number 51
_symmetry_cell_setting 'orthorhombic'
loop_
_space_group_symop_operation_xyz
x,y,z
1/2-x,-y,z
1/2+x,-y,-z
-x,y,-z
-x,-y,-z
1/2+x,y,-z
1/2-x,y,z
x,-y,z
loop_
_atom_site_type_symbol
_atom_site_label
_atom_site_fract_x
_atom_site_fract_y
_atom_site_fract_z
Si Si1 0.072298 0.563569 0.772310
Si Si2 0.933184 0.734890 0.402909
Si Si3 0.567509 0.332204 0.102343
Si Si4 0.067106 0.122193 0.102071
Si Si5 0.068446 0.000000 0.100803
Si Si6 0.568150 0.388641 0.595365
Si Si7 0.933732 0.228610 0.782016
O O1 0.250000 0.574302 0.743722
O O2 0.047598 0.500000 0.811488
O O3 0.021789 0.607427 0.852293
O O4 0.967961 0.569845 0.680494
O O5 0.750000 0.736882 0.405437
O O6 0.000000 0.758027 0.500000
O O7 0.987897 0.671115 0.383461
O O8 0.996979 0.774393 0.321114
O O9 0.750000 0.323078 0.098153
O O10 0.493956 0.283145 0.163758
O O11 0.500000 0.329989 0.000000
O O12 0.250000 0.126831 0.093186
O O13 0.017577 0.060367 0.146906
O O14 0.004302 0.171782 0.168085
O O15 0.000000 0.131077 0.000000
O O16 0.250000 0.000000 0.090724
O O17 0.000000 0.000000 0.000000
O O18 0.500000 0.414880 0.500000
O O19 0.750000 0.379381 0.584221
O O20 0.750000 0.231368 0.776940
#
# Coordination Sequence:
#
# PCOD8214291 Si02
#       7
#     8   8   8   8   4   8   8
#     4  10  22  40  58  76 101 134 174 216 260 312
#     4  11  21  35  55  79 106 137 169 208 258 312
#     4  11  23  38  56  76 102 136 173 216 263 309
#     4   9  18  30  48  74 107 144 182 217 256 299
#     4   8  14  28  46  68 101 142 181 218 253 296
#     4  11  21  35  57  81 106 134 166 207 257 314
#     4  11  21  34  53  80 109 138 173 215 259 309
#
# _framework density 17.744146000000001
#
# number of rings (size 3 to 8) (size 9 to 14) (size 15 to 20)
#    0.000    1.692    1.538    5.077    0.000    4.000 
#    0.000    0.000    0.000    0.000    0.000    0.538 
#    0.000    0.000    0.000    0.000    0.000    0.000 
#
# Total GULP energy -644672.889445 kJ/mol
# GULP energy per Si atom -12397.555566 kJ/mol
# Density = 1.770376 g / cm^3
# Si number density = 17.744146 Si / 1000 Ang^3
#
#
#
# Elastic Constant Matrix: (Units=GPa)
#
#
# Indices 1 2 3 4 5 6 
#
# 1 87.3366 40.3742 40.6601 0.0000 0.0000 0.0000
# 2 40.3742 133.6213 63.9500 0.0000 0.0000 0.0000
# 3 40.6601 63.9500 122.7893 0.0000 0.0000 0.0000
# 4 0.0000 0.0000 0.0000 19.6339 0.0000 0.0000
# 5 0.0000 0.0000 0.0000 0.0000 30.2717 0.0000
# 6 0.0000 0.0000 0.0000 0.0000 0.0000 13.6680
#
#
#
# Elastic Compliance Matrix: (Units=1/GPa)
#
#
# Indices 1 2 3 4 5 6 
#
# 1 0.014245 -0.002726 -0.003297 0.000000 0.000000 0.000000
# 2 -0.002726 0.010490 -0.004561 0.000000 0.000000 0.000000
# 3 -0.003297 -0.004561 0.011611 0.000000 0.000000 0.000000
# 4 0.000000 0.000000 0.000000 0.050932 0.000000 0.000000
# 5 0.000000 0.000000 0.000000 0.000000 0.033034 0.000000
# 6 0.000000 0.000000 0.000000 0.000000 0.000000 0.073163
#
#
# Mechanical properties :
#
#
# Convention : Reuss Voigt Hill
#
# Bulk Modulus (GPa) = 65.88350 70.41285 68.14817
# Shear Modulus (GPa) = 22.75785 25.96560 24.36173
#
# Velocity S-wave (km/s) = 3.58516 3.82950 3.70935
# Velocity P-wave (km/s) = 7.37212 7.70207 7.53890
#
# Compressibility (1/GPa) = 0.01517831
#
# Stress axis : x y z
#
# Youngs Moduli (GPa) = 70.19852 95.32630 86.12411
#
# Poissons Ratio (x) = 0.25988 0.28398
# Poissons Ratio (y) = 0.19138 0.39279
# Poissons Ratio (z) = 0.23147 0.43475
#
# Static dielectric constant tensor:
#      x y z
#    x 3.331940 0.000000 0.000000 
#    y 0.000000 3.653580 0.000000 
#    z 0.000000 0.000000 3.321390 
# 
# 
# High freq. dielectric constant tensor:
#      x y z
#    x 1.696940 0.000000 0.000000 
#    y 0.000000 1.678740 0.000000 
#    z 0.000000 0.000000 1.675820 
# 
# From -- ./inp_files/21573.got.cif
#   From: 2010.03.12/outbox.cif.g09.slc.cpg/sg51_11_cif.got.tgz:21573.got - 2010.04.16 13:43:02.
